MODEL 1
REMARK VINA RESULT:    -7.159      0.000      0.000
REMARK INTER + INTRA:          -8.099
REMARK INTER:                  -8.624
REMARK INTRA:                   0.524
REMARK UNBOUND:                 0.524
REMARK SMILES Oc1cc(O)c2c(c1)O[C@@H](c1ccc(O)c(O)c1)[C@@H](O)C2
REMARK SMILES IDX 21 1 19 2 10 3 9 4 7 5 8 6 2 7 3 8 4 9 6 10 20 11 11 13
REMARK SMILES IDX 18 14 12 15 16 16 13 17 14 18 17 19 15 21 5 23 1 25
REMARK H PARENT 20 12 17 20 15 22 5 24 1 26
REMARK Flexibility Score: inf
ROOT
ATOM      1  C   UNL     1      12.520  -9.375  24.162  1.00  0.00     0.079 C 
ATOM      2  C   UNL     1      13.232  -8.347  23.265  1.00  0.00     0.164 C 
ATOM      3  C   UNL     1      13.030  -8.670  21.771  1.00  0.00     0.232 C 
ATOM      4  O   UNL     1      13.401 -10.025  21.502  1.00  0.00    -0.482 OA
ATOM      5  C   UNL     1      13.266 -11.061  22.436  1.00  0.00     0.131 A 
ATOM      6  C   UNL     1      13.568 -12.367  22.042  1.00  0.00     0.093 A 
ATOM      7  C   UNL     1      13.415 -13.428  22.939  1.00  0.00     0.122 A 
ATOM      8  C   UNL     1      12.943 -13.183  24.230  1.00  0.00     0.092 A 
ATOM      9  C   UNL     1      12.630 -11.882  24.641  1.00  0.00     0.126 A 
ATOM     10  C   UNL     1      12.829 -10.798  23.753  1.00  0.00     0.039 A 
ENDROOT
BRANCH   2  11
ATOM     11  O   UNL     1      12.773  -7.050  23.549  1.00  0.00    -0.389 OA
ATOM     12  H   UNL     1      12.556  -7.028  24.518  1.00  0.00     0.211 HD
ENDBRANCH   2  11
BRANCH   3  13
ATOM     13  C   UNL     1      11.617  -8.377  21.289  1.00  0.00    -0.001 A 
ATOM     14  C   UNL     1      10.635  -7.843  22.146  1.00  0.00     0.057 A 
ATOM     15  C   UNL     1      11.289  -8.604  19.942  1.00  0.00     0.012 A 
ATOM     16  C   UNL     1       9.351  -7.556  21.670  1.00  0.00     0.157 A 
ATOM     17  C   UNL     1      10.008  -8.320  19.465  1.00  0.00     0.050 A 
ATOM     18  C   UNL     1       9.034  -7.796  20.323  1.00  0.00     0.157 A 
BRANCH  16  19
ATOM     19  O   UNL     1       8.405  -7.031  22.550  1.00  0.00    -0.504 OA
ATOM     20  H   UNL     1       7.725  -7.616  23.021  1.00  0.00     0.293 HD
ENDBRANCH  16  19
BRANCH  18  21
ATOM     21  O   UNL     1       7.756  -7.512  19.843  1.00  0.00    -0.504 OA
ATOM     22  H   UNL     1       7.098  -6.960  20.382  1.00  0.00     0.293 HD
ENDBRANCH  18  21
ENDBRANCH   3  13
BRANCH   9  23
ATOM     23  O   UNL     1      12.113 -11.708  25.927  1.00  0.00    -0.507 OA
ATOM     24  H   UNL     1      11.227 -12.093  26.227  1.00  0.00     0.293 HD
ENDBRANCH   9  23
BRANCH   7  25
ATOM     25  O   UNL     1      13.719 -14.733  22.554  1.00  0.00    -0.508 OA
ATOM     26  H   UNL     1      13.992 -15.435  23.231  1.00  0.00     0.293 HD
ENDBRANCH   7  25
TORSDOF 6
ENDMDL
MODEL 2
REMARK VINA RESULT:    -6.891      1.628      6.077
REMARK INTER + INTRA:          -7.776
REMARK INTER:                  -7.914
REMARK INTRA:                   0.138
REMARK UNBOUND:                 0.524
REMARK SMILES Oc1cc(O)c2c(c1)O[C@@H](c1ccc(O)c(O)c1)[C@@H](O)C2
REMARK SMILES IDX 21 1 19 2 10 3 9 4 7 5 8 6 2 7 3 8 4 9 6 10 20 11 11 13
REMARK SMILES IDX 18 14 12 15 16 16 13 17 14 18 17 19 15 21 5 23 1 25
REMARK H PARENT 20 12 17 20 15 22 5 24 1 26
REMARK Flexibility Score: inf
ROOT
ATOM      1  C   UNL     1      13.835  -8.720  22.204  1.00  0.00     0.079 C 
ATOM      2  C   UNL     1      14.259  -9.276  23.574  1.00  0.00     0.164 C 
ATOM      3  C   UNL     1      13.237 -10.302  24.103  1.00  0.00     0.232 C 
ATOM      4  O   UNL     1      11.920  -9.745  24.090  1.00  0.00    -0.482 OA
ATOM      5  C   UNL     1      11.494  -8.800  23.146  1.00  0.00     0.131 A 
ATOM      6  C   UNL     1      10.158  -8.390  23.160  1.00  0.00     0.093 A 
ATOM      7  C   UNL     1       9.692  -7.472  22.213  1.00  0.00     0.122 A 
ATOM      8  C   UNL     1      10.561  -6.977  21.241  1.00  0.00     0.092 A 
ATOM      9  C   UNL     1      11.901  -7.380  21.207  1.00  0.00     0.126 A 
ATOM     10  C   UNL     1      12.391  -8.271  22.192  1.00  0.00     0.039 A 
ENDROOT
BRANCH   2  11
ATOM     11  O   UNL     1      15.535  -9.856  23.493  1.00  0.00    -0.389 OA
ATOM     12  H   UNL     1      15.410 -10.777  23.141  1.00  0.00     0.211 HD
ENDBRANCH   2  11
BRANCH   3  13
ATOM     13  C   UNL     1      13.287 -11.625  23.354  1.00  0.00    -0.001 A 
ATOM     14  C   UNL     1      13.263 -11.684  21.947  1.00  0.00     0.057 A 
ATOM     15  C   UNL     1      13.401 -12.823  24.079  1.00  0.00     0.012 A 
ATOM     16  C   UNL     1      13.337 -12.913  21.282  1.00  0.00     0.157 A 
ATOM     17  C   UNL     1      13.475 -14.050  23.418  1.00  0.00     0.050 A 
ATOM     18  C   UNL     1      13.443 -14.103  22.020  1.00  0.00     0.157 A 
BRANCH  16  19
ATOM     19  O   UNL     1      13.307 -12.930  19.887  1.00  0.00    -0.504 OA
ATOM     20  H   UNL     1      13.622 -12.144  19.332  1.00  0.00     0.293 HD
ENDBRANCH  16  19
BRANCH  18  21
ATOM     21  O   UNL     1      13.518 -15.330  21.362  1.00  0.00    -0.504 OA
ATOM     22  H   UNL     1      13.819 -16.171  21.840  1.00  0.00     0.293 HD
ENDBRANCH  18  21
ENDBRANCH   3  13
BRANCH   9  23
ATOM     23  O   UNL     1      12.708  -6.889  20.178  1.00  0.00    -0.507 OA
ATOM     24  H   UNL     1      13.623  -7.262  19.962  1.00  0.00     0.293 HD
ENDBRANCH   9  23
BRANCH   7  25
ATOM     25  O   UNL     1       8.362  -7.055  22.225  1.00  0.00    -0.508 OA
ATOM     26  H   UNL     1       7.605  -7.691  22.002  1.00  0.00     0.293 HD
ENDBRANCH   7  25
TORSDOF 6
ENDMDL
MODEL 3
REMARK VINA RESULT:    -6.662      6.106      8.280
REMARK INTER + INTRA:          -7.500
REMARK INTER:                  -7.587
REMARK INTRA:                   0.086
REMARK UNBOUND:                 0.524
REMARK SMILES Oc1cc(O)c2c(c1)O[C@@H](c1ccc(O)c(O)c1)[C@@H](O)C2
REMARK SMILES IDX 21 1 19 2 10 3 9 4 7 5 8 6 2 7 3 8 4 9 6 10 20 11 11 13
REMARK SMILES IDX 18 14 12 15 16 16 13 17 14 18 17 19 15 21 5 23 1 25
REMARK H PARENT 20 12 17 20 15 22 5 24 1 26
REMARK Flexibility Score: inf
ROOT
ATOM      1  C   UNL     1      13.551 -18.856  19.761  1.00  0.00     0.079 C 
ATOM      2  C   UNL     1      12.115 -18.368  20.021  1.00  0.00     0.164 C 
ATOM      3  C   UNL     1      12.109 -16.998  20.730  1.00  0.00     0.232 C 
ATOM      4  O   UNL     1      12.925 -17.042  21.904  1.00  0.00    -0.482 OA
ATOM      5  C   UNL     1      14.063 -17.852  22.021  1.00  0.00     0.131 A 
ATOM      6  C   UNL     1      14.846 -17.751  23.173  1.00  0.00     0.093 A 
ATOM      7  C   UNL     1      16.004 -18.522  23.309  1.00  0.00     0.122 A 
ATOM      8  C   UNL     1      16.389 -19.384  22.281  1.00  0.00     0.092 A 
ATOM      9  C   UNL     1      15.620 -19.495  21.117  1.00  0.00     0.126 A 
ATOM     10  C   UNL     1      14.420 -18.754  20.994  1.00  0.00     0.039 A 
ENDROOT
BRANCH   2  11
ATOM     11  O   UNL     1      11.397 -18.296  18.816  1.00  0.00    -0.389 OA
ATOM     12  H   UNL     1      10.821 -17.489  18.873  1.00  0.00     0.211 HD
ENDBRANCH   2  11
BRANCH   3  13
ATOM     13  C   UNL     1      12.520 -15.856  19.813  1.00  0.00    -0.001 A 
ATOM     14  C   UNL     1      11.624 -14.830  19.457  1.00  0.00     0.057 A 
ATOM     15  C   UNL     1      13.841 -15.797  19.337  1.00  0.00     0.012 A 
ATOM     16  C   UNL     1      12.036 -13.776  18.633  1.00  0.00     0.157 A 
ATOM     17  C   UNL     1      14.254 -14.747  18.515  1.00  0.00     0.050 A 
ATOM     18  C   UNL     1      13.357 -13.733  18.159  1.00  0.00     0.157 A 
BRANCH  16  19
ATOM     19  O   UNL     1      11.119 -12.779  18.300  1.00  0.00    -0.504 OA
ATOM     20  H   UNL     1      10.900 -12.549  17.338  1.00  0.00     0.293 HD
ENDBRANCH  16  19
BRANCH  18  21
ATOM     21  O   UNL     1      13.772 -12.685  17.338  1.00  0.00    -0.504 OA
ATOM     22  H   UNL     1      13.763 -11.724  17.660  1.00  0.00     0.293 HD
ENDBRANCH  18  21
ENDBRANCH   3  13
BRANCH   9  23
ATOM     23  O   UNL     1      16.085 -20.335  20.102  1.00  0.00    -0.507 OA
ATOM     24  H   UNL     1      16.179 -21.337  20.210  1.00  0.00     0.293 HD
ENDBRANCH   9  23
BRANCH   7  25
ATOM     25  O   UNL     1      16.788 -18.429  24.458  1.00  0.00    -0.508 OA
ATOM     26  H   UNL     1      16.381 -18.496  25.384  1.00  0.00     0.293 HD
ENDBRANCH   7  25
TORSDOF 6
ENDMDL
MODEL 4
REMARK VINA RESULT:    -6.580      5.732      8.789
REMARK INTER + INTRA:          -7.402
REMARK INTER:                  -7.387
REMARK INTRA:                  -0.015
REMARK UNBOUND:                 0.524
REMARK SMILES Oc1cc(O)c2c(c1)O[C@@H](c1ccc(O)c(O)c1)[C@@H](O)C2
REMARK SMILES IDX 21 1 19 2 10 3 9 4 7 5 8 6 2 7 3 8 4 9 6 10 20 11 11 13
REMARK SMILES IDX 18 14 12 15 16 16 13 17 14 18 17 19 15 21 5 23 1 25
REMARK H PARENT 20 12 17 20 15 22 5 24 1 26
REMARK Flexibility Score: inf
ROOT
ATOM      1  C   UNL     1      14.476 -17.633  19.590  1.00  0.00     0.079 C 
ATOM      2  C   UNL     1      13.606 -16.428  19.192  1.00  0.00     0.164 C 
ATOM      3  C   UNL     1      12.616 -16.057  20.315  1.00  0.00     0.232 C 
ATOM      4  O   UNL     1      11.862 -17.206  20.711  1.00  0.00    -0.482 OA
ATOM      5  C   UNL     1      12.369 -18.512  20.670  1.00  0.00     0.131 A 
ATOM      6  C   UNL     1      11.586 -19.555  21.170  1.00  0.00     0.093 A 
ATOM      7  C   UNL     1      12.074 -20.865  21.172  1.00  0.00     0.122 A 
ATOM      8  C   UNL     1      13.355 -21.130  20.687  1.00  0.00     0.092 A 
ATOM      9  C   UNL     1      14.157 -20.097  20.187  1.00  0.00     0.126 A 
ATOM     10  C   UNL     1      13.651 -18.777  20.137  1.00  0.00     0.039 A 
ENDROOT
BRANCH   2  11
ATOM     11  O   UNL     1      14.416 -15.325  18.873  1.00  0.00    -0.389 OA
ATOM     12  H   UNL     1      14.360 -14.697  19.641  1.00  0.00     0.211 HD
ENDBRANCH   2  11
BRANCH   3  13
ATOM     13  C   UNL     1      13.293 -15.400  21.507  1.00  0.00    -0.001 A 
ATOM     14  C   UNL     1      13.650 -16.133  22.656  1.00  0.00     0.057 A 
ATOM     15  C   UNL     1      13.612 -14.034  21.451  1.00  0.00     0.012 A 
ATOM     16  C   UNL     1      14.297 -15.510  23.729  1.00  0.00     0.157 A 
ATOM     17  C   UNL     1      14.258 -13.409  22.520  1.00  0.00     0.050 A 
ATOM     18  C   UNL     1      14.603 -14.141  23.662  1.00  0.00     0.157 A 
BRANCH  16  19
ATOM     19  O   UNL     1      14.631 -16.268  24.851  1.00  0.00    -0.504 OA
ATOM     20  H   UNL     1      15.576 -16.303  25.215  1.00  0.00     0.293 HD
ENDBRANCH  16  19
BRANCH  18  21
ATOM     21  O   UNL     1      15.248 -13.515  24.728  1.00  0.00    -0.504 OA
ATOM     22  H   UNL     1      14.995 -13.711  25.690  1.00  0.00     0.293 HD
ENDBRANCH  18  21
ENDBRANCH   3  13
BRANCH   9  23
ATOM     23  O   UNL     1      15.450 -20.417  19.765  1.00  0.00    -0.507 OA
ATOM     24  H   UNL     1      15.762 -20.320  18.808  1.00  0.00     0.293 HD
ENDBRANCH   9  23
BRANCH   7  25
ATOM     25  O   UNL     1      11.296 -21.912  21.666  1.00  0.00    -0.508 OA
ATOM     26  H   UNL     1      11.456 -22.871  21.382  1.00  0.00     0.293 HD
ENDBRANCH   7  25
TORSDOF 6
ENDMDL
MODEL 5
REMARK VINA RESULT:    -6.563      2.354      5.976
REMARK INTER + INTRA:          -7.381
REMARK INTER:                  -7.353
REMARK INTRA:                  -0.028
REMARK UNBOUND:                 0.524
REMARK SMILES Oc1cc(O)c2c(c1)O[C@@H](c1ccc(O)c(O)c1)[C@@H](O)C2
REMARK SMILES IDX 21 1 19 2 10 3 9 4 7 5 8 6 2 7 3 8 4 9 6 10 20 11 11 13
REMARK SMILES IDX 18 14 12 15 16 16 13 17 14 18 17 19 15 21 5 23 1 25
REMARK H PARENT 20 12 17 20 15 22 5 24 1 26
REMARK Flexibility Score: inf
ROOT
ATOM      1  C   UNL     1      15.025 -10.376  23.115  1.00  0.00     0.079 C 
ATOM      2  C   UNL     1      14.805 -11.574  24.055  1.00  0.00     0.164 C 
ATOM      3  C   UNL     1      13.438 -12.241  23.803  1.00  0.00     0.232 C 
ATOM      4  O   UNL     1      12.392 -11.266  23.857  1.00  0.00    -0.482 OA
ATOM      5  C   UNL     1      12.566  -9.929  23.476  1.00  0.00     0.131 A 
ATOM      6  C   UNL     1      11.457  -9.079  23.475  1.00  0.00     0.093 A 
ATOM      7  C   UNL     1      11.589  -7.747  23.071  1.00  0.00     0.122 A 
ATOM      8  C   UNL     1      12.831  -7.269  22.651  1.00  0.00     0.092 A 
ATOM      9  C   UNL     1      13.952  -8.106  22.640  1.00  0.00     0.126 A 
ATOM     10  C   UNL     1      13.836  -9.442  23.094  1.00  0.00     0.039 A 
ENDROOT
BRANCH   2  11
ATOM     11  O   UNL     1      15.840 -12.512  23.901  1.00  0.00    -0.389 OA
ATOM     12  H   UNL     1      15.642 -13.025  23.074  1.00  0.00     0.211 HD
ENDBRANCH   2  11
BRANCH   3  13
ATOM     13  C   UNL     1      13.395 -13.028  22.502  1.00  0.00    -0.001 A 
ATOM     14  C   UNL     1      13.247 -12.392  21.253  1.00  0.00     0.057 A 
ATOM     15  C   UNL     1      13.547 -14.423  22.536  1.00  0.00     0.012 A 
ATOM     16  C   UNL     1      13.238 -13.137  20.069  1.00  0.00     0.157 A 
ATOM     17  C   UNL     1      13.538 -15.170  21.356  1.00  0.00     0.050 A 
ATOM     18  C   UNL     1      13.383 -14.533  20.119  1.00  0.00     0.157 A 
BRANCH  16  19
ATOM     19  O   UNL     1      13.087 -12.472  18.852  1.00  0.00    -0.504 OA
ATOM     20  H   UNL     1      12.829 -12.958  18.002  1.00  0.00     0.293 HD
ENDBRANCH  16  19
BRANCH  18  21
ATOM     21  O   UNL     1      13.375 -15.280  18.941  1.00  0.00    -0.504 OA
ATOM     22  H   UNL     1      12.737 -16.056  18.811  1.00  0.00     0.293 HD
ENDBRANCH  18  21
ENDBRANCH   3  13
BRANCH   9  23
ATOM     23  O   UNL     1      15.156  -7.584  22.160  1.00  0.00    -0.507 OA
ATOM     24  H   UNL     1      15.212  -6.950  21.374  1.00  0.00     0.293 HD
ENDBRANCH   9  23
BRANCH   7  25
ATOM     25  O   UNL     1      10.487  -6.893  23.072  1.00  0.00    -0.508 OA
ATOM     26  H   UNL     1       9.553  -7.233  22.881  1.00  0.00     0.293 HD
ENDBRANCH   7  25
TORSDOF 6
ENDMDL
MODEL 6
REMARK VINA RESULT:    -6.489      7.361     10.515
REMARK INTER + INTRA:          -7.292
REMARK INTER:                  -7.277
REMARK INTRA:                  -0.015
REMARK UNBOUND:                 0.524
REMARK SMILES Oc1cc(O)c2c(c1)O[C@@H](c1ccc(O)c(O)c1)[C@@H](O)C2
REMARK SMILES IDX 21 1 19 2 10 3 9 4 7 5 8 6 2 7 3 8 4 9 6 10 20 11 11 13
REMARK SMILES IDX 18 14 12 15 16 16 13 17 14 18 17 19 15 21 5 23 1 25
REMARK H PARENT 20 12 17 20 15 22 5 24 1 26
REMARK Flexibility Score: inf
ROOT
ATOM      1  C   UNL     1      12.961 -16.401  20.613  1.00  0.00     0.079 C 
ATOM      2  C   UNL     1      12.718 -16.586  22.121  1.00  0.00     0.164 C 
ATOM      3  C   UNL     1      12.962 -18.045  22.554  1.00  0.00     0.232 C 
ATOM      4  O   UNL     1      12.204 -18.940  21.735  1.00  0.00    -0.482 OA
ATOM      5  C   UNL     1      11.899 -18.682  20.392  1.00  0.00     0.131 A 
ATOM      6  C   UNL     1      11.235 -19.663  19.651  1.00  0.00     0.093 A 
ATOM      7  C   UNL     1      10.942 -19.451  18.301  1.00  0.00     0.122 A 
ATOM      8  C   UNL     1      11.328 -18.259  17.686  1.00  0.00     0.092 A 
ATOM      9  C   UNL     1      11.998 -17.267  18.410  1.00  0.00     0.126 A 
ATOM     10  C   UNL     1      12.254 -17.455  19.789  1.00  0.00     0.039 A 
ENDROOT
BRANCH   2  11
ATOM     11  O   UNL     1      13.538 -15.715  22.858  1.00  0.00    -0.389 OA
ATOM     12  H   UNL     1      13.052 -15.506  23.699  1.00  0.00     0.211 HD
ENDBRANCH   2  11
BRANCH   3  13
ATOM     13  C   UNL     1      14.437 -18.419  22.566  1.00  0.00    -0.001 A 
ATOM     14  C   UNL     1      15.229 -18.280  23.722  1.00  0.00     0.057 A 
ATOM     15  C   UNL     1      15.019 -18.957  21.407  1.00  0.00     0.012 A 
ATOM     16  C   UNL     1      16.577 -18.658  23.714  1.00  0.00     0.157 A 
ATOM     17  C   UNL     1      16.364 -19.334  21.396  1.00  0.00     0.050 A 
ATOM     18  C   UNL     1      17.149 -19.187  22.545  1.00  0.00     0.157 A 
BRANCH  16  19
ATOM     19  O   UNL     1      17.331 -18.502  24.877  1.00  0.00    -0.504 OA
ATOM     20  H   UNL     1      17.717 -19.292  25.378  1.00  0.00     0.293 HD
ENDBRANCH  16  19
BRANCH  18  21
ATOM     21  O   UNL     1      18.491 -19.565  22.532  1.00  0.00    -0.504 OA
ATOM     22  H   UNL     1      18.991 -19.714  21.663  1.00  0.00     0.293 HD
ENDBRANCH  18  21
ENDBRANCH   3  13
BRANCH   9  23
ATOM     23  O   UNL     1      12.404 -16.118  17.726  1.00  0.00    -0.507 OA
ATOM     24  H   UNL     1      12.763 -16.132  16.780  1.00  0.00     0.293 HD
ENDBRANCH   9  23
BRANCH   7  25
ATOM     25  O   UNL     1      10.276 -20.425  17.558  1.00  0.00    -0.508 OA
ATOM     26  H   UNL     1      10.585 -20.685  16.629  1.00  0.00     0.293 HD
ENDBRANCH   7  25
TORSDOF 6
ENDMDL
MODEL 7
REMARK VINA RESULT:    -6.461      7.609      9.752
REMARK INTER + INTRA:          -7.258
REMARK INTER:                  -7.231
REMARK INTRA:                  -0.028
REMARK UNBOUND:                 0.524
REMARK SMILES Oc1cc(O)c2c(c1)O[C@@H](c1ccc(O)c(O)c1)[C@@H](O)C2
REMARK SMILES IDX 21 1 19 2 10 3 9 4 7 5 8 6 2 7 3 8 4 9 6 10 20 11 11 13
REMARK SMILES IDX 18 14 12 15 16 16 13 17 14 18 17 19 15 21 5 23 1 25
REMARK H PARENT 20 12 17 20 15 22 5 24 1 26
REMARK Flexibility Score: inf
ROOT
ATOM      1  C   UNL     1      15.517 -19.979  20.142  1.00  0.00     0.079 C 
ATOM      2  C   UNL     1      14.110 -20.563  19.925  1.00  0.00     0.164 C 
ATOM      3  C   UNL     1      13.025 -19.651  20.531  1.00  0.00     0.232 C 
ATOM      4  O   UNL     1      13.324 -19.363  21.899  1.00  0.00    -0.482 OA
ATOM      5  C   UNL     1      14.631 -19.272  22.399  1.00  0.00     0.131 A 
ATOM      6  C   UNL     1      14.818 -18.892  23.730  1.00  0.00     0.093 A 
ATOM      7  C   UNL     1      16.109 -18.761  24.252  1.00  0.00     0.122 A 
ATOM      8  C   UNL     1      17.215 -18.998  23.434  1.00  0.00     0.092 A 
ATOM      9  C   UNL     1      17.047 -19.375  22.097  1.00  0.00     0.126 A 
ATOM     10  C   UNL     1      15.744 -19.556  21.576  1.00  0.00     0.039 A 
ENDROOT
BRANCH   2  11
ATOM     11  O   UNL     1      13.870 -20.763  18.556  1.00  0.00    -0.389 OA
ATOM     12  H   UNL     1      14.649 -20.385  18.069  1.00  0.00     0.211 HD
ENDBRANCH   2  11
BRANCH   3  13
ATOM     13  C   UNL     1      12.810 -18.375  19.730  1.00  0.00    -0.001 A 
ATOM     14  C   UNL     1      13.514 -17.190  20.019  1.00  0.00     0.057 A 
ATOM     15  C   UNL     1      11.917 -18.385  18.647  1.00  0.00     0.012 A 
ATOM     16  C   UNL     1      13.319 -16.038  19.249  1.00  0.00     0.157 A 
ATOM     17  C   UNL     1      11.720 -17.236  17.877  1.00  0.00     0.050 A 
ATOM     18  C   UNL     1      12.417 -16.059  18.173  1.00  0.00     0.157 A 
BRANCH  16  19
ATOM     19  O   UNL     1      14.032 -14.882  19.568  1.00  0.00    -0.504 OA
ATOM     20  H   UNL     1      14.726 -14.864  20.305  1.00  0.00     0.293 HD
ENDBRANCH  16  19
BRANCH  18  21
ATOM     21  O   UNL     1      12.219 -14.914  17.403  1.00  0.00    -0.504 OA
ATOM     22  H   UNL     1      12.557 -14.850  16.450  1.00  0.00     0.293 HD
ENDBRANCH  18  21
ENDBRANCH   3  13
BRANCH   9  23
ATOM     23  O   UNL     1      18.193 -19.546  21.316  1.00  0.00    -0.507 OA
ATOM     24  H   UNL     1      18.509 -18.867  20.636  1.00  0.00     0.293 HD
ENDBRANCH   9  23
BRANCH   7  25
ATOM     25  O   UNL     1      16.303 -18.386  25.580  1.00  0.00    -0.508 OA
ATOM     26  H   UNL     1      15.751 -18.786  26.330  1.00  0.00     0.293 HD
ENDBRANCH   7  25
TORSDOF 6
ENDMDL
MODEL 8
REMARK VINA RESULT:    -6.275      6.463      8.660
REMARK INTER + INTRA:          -7.035
REMARK INTER:                  -7.014
REMARK INTRA:                  -0.021
REMARK UNBOUND:                 0.524
REMARK SMILES Oc1cc(O)c2c(c1)O[C@@H](c1ccc(O)c(O)c1)[C@@H](O)C2
REMARK SMILES IDX 21 1 19 2 10 3 9 4 7 5 8 6 2 7 3 8 4 9 6 10 20 11 11 13
REMARK SMILES IDX 18 14 12 15 16 16 13 17 14 18 17 19 15 21 5 23 1 25
REMARK H PARENT 20 12 17 20 15 22 5 24 1 26
REMARK Flexibility Score: inf
ROOT
ATOM      1  C   UNL     1      11.597 -15.507  21.337  1.00  0.00     0.079 C 
ATOM      2  C   UNL     1      12.328 -15.236  20.010  1.00  0.00     0.164 C 
ATOM      3  C   UNL     1      13.168 -16.453  19.574  1.00  0.00     0.232 C 
ATOM      4  O   UNL     1      14.034 -16.866  20.634  1.00  0.00    -0.482 OA
ATOM      5  C   UNL     1      13.709 -16.728  21.991  1.00  0.00     0.131 A 
ATOM      6  C   UNL     1      14.582 -17.250  22.949  1.00  0.00     0.093 A 
ATOM      7  C   UNL     1      14.274 -17.157  24.309  1.00  0.00     0.122 A 
ATOM      8  C   UNL     1      13.082 -16.553  24.711  1.00  0.00     0.092 A 
ATOM      9  C   UNL     1      12.193 -16.029  23.766  1.00  0.00     0.126 A 
ATOM     10  C   UNL     1      12.521 -16.077  22.391  1.00  0.00     0.039 A 
ENDROOT
BRANCH   2  11
ATOM     11  O   UNL     1      11.407 -14.894  19.006  1.00  0.00    -0.389 OA
ATOM     12  H   UNL     1      10.652 -14.431  19.456  1.00  0.00     0.211 HD
ENDBRANCH   2  11
BRANCH   3  13
ATOM     13  C   UNL     1      12.316 -17.609  19.072  1.00  0.00    -0.001 A 
ATOM     14  C   UNL     1      11.945 -18.678  19.912  1.00  0.00     0.057 A 
ATOM     15  C   UNL     1      11.849 -17.596  17.747  1.00  0.00     0.012 A 
ATOM     16  C   UNL     1      11.138 -19.716  19.433  1.00  0.00     0.157 A 
ATOM     17  C   UNL     1      11.044 -18.631  17.267  1.00  0.00     0.050 A 
ATOM     18  C   UNL     1      10.684 -19.694  18.103  1.00  0.00     0.157 A 
BRANCH  16  19
ATOM     19  O   UNL     1      10.794 -20.758  20.294  1.00  0.00    -0.504 OA
ATOM     20  H   UNL     1      10.405 -21.629  19.955  1.00  0.00     0.293 HD
ENDBRANCH  16  19
BRANCH  18  21
ATOM     21  O   UNL     1       9.880 -20.725  17.622  1.00  0.00    -0.504 OA
ATOM     22  H   UNL     1       9.118 -21.105  18.173  1.00  0.00     0.293 HD
ENDBRANCH  18  21
ENDBRANCH   3  13
BRANCH   9  23
ATOM     23  O   UNL     1      10.992 -15.484  24.228  1.00  0.00    -0.507 OA
ATOM     24  H   UNL     1      10.248 -16.039  24.631  1.00  0.00     0.293 HD
ENDBRANCH   9  23
BRANCH   7  25
ATOM     25  O   UNL     1      15.143 -17.672  25.270  1.00  0.00    -0.508 OA
ATOM     26  H   UNL     1      15.503 -17.096  26.022  1.00  0.00     0.293 HD
ENDBRANCH   7  25
TORSDOF 6
ENDMDL
MODEL 9
REMARK VINA RESULT:    -6.070      6.137     10.677
REMARK INTER + INTRA:          -6.787
REMARK INTER:                  -6.966
REMARK INTRA:                   0.179
REMARK UNBOUND:                 0.524
REMARK SMILES Oc1cc(O)c2c(c1)O[C@@H](c1ccc(O)c(O)c1)[C@@H](O)C2
REMARK SMILES IDX 21 1 19 2 10 3 9 4 7 5 8 6 2 7 3 8 4 9 6 10 20 11 11 13
REMARK SMILES IDX 18 14 12 15 16 16 13 17 14 18 17 19 15 21 5 23 1 25
REMARK H PARENT 20 12 17 20 15 22 5 24 1 26
REMARK Flexibility Score: inf
ROOT
ATOM      1  C   UNL     1      13.160 -17.077  22.151  1.00  0.00     0.079 C 
ATOM      2  C   UNL     1      12.677 -18.497  21.805  1.00  0.00     0.164 C 
ATOM      3  C   UNL     1      13.660 -19.206  20.852  1.00  0.00     0.232 C 
ATOM      4  O   UNL     1      13.918 -18.390  19.706  1.00  0.00    -0.482 OA
ATOM      5  C   UNL     1      13.913 -16.989  19.742  1.00  0.00     0.131 A 
ATOM      6  C   UNL     1      14.271 -16.284  18.590  1.00  0.00     0.093 A 
ATOM      7  C   UNL     1      14.308 -14.887  18.600  1.00  0.00     0.122 A 
ATOM      8  C   UNL     1      13.999 -14.193  19.771  1.00  0.00     0.092 A 
ATOM      9  C   UNL     1      13.643 -14.881  20.936  1.00  0.00     0.126 A 
ATOM     10  C   UNL     1      13.557 -16.294  20.919  1.00  0.00     0.039 A 
ENDROOT
BRANCH   2  11
ATOM     11  O   UNL     1      12.503 -19.252  22.976  1.00  0.00    -0.389 OA
ATOM     12  H   UNL     1      12.979 -20.112  22.836  1.00  0.00     0.211 HD
ENDBRANCH   2  11
BRANCH   3  13
ATOM     13  C   UNL     1      14.952 -19.622  21.538  1.00  0.00    -0.001 A 
ATOM     14  C   UNL     1      16.210 -19.177  21.087  1.00  0.00     0.057 A 
ATOM     15  C   UNL     1      14.893 -20.439  22.679  1.00  0.00     0.012 A 
ATOM     16  C   UNL     1      17.382 -19.552  21.753  1.00  0.00     0.157 A 
ATOM     17  C   UNL     1      16.061 -20.815  23.346  1.00  0.00     0.050 A 
ATOM     18  C   UNL     1      17.309 -20.376  22.888  1.00  0.00     0.157 A 
BRANCH  16  19
ATOM     19  O   UNL     1      18.609 -19.094  21.273  1.00  0.00    -0.504 OA
ATOM     20  H   UNL     1      18.721 -18.744  20.329  1.00  0.00     0.293 HD
ENDBRANCH  16  19
BRANCH  18  21
ATOM     21  O   UNL     1      18.474 -20.752  23.555  1.00  0.00    -0.504 OA
ATOM     22  H   UNL     1      18.623 -21.706  23.864  1.00  0.00     0.293 HD
ENDBRANCH  18  21
ENDBRANCH   3  13
BRANCH   9  23
ATOM     23  O   UNL     1      13.396 -14.133  22.090  1.00  0.00    -0.507 OA
ATOM     24  H   UNL     1      13.494 -13.127  22.132  1.00  0.00     0.293 HD
ENDBRANCH   9  23
BRANCH   7  25
ATOM     25  O   UNL     1      14.660 -14.178  17.453  1.00  0.00    -0.508 OA
ATOM     26  H   UNL     1      14.219 -14.361  16.560  1.00  0.00     0.293 HD
ENDBRANCH   7  25
TORSDOF 6
ENDMDL
