MODEL 1
REMARK VINA RESULT:    -6.302      0.000      0.000
REMARK INTER + INTRA:          -6.784
REMARK INTER:                  -6.855
REMARK INTRA:                   0.071
REMARK UNBOUND:                 0.071
REMARK SMILES CC(=O)[C@@H]1CC[C@H]2[C@H]3CC=C4C[C@@H](O)CC[C@]4(C)[C@H]3CC[C@@]12C
REMARK SMILES IDX 4 1 5 2 6 3 7 4 22 5 21 6 20 7 19 8 8 9 9 10 10 11 11 12
REMARK SMILES IDX 17 13 16 14 15 15 13 16 12 17 18 18 23 19 2 20 1 21 3 22
REMARK SMILES IDX 14 23
REMARK H PARENT 14 24
REMARK Flexibility Score: inf
ROOT
ATOM      1  C   UNL     1     117.282 118.093 140.530  1.00  0.00     0.062 C 
ATOM      2  C   UNL     1     117.752 118.533 141.917  1.00  0.00     0.012 C 
ATOM      3  C   UNL     1     118.230 117.272 142.612  1.00  0.00     0.005 C 
ATOM      4  C   UNL     1     117.393 116.116 142.035  1.00  0.00    -0.001 C 
ATOM      5  C   UNL     1     116.705 116.648 140.729  1.00  0.00    -0.020 C 
ATOM      6  C   UNL     1     115.164 116.746 140.894  1.00  0.00     0.008 C 
ATOM      7  C   UNL     1     114.485 115.477 141.454  1.00  0.00     0.005 C 
ATOM      8  C   UNL     1     115.396 114.556 142.325  1.00  0.00     0.003 C 
ATOM      9  C   UNL     1     116.448 115.406 143.070  1.00  0.00     0.000 C 
ATOM     10  C   UNL     1     115.735 116.305 144.111  1.00  0.00     0.031 C 
ATOM     11  C   UNL     1     114.782 115.518 144.973  1.00  0.00    -0.027 C 
ATOM     12  C   UNL     1     114.238 114.332 144.618  1.00  0.00    -0.065 C 
ATOM     13  C   UNL     1     114.594 113.614 143.312  1.00  0.00    -0.008 C 
ATOM     14  C   UNL     1     115.467 112.373 143.692  1.00  0.00     0.014 C 
ATOM     15  C   UNL     1     114.862 111.495 144.813  1.00  0.00     0.033 C 
ATOM     16  C   UNL     1     114.463 112.325 146.053  1.00  0.00     0.118 C 
ATOM     17  C   UNL     1     113.550 113.507 145.682  1.00  0.00     0.063 C 
ATOM     18  C   UNL     1     113.298 113.100 142.615  1.00  0.00     0.016 C 
ATOM     19  C   UNL     1     116.994 115.722 139.512  1.00  0.00     0.012 C 
ENDROOT
BRANCH   1  20
ATOM     20  C   UNL     1     118.381 118.217 139.474  1.00  0.00     0.133 C 
ATOM     21  C   UNL     1     119.770 117.670 139.665  1.00  0.00     0.088 C 
ATOM     22  O   UNL     1     118.103 118.726 138.398  1.00  0.00    -0.300 OA
ENDBRANCH   1  20
BRANCH  16  23
ATOM     23  O   UNL     1     113.854 111.507 147.018  1.00  0.00    -0.393 OA
ATOM     24  H   UNL     1     113.778 110.594 146.635  1.00  0.00     0.210 HD
ENDBRANCH  16  23
TORSDOF 2
ENDMDL
MODEL 2
REMARK VINA RESULT:    -6.157      3.214      4.962
REMARK INTER + INTRA:          -6.627
REMARK INTER:                  -6.674
REMARK INTRA:                   0.047
REMARK UNBOUND:                 0.071
REMARK SMILES CC(=O)[C@@H]1CC[C@H]2[C@H]3CC=C4C[C@@H](O)CC[C@]4(C)[C@H]3CC[C@@]12C
REMARK SMILES IDX 4 1 5 2 6 3 7 4 22 5 21 6 20 7 19 8 8 9 9 10 10 11 11 12
REMARK SMILES IDX 17 13 16 14 15 15 13 16 12 17 18 18 23 19 2 20 1 21 3 22
REMARK SMILES IDX 14 23
REMARK H PARENT 14 24
REMARK Flexibility Score: inf
ROOT
ATOM      1  C   UNL     1     114.037 115.376 139.074  1.00  0.00     0.062 C 
ATOM      2  C   UNL     1     115.230 114.455 138.812  1.00  0.00     0.012 C 
ATOM      3  C   UNL     1     115.449 113.683 140.099  1.00  0.00     0.005 C 
ATOM      4  C   UNL     1     114.983 114.605 141.240  1.00  0.00    -0.001 C 
ATOM      5  C   UNL     1     114.134 115.754 140.593  1.00  0.00    -0.020 C 
ATOM      6  C   UNL     1     114.844 117.129 140.718  1.00  0.00     0.008 C 
ATOM      7  C   UNL     1     115.342 117.480 142.138  1.00  0.00     0.005 C 
ATOM      8  C   UNL     1     115.637 116.261 143.067  1.00  0.00     0.003 C 
ATOM      9  C   UNL     1     116.120 115.060 142.224  1.00  0.00     0.000 C 
ATOM     10  C   UNL     1     117.501 115.391 141.606  1.00  0.00     0.031 C 
ATOM     11  C   UNL     1     118.467 115.913 142.638  1.00  0.00    -0.027 C 
ATOM     12  C   UNL     1     118.097 116.480 143.808  1.00  0.00    -0.065 C 
ATOM     13  C   UNL     1     116.634 116.588 144.251  1.00  0.00    -0.008 C 
ATOM     14  C   UNL     1     116.429 115.565 145.418  1.00  0.00     0.014 C 
ATOM     15  C   UNL     1     117.492 115.664 146.537  1.00  0.00     0.033 C 
ATOM     16  C   UNL     1     118.932 115.626 145.979  1.00  0.00     0.118 C 
ATOM     17  C   UNL     1     119.148 116.679 144.878  1.00  0.00     0.063 C 
ATOM     18  C   UNL     1     116.347 118.016 144.804  1.00  0.00     0.016 C 
ATOM     19  C   UNL     1     112.735 115.879 141.262  1.00  0.00     0.012 C 
ENDROOT
BRANCH   1  20
ATOM     20  C   UNL     1     112.711 114.751 138.639  1.00  0.00     0.133 C 
ATOM     21  C   UNL     1     112.348 113.318 138.918  1.00  0.00     0.088 C 
ATOM     22  O   UNL     1     111.877 115.464 138.099  1.00  0.00    -0.300 OA
ENDBRANCH   1  20
BRANCH  16  23
ATOM     23  O   UNL     1     119.866 115.789 147.015  1.00  0.00    -0.393 OA
ATOM     24  H   UNL     1     120.765 115.875 146.599  1.00  0.00     0.210 HD
ENDBRANCH  16  23
TORSDOF 2
ENDMDL
MODEL 3
REMARK VINA RESULT:    -5.462      3.102      5.013
REMARK INTER + INTRA:          -5.870
REMARK INTER:                  -5.908
REMARK INTRA:                   0.038
REMARK UNBOUND:                 0.071
REMARK SMILES CC(=O)[C@@H]1CC[C@H]2[C@H]3CC=C4C[C@@H](O)CC[C@]4(C)[C@H]3CC[C@@]12C
REMARK SMILES IDX 4 1 5 2 6 3 7 4 22 5 21 6 20 7 19 8 8 9 9 10 10 11 11 12
REMARK SMILES IDX 17 13 16 14 15 15 13 16 12 17 18 18 23 19 2 20 1 21 3 22
REMARK SMILES IDX 14 23
REMARK H PARENT 14 24
REMARK Flexibility Score: inf
ROOT
ATOM      1  C   UNL     1     117.013 116.712 144.770  1.00  0.00     0.062 C 
ATOM      2  C   UNL     1     117.076 117.402 143.406  1.00  0.00     0.012 C 
ATOM      3  C   UNL     1     115.692 117.252 142.802  1.00  0.00     0.005 C 
ATOM      4  C   UNL     1     115.116 115.938 143.360  1.00  0.00    -0.001 C 
ATOM      5  C   UNL     1     116.004 115.526 144.586  1.00  0.00    -0.020 C 
ATOM      6  C   UNL     1     116.808 114.229 144.299  1.00  0.00     0.008 C 
ATOM      7  C   UNL     1     115.975 113.054 143.740  1.00  0.00     0.005 C 
ATOM      8  C   UNL     1     114.672 113.455 142.981  1.00  0.00     0.003 C 
ATOM      9  C   UNL     1     114.866 114.820 142.285  1.00  0.00     0.000 C 
ATOM     10  C   UNL     1     115.916 114.675 141.156  1.00  0.00     0.031 C 
ATOM     11  C   UNL     1     115.614 113.505 140.256  1.00  0.00    -0.027 C 
ATOM     12  C   UNL     1     114.857 112.445 140.616  1.00  0.00    -0.065 C 
ATOM     13  C   UNL     1     114.154 112.350 141.974  1.00  0.00    -0.008 C 
ATOM     14  C   UNL     1     112.622 112.542 141.714  1.00  0.00     0.014 C 
ATOM     15  C   UNL     1     112.058 111.646 140.586  1.00  0.00     0.033 C 
ATOM     16  C   UNL     1     112.884 111.753 139.286  1.00  0.00     0.118 C 
ATOM     17  C   UNL     1     114.381 111.498 139.536  1.00  0.00     0.063 C 
ATOM     18  C   UNL     1     114.366 110.934 142.589  1.00  0.00     0.016 C 
ATOM     19  C   UNL     1     115.143 115.278 145.859  1.00  0.00     0.012 C 
ENDROOT
BRANCH   1  20
ATOM     20  C   UNL     1     116.679 117.684 145.901  1.00  0.00     0.133 C 
ATOM     21  C   UNL     1     117.546 117.859 147.119  1.00  0.00     0.088 C 
ATOM     22  O   UNL     1     115.696 118.403 145.783  1.00  0.00    -0.300 OA
ENDBRANCH   1  20
BRANCH  16  23
ATOM     23  O   UNL     1     112.385 110.875 138.310  1.00  0.00    -0.393 OA
ATOM     24  H   UNL     1     113.127 110.668 137.683  1.00  0.00     0.210 HD
ENDBRANCH  16  23
TORSDOF 2
ENDMDL
MODEL 4
REMARK VINA RESULT:    -5.401      1.328      6.888
REMARK INTER + INTRA:          -5.804
REMARK INTER:                  -5.902
REMARK INTRA:                   0.097
REMARK UNBOUND:                 0.071
REMARK SMILES CC(=O)[C@@H]1CC[C@H]2[C@H]3CC=C4C[C@@H](O)CC[C@]4(C)[C@H]3CC[C@@]12C
REMARK SMILES IDX 4 1 5 2 6 3 7 4 22 5 21 6 20 7 19 8 8 9 9 10 10 11 11 12
REMARK SMILES IDX 17 13 16 14 15 15 13 16 12 17 18 18 23 19 2 20 1 21 3 22
REMARK SMILES IDX 14 23
REMARK H PARENT 14 24
REMARK Flexibility Score: inf
ROOT
ATOM      1  C   UNL     1     114.226 113.871 146.271  1.00  0.00     0.062 C 
ATOM      2  C   UNL     1     115.181 114.799 147.024  1.00  0.00     0.012 C 
ATOM      3  C   UNL     1     115.123 116.130 146.298  1.00  0.00     0.005 C 
ATOM      4  C   UNL     1     114.816 115.807 144.825  1.00  0.00    -0.001 C 
ATOM      5  C   UNL     1     114.309 114.323 144.771  1.00  0.00    -0.020 C 
ATOM      6  C   UNL     1     115.315 113.402 144.030  1.00  0.00     0.008 C 
ATOM      7  C   UNL     1     115.787 113.924 142.654  1.00  0.00     0.005 C 
ATOM      8  C   UNL     1     115.721 115.472 142.464  1.00  0.00     0.003 C 
ATOM      9  C   UNL     1     115.960 116.180 143.816  1.00  0.00     0.000 C 
ATOM     10  C   UNL     1     117.418 115.929 144.275  1.00  0.00     0.031 C 
ATOM     11  C   UNL     1     118.410 116.229 143.180  1.00  0.00    -0.027 C 
ATOM     12  C   UNL     1     118.108 116.241 141.863  1.00  0.00    -0.065 C 
ATOM     13  C   UNL     1     116.687 116.017 141.335  1.00  0.00    -0.008 C 
ATOM     14  C   UNL     1     116.167 117.398 140.812  1.00  0.00     0.014 C 
ATOM     15  C   UNL     1     117.148 118.119 139.856  1.00  0.00     0.033 C 
ATOM     16  C   UNL     1     118.571 118.221 140.447  1.00  0.00     0.118 C 
ATOM     17  C   UNL     1     119.103 116.849 140.900  1.00  0.00     0.063 C 
ATOM     18  C   UNL     1     116.711 115.023 140.135  1.00  0.00     0.016 C 
ATOM     19  C   UNL     1     112.938 114.212 144.043  1.00  0.00     0.012 C 
ENDROOT
BRANCH   1  20
ATOM     20  C   UNL     1     112.821 113.865 146.874  1.00  0.00     0.133 C 
ATOM     21  C   UNL     1     112.018 115.117 147.100  1.00  0.00     0.088 C 
ATOM     22  O   UNL     1     112.297 112.789 147.125  1.00  0.00    -0.300 OA
ENDBRANCH   1  20
BRANCH  16  23
ATOM     23  O   UNL     1     119.446 118.816 139.524  1.00  0.00    -0.393 OA
ATOM     24  H   UNL     1     118.996 118.816 138.639  1.00  0.00     0.210 HD
ENDBRANCH  16  23
TORSDOF 2
ENDMDL
MODEL 5
REMARK VINA RESULT:    -5.350     13.906     18.245
REMARK INTER + INTRA:          -5.749
REMARK INTER:                  -5.741
REMARK INTRA:                  -0.008
REMARK UNBOUND:                 0.071
REMARK SMILES CC(=O)[C@@H]1CC[C@H]2[C@H]3CC=C4C[C@@H](O)CC[C@]4(C)[C@H]3CC[C@@]12C
REMARK SMILES IDX 4 1 5 2 6 3 7 4 22 5 21 6 20 7 19 8 8 9 9 10 10 11 11 12
REMARK SMILES IDX 17 13 16 14 15 15 13 16 12 17 18 18 23 19 2 20 1 21 3 22
REMARK SMILES IDX 14 23
REMARK H PARENT 14 24
REMARK Flexibility Score: inf
ROOT
ATOM      1  C   UNL     1     128.760 122.967 146.250  1.00  0.00     0.062 C 
ATOM      2  C   UNL     1     128.717 124.340 146.925  1.00  0.00     0.012 C 
ATOM      3  C   UNL     1     128.076 125.277 145.918  1.00  0.00     0.005 C 
ATOM      4  C   UNL     1     128.443 124.732 144.526  1.00  0.00    -0.001 C 
ATOM      5  C   UNL     1     128.964 123.266 144.724  1.00  0.00    -0.020 C 
ATOM      6  C   UNL     1     130.477 123.147 144.392  1.00  0.00     0.008 C 
ATOM      7  C   UNL     1     130.898 123.755 143.035  1.00  0.00     0.005 C 
ATOM      8  C   UNL     1     129.974 124.890 142.492  1.00  0.00     0.003 C 
ATOM      9  C   UNL     1     129.359 125.678 143.669  1.00  0.00     0.000 C 
ATOM     10  C   UNL     1     130.480 126.444 144.414  1.00  0.00     0.031 C 
ATOM     11  C   UNL     1     131.347 127.231 143.466  1.00  0.00    -0.027 C 
ATOM     12  C   UNL     1     131.476 126.958 142.149  1.00  0.00    -0.065 C 
ATOM     13  C   UNL     1     130.685 125.846 141.451  1.00  0.00    -0.008 C 
ATOM     14  C   UNL     1     129.612 126.542 140.548  1.00  0.00     0.014 C 
ATOM     15  C   UNL     1     130.181 127.654 139.636  1.00  0.00     0.033 C 
ATOM     16  C   UNL     1     131.029 128.678 140.422  1.00  0.00     0.118 C 
ATOM     17  C   UNL     1     132.125 127.993 141.257  1.00  0.00     0.063 C 
ATOM     18  C   UNL     1     131.628 125.017 140.529  1.00  0.00     0.016 C 
ATOM     19  C   UNL     1     128.200 122.259 143.816  1.00  0.00     0.012 C 
ENDROOT
BRANCH   1  20
ATOM     20  C   UNL     1     127.541 122.110 146.590  1.00  0.00     0.133 C 
ATOM     21  C   UNL     1     127.620 120.627 146.830  1.00  0.00     0.088 C 
ATOM     22  O   UNL     1     126.461 122.663 146.741  1.00  0.00    -0.300 OA
ENDBRANCH   1  20
BRANCH  16  23
ATOM     23  O   UNL     1     131.585 129.629 139.552  1.00  0.00    -0.393 OA
ATOM     24  H   UNL     1     132.377 129.215 139.119  1.00  0.00     0.210 HD
ENDBRANCH  16  23
TORSDOF 2
ENDMDL
MODEL 6
REMARK VINA RESULT:    -5.267      1.102      7.048
REMARK INTER + INTRA:          -5.659
REMARK INTER:                  -5.693
REMARK INTRA:                   0.034
REMARK UNBOUND:                 0.071
REMARK SMILES CC(=O)[C@@H]1CC[C@H]2[C@H]3CC=C4C[C@@H](O)CC[C@]4(C)[C@H]3CC[C@@]12C
REMARK SMILES IDX 4 1 5 2 6 3 7 4 22 5 21 6 20 7 19 8 8 9 9 10 10 11 11 12
REMARK SMILES IDX 17 13 16 14 15 15 13 16 12 17 18 18 23 19 2 20 1 21 3 22
REMARK SMILES IDX 14 23
REMARK H PARENT 14 24
REMARK Flexibility Score: inf
ROOT
ATOM      1  C   UNL     1     113.902 113.813 144.731  1.00  0.00     0.062 C 
ATOM      2  C   UNL     1     113.477 113.222 143.386  1.00  0.00     0.012 C 
ATOM      3  C   UNL     1     114.756 113.043 142.589  1.00  0.00     0.005 C 
ATOM      4  C   UNL     1     115.720 114.144 143.067  1.00  0.00    -0.001 C 
ATOM      5  C   UNL     1     115.146 114.713 144.411  1.00  0.00    -0.020 C 
ATOM      6  C   UNL     1     114.668 116.182 144.252  1.00  0.00     0.008 C 
ATOM      7  C   UNL     1     115.689 117.132 143.587  1.00  0.00     0.005 C 
ATOM      8  C   UNL     1     116.729 116.449 142.645  1.00  0.00     0.003 C 
ATOM      9  C   UNL     1     116.098 115.208 141.975  1.00  0.00     0.000 C 
ATOM     10  C   UNL     1     114.974 115.663 141.011  1.00  0.00     0.031 C 
ATOM     11  C   UNL     1     115.439 116.757 140.085  1.00  0.00    -0.027 C 
ATOM     12  C   UNL     1     116.484 117.576 140.339  1.00  0.00    -0.065 C 
ATOM     13  C   UNL     1     117.369 117.430 141.582  1.00  0.00    -0.008 C 
ATOM     14  C   UNL     1     118.749 116.869 141.102  1.00  0.00     0.014 C 
ATOM     15  C   UNL     1     119.363 117.642 139.910  1.00  0.00     0.033 C 
ATOM     16  C   UNL     1     118.365 117.805 138.743  1.00  0.00     0.118 C 
ATOM     17  C   UNL     1     117.033 118.418 139.208  1.00  0.00     0.063 C 
ATOM     18  C   UNL     1     117.613 118.826 142.231  1.00  0.00     0.016 C 
ATOM     19  C   UNL     1     116.209 114.680 145.548  1.00  0.00     0.012 C 
ENDROOT
BRANCH   1  20
ATOM     20  C   UNL     1     114.129 112.739 145.795  1.00  0.00     0.133 C 
ATOM     21  C   UNL     1     113.425 112.738 147.125  1.00  0.00     0.088 C 
ATOM     22  O   UNL     1     114.866 111.800 145.531  1.00  0.00    -0.300 OA
ENDBRANCH   1  20
BRANCH  16  23
ATOM     23  O   UNL     1     118.933 118.570 137.712  1.00  0.00    -0.393 OA
ATOM     24  H   UNL     1     119.403 117.946 137.097  1.00  0.00     0.210 HD
ENDBRANCH  16  23
TORSDOF 2
ENDMDL
MODEL 7
REMARK VINA RESULT:    -5.226      2.950      5.481
REMARK INTER + INTRA:          -5.613
REMARK INTER:                  -5.877
REMARK INTRA:                   0.263
REMARK UNBOUND:                 0.071
REMARK SMILES CC(=O)[C@@H]1CC[C@H]2[C@H]3CC=C4C[C@@H](O)CC[C@]4(C)[C@H]3CC[C@@]12C
REMARK SMILES IDX 4 1 5 2 6 3 7 4 22 5 21 6 20 7 19 8 8 9 9 10 10 11 11 12
REMARK SMILES IDX 17 13 16 14 15 15 13 16 12 17 18 18 23 19 2 20 1 21 3 22
REMARK SMILES IDX 14 23
REMARK H PARENT 14 24
REMARK Flexibility Score: inf
ROOT
ATOM      1  C   UNL     1     118.516 115.263 144.748  1.00  0.00     0.062 C 
ATOM      2  C   UNL     1     119.135 116.115 143.638  1.00  0.00     0.012 C 
ATOM      3  C   UNL     1     118.034 117.046 143.168  1.00  0.00     0.005 C 
ATOM      4  C   UNL     1     116.708 116.294 143.387  1.00  0.00    -0.001 C 
ATOM      5  C   UNL     1     117.011 115.088 144.343  1.00  0.00    -0.020 C 
ATOM      6  C   UNL     1     116.848 113.726 143.615  1.00  0.00     0.008 C 
ATOM      7  C   UNL     1     115.523 113.557 142.837  1.00  0.00     0.005 C 
ATOM      8  C   UNL     1     114.845 114.881 142.368  1.00  0.00     0.003 C 
ATOM      9  C   UNL     1     115.921 115.949 142.072  1.00  0.00     0.000 C 
ATOM     10  C   UNL     1     116.755 115.509 140.843  1.00  0.00     0.031 C 
ATOM     11  C   UNL     1     115.878 115.108 139.685  1.00  0.00    -0.027 C 
ATOM     12  C   UNL     1     114.592 114.710 139.808  1.00  0.00    -0.065 C 
ATOM     13  C   UNL     1     113.853 114.693 141.150  1.00  0.00    -0.008 C 
ATOM     14  C   UNL     1     112.817 115.866 141.120  1.00  0.00     0.014 C 
ATOM     15  C   UNL     1     111.932 115.893 139.851  1.00  0.00     0.033 C 
ATOM     16  C   UNL     1     112.768 115.825 138.555  1.00  0.00     0.118 C 
ATOM     17  C   UNL     1     113.739 114.631 138.561  1.00  0.00     0.063 C 
ATOM     18  C   UNL     1     113.066 113.357 141.311  1.00  0.00     0.016 C 
ATOM     19  C   UNL     1     116.063 115.083 145.577  1.00  0.00     0.012 C 
ENDROOT
BRANCH   1  20
ATOM     20  C   UNL     1     118.754 115.853 146.138  1.00  0.00     0.133 C 
ATOM     21  C   UNL     1     119.731 115.269 147.123  1.00  0.00     0.088 C 
ATOM     22  O   UNL     1     118.175 116.887 146.441  1.00  0.00    -0.300 OA
ENDBRANCH   1  20
BRANCH  16  23
ATOM     23  O   UNL     1     111.930 115.781 137.429  1.00  0.00    -0.393 OA
ATOM     24  H   UNL     1     112.317 115.126 136.790  1.00  0.00     0.210 HD
ENDBRANCH  16  23
TORSDOF 2
ENDMDL
MODEL 8
REMARK VINA RESULT:    -4.914     13.904     17.182
REMARK INTER + INTRA:          -5.274
REMARK INTER:                  -5.789
REMARK INTRA:                   0.514
REMARK UNBOUND:                 0.071
REMARK SMILES CC(=O)[C@@H]1CC[C@H]2[C@H]3CC=C4C[C@@H](O)CC[C@]4(C)[C@H]3CC[C@@]12C
REMARK SMILES IDX 4 1 5 2 6 3 7 4 22 5 21 6 20 7 19 8 8 9 9 10 10 11 11 12
REMARK SMILES IDX 17 13 16 14 15 15 13 16 12 17 18 18 23 19 2 20 1 21 3 22
REMARK SMILES IDX 14 23
REMARK H PARENT 14 24
REMARK Flexibility Score: inf
ROOT
ATOM      1  C   UNL     1     131.670 126.967 140.946  1.00  0.00     0.062 C 
ATOM      2  C   UNL     1     130.865 126.043 140.029  1.00  0.00     0.012 C 
ATOM      3  C   UNL     1     129.501 125.901 140.678  1.00  0.00     0.005 C 
ATOM      4  C   UNL     1     129.726 126.046 142.194  1.00  0.00    -0.001 C 
ATOM      5  C   UNL     1     131.156 126.659 142.395  1.00  0.00    -0.020 C 
ATOM      6  C   UNL     1     132.124 125.644 143.061  1.00  0.00     0.008 C 
ATOM      7  C   UNL     1     131.580 124.962 144.336  1.00  0.00     0.005 C 
ATOM      8  C   UNL     1     130.025 124.879 144.442  1.00  0.00     0.003 C 
ATOM      9  C   UNL     1     129.406 124.757 143.033  1.00  0.00     0.000 C 
ATOM     10  C   UNL     1     129.804 123.393 142.415  1.00  0.00     0.031 C 
ATOM     11  C   UNL     1     129.539 122.250 143.361  1.00  0.00    -0.027 C 
ATOM     12  C   UNL     1     129.439 122.382 144.703  1.00  0.00    -0.065 C 
ATOM     13  C   UNL     1     129.512 123.738 145.411  1.00  0.00    -0.008 C 
ATOM     14  C   UNL     1     128.068 124.075 145.913  1.00  0.00     0.014 C 
ATOM     15  C   UNL     1     127.391 122.927 146.699  1.00  0.00     0.033 C 
ATOM     16  C   UNL     1     127.441 121.586 145.934  1.00  0.00     0.118 C 
ATOM     17  C   UNL     1     128.874 121.227 145.500  1.00  0.00     0.063 C 
ATOM     18  C   UNL     1     130.446 123.642 146.655  1.00  0.00     0.016 C 
ATOM     19  C   UNL     1     131.112 127.931 143.291  1.00  0.00     0.012 C 
ENDROOT
BRANCH   1  20
ATOM     20  C   UNL     1     131.583 128.432 140.519  1.00  0.00     0.133 C 
ATOM     21  C   UNL     1     130.793 128.895 139.325  1.00  0.00     0.088 C 
ATOM     22  O   UNL     1     132.125 129.278 141.217  1.00  0.00    -0.300 OA
ENDBRANCH   1  20
BRANCH  16  23
ATOM     23  O   UNL     1     126.881 120.557 146.707  1.00  0.00    -0.393 OA
ATOM     24  H   UNL     1     126.811 119.751 146.130  1.00  0.00     0.210 HD
ENDBRANCH  16  23
TORSDOF 2
ENDMDL
MODEL 9
REMARK VINA RESULT:    -4.899      3.236      5.186
REMARK INTER + INTRA:          -5.258
REMARK INTER:                  -5.359
REMARK INTRA:                   0.101
REMARK UNBOUND:                 0.071
REMARK SMILES CC(=O)[C@@H]1CC[C@H]2[C@H]3CC=C4C[C@@H](O)CC[C@]4(C)[C@H]3CC[C@@]12C
REMARK SMILES IDX 4 1 5 2 6 3 7 4 22 5 21 6 20 7 19 8 8 9 9 10 10 11 11 12
REMARK SMILES IDX 17 13 16 14 15 15 13 16 12 17 18 18 23 19 2 20 1 21 3 22
REMARK SMILES IDX 14 23
REMARK H PARENT 14 24
REMARK Flexibility Score: inf
ROOT
ATOM      1  C   UNL     1     116.373 117.026 145.880  1.00  0.00     0.062 C 
ATOM      2  C   UNL     1     115.366 116.000 146.405  1.00  0.00     0.012 C 
ATOM      3  C   UNL     1     115.675 114.706 145.676  1.00  0.00     0.005 C 
ATOM      4  C   UNL     1     116.241 115.108 144.302  1.00  0.00    -0.001 C 
ATOM      5  C   UNL     1     116.626 116.626 144.385  1.00  0.00    -0.020 C 
ATOM      6  C   UNL     1     115.715 117.497 143.477  1.00  0.00     0.008 C 
ATOM      7  C   UNL     1     115.569 116.994 142.023  1.00  0.00     0.005 C 
ATOM      8  C   UNL     1     115.797 115.464 141.816  1.00  0.00     0.003 C 
ATOM      9  C   UNL     1     115.353 114.689 143.076  1.00  0.00     0.000 C 
ATOM     10  C   UNL     1     113.818 114.811 143.238  1.00  0.00     0.031 C 
ATOM     11  C   UNL     1     113.091 114.480 141.961  1.00  0.00    -0.027 C 
ATOM     12  C   UNL     1     113.647 114.542 140.731  1.00  0.00    -0.065 C 
ATOM     13  C   UNL     1     115.122 114.891 140.504  1.00  0.00    -0.008 C 
ATOM     14  C   UNL     1     115.845 113.574 140.065  1.00  0.00     0.014 C 
ATOM     15  C   UNL     1     115.136 112.819 138.916  1.00  0.00     0.033 C 
ATOM     16  C   UNL     1     113.637 112.588 139.207  1.00  0.00     0.118 C 
ATOM     17  C   UNL     1     112.916 113.897 139.574  1.00  0.00     0.063 C 
ATOM     18  C   UNL     1     115.255 115.926 139.346  1.00  0.00     0.016 C 
ATOM     19  C   UNL     1     118.100 116.868 143.948  1.00  0.00     0.012 C 
ENDROOT
BRANCH   1  20
ATOM     20  C   UNL     1     117.625 117.115 146.753  1.00  0.00     0.133 C 
ATOM     21  C   UNL     1     118.465 115.918 147.109  1.00  0.00     0.088 C 
ATOM     22  O   UNL     1     118.001 118.217 147.125  1.00  0.00    -0.300 OA
ENDBRANCH   1  20
BRANCH  16  23
ATOM     23  O   UNL     1     113.013 111.964 138.114  1.00  0.00    -0.393 OA
ATOM     24  H   UNL     1     113.006 112.613 137.361  1.00  0.00     0.210 HD
ENDBRANCH  16  23
TORSDOF 2
ENDMDL
