MODEL 1
REMARK VINA RESULT:    -1.930      0.000      0.000
REMARK INTER + INTRA:          -6.107
REMARK INTER:                  -3.396
REMARK INTRA:                  -2.711
REMARK UNBOUND:                -2.711
REMARK SMILES CCCCCCC=CCCCCCCCC(=O)[O-]
REMARK SMILES IDX 10 1 11 2 12 3 13 4 14 5 15 6 16 7 17 8 18 9 9 10 8 11 7 12
REMARK SMILES IDX 6 13 5 14 4 15 3 16 2 17 1 18
REMARK H PARENT
REMARK Flexibility Score: inf
ROOT
ATOM      1  C   UNL     1      -1.250   5.723  15.369  1.00  0.00     0.004 C 
ENDROOT
BRANCH   1   2
ATOM      2  C   UNL     1      -0.484   6.872  14.687  1.00  0.00     0.000 C 
BRANCH   2   3
ATOM      3  C   UNL     1       0.978   6.507  14.380  1.00  0.00     0.000 C 
BRANCH   3   4
ATOM      4  C   UNL     1       1.934   7.699  14.548  1.00  0.00     0.000 C 
BRANCH   4   5
ATOM      5  C   UNL     1       1.215   8.898  15.186  1.00  0.00     0.006 C 
BRANCH   5   6
ATOM      6  C   UNL     1       2.090  10.161  15.185  1.00  0.00     0.053 C 
BRANCH   6   7
ATOM      7  C   UNL     1       2.263  10.712  16.568  1.00  0.00     0.041 C 
ATOM      8  O   UNL     1       1.826  11.858  16.856  1.00  0.00    -0.550 OA
ATOM      9  O   UNL     1       2.884   9.948  17.547  1.00  0.00    -0.550 OA
ENDBRANCH   6   7
ENDBRANCH   5   6
ENDBRANCH   4   5
ENDBRANCH   3   4
ENDBRANCH   2   3
ENDBRANCH   1   2
BRANCH   1  10
ATOM     10  C   UNL     1      -0.341   4.538  15.737  1.00  0.00     0.027 C 
BRANCH  10  11
ATOM     11  C   UNL     1      -0.315   4.215  17.215  1.00  0.00    -0.031 C 
ATOM     12  C   UNL     1       0.739   4.384  18.036  1.00  0.00    -0.031 C 
BRANCH  12  13
ATOM     13  C   UNL     1       2.055   5.014  17.648  1.00  0.00     0.027 C 
BRANCH  13  14
ATOM     14  C   UNL     1       2.065   6.519  17.961  1.00  0.00     0.004 C 
BRANCH  14  15
ATOM     15  C   UNL     1       1.060   6.898  19.062  1.00  0.00     0.000 C 
BRANCH  15  16
ATOM     16  C   UNL     1       0.054   7.970  18.602  1.00  0.00    -0.000 C 
BRANCH  16  17
ATOM     17  C   UNL     1      -1.419   7.523  18.620  1.00  0.00    -0.003 C 
ATOM     18  C   UNL     1      -2.322   8.410  17.762  1.00  0.00     0.004 C 
ENDBRANCH  16  17
ENDBRANCH  15  16
ENDBRANCH  14  15
ENDBRANCH  13  14
ENDBRANCH  12  13
ENDBRANCH  10  11
ENDBRANCH   1  10
TORSDOF 13
ENDMDL
MODEL 2
REMARK VINA RESULT:    -1.904      1.964      4.179
REMARK INTER + INTRA:          -6.062
REMARK INTER:                  -3.899
REMARK INTRA:                  -2.162
REMARK UNBOUND:                -2.711
REMARK SMILES CCCCCCC=CCCCCCCCC(=O)[O-]
REMARK SMILES IDX 10 1 11 2 12 3 13 4 14 5 15 6 16 7 17 8 18 9 9 10 8 11 7 12
REMARK SMILES IDX 6 13 5 14 4 15 3 16 2 17 1 18
REMARK H PARENT
REMARK Flexibility Score: inf
ROOT
ATOM      1  C   UNL     1       3.554   8.077  15.330  1.00  0.00     0.004 C 
ENDROOT
BRANCH   1   2
ATOM      2  C   UNL     1       3.731   9.029  14.134  1.00  0.00     0.000 C 
BRANCH   2   3
ATOM      3  C   UNL     1       3.499  10.502  14.512  1.00  0.00     0.000 C 
BRANCH   3   4
ATOM      4  C   UNL     1       2.089  10.755  15.071  1.00  0.00     0.000 C 
BRANCH   4   5
ATOM      5  C   UNL     1       2.155  11.381  16.472  1.00  0.00     0.006 C 
BRANCH   5   6
ATOM      6  C   UNL     1       1.951  10.337  17.580  1.00  0.00     0.053 C 
BRANCH   6   7
ATOM      7  C   UNL     1       0.857  10.740  18.522  1.00  0.00     0.041 C 
ATOM      8  O   UNL     1       0.065   9.877  18.984  1.00  0.00    -0.550 OA
ATOM      9  O   UNL     1       0.730  12.067  18.910  1.00  0.00    -0.550 OA
ENDBRANCH   6   7
ENDBRANCH   5   6
ENDBRANCH   4   5
ENDBRANCH   3   4
ENDBRANCH   2   3
ENDBRANCH   1   2
BRANCH   1  10
ATOM     10  C   UNL     1       2.664   6.866  15.002  1.00  0.00     0.027 C 
BRANCH  10  11
ATOM     11  C   UNL     1       1.483   7.189  14.114  1.00  0.00    -0.031 C 
ATOM     12  C   UNL     1       0.257   7.547  14.540  1.00  0.00    -0.031 C 
BRANCH  12  13
ATOM     13  C   UNL     1      -0.134   7.779  15.979  1.00  0.00     0.027 C 
BRANCH  13  14
ATOM     14  C   UNL     1      -1.336   6.907  16.376  1.00  0.00     0.004 C 
BRANCH  14  15
ATOM     15  C   UNL     1      -1.472   5.654  15.496  1.00  0.00     0.000 C 
BRANCH  15  16
ATOM     16  C   UNL     1      -1.195   4.352  16.271  1.00  0.00    -0.000 C 
BRANCH  16  17
ATOM     17  C   UNL     1       0.282   4.119  16.636  1.00  0.00    -0.003 C 
ATOM     18  C   UNL     1       1.105   3.570  15.471  1.00  0.00     0.004 C 
ENDBRANCH  16  17
ENDBRANCH  15  16
ENDBRANCH  14  15
ENDBRANCH  13  14
ENDBRANCH  12  13
ENDBRANCH  10  11
ENDBRANCH   1  10
TORSDOF 13
ENDMDL
MODEL 3
REMARK VINA RESULT:    -1.891      1.410      3.072
REMARK INTER + INTRA:          -6.039
REMARK INTER:                  -3.437
REMARK INTRA:                  -2.602
REMARK UNBOUND:                -2.711
REMARK SMILES CCCCCCC=CCCCCCCCC(=O)[O-]
REMARK SMILES IDX 10 1 11 2 12 3 13 4 14 5 15 6 16 7 17 8 18 9 9 10 8 11 7 12
REMARK SMILES IDX 6 13 5 14 4 15 3 16 2 17 1 18
REMARK H PARENT
REMARK Flexibility Score: inf
ROOT
ATOM      1  C   UNL     1       3.440   6.239  17.017  1.00  0.00     0.004 C 
ENDROOT
BRANCH   1   2
ATOM      2  C   UNL     1       3.265   7.746  16.755  1.00  0.00     0.000 C 
BRANCH   2   3
ATOM      3  C   UNL     1       4.051   8.226  15.523  1.00  0.00     0.000 C 
BRANCH   3   4
ATOM      4  C   UNL     1       3.150   8.881  14.463  1.00  0.00     0.000 C 
BRANCH   4   5
ATOM      5  C   UNL     1       1.951   9.585  15.117  1.00  0.00     0.006 C 
BRANCH   5   6
ATOM      6  C   UNL     1       2.184  11.096  15.271  1.00  0.00     0.053 C 
BRANCH   6   7
ATOM      7  C   UNL     1       2.469  11.467  16.695  1.00  0.00     0.041 C 
ATOM      8  O   UNL     1       3.634  11.360  17.159  1.00  0.00    -0.550 OA
ATOM      9  O   UNL     1       1.450  11.957  17.501  1.00  0.00    -0.550 OA
ENDBRANCH   6   7
ENDBRANCH   5   6
ENDBRANCH   4   5
ENDBRANCH   3   4
ENDBRANCH   2   3
ENDBRANCH   1   2
BRANCH   1  10
ATOM     10  C   UNL     1       2.223   5.411  16.570  1.00  0.00     0.027 C 
BRANCH  10  11
ATOM     11  C   UNL     1       2.155   5.165  15.079  1.00  0.00    -0.031 C 
ATOM     12  C   UNL     1       1.226   5.666  14.243  1.00  0.00    -0.031 C 
BRANCH  12  13
ATOM     13  C   UNL     1       0.138   6.639  14.629  1.00  0.00     0.027 C 
BRANCH  13  14
ATOM     14  C   UNL     1      -1.070   5.908  15.237  1.00  0.00     0.004 C 
BRANCH  14  15
ATOM     15  C   UNL     1      -1.508   6.512  16.582  1.00  0.00     0.000 C 
BRANCH  15  16
ATOM     16  C   UNL     1      -0.860   7.882  16.856  1.00  0.00    -0.000 C 
BRANCH  16  17
ATOM     17  C   UNL     1      -0.146   7.999  18.214  1.00  0.00    -0.003 C 
ATOM     18  C   UNL     1      -0.148   6.689  19.003  1.00  0.00     0.004 C 
ENDBRANCH  16  17
ENDBRANCH  15  16
ENDBRANCH  14  15
ENDBRANCH  13  14
ENDBRANCH  12  13
ENDBRANCH  10  11
ENDBRANCH   1  10
TORSDOF 13
ENDMDL
MODEL 4
REMARK VINA RESULT:    -1.888      2.706      5.276
REMARK INTER + INTRA:          -6.034
REMARK INTER:                  -3.278
REMARK INTRA:                  -2.756
REMARK UNBOUND:                -2.711
REMARK SMILES CCCCCCC=CCCCCCCCC(=O)[O-]
REMARK SMILES IDX 10 1 11 2 12 3 13 4 14 5 15 6 16 7 17 8 18 9 9 10 8 11 7 12
REMARK SMILES IDX 6 13 5 14 4 15 3 16 2 17 1 18
REMARK H PARENT
REMARK Flexibility Score: inf
ROOT
ATOM      1  C   UNL     1      -0.772   7.266  18.355  1.00  0.00     0.004 C 
ENDROOT
BRANCH   1   2
ATOM      2  C   UNL     1       0.462   8.186  18.332  1.00  0.00     0.000 C 
BRANCH   2   3
ATOM      3  C   UNL     1       1.783   7.401  18.260  1.00  0.00     0.000 C 
BRANCH   3   4
ATOM      4  C   UNL     1       1.587   5.891  18.472  1.00  0.00     0.000 C 
BRANCH   4   5
ATOM      5  C   UNL     1       2.028   5.098  17.232  1.00  0.00     0.006 C 
BRANCH   5   6
ATOM      6  C   UNL     1       1.221   3.801  17.060  1.00  0.00     0.053 C 
BRANCH   6   7
ATOM      7  C   UNL     1       1.237   3.327  15.638  1.00  0.00     0.041 C 
ATOM      8  O   UNL     1       1.924   3.931  14.773  1.00  0.00    -0.550 OA
ATOM      9  O   UNL     1       0.511   2.200  15.275  1.00  0.00    -0.550 OA
ENDBRANCH   6   7
ENDBRANCH   5   6
ENDBRANCH   4   5
ENDBRANCH   3   4
ENDBRANCH   2   3
ENDBRANCH   1   2
BRANCH   1  10
ATOM     10  C   UNL     1      -1.632   7.391  17.086  1.00  0.00     0.027 C 
BRANCH  10  11
ATOM     11  C   UNL     1      -1.342   6.343  16.035  1.00  0.00    -0.031 C 
ATOM     12  C   UNL     1      -0.576   6.520  14.942  1.00  0.00    -0.031 C 
BRANCH  12  13
ATOM     13  C   UNL     1       0.206   7.770  14.616  1.00  0.00     0.027 C 
BRANCH  13  14
ATOM     14  C   UNL     1       1.687   7.448  14.362  1.00  0.00     0.004 C 
BRANCH  14  15
ATOM     15  C   UNL     1       2.630   8.517  14.939  1.00  0.00     0.000 C 
BRANCH  15  16
ATOM     16  C   UNL     1       1.986   9.916  14.978  1.00  0.00    -0.000 C 
BRANCH  16  17
ATOM     17  C   UNL     1       2.202  10.691  16.290  1.00  0.00    -0.003 C 
ATOM     18  C   UNL     1       3.591  10.471  16.891  1.00  0.00     0.004 C 
ENDBRANCH  16  17
ENDBRANCH  15  16
ENDBRANCH  14  15
ENDBRANCH  13  14
ENDBRANCH  12  13
ENDBRANCH  10  11
ENDBRANCH   1  10
TORSDOF 13
ENDMDL
MODEL 5
REMARK VINA RESULT:    -1.883      3.031      5.123
REMARK INTER + INTRA:          -6.024
REMARK INTER:                  -3.130
REMARK INTRA:                  -2.894
REMARK UNBOUND:                -2.711
REMARK SMILES CCCCCCC=CCCCCCCCC(=O)[O-]
REMARK SMILES IDX 10 1 11 2 12 3 13 4 14 5 15 6 16 7 17 8 18 9 9 10 8 11 7 12
REMARK SMILES IDX 6 13 5 14 4 15 3 16 2 17 1 18
REMARK H PARENT
REMARK Flexibility Score: inf
ROOT
ATOM      1  C   UNL     1       1.600   6.059  14.083  1.00  0.00     0.004 C 
ENDROOT
BRANCH   1   2
ATOM      2  C   UNL     1       2.571   5.882  15.264  1.00  0.00     0.000 C 
BRANCH   2   3
ATOM      3  C   UNL     1       2.289   4.606  16.075  1.00  0.00     0.000 C 
BRANCH   3   4
ATOM      4  C   UNL     1       1.564   3.529  15.252  1.00  0.00     0.000 C 
BRANCH   4   5
ATOM      5  C   UNL     1       0.282   3.063  15.961  1.00  0.00     0.006 C 
BRANCH   5   6
ATOM      6  C   UNL     1       0.227   3.536  17.421  1.00  0.00     0.053 C 
BRANCH   6   7
ATOM      7  C   UNL     1      -1.157   3.420  17.985  1.00  0.00     0.041 C 
ATOM      8  O   UNL     1      -1.579   4.268  18.815  1.00  0.00    -0.550 OA
ATOM      9  O   UNL     1      -1.990   2.388  17.573  1.00  0.00    -0.550 OA
ENDBRANCH   6   7
ENDBRANCH   5   6
ENDBRANCH   4   5
ENDBRANCH   3   4
ENDBRANCH   2   3
ENDBRANCH   1   2
BRANCH   1  10
ATOM     10  C   UNL     1       0.472   7.061  14.384  1.00  0.00     0.027 C 
BRANCH  10  11
ATOM     11  C   UNL     1      -0.774   6.434  14.969  1.00  0.00    -0.031 C 
ATOM     12  C   UNL     1      -1.298   6.712  16.178  1.00  0.00    -0.031 C 
BRANCH  12  13
ATOM     13  C   UNL     1      -0.787   7.766  17.130  1.00  0.00     0.027 C 
BRANCH  13  14
ATOM     14  C   UNL     1       0.312   7.202  18.046  1.00  0.00     0.004 C 
BRANCH  14  15
ATOM     15  C   UNL     1       1.560   8.099  18.090  1.00  0.00     0.000 C 
BRANCH  15  16
ATOM     16  C   UNL     1       1.418   9.356  17.210  1.00  0.00    -0.000 C 
BRANCH  16  17
ATOM     17  C   UNL     1       2.505   9.516  16.132  1.00  0.00    -0.003 C 
ATOM     18  C   UNL     1       2.111  10.498  15.028  1.00  0.00     0.004 C 
ENDBRANCH  16  17
ENDBRANCH  15  16
ENDBRANCH  14  15
ENDBRANCH  13  14
ENDBRANCH  12  13
ENDBRANCH  10  11
ENDBRANCH   1  10
TORSDOF 13
ENDMDL
MODEL 6
REMARK VINA RESULT:    -1.878      1.458      3.690
REMARK INTER + INTRA:          -6.016
REMARK INTER:                  -3.478
REMARK INTRA:                  -2.538
REMARK UNBOUND:                -2.711
REMARK SMILES CCCCCCC=CCCCCCCCC(=O)[O-]
REMARK SMILES IDX 10 1 11 2 12 3 13 4 14 5 15 6 16 7 17 8 18 9 9 10 8 11 7 12
REMARK SMILES IDX 6 13 5 14 4 15 3 16 2 17 1 18
REMARK H PARENT
REMARK Flexibility Score: inf
ROOT
ATOM      1  C   UNL     1      -1.169   6.327  16.750  1.00  0.00     0.004 C 
ENDROOT
BRANCH   1   2
ATOM      2  C   UNL     1      -1.623   7.692  17.298  1.00  0.00     0.000 C 
BRANCH   2   3
ATOM      3  C   UNL     1      -0.541   8.376  18.150  1.00  0.00     0.000 C 
BRANCH   3   4
ATOM      4  C   UNL     1       0.786   7.600  18.157  1.00  0.00     0.000 C 
BRANCH   4   5
ATOM      5  C   UNL     1       1.916   8.433  17.532  1.00  0.00     0.006 C 
BRANCH   5   6
ATOM      6  C   UNL     1       1.581   9.932  17.508  1.00  0.00     0.053 C 
BRANCH   6   7
ATOM      7  C   UNL     1       2.236  10.624  16.351  1.00  0.00     0.041 C 
ATOM      8  O   UNL     1       3.163  11.453  16.547  1.00  0.00    -0.550 OA
ATOM      9  O   UNL     1       1.839  10.332  15.053  1.00  0.00    -0.550 OA
ENDBRANCH   6   7
ENDBRANCH   5   6
ENDBRANCH   4   5
ENDBRANCH   3   4
ENDBRANCH   2   3
ENDBRANCH   1   2
BRANCH   1  10
ATOM     10  C   UNL     1      -1.123   6.287  15.213  1.00  0.00     0.027 C 
BRANCH  10  11
ATOM     11  C   UNL     1      -0.160   7.278  14.597  1.00  0.00    -0.031 C 
ATOM     12  C   UNL     1       1.095   7.005  14.193  1.00  0.00    -0.031 C 
BRANCH  12  13
ATOM     13  C   UNL     1       1.736   5.638  14.199  1.00  0.00     0.027 C 
BRANCH  13  14
ATOM     14  C   UNL     1       2.557   5.415  15.479  1.00  0.00     0.004 C 
BRANCH  14  15
ATOM     15  C   UNL     1       1.918   4.375  16.414  1.00  0.00     0.000 C 
BRANCH  15  16
ATOM     16  C   UNL     1       1.411   3.131  15.660  1.00  0.00    -0.000 C 
BRANCH  16  17
ATOM     17  C   UNL     1      -0.083   2.819  15.858  1.00  0.00    -0.003 C 
ATOM     18  C   UNL     1      -0.469   2.666  17.330  1.00  0.00     0.004 C 
ENDBRANCH  16  17
ENDBRANCH  15  16
ENDBRANCH  14  15
ENDBRANCH  13  14
ENDBRANCH  12  13
ENDBRANCH  10  11
ENDBRANCH   1  10
TORSDOF 13
ENDMDL
MODEL 7
REMARK VINA RESULT:    -1.844      1.279      3.273
REMARK INTER + INTRA:          -5.956
REMARK INTER:                  -3.379
REMARK INTRA:                  -2.577
REMARK UNBOUND:                -2.711
REMARK SMILES CCCCCCC=CCCCCCCCC(=O)[O-]
REMARK SMILES IDX 10 1 11 2 12 3 13 4 14 5 15 6 16 7 17 8 18 9 9 10 8 11 7 12
REMARK SMILES IDX 6 13 5 14 4 15 3 16 2 17 1 18
REMARK H PARENT
REMARK Flexibility Score: inf
ROOT
ATOM      1  C   UNL     1      -1.457   6.365  16.415  1.00  0.00     0.004 C 
ENDROOT
BRANCH   1   2
ATOM      2  C   UNL     1      -0.848   6.205  15.010  1.00  0.00     0.000 C 
BRANCH   2   3
ATOM      3  C   UNL     1      -0.048   7.442  14.569  1.00  0.00     0.000 C 
BRANCH   3   4
ATOM      4  C   UNL     1       1.415   7.111  14.230  1.00  0.00     0.000 C 
BRANCH   4   5
ATOM      5  C   UNL     1       2.351   8.255  14.648  1.00  0.00     0.006 C 
BRANCH   5   6
ATOM      6  C   UNL     1       1.577   9.460  15.201  1.00  0.00     0.053 C 
BRANCH   6   7
ATOM      7  C   UNL     1       2.391  10.228  16.198  1.00  0.00     0.041 C 
ATOM      8  O   UNL     1       3.410   9.707  16.724  1.00  0.00    -0.550 OA
ATOM      9  O   UNL     1       2.038  11.530  16.527  1.00  0.00    -0.550 OA
ENDBRANCH   6   7
ENDBRANCH   5   6
ENDBRANCH   4   5
ENDBRANCH   3   4
ENDBRANCH   2   3
ENDBRANCH   1   2
BRANCH   1  10
ATOM     10  C   UNL     1      -1.262   7.778  16.992  1.00  0.00     0.027 C 
BRANCH  10  11
ATOM     11  C   UNL     1      -0.845   7.802  18.445  1.00  0.00    -0.031 C 
ATOM     12  C   UNL     1       0.366   7.453  18.920  1.00  0.00    -0.031 C 
BRANCH  12  13
ATOM     13  C   UNL     1       1.555   7.062  18.075  1.00  0.00     0.027 C 
BRANCH  13  14
ATOM     14  C   UNL     1       1.924   5.584  18.285  1.00  0.00     0.004 C 
BRANCH  14  15
ATOM     15  C   UNL     1       2.195   4.851  16.961  1.00  0.00     0.000 C 
BRANCH  15  16
ATOM     16  C   UNL     1       1.186   3.719  16.692  1.00  0.00    -0.000 C 
BRANCH  16  17
ATOM     17  C   UNL     1       1.503   2.849  15.464  1.00  0.00    -0.003 C 
ATOM     18  C   UNL     1       2.380   3.565  14.436  1.00  0.00     0.004 C 
ENDBRANCH  16  17
ENDBRANCH  15  16
ENDBRANCH  14  15
ENDBRANCH  13  14
ENDBRANCH  12  13
ENDBRANCH  10  11
ENDBRANCH   1  10
TORSDOF 13
ENDMDL
MODEL 8
REMARK VINA RESULT:    -1.839      1.297      2.941
REMARK INTER + INTRA:          -5.948
REMARK INTER:                  -3.151
REMARK INTRA:                  -2.797
REMARK UNBOUND:                -2.711
REMARK SMILES CCCCCCC=CCCCCCCCC(=O)[O-]
REMARK SMILES IDX 10 1 11 2 12 3 13 4 14 5 15 6 16 7 17 8 18 9 9 10 8 11 7 12
REMARK SMILES IDX 6 13 5 14 4 15 3 16 2 17 1 18
REMARK H PARENT
REMARK Flexibility Score: inf
ROOT
ATOM      1  C   UNL     1       1.113   6.298  14.302  1.00  0.00     0.004 C 
ENDROOT
BRANCH   1   2
ATOM      2  C   UNL     1       2.434   7.088  14.279  1.00  0.00     0.000 C 
BRANCH   2   3
ATOM      3  C   UNL     1       2.256   8.549  14.724  1.00  0.00     0.000 C 
BRANCH   3   4
ATOM      4  C   UNL     1       3.595   9.249  15.009  1.00  0.00     0.000 C 
BRANCH   4   5
ATOM      5  C   UNL     1       3.491  10.160  16.242  1.00  0.00     0.006 C 
BRANCH   5   6
ATOM      6  C   UNL     1       2.129  10.865  16.324  1.00  0.00     0.053 C 
BRANCH   6   7
ATOM      7  C   UNL     1       1.955  11.578  17.631  1.00  0.00     0.041 C 
ATOM      8  O   UNL     1       2.782  12.456  17.992  1.00  0.00    -0.550 OA
ATOM      9  O   UNL     1       0.864  11.288  18.439  1.00  0.00    -0.550 OA
ENDBRANCH   6   7
ENDBRANCH   5   6
ENDBRANCH   4   5
ENDBRANCH   3   4
ENDBRANCH   2   3
ENDBRANCH   1   2
BRANCH   1  10
ATOM     10  C   UNL     1      -0.106   7.184  14.614  1.00  0.00     0.027 C 
BRANCH  10  11
ATOM     11  C   UNL     1      -1.090   6.565  15.582  1.00  0.00    -0.031 C 
ATOM     12  C   UNL     1      -1.286   6.953  16.856  1.00  0.00    -0.031 C 
BRANCH  12  13
ATOM     13  C   UNL     1      -0.622   8.135  17.520  1.00  0.00     0.027 C 
BRANCH  13  14
ATOM     14  C   UNL     1       0.262   7.688  18.696  1.00  0.00     0.004 C 
BRANCH  14  15
ATOM     15  C   UNL     1       1.762   7.758  18.365  1.00  0.00     0.000 C 
BRANCH  15  16
ATOM     16  C   UNL     1       2.317   6.417  17.848  1.00  0.00    -0.000 C 
BRANCH  16  17
ATOM     17  C   UNL     1       1.576   5.169  18.361  1.00  0.00    -0.003 C 
ATOM     18  C   UNL     1       1.347   4.122  17.270  1.00  0.00     0.004 C 
ENDBRANCH  16  17
ENDBRANCH  15  16
ENDBRANCH  14  15
ENDBRANCH  13  14
ENDBRANCH  12  13
ENDBRANCH  10  11
ENDBRANCH   1  10
TORSDOF 13
ENDMDL
MODEL 9
REMARK VINA RESULT:    -1.777      1.855      4.071
REMARK INTER + INTRA:          -5.839
REMARK INTER:                  -3.311
REMARK INTRA:                  -2.528
REMARK UNBOUND:                -2.711
REMARK SMILES CCCCCCC=CCCCCCCCC(=O)[O-]
REMARK SMILES IDX 10 1 11 2 12 3 13 4 14 5 15 6 16 7 17 8 18 9 9 10 8 11 7 12
REMARK SMILES IDX 6 13 5 14 4 15 3 16 2 17 1 18
REMARK H PARENT
REMARK Flexibility Score: inf
ROOT
ATOM      1  C   UNL     1      -0.420   7.428  18.287  1.00  0.00     0.004 C 
ENDROOT
BRANCH   1   2
ATOM      2  C   UNL     1       0.292   8.783  18.114  1.00  0.00     0.000 C 
BRANCH   2   3
ATOM      3  C   UNL     1       1.643   8.837  18.845  1.00  0.00     0.000 C 
BRANCH   3   4
ATOM      4  C   UNL     1       2.573   9.930  18.294  1.00  0.00     0.000 C 
BRANCH   4   5
ATOM      5  C   UNL     1       1.778  10.987  17.511  1.00  0.00     0.006 C 
BRANCH   5   6
ATOM      6  C   UNL     1       1.776  12.349  18.221  1.00  0.00     0.053 C 
BRANCH   6   7
ATOM      7  C   UNL     1       0.412  12.699  18.736  1.00  0.00     0.041 C 
ATOM      8  O   UNL     1      -0.213  13.684  18.262  1.00  0.00    -0.550 OA
ATOM      9  O   UNL     1      -0.177  11.920  19.722  1.00  0.00    -0.550 OA
ENDBRANCH   6   7
ENDBRANCH   5   6
ENDBRANCH   4   5
ENDBRANCH   3   4
ENDBRANCH   2   3
ENDBRANCH   1   2
BRANCH   1  10
ATOM     10  C   UNL     1      -1.606   7.251  17.324  1.00  0.00     0.027 C 
BRANCH  10  11
ATOM     11  C   UNL     1      -1.428   6.133  16.321  1.00  0.00    -0.031 C 
ATOM     12  C   UNL     1      -0.823   6.243  15.123  1.00  0.00    -0.031 C 
BRANCH  12  13
ATOM     13  C   UNL     1      -0.131   7.481  14.605  1.00  0.00     0.027 C 
BRANCH  13  14
ATOM     14  C   UNL     1       1.334   7.189  14.243  1.00  0.00     0.004 C 
BRANCH  14  15
ATOM     15  C   UNL     1       2.324   7.986  15.107  1.00  0.00     0.000 C 
BRANCH  15  16
ATOM     16  C   UNL     1       3.188   7.082  16.007  1.00  0.00    -0.000 C 
BRANCH  16  17
ATOM     17  C   UNL     1       2.764   5.602  16.033  1.00  0.00    -0.003 C 
ATOM     18  C   UNL     1       2.201   5.167  17.386  1.00  0.00     0.004 C 
ENDBRANCH  16  17
ENDBRANCH  15  16
ENDBRANCH  14  15
ENDBRANCH  13  14
ENDBRANCH  12  13
ENDBRANCH  10  11
ENDBRANCH   1  10
TORSDOF 13
ENDMDL
