MODEL 1
REMARK VINA RESULT:    28.574      0.000      0.000
REMARK INTER + INTRA:          37.965
REMARK INTER:                  37.761
REMARK INTRA:                   0.204
REMARK UNBOUND:                 0.204
REMARK SMILES CC[C@@H](C=C[C@H](C)[C@@H]1CC[C@@H]2[C@H]3CC=C4C[C@@H](O)CC[C@@]4(C)[C@@H]3CC[C@@]21C)C(C)C
REMARK SMILES IDX 6 1 7 2 5 3 4 4 3 5 2 6 1 7 28 8 29 9 30 10 8 11 9 12 26 13
REMARK SMILES IDX 10 14 11 15 25 16 27 17 12 18 24 19 23 20 13 21 21 22 14 23
REMARK SMILES IDX 15 24 20 25 22 26 16 27 19 28 17 29 18 30
REMARK H PARENT 18 31
REMARK Flexibility Score: inf
ROOT
ATOM      1  C   UNL     1      75.487  40.240  20.784  1.00  0.00     0.012 C 
ATOM      2  C   UNL     1      75.698  39.793  19.324  1.00  0.00     0.012 C 
ENDROOT
BRANCH   1   3
ATOM      3  C   UNL     1      74.029  40.026  21.139  1.00  0.00    -0.028 C 
ATOM      4  C   UNL     1      73.039  40.576  20.411  1.00  0.00    -0.027 C 
BRANCH   4   5
ATOM      5  C   UNL     1      71.580  40.306  20.717  1.00  0.00     0.014 C 
BRANCH   5   6
ATOM      6  C   UNL     1      70.707  40.659  19.488  1.00  0.00     0.004 C 
ATOM      7  C   UNL     1      71.536  40.797  18.208  1.00  0.00     0.004 C 
ENDBRANCH   5   6
BRANCH   5   8
ATOM      8  C   UNL     1      71.160  41.047  22.022  1.00  0.00    -0.011 C 
ATOM      9  C   UNL     1      72.135  40.774  23.177  1.00  0.00     0.008 C 
ATOM     10  C   UNL     1      69.717  40.746  22.467  1.00  0.00     0.008 C 
ENDBRANCH   5   8
ENDBRANCH   4   5
ENDBRANCH   1   3
BRANCH   1  11
ATOM     11  C   UNL     1      76.405  39.469  21.790  1.00  0.00     0.002 C 
ATOM     12  C   UNL     1      75.991  38.008  21.944  1.00  0.00     0.005 C 
ATOM     13  C   UNL     1      76.516  39.993  23.260  1.00  0.00    -0.026 C 
ATOM     14  C   UNL     1      76.716  37.510  23.179  1.00  0.00     0.005 C 
ATOM     15  C   UNL     1      76.985  38.741  24.068  1.00  0.00    -0.001 C 
ATOM     16  C   UNL     1      75.155  40.485  23.824  1.00  0.00     0.007 C 
ATOM     17  C   UNL     1      77.581  41.124  23.351  1.00  0.00     0.012 C 
ATOM     18  C   UNL     1      76.338  38.564  25.490  1.00  0.00     0.000 C 
ATOM     19  C   UNL     1      75.258  40.909  25.297  1.00  0.00     0.005 C 
ATOM     20  C   UNL     1      76.069  39.918  26.191  1.00  0.00     0.003 C 
ATOM     21  C   UNL     1      77.254  37.675  26.362  1.00  0.00     0.031 C 
ATOM     22  C   UNL     1      75.465  39.733  27.638  1.00  0.00    -0.008 C 
ATOM     23  C   UNL     1      76.968  37.730  27.837  1.00  0.00    -0.027 C 
ATOM     24  C   UNL     1      76.316  38.744  28.440  1.00  0.00    -0.065 C 
ATOM     25  C   UNL     1      75.461  41.124  28.346  1.00  0.00     0.014 C 
ATOM     26  C   UNL     1      74.019  39.153  27.611  1.00  0.00     0.016 C 
ATOM     27  C   UNL     1      76.196  38.713  29.953  1.00  0.00     0.063 C 
ATOM     28  C   UNL     1      75.241  41.062  29.866  1.00  0.00     0.033 C 
ATOM     29  C   UNL     1      76.237  40.123  30.559  1.00  0.00     0.118 C 
BRANCH  29  30
ATOM     30  O   UNL     1      77.539  40.659  30.554  1.00  0.00    -0.393 OA
ATOM     31  H   UNL     1      77.514  41.543  31.006  1.00  0.00     0.210 HD
ENDBRANCH  29  30
ENDBRANCH   1  11
TORSDOF 6
ENDMDL
MODEL 2
REMARK VINA RESULT:    28.994      1.514      3.158
REMARK INTER + INTRA:          38.521
REMARK INTER:                  34.062
REMARK INTRA:                   4.459
REMARK UNBOUND:                 0.204
REMARK SMILES CC[C@@H](C=C[C@H](C)[C@@H]1CC[C@@H]2[C@H]3CC=C4C[C@@H](O)CC[C@@]4(C)[C@@H]3CC[C@@]21C)C(C)C
REMARK SMILES IDX 6 1 7 2 5 3 4 4 3 5 2 6 1 7 28 8 29 9 30 10 8 11 9 12 26 13
REMARK SMILES IDX 10 14 11 15 25 16 27 17 12 18 24 19 23 20 13 21 21 22 14 23
REMARK SMILES IDX 15 24 20 25 22 26 16 27 19 28 17 29 18 30
REMARK H PARENT 18 31
REMARK Flexibility Score: inf
ROOT
ATOM      1  C   UNL     1      73.327  39.088  18.673  1.00  0.00     0.012 C 
ATOM      2  C   UNL     1      73.587  37.604  19.000  1.00  0.00     0.012 C 
ENDROOT
BRANCH   1   3
ATOM      3  C   UNL     1      71.885  39.403  19.018  1.00  0.00    -0.028 C 
ATOM      4  C   UNL     1      71.378  39.140  20.237  1.00  0.00    -0.027 C 
BRANCH   4   5
ATOM      5  C   UNL     1      69.960  39.521  20.609  1.00  0.00     0.014 C 
BRANCH   5   6
ATOM      6  C   UNL     1      69.249  40.165  19.394  1.00  0.00     0.004 C 
ATOM      7  C   UNL     1      67.982  40.924  19.798  1.00  0.00     0.004 C 
ENDBRANCH   5   6
BRANCH   5   8
ATOM      8  C   UNL     1      69.963  40.418  21.885  1.00  0.00    -0.011 C 
ATOM      9  C   UNL     1      71.383  40.638  22.427  1.00  0.00     0.008 C 
ATOM     10  C   UNL     1      69.044  39.901  23.006  1.00  0.00     0.008 C 
ENDBRANCH   5   8
ENDBRANCH   4   5
ENDBRANCH   1   3
BRANCH   1  11
ATOM     11  C   UNL     1      74.289  40.054  19.442  1.00  0.00     0.002 C 
ATOM     12  C   UNL     1      75.757  39.734  19.179  1.00  0.00     0.005 C 
ATOM     13  C   UNL     1      74.185  40.134  21.001  1.00  0.00    -0.026 C 
ATOM     14  C   UNL     1      76.532  40.492  20.241  1.00  0.00     0.005 C 
ATOM     15  C   UNL     1      75.581  40.683  21.439  1.00  0.00    -0.001 C 
ATOM     16  C   UNL     1      73.954  38.746  21.657  1.00  0.00     0.007 C 
ATOM     17  C   UNL     1      73.061  41.125  21.418  1.00  0.00     0.012 C 
ATOM     18  C   UNL     1      76.183  40.051  22.746  1.00  0.00     0.000 C 
ATOM     19  C   UNL     1      73.948  38.824  23.191  1.00  0.00     0.005 C 
ATOM     20  C   UNL     1      75.096  39.698  23.789  1.00  0.00     0.003 C 
ATOM     21  C   UNL     1      77.221  41.023  23.353  1.00  0.00     0.031 C 
ATOM     22  C   UNL     1      75.711  39.109  25.119  1.00  0.00    -0.008 C 
ATOM     23  C   UNL     1      77.594  40.737  24.781  1.00  0.00    -0.027 C 
ATOM     24  C   UNL     1      76.829  40.023  25.630  1.00  0.00    -0.065 C 
ATOM     25  C   UNL     1      74.573  39.018  26.184  1.00  0.00     0.014 C 
ATOM     26  C   UNL     1      76.349  37.703  24.910  1.00  0.00     0.016 C 
ATOM     27  C   UNL     1      77.284  39.907  27.074  1.00  0.00     0.063 C 
ATOM     28  C   UNL     1      75.067  38.805  27.623  1.00  0.00     0.033 C 
ATOM     29  C   UNL     1      76.098  39.859  28.047  1.00  0.00     0.118 C 
BRANCH  29  30
ATOM     30  O   UNL     1      75.502  41.125  28.210  1.00  0.00    -0.393 OA
ATOM     31  H   UNL     1      74.620  41.116  27.753  1.00  0.00     0.210 HD
ENDBRANCH  29  30
ENDBRANCH   1  11
TORSDOF 6
ENDMDL
MODEL 3
REMARK VINA RESULT:    29.871      1.457      2.215
REMARK INTER + INTRA:          39.680
REMARK INTER:                  39.803
REMARK INTRA:                  -0.123
REMARK UNBOUND:                 0.204
REMARK SMILES CC[C@@H](C=C[C@H](C)[C@@H]1CC[C@@H]2[C@H]3CC=C4C[C@@H](O)CC[C@@]4(C)[C@@H]3CC[C@@]21C)C(C)C
REMARK SMILES IDX 6 1 7 2 5 3 4 4 3 5 2 6 1 7 28 8 29 9 30 10 8 11 9 12 26 13
REMARK SMILES IDX 10 14 11 15 25 16 27 17 12 18 24 19 23 20 13 21 21 22 14 23
REMARK SMILES IDX 15 24 20 25 22 26 16 27 19 28 17 29 18 30
REMARK H PARENT 18 31
REMARK Flexibility Score: inf
ROOT
ATOM      1  C   UNL     1      75.713  40.542  20.859  1.00  0.00     0.012 C 
ATOM      2  C   UNL     1      76.454  40.786  19.530  1.00  0.00     0.012 C 
ENDROOT
BRANCH   1   3
ATOM      3  C   UNL     1      74.380  39.891  20.546  1.00  0.00    -0.028 C 
ATOM      4  C   UNL     1      74.131  39.340  19.343  1.00  0.00    -0.027 C 
BRANCH   4   5
ATOM      5  C   UNL     1      72.829  38.624  19.049  1.00  0.00     0.014 C 
BRANCH   5   6
ATOM      6  C   UNL     1      71.740  39.071  20.056  1.00  0.00     0.004 C 
ATOM      7  C   UNL     1      72.197  38.919  21.510  1.00  0.00     0.004 C 
ENDBRANCH   5   6
BRANCH   5   8
ATOM      8  C   UNL     1      73.061  37.083  19.015  1.00  0.00    -0.011 C 
ATOM      9  C   UNL     1      74.301  36.708  18.191  1.00  0.00     0.008 C 
ATOM     10  C   UNL     1      71.840  36.285  18.525  1.00  0.00     0.008 C 
ENDBRANCH   5   8
ENDBRANCH   4   5
ENDBRANCH   1   3
BRANCH   1  11
ATOM     11  C   UNL     1      76.529  39.647  21.851  1.00  0.00     0.002 C 
ATOM     12  C   UNL     1      75.980  38.225  21.929  1.00  0.00     0.005 C 
ATOM     13  C   UNL     1      76.649  40.096  23.345  1.00  0.00    -0.026 C 
ATOM     14  C   UNL     1      76.624  37.611  23.157  1.00  0.00     0.005 C 
ATOM     15  C   UNL     1      76.980  38.772  24.106  1.00  0.00    -0.001 C 
ATOM     16  C   UNL     1      75.324  40.687  23.899  1.00  0.00     0.007 C 
ATOM     17  C   UNL     1      77.809  41.119  23.511  1.00  0.00     0.012 C 
ATOM     18  C   UNL     1      76.282  38.596  25.503  1.00  0.00     0.000 C 
ATOM     19  C   UNL     1      75.425  41.036  25.391  1.00  0.00     0.005 C 
ATOM     20  C   UNL     1      76.118  39.937  26.258  1.00  0.00     0.003 C 
ATOM     21  C   UNL     1      77.088  37.590  26.355  1.00  0.00     0.031 C 
ATOM     22  C   UNL     1      75.461  39.747  27.681  1.00  0.00    -0.008 C 
ATOM     23  C   UNL     1      76.769  37.608  27.824  1.00  0.00    -0.027 C 
ATOM     24  C   UNL     1      76.197  38.651  28.458  1.00  0.00    -0.065 C 
ATOM     25  C   UNL     1      75.566  41.101  28.451  1.00  0.00     0.014 C 
ATOM     26  C   UNL     1      73.969  39.305  27.596  1.00  0.00     0.016 C 
ATOM     27  C   UNL     1      76.034  38.567  29.965  1.00  0.00     0.063 C 
ATOM     28  C   UNL     1      75.300  40.995  29.961  1.00  0.00     0.033 C 
ATOM     29  C   UNL     1      76.187  39.940  30.634  1.00  0.00     0.118 C 
BRANCH  29  30
ATOM     30  O   UNL     1      77.532  40.353  30.682  1.00  0.00    -0.393 OA
ATOM     31  H   UNL     1      78.105  39.546  30.757  1.00  0.00     0.210 HD
ENDBRANCH  29  30
ENDBRANCH   1  11
TORSDOF 6
ENDMDL
