MODEL 1
REMARK VINA RESULT:    -4.740      0.000      0.000
REMARK INTER + INTRA:          -5.963
REMARK INTER:                  -5.710
REMARK INTRA:                  -0.253
REMARK UNBOUND:                -0.253
REMARK SMILES C=CCc1ccc(O)c(OC)c1
REMARK SMILES IDX 9 1 7 2 6 3 5 4 4 5 12 6 10 7 11 8 8 9 3 11 2 12 1 13
REMARK H PARENT 8 10
REMARK Flexibility Score: inf
ROOT
ATOM      1  C   UNL     1      14.056 -11.114  12.607  1.00  0.00     0.160 A 
ATOM      2  C   UNL     1      13.343  -9.906  12.621  1.00  0.00     0.157 A 
ATOM      3  C   UNL     1      14.030  -8.685  12.627  1.00  0.00     0.050 A 
ATOM      4  C   UNL     1      15.426  -8.662  12.620  1.00  0.00     0.008 A 
ATOM      5  C   UNL     1      16.153  -9.862  12.617  1.00  0.00    -0.040 A 
ATOM      6  C   UNL     1      15.465 -11.086  12.602  1.00  0.00     0.054 A 
ENDROOT
BRANCH   1   7
ATOM      7  O   UNL     1      13.332 -12.317  12.596  1.00  0.00    -0.493 OA
ATOM      8  C   UNL     1      13.921 -13.613  12.648  1.00  0.00     0.278 C 
ENDBRANCH   1   7
BRANCH   2   9
ATOM      9  O   UNL     1      11.951  -9.928  12.627  1.00  0.00    -0.504 OA
ATOM     10  H   UNL     1      11.420 -10.150  11.793  1.00  0.00     0.293 HD
ENDBRANCH   2   9
BRANCH   5  11
ATOM     11  C   UNL     1      17.659  -9.833  12.580  1.00  0.00     0.062 C 
BRANCH  11  12
ATOM     12  C   UNL     1      18.205  -9.048  13.740  1.00  0.00    -0.030 C 
ATOM     13  C   UNL     1      18.549  -9.639  14.887  1.00  0.00     0.004 C 
ENDBRANCH  11  12
ENDBRANCH   5  11
TORSDOF 4
ENDMDL
MODEL 2
REMARK VINA RESULT:    -4.578      1.481      2.780
REMARK INTER + INTRA:          -5.767
REMARK INTER:                  -5.550
REMARK INTRA:                  -0.217
REMARK UNBOUND:                -0.253
REMARK SMILES C=CCc1ccc(O)c(OC)c1
REMARK SMILES IDX 9 1 7 2 6 3 5 4 4 5 12 6 10 7 11 8 8 9 3 11 2 12 1 13
REMARK H PARENT 8 10
REMARK Flexibility Score: inf
ROOT
ATOM      1  C   UNL     1      13.610 -11.915  12.685  1.00  0.00     0.160 A 
ATOM      2  C   UNL     1      14.444 -13.042  12.722  1.00  0.00     0.157 A 
ATOM      3  C   UNL     1      15.823 -12.903  12.513  1.00  0.00     0.050 A 
ATOM      4  C   UNL     1      16.375 -11.645  12.266  1.00  0.00     0.008 A 
ATOM      5  C   UNL     1      15.552 -10.510  12.214  1.00  0.00    -0.040 A 
ATOM      6  C   UNL     1      14.172 -10.647  12.432  1.00  0.00     0.054 A 
ENDROOT
BRANCH   1   7
ATOM      7  O   UNL     1      12.236 -12.094  12.904  1.00  0.00    -0.493 OA
ATOM      8  C   UNL     1      11.251 -12.113  11.875  1.00  0.00     0.278 C 
ENDBRANCH   1   7
BRANCH   2   9
ATOM      9  O   UNL     1      13.895 -14.298  12.970  1.00  0.00    -0.504 OA
ATOM     10  H   UNL     1      13.212 -14.443  13.704  1.00  0.00     0.293 HD
ENDBRANCH   2   9
BRANCH   5  11
ATOM     11  C   UNL     1      16.155  -9.150  11.976  1.00  0.00     0.062 C 
BRANCH  11  12
ATOM     12  C   UNL     1      17.376  -8.952  12.830  1.00  0.00    -0.030 C 
ATOM     13  C   UNL     1      18.195  -7.912  12.654  1.00  0.00     0.004 C 
ENDBRANCH  11  12
ENDBRANCH   5  11
TORSDOF 4
ENDMDL
MODEL 3
REMARK VINA RESULT:    -4.501      2.041      3.185
REMARK INTER + INTRA:          -5.675
REMARK INTER:                  -5.426
REMARK INTRA:                  -0.249
REMARK UNBOUND:                -0.253
REMARK SMILES C=CCc1ccc(O)c(OC)c1
REMARK SMILES IDX 9 1 7 2 6 3 5 4 4 5 12 6 10 7 11 8 8 9 3 11 2 12 1 13
REMARK H PARENT 8 10
REMARK Flexibility Score: inf
ROOT
ATOM      1  C   UNL     1      15.393 -10.077  12.402  1.00  0.00     0.160 A 
ATOM      2  C   UNL     1      16.623 -10.741  12.530  1.00  0.00     0.157 A 
ATOM      3  C   UNL     1      17.756 -10.041  12.964  1.00  0.00     0.050 A 
ATOM      4  C   UNL     1      17.671  -8.682  13.270  1.00  0.00     0.008 A 
ATOM      5  C   UNL     1      16.451  -8.002  13.136  1.00  0.00    -0.040 A 
ATOM      6  C   UNL     1      15.312  -8.705  12.710  1.00  0.00     0.054 A 
ENDROOT
BRANCH   1   7
ATOM      7  O   UNL     1      14.279 -10.814  11.970  1.00  0.00    -0.493 OA
ATOM      8  C   UNL     1      13.087 -10.992  12.729  1.00  0.00     0.278 C 
ENDBRANCH   1   7
BRANCH   2   9
ATOM      9  O   UNL     1      16.709 -12.097  12.226  1.00  0.00    -0.504 OA
ATOM     10  H   UNL     1      16.728 -12.425  11.267  1.00  0.00     0.293 HD
ENDBRANCH   2   9
BRANCH   5  11
ATOM     11  C   UNL     1      16.356  -6.542  13.496  1.00  0.00     0.062 C 
BRANCH  11  12
ATOM     12  C   UNL     1      17.357  -6.190  14.561  1.00  0.00    -0.030 C 
ATOM     13  C   UNL     1      17.038  -6.207  15.858  1.00  0.00     0.004 C 
ENDBRANCH  11  12
ENDBRANCH   5  11
TORSDOF 4
ENDMDL
MODEL 4
REMARK VINA RESULT:    -4.480      1.254      3.000
REMARK INTER + INTRA:          -5.650
REMARK INTER:                  -5.415
REMARK INTRA:                  -0.235
REMARK UNBOUND:                -0.253
REMARK SMILES C=CCc1ccc(O)c(OC)c1
REMARK SMILES IDX 9 1 7 2 6 3 5 4 4 5 12 6 10 7 11 8 8 9 3 11 2 12 1 13
REMARK H PARENT 8 10
REMARK Flexibility Score: inf
ROOT
ATOM      1  C   UNL     1      14.208  -8.414  12.827  1.00  0.00     0.160 A 
ATOM      2  C   UNL     1      13.452  -9.584  12.656  1.00  0.00     0.157 A 
ATOM      3  C   UNL     1      14.095 -10.819  12.496  1.00  0.00     0.050 A 
ATOM      4  C   UNL     1      15.489 -10.894  12.504  1.00  0.00     0.008 A 
ATOM      5  C   UNL     1      16.258  -9.732  12.662  1.00  0.00    -0.040 A 
ATOM      6  C   UNL     1      15.615  -8.495  12.832  1.00  0.00     0.054 A 
ENDROOT
BRANCH   1   7
ATOM      7  O   UNL     1      13.528  -7.198  12.990  1.00  0.00    -0.493 OA
ATOM      8  C   UNL     1      13.988  -6.120  13.800  1.00  0.00     0.278 C 
ENDBRANCH   1   7
BRANCH   2   9
ATOM      9  O   UNL     1      12.062  -9.510  12.648  1.00  0.00    -0.504 OA
ATOM     10  H   UNL     1      11.569  -8.727  13.063  1.00  0.00     0.293 HD
ENDBRANCH   2   9
BRANCH   5  11
ATOM     11  C   UNL     1      17.762  -9.820  12.700  1.00  0.00     0.062 C 
BRANCH  11  12
ATOM     12  C   UNL     1      18.308  -9.090  13.895  1.00  0.00    -0.030 C 
ATOM     13  C   UNL     1      18.563  -9.718  15.046  1.00  0.00     0.004 C 
ENDBRANCH  11  12
ENDBRANCH   5  11
TORSDOF 4
ENDMDL
MODEL 5
REMARK VINA RESULT:    -4.473      3.971      5.343
REMARK INTER + INTRA:          -5.641
REMARK INTER:                  -5.458
REMARK INTRA:                  -0.183
REMARK UNBOUND:                -0.253
REMARK SMILES C=CCc1ccc(O)c(OC)c1
REMARK SMILES IDX 9 1 7 2 6 3 5 4 4 5 12 6 10 7 11 8 8 9 3 11 2 12 1 13
REMARK H PARENT 8 10
REMARK Flexibility Score: inf
ROOT
ATOM      1  C   UNL     1      16.558  -6.080  15.837  1.00  0.00     0.160 A 
ATOM      2  C   UNL     1      15.334  -5.731  15.246  1.00  0.00     0.157 A 
ATOM      3  C   UNL     1      15.031  -6.164  13.949  1.00  0.00     0.050 A 
ATOM      4  C   UNL     1      15.944  -6.943  13.235  1.00  0.00     0.008 A 
ATOM      5  C   UNL     1      17.176  -7.290  13.808  1.00  0.00    -0.040 A 
ATOM      6  C   UNL     1      17.477  -6.865  15.112  1.00  0.00     0.054 A 
ENDROOT
BRANCH   1   7
ATOM      7  O   UNL     1      16.822  -5.632  17.141  1.00  0.00    -0.493 OA
ATOM      8  C   UNL     1      16.374  -6.288  18.324  1.00  0.00     0.278 C 
ENDBRANCH   1   7
BRANCH   2   9
ATOM      9  O   UNL     1      14.422  -4.955  15.958  1.00  0.00    -0.504 OA
ATOM     10  H   UNL     1      13.633  -5.371  16.440  1.00  0.00     0.293 HD
ENDBRANCH   2   9
BRANCH   5  11
ATOM     11  C   UNL     1      18.146  -8.156  13.046  1.00  0.00     0.062 C 
BRANCH  11  12
ATOM     12  C   UNL     1      17.962  -9.604  13.404  1.00  0.00    -0.030 C 
ATOM     13  C   UNL     1      17.089 -10.382  12.757  1.00  0.00     0.004 C 
ENDBRANCH  11  12
ENDBRANCH   5  11
TORSDOF 4
ENDMDL
MODEL 6
REMARK VINA RESULT:    -4.423      3.626      5.224
REMARK INTER + INTRA:          -5.581
REMARK INTER:                  -5.319
REMARK INTRA:                  -0.262
REMARK UNBOUND:                -0.253
REMARK SMILES C=CCc1ccc(O)c(OC)c1
REMARK SMILES IDX 9 1 7 2 6 3 5 4 4 5 12 6 10 7 11 8 8 9 3 11 2 12 1 13
REMARK H PARENT 8 10
REMARK Flexibility Score: inf
ROOT
ATOM      1  C   UNL     1      14.998  -5.865  14.224  1.00  0.00     0.160 A 
ATOM      2  C   UNL     1      15.313  -5.605  15.566  1.00  0.00     0.157 A 
ATOM      3  C   UNL     1      16.521  -6.066  16.107  1.00  0.00     0.050 A 
ATOM      4  C   UNL     1      17.417  -6.786  15.316  1.00  0.00     0.008 A 
ATOM      5  C   UNL     1      17.112  -7.064  13.976  1.00  0.00    -0.040 A 
ATOM      6  C   UNL     1      15.906  -6.595  13.430  1.00  0.00     0.054 A 
ENDROOT
BRANCH   1   7
ATOM      7  O   UNL     1      13.782  -5.382  13.718  1.00  0.00    -0.493 OA
ATOM      8  C   UNL     1      13.651  -4.213  12.915  1.00  0.00     0.278 C 
ENDBRANCH   1   7
BRANCH   2   9
ATOM      9  O   UNL     1      14.420  -4.885  16.356  1.00  0.00    -0.504 OA
ATOM     10  H   UNL     1      14.068  -5.256  17.232  1.00  0.00     0.293 HD
ENDBRANCH   2   9
BRANCH   5  11
ATOM     11  C   UNL     1      18.095  -7.816  13.117  1.00  0.00     0.062 C 
BRANCH  11  12
ATOM     12  C   UNL     1      18.135  -9.269  13.501  1.00  0.00    -0.030 C 
ATOM     13  C   UNL     1      17.349 -10.174  12.911  1.00  0.00     0.004 C 
ENDBRANCH  11  12
ENDBRANCH   5  11
TORSDOF 4
ENDMDL
MODEL 7
REMARK VINA RESULT:    -4.375      4.742      5.801
REMARK INTER + INTRA:          -5.524
REMARK INTER:                  -5.292
REMARK INTRA:                  -0.232
REMARK UNBOUND:                -0.253
REMARK SMILES C=CCc1ccc(O)c(OC)c1
REMARK SMILES IDX 9 1 7 2 6 3 5 4 4 5 12 6 10 7 11 8 8 9 3 11 2 12 1 13
REMARK H PARENT 8 10
REMARK Flexibility Score: inf
ROOT
ATOM      1  C   UNL     1      17.088  -6.964  14.309  1.00  0.00     0.160 A 
ATOM      2  C   UNL     1      15.872  -6.479  13.805  1.00  0.00     0.157 A 
ATOM      3  C   UNL     1      15.003  -5.761  14.638  1.00  0.00     0.050 A 
ATOM      4  C   UNL     1      15.341  -5.525  15.972  1.00  0.00     0.008 A 
ATOM      5  C   UNL     1      16.548  -6.014  16.493  1.00  0.00    -0.040 A 
ATOM      6  C   UNL     1      17.424  -6.725  15.656  1.00  0.00     0.054 A 
ENDROOT
BRANCH   1   7
ATOM      7  O   UNL     1      17.934  -7.674  13.442  1.00  0.00    -0.493 OA
ATOM      8  C   UNL     1      18.228  -9.063  13.561  1.00  0.00     0.278 C 
ENDBRANCH   1   7
BRANCH   2   9
ATOM      9  O   UNL     1      15.535  -6.713  12.475  1.00  0.00    -0.504 OA
ATOM     10  H   UNL     1      15.295  -5.954  11.847  1.00  0.00     0.293 HD
ENDBRANCH   2   9
BRANCH   5  11
ATOM     11  C   UNL     1      16.923  -5.732  17.925  1.00  0.00     0.062 C 
BRANCH  11  12
ATOM     12  C   UNL     1      15.887  -4.865  18.585  1.00  0.00    -0.030 C 
ATOM     13  C   UNL     1      16.218  -3.947  19.498  1.00  0.00     0.004 C 
ENDBRANCH  11  12
ENDBRANCH   5  11
TORSDOF 4
ENDMDL
MODEL 8
REMARK VINA RESULT:    -4.302      2.701      5.000
REMARK INTER + INTRA:          -5.436
REMARK INTER:                  -5.189
REMARK INTRA:                  -0.247
REMARK UNBOUND:                -0.253
REMARK SMILES C=CCc1ccc(O)c(OC)c1
REMARK SMILES IDX 9 1 7 2 6 3 5 4 4 5 12 6 10 7 11 8 8 9 3 11 2 12 1 13
REMARK H PARENT 8 10
REMARK Flexibility Score: inf
ROOT
ATOM      1  C   UNL     1      16.204  -8.209  12.761  1.00  0.00     0.160 A 
ATOM      2  C   UNL     1      17.410  -8.925  12.764  1.00  0.00     0.157 A 
ATOM      3  C   UNL     1      17.401 -10.317  12.605  1.00  0.00     0.050 A 
ATOM      4  C   UNL     1      16.195 -11.000  12.443  1.00  0.00     0.008 A 
ATOM      5  C   UNL     1      14.980 -10.299  12.449  1.00  0.00    -0.040 A 
ATOM      6  C   UNL     1      14.988  -8.903  12.599  1.00  0.00     0.054 A 
ENDROOT
BRANCH   1   7
ATOM      7  O   UNL     1      16.254  -6.815  12.918  1.00  0.00    -0.493 OA
ATOM      8  C   UNL     1      15.762  -6.114  14.057  1.00  0.00     0.278 C 
ENDBRANCH   1   7
BRANCH   2   9
ATOM      9  O   UNL     1      18.615  -8.244  12.925  1.00  0.00    -0.504 OA
ATOM     10  H   UNL     1      19.397  -8.660  13.418  1.00  0.00     0.293 HD
ENDBRANCH   2   9
BRANCH   5  11
ATOM     11  C   UNL     1      13.682 -11.036  12.244  1.00  0.00     0.062 C 
BRANCH  11  12
ATOM     12  C   UNL     1      13.921 -12.516  12.134  1.00  0.00    -0.030 C 
ATOM     13  C   UNL     1      13.363 -13.383  12.983  1.00  0.00     0.004 C 
ENDBRANCH  11  12
ENDBRANCH   5  11
TORSDOF 4
ENDMDL
MODEL 9
REMARK VINA RESULT:    -4.100      2.488      4.315
REMARK INTER + INTRA:          -5.193
REMARK INTER:                  -4.954
REMARK INTRA:                  -0.238
REMARK UNBOUND:                -0.253
REMARK SMILES C=CCc1ccc(O)c(OC)c1
REMARK SMILES IDX 9 1 7 2 6 3 5 4 4 5 12 6 10 7 11 8 8 9 3 11 2 12 1 13
REMARK H PARENT 8 10
REMARK Flexibility Score: inf
ROOT
ATOM      1  C   UNL     1      15.713  -7.959  12.892  1.00  0.00     0.160 A 
ATOM      2  C   UNL     1      14.333  -7.719  12.975  1.00  0.00     0.157 A 
ATOM      3  C   UNL     1      13.425  -8.769  12.786  1.00  0.00     0.050 A 
ATOM      4  C   UNL     1      13.885 -10.059  12.515  1.00  0.00     0.008 A 
ATOM      5  C   UNL     1      15.261 -10.312  12.418  1.00  0.00    -0.040 A 
ATOM      6  C   UNL     1      16.173  -9.263  12.616  1.00  0.00     0.054 A 
ENDROOT
BRANCH   1   7
ATOM      7  O   UNL     1      16.591  -6.883  13.093  1.00  0.00    -0.493 OA
ATOM      8  C   UNL     1      17.301  -6.637  14.303  1.00  0.00     0.278 C 
ENDBRANCH   1   7
BRANCH   2   9
ATOM      9  O   UNL     1      13.873  -6.433  13.246  1.00  0.00    -0.504 OA
ATOM     10  H   UNL     1      14.321  -5.845  13.940  1.00  0.00     0.293 HD
ENDBRANCH   2   9
BRANCH   5  11
ATOM     11  C   UNL     1      15.755 -11.711  12.155  1.00  0.00     0.062 C 
BRANCH  11  12
ATOM     12  C   UNL     1      14.605 -12.640  11.882  1.00  0.00    -0.030 C 
ATOM     13  C   UNL     1      14.361 -13.702  12.654  1.00  0.00     0.004 C 
ENDBRANCH  11  12
ENDBRANCH   5  11
TORSDOF 4
ENDMDL
