MODEL 1
REMARK VINA RESULT:    -5.905      0.000      0.000
REMARK INTER + INTRA:          -6.777
REMARK INTER:                  -6.250
REMARK INTRA:                  -0.527
REMARK UNBOUND:                -0.527
REMARK SMILES CC1=CC[C@@]23[C@H]([C@H](C(C)C)CC[C@H]2C)[C@H]13
REMARK SMILES IDX 14 1 13 2 12 3 11 4 7 5 6 6 5 7 15 8 2 9 3 10 4 11 1 12 8 13
REMARK SMILES IDX 9 14 10 15
REMARK H PARENT
REMARK Flexibility Score: inf
ROOT
ATOM      1  C   UNL     1      -1.734  -0.507  14.122  1.00  0.00     0.008 C 
ATOM      2  C   UNL     1      -1.959   0.680  13.180  1.00  0.00    -0.007 C 
ATOM      3  C   UNL     1      -1.249   0.449  11.811  1.00  0.00     0.004 C 
ATOM      4  C   UNL     1      -1.265   1.690  10.861  1.00  0.00     0.004 C 
ATOM      5  C   UNL     1      -1.053   3.068  11.573  1.00  0.00    -0.004 C 
ATOM      6  C   UNL     1      -2.008   3.046  12.774  1.00  0.00     0.007 C 
ATOM      7  C   UNL     1      -1.413   1.994  13.779  1.00  0.00    -0.013 C 
ATOM      8  C   UNL     1      -1.962   3.341  14.240  1.00  0.00     0.025 C 
ATOM      9  C   UNL     1      -0.779   4.112  14.709  1.00  0.00    -0.073 C 
ATOM     10  C   UNL     1       0.336   3.401  14.677  1.00  0.00    -0.027 C 
ATOM     11  C   UNL     1       0.092   2.024  14.175  1.00  0.00     0.035 C 
ATOM     12  C   UNL     1      -0.843   5.533  15.176  1.00  0.00     0.039 C 
ENDROOT
BRANCH   5  13
ATOM     13  C   UNL     1      -1.398   4.264  10.639  1.00  0.00    -0.014 C 
ATOM     14  C   UNL     1      -2.916   4.512  10.597  1.00  0.00     0.007 C 
ATOM     15  C   UNL     1      -0.689   5.555  11.081  1.00  0.00     0.007 C 
ENDBRANCH   5  13
TORSDOF 1
ENDMDL
MODEL 2
REMARK VINA RESULT:    -5.721      1.385      3.801
REMARK INTER + INTRA:          -6.583
REMARK INTER:                  -6.229
REMARK INTRA:                  -0.353
REMARK UNBOUND:                -0.527
REMARK SMILES CC1=CC[C@@]23[C@H]([C@H](C(C)C)CC[C@H]2C)[C@H]13
REMARK SMILES IDX 14 1 13 2 12 3 11 4 7 5 6 6 5 7 15 8 2 9 3 10 4 11 1 12 8 13
REMARK SMILES IDX 9 14 10 15
REMARK H PARENT
REMARK Flexibility Score: inf
ROOT
ATOM      1  C   UNL     1       1.861   5.877  15.004  1.00  0.00     0.008 C 
ATOM      2  C   UNL     1       1.253   5.238  13.752  1.00  0.00    -0.007 C 
ATOM      3  C   UNL     1       0.479   6.294  12.905  1.00  0.00     0.004 C 
ATOM      4  C   UNL     1      -0.332   5.694  11.713  1.00  0.00     0.004 C 
ATOM      5  C   UNL     1      -1.047   4.336  12.020  1.00  0.00    -0.004 C 
ATOM      6  C   UNL     1       0.023   3.467  12.696  1.00  0.00     0.007 C 
ATOM      7  C   UNL     1       0.266   4.107  14.111  1.00  0.00    -0.013 C 
ATOM      8  C   UNL     1       0.151   2.599  13.908  1.00  0.00     0.025 C 
ATOM      9  C   UNL     1      -1.127   2.207  14.562  1.00  0.00    -0.073 C 
ATOM     10  C   UNL     1      -1.713   3.219  15.180  1.00  0.00    -0.027 C 
ATOM     11  C   UNL     1      -0.926   4.472  15.043  1.00  0.00     0.035 C 
ATOM     12  C   UNL     1      -1.684   0.818  14.535  1.00  0.00     0.039 C 
ENDROOT
BRANCH   5  13
ATOM     13  C   UNL     1      -1.558   3.641  10.725  1.00  0.00    -0.014 C 
ATOM     14  C   UNL     1      -1.418   2.112  10.827  1.00  0.00     0.007 C 
ATOM     15  C   UNL     1      -3.025   3.994  10.428  1.00  0.00     0.007 C 
ENDBRANCH   5  13
TORSDOF 1
ENDMDL
MODEL 3
REMARK VINA RESULT:    -5.219      1.552      3.921
REMARK INTER + INTRA:          -6.051
REMARK INTER:                  -5.789
REMARK INTRA:                  -0.262
REMARK UNBOUND:                -0.527
REMARK SMILES CC1=CC[C@@]23[C@H]([C@H](C(C)C)CC[C@H]2C)[C@H]13
REMARK SMILES IDX 14 1 13 2 12 3 11 4 7 5 6 6 5 7 15 8 2 9 3 10 4 11 1 12 8 13
REMARK SMILES IDX 9 14 10 15
REMARK H PARENT
REMARK Flexibility Score: inf
ROOT
ATOM      1  C   UNL     1       1.759   5.273  14.490  1.00  0.00     0.008 C 
ATOM      2  C   UNL     1       0.566   5.298  13.529  1.00  0.00    -0.007 C 
ATOM      3  C   UNL     1      -0.618   6.115  14.129  1.00  0.00     0.004 C 
ATOM      4  C   UNL     1      -1.941   6.032  13.303  1.00  0.00     0.004 C 
ATOM      5  C   UNL     1      -2.256   4.622  12.702  1.00  0.00    -0.004 C 
ATOM      6  C   UNL     1      -0.946   4.169  12.044  1.00  0.00     0.007 C 
ATOM      7  C   UNL     1       0.050   3.875  13.224  1.00  0.00    -0.013 C 
ATOM      8  C   UNL     1      -0.075   2.951  12.016  1.00  0.00     0.025 C 
ATOM      9  C   UNL     1      -0.693   1.701  12.534  1.00  0.00    -0.073 C 
ATOM     10  C   UNL     1      -0.857   1.722  13.847  1.00  0.00    -0.027 C 
ATOM     11  C   UNL     1      -0.378   2.998  14.437  1.00  0.00     0.035 C 
ATOM     12  C   UNL     1      -1.077   0.541  11.669  1.00  0.00     0.039 C 
ENDROOT
BRANCH   5  13
ATOM     13  C   UNL     1      -3.393   4.681  11.640  1.00  0.00    -0.014 C 
ATOM     14  C   UNL     1      -4.657   5.337  12.222  1.00  0.00     0.007 C 
ATOM     15  C   UNL     1      -2.959   5.451  10.382  1.00  0.00     0.007 C 
ENDBRANCH   5  13
TORSDOF 1
ENDMDL
MODEL 4
REMARK VINA RESULT:    -5.069      1.106      4.458
REMARK INTER + INTRA:          -5.892
REMARK INTER:                  -5.650
REMARK INTRA:                  -0.242
REMARK UNBOUND:                -0.527
REMARK SMILES CC1=CC[C@@]23[C@H]([C@H](C(C)C)CC[C@H]2C)[C@H]13
REMARK SMILES IDX 14 1 13 2 12 3 11 4 7 5 6 6 5 7 15 8 2 9 3 10 4 11 1 12 8 13
REMARK SMILES IDX 9 14 10 15
REMARK H PARENT
REMARK Flexibility Score: inf
ROOT
ATOM      1  C   UNL     1       0.402   6.560  14.512  1.00  0.00     0.008 C 
ATOM      2  C   UNL     1      -0.304   5.202  14.434  1.00  0.00    -0.007 C 
ATOM      3  C   UNL     1       0.724   4.032  14.509  1.00  0.00     0.004 C 
ATOM      4  C   UNL     1       0.111   2.620  14.244  1.00  0.00     0.004 C 
ATOM      5  C   UNL     1      -0.971   2.572  13.114  1.00  0.00    -0.004 C 
ATOM      6  C   UNL     1      -1.917   3.741  13.420  1.00  0.00     0.007 C 
ATOM      7  C   UNL     1      -1.098   5.049  13.119  1.00  0.00    -0.013 C 
ATOM      8  C   UNL     1      -2.552   4.882  12.688  1.00  0.00     0.025 C 
ATOM      9  C   UNL     1      -2.520   4.797  11.203  1.00  0.00    -0.073 C 
ATOM     10  C   UNL     1      -1.305   4.978  10.711  1.00  0.00    -0.027 C 
ATOM     11  C   UNL     1      -0.309   5.213  11.787  1.00  0.00     0.035 C 
ATOM     12  C   UNL     1      -3.729   4.546  10.357  1.00  0.00     0.039 C 
ENDROOT
BRANCH   5  13
ATOM     13  C   UNL     1      -1.760   1.231  13.120  1.00  0.00    -0.014 C 
ATOM     14  C   UNL     1      -1.175   0.241  12.100  1.00  0.00     0.007 C 
ATOM     15  C   UNL     1      -1.763   0.577  14.512  1.00  0.00     0.007 C 
ENDBRANCH   5  13
TORSDOF 1
ENDMDL
MODEL 5
REMARK VINA RESULT:    -5.036      1.185      3.630
REMARK INTER + INTRA:          -5.857
REMARK INTER:                  -5.340
REMARK INTRA:                  -0.517
REMARK UNBOUND:                -0.527
REMARK SMILES CC1=CC[C@@]23[C@H]([C@H](C(C)C)CC[C@H]2C)[C@H]13
REMARK SMILES IDX 14 1 13 2 12 3 11 4 7 5 6 6 5 7 15 8 2 9 3 10 4 11 1 12 8 13
REMARK SMILES IDX 9 14 10 15
REMARK H PARENT
REMARK Flexibility Score: inf
ROOT
ATOM      1  C   UNL     1      -1.339   0.114  12.260  1.00  0.00     0.008 C 
ATOM      2  C   UNL     1      -0.975   1.394  13.018  1.00  0.00    -0.007 C 
ATOM      3  C   UNL     1      -1.937   1.622  14.225  1.00  0.00     0.004 C 
ATOM      4  C   UNL     1      -1.759   3.001  14.937  1.00  0.00     0.004 C 
ATOM      5  C   UNL     1      -1.489   4.209  13.978  1.00  0.00    -0.004 C 
ATOM      6  C   UNL     1      -0.386   3.722  13.028  1.00  0.00     0.007 C 
ATOM      7  C   UNL     1      -1.058   2.638  12.108  1.00  0.00    -0.013 C 
ATOM      8  C   UNL     1      -0.113   3.701  11.556  1.00  0.00     0.025 C 
ATOM      9  C   UNL     1      -0.963   4.597  10.726  1.00  0.00    -0.073 C 
ATOM     10  C   UNL     1      -2.213   4.173  10.639  1.00  0.00    -0.027 C 
ATOM     11  C   UNL     1      -2.417   2.914  11.402  1.00  0.00     0.035 C 
ATOM     12  C   UNL     1      -0.459   5.836  10.054  1.00  0.00     0.039 C 
ENDROOT
BRANCH   5  13
ATOM     13  C   UNL     1      -1.007   5.470  14.752  1.00  0.00    -0.014 C 
ATOM     14  C   UNL     1       0.528   5.503  14.853  1.00  0.00     0.007 C 
ATOM     15  C   UNL     1      -1.496   6.768  14.088  1.00  0.00     0.007 C 
ENDBRANCH   5  13
TORSDOF 1
ENDMDL
MODEL 6
REMARK VINA RESULT:    -4.979      1.521      4.052
REMARK INTER + INTRA:          -5.796
REMARK INTER:                  -5.437
REMARK INTRA:                  -0.360
REMARK UNBOUND:                -0.527
REMARK SMILES CC1=CC[C@@]23[C@H]([C@H](C(C)C)CC[C@H]2C)[C@H]13
REMARK SMILES IDX 14 1 13 2 12 3 11 4 7 5 6 6 5 7 15 8 2 9 3 10 4 11 1 12 8 13
REMARK SMILES IDX 9 14 10 15
REMARK H PARENT
REMARK Flexibility Score: inf
ROOT
ATOM      1  C   UNL     1      -3.670   4.653  10.166  1.00  0.00     0.008 C 
ATOM      2  C   UNL     1      -2.613   5.113  11.174  1.00  0.00    -0.007 C 
ATOM      3  C   UNL     1      -1.379   5.730  10.448  1.00  0.00     0.004 C 
ATOM      4  C   UNL     1      -0.173   6.049  11.388  1.00  0.00     0.004 C 
ATOM      5  C   UNL     1       0.093   4.985  12.505  1.00  0.00    -0.004 C 
ATOM      6  C   UNL     1      -1.282   4.718  13.133  1.00  0.00     0.007 C 
ATOM      7  C   UNL     1      -2.110   3.942  12.045  1.00  0.00    -0.013 C 
ATOM      8  C   UNL     1      -2.122   3.541  13.518  1.00  0.00     0.025 C 
ATOM      9  C   UNL     1      -1.415   2.233  13.579  1.00  0.00    -0.073 C 
ATOM     10  C   UNL     1      -1.082   1.779  12.382  1.00  0.00    -0.027 C 
ATOM     11  C   UNL     1      -1.509   2.711  11.306  1.00  0.00     0.035 C 
ATOM     12  C   UNL     1      -1.121   1.504  14.853  1.00  0.00     0.039 C 
ENDROOT
BRANCH   5  13
ATOM     13  C   UNL     1       1.080   5.511  13.587  1.00  0.00    -0.014 C 
ATOM     14  C   UNL     1       1.741   6.825  13.139  1.00  0.00     0.007 C 
ATOM     15  C   UNL     1       0.381   5.733  14.938  1.00  0.00     0.007 C 
ENDBRANCH   5  13
TORSDOF 1
ENDMDL
MODEL 7
REMARK VINA RESULT:    -4.975      1.122      1.338
REMARK INTER + INTRA:          -5.792
REMARK INTER:                  -5.272
REMARK INTRA:                  -0.520
REMARK UNBOUND:                -0.527
REMARK SMILES CC1=CC[C@@]23[C@H]([C@H](C(C)C)CC[C@H]2C)[C@H]13
REMARK SMILES IDX 14 1 13 2 12 3 11 4 7 5 6 6 5 7 15 8 2 9 3 10 4 11 1 12 8 13
REMARK SMILES IDX 9 14 10 15
REMARK H PARENT
REMARK Flexibility Score: inf
ROOT
ATOM      1  C   UNL     1      -1.470   1.070  14.860  1.00  0.00     0.008 C 
ATOM      2  C   UNL     1      -1.731   2.002  13.672  1.00  0.00    -0.007 C 
ATOM      3  C   UNL     1      -1.215   1.371  12.343  1.00  0.00     0.004 C 
ATOM      4  C   UNL     1      -1.267   2.333  11.112  1.00  0.00     0.004 C 
ATOM      5  C   UNL     1      -0.875   3.817  11.418  1.00  0.00    -0.004 C 
ATOM      6  C   UNL     1      -1.672   4.186  12.677  1.00  0.00     0.007 C 
ATOM      7  C   UNL     1      -1.028   3.363  13.852  1.00  0.00    -0.013 C 
ATOM      8  C   UNL     1      -1.422   4.830  14.005  1.00  0.00     0.025 C 
ATOM      9  C   UNL     1      -0.140   5.575  14.133  1.00  0.00    -0.073 C 
ATOM     10  C   UNL     1       0.912   4.774  14.169  1.00  0.00    -0.027 C 
ATOM     11  C   UNL     1       0.514   3.345  14.068  1.00  0.00     0.035 C 
ATOM     12  C   UNL     1      -0.050   7.066  14.223  1.00  0.00     0.039 C 
ENDROOT
BRANCH   5  13
ATOM     13  C   UNL     1      -1.253   4.771  10.249  1.00  0.00    -0.014 C 
ATOM     14  C   UNL     1      -2.693   5.291  10.404  1.00  0.00     0.007 C 
ATOM     15  C   UNL     1      -0.293   5.969  10.157  1.00  0.00     0.007 C 
ENDBRANCH   5  13
TORSDOF 1
ENDMDL
MODEL 8
REMARK VINA RESULT:    -4.924      1.539      3.531
REMARK INTER + INTRA:          -5.738
REMARK INTER:                  -5.324
REMARK INTRA:                  -0.414
REMARK UNBOUND:                -0.527
REMARK SMILES CC1=CC[C@@]23[C@H]([C@H](C(C)C)CC[C@H]2C)[C@H]13
REMARK SMILES IDX 14 1 13 2 12 3 11 4 7 5 6 6 5 7 15 8 2 9 3 10 4 11 1 12 8 13
REMARK SMILES IDX 9 14 10 15
REMARK H PARENT
REMARK Flexibility Score: inf
ROOT
ATOM      1  C   UNL     1      -2.123   0.676  14.130  1.00  0.00     0.008 C 
ATOM      2  C   UNL     1      -1.032   1.703  13.811  1.00  0.00    -0.007 C 
ATOM      3  C   UNL     1      -0.416   2.289  15.118  1.00  0.00     0.004 C 
ATOM      4  C   UNL     1       0.567   3.481  14.888  1.00  0.00     0.004 C 
ATOM      5  C   UNL     1       0.135   4.486  13.768  1.00  0.00    -0.004 C 
ATOM      6  C   UNL     1      -0.250   3.605  12.571  1.00  0.00     0.007 C 
ATOM      7  C   UNL     1      -1.584   2.881  12.981  1.00  0.00    -0.013 C 
ATOM      8  C   UNL     1      -1.377   3.483  11.594  1.00  0.00     0.025 C 
ATOM      9  C   UNL     1      -2.302   4.647  11.524  1.00  0.00    -0.073 C 
ATOM     10  C   UNL     1      -3.065   4.755  12.599  1.00  0.00    -0.027 C 
ATOM     11  C   UNL     1      -2.779   3.678  13.582  1.00  0.00     0.035 C 
ATOM     12  C   UNL     1      -2.372   5.586  10.361  1.00  0.00     0.039 C 
ENDROOT
BRANCH   5  13
ATOM     13  C   UNL     1       1.291   5.448  13.372  1.00  0.00    -0.014 C 
ATOM     14  C   UNL     1       0.773   6.604  12.498  1.00  0.00     0.007 C 
ATOM     15  C   UNL     1       1.999   6.029  14.607  1.00  0.00     0.007 C 
ENDBRANCH   5  13
TORSDOF 1
ENDMDL
MODEL 9
REMARK VINA RESULT:    -4.631      1.992      4.628
REMARK INTER + INTRA:          -5.428
REMARK INTER:                  -5.028
REMARK INTRA:                  -0.401
REMARK UNBOUND:                -0.527
REMARK SMILES CC1=CC[C@@]23[C@H]([C@H](C(C)C)CC[C@H]2C)[C@H]13
REMARK SMILES IDX 14 1 13 2 12 3 11 4 7 5 6 6 5 7 15 8 2 9 3 10 4 11 1 12 8 13
REMARK SMILES IDX 9 14 10 15
REMARK H PARENT
REMARK Flexibility Score: inf
ROOT
ATOM      1  C   UNL     1      -5.350   5.304  11.613  1.00  0.00     0.008 C 
ATOM      2  C   UNL     1      -4.121   5.664  12.452  1.00  0.00    -0.007 C 
ATOM      3  C   UNL     1      -3.559   7.062  12.050  1.00  0.00     0.004 C 
ATOM      4  C   UNL     1      -2.195   7.424  12.720  1.00  0.00     0.004 C 
ATOM      5  C   UNL     1      -1.183   6.236  12.840  1.00  0.00    -0.004 C 
ATOM      6  C   UNL     1      -2.002   5.073  13.416  1.00  0.00     0.007 C 
ATOM      7  C   UNL     1      -2.987   4.632  12.274  1.00  0.00    -0.013 C 
ATOM      8  C   UNL     1      -2.230   3.622  13.132  1.00  0.00     0.025 C 
ATOM      9  C   UNL     1      -1.248   2.979  12.217  1.00  0.00    -0.073 C 
ATOM     10  C   UNL     1      -1.379   3.386  10.965  1.00  0.00    -0.027 C 
ATOM     11  C   UNL     1      -2.475   4.380  10.825  1.00  0.00     0.035 C 
ATOM     12  C   UNL     1      -0.232   1.974  12.660  1.00  0.00     0.039 C 
ENDROOT
BRANCH   5  13
ATOM     13  C   UNL     1       0.002   6.575  13.789  1.00  0.00    -0.014 C 
ATOM     14  C   UNL     1       0.090   5.565  14.945  1.00  0.00     0.007 C 
ATOM     15  C   UNL     1       1.344   6.600  13.039  1.00  0.00     0.007 C 
ENDBRANCH   5  13
TORSDOF 1
ENDMDL
