MODEL 1
REMARK VINA RESULT:    -7.659      0.000      0.000
REMARK INTER + INTRA:         -11.243
REMARK INTER:                 -10.122
REMARK INTRA:                  -1.121
REMARK UNBOUND:                -1.121
REMARK SMILES CC(C)=CCC[C@@H](C(=O)[O-])[C@@H]1CC[C@]2(C)C3=C(CC[C@]12C)[C@@]1(C)CC[C@H](O)C(C)(C)[C@H]1CC3
REMARK SMILES IDX 6 1 7 2 8 3 9 4 10 5 11 6 12 7 20 8 13 9 14 10 19 11 21 12
REMARK SMILES IDX 15 13 16 14 18 15 17 16 33 17 22 18 32 19 31 20 24 21 23 22
REMARK SMILES IDX 28 23 25 24 26 25 29 26 30 27 27 28 5 30 4 31 2 32 1 33 3 34
REMARK H PARENT 27 29
REMARK Flexibility Score: inf
ROOT
ATOM      1  C   UNL     1      48.886   1.384  21.321  1.00  0.00     0.014 C 
ENDROOT
BRANCH   1   2
ATOM      2  C   UNL     1      47.904   2.597  21.281  1.00  0.00     0.039 C 
BRANCH   2   3
ATOM      3  C   UNL     1      46.627   2.274  20.540  1.00  0.00     0.045 C 
ATOM      4  O   UNL     1      46.276   1.074  20.394  1.00  0.00    -0.550 OA
ATOM      5  O   UNL     1      45.845   3.280  19.984  1.00  0.00    -0.550 OA
ENDBRANCH   2   3
BRANCH   2   6
ATOM      6  C   UNL     1      47.603   3.317  22.642  1.00  0.00     0.004 C 
ATOM      7  C   UNL     1      46.143   3.168  23.106  1.00  0.00     0.006 C 
ATOM      8  C   UNL     1      48.006   4.817  22.881  1.00  0.00    -0.020 C 
ATOM      9  C   UNL     1      45.735   4.499  23.723  1.00  0.00     0.012 C 
ATOM     10  C   UNL     1      47.034   5.270  24.029  1.00  0.00    -0.006 C 
ATOM     11  C   UNL     1      47.748   5.691  21.635  1.00  0.00     0.012 C 
ATOM     12  C   UNL     1      49.509   4.935  23.276  1.00  0.00     0.012 C 
ATOM     13  C   UNL     1      47.560   4.823  25.429  1.00  0.00     0.017 C 
ATOM     14  C   UNL     1      46.740   6.788  24.077  1.00  0.00    -0.064 C 
ATOM     15  C   UNL     1      47.952   7.174  21.921  1.00  0.00     0.032 C 
ATOM     16  C   UNL     1      47.166   7.676  23.126  1.00  0.00    -0.064 C 
ATOM     17  C   UNL     1      45.873   7.296  25.210  1.00  0.00     0.032 C 
ATOM     18  C   UNL     1      47.078   9.218  23.381  1.00  0.00    -0.008 C 
ATOM     19  C   UNL     1      44.980   8.420  24.715  1.00  0.00     0.009 C 
ATOM     20  C   UNL     1      45.855   9.628  24.328  1.00  0.00     0.007 C 
ATOM     21  C   UNL     1      47.021   9.980  22.024  1.00  0.00     0.014 C 
ATOM     22  C   UNL     1      48.414   9.591  24.080  1.00  0.00     0.016 C 
ATOM     23  C   UNL     1      44.989  10.873  23.877  1.00  0.00    -0.006 C 
ATOM     24  C   UNL     1      46.768  11.497  22.103  1.00  0.00     0.033 C 
ATOM     25  C   UNL     1      45.923  11.974  23.301  1.00  0.00     0.120 C 
ATOM     26  C   UNL     1      43.888  10.511  22.841  1.00  0.00     0.014 C 
ATOM     27  C   UNL     1      44.252  11.482  25.104  1.00  0.00     0.014 C 
BRANCH  25  28
ATOM     28  O   UNL     1      46.773  12.460  24.313  1.00  0.00    -0.393 OA
ATOM     29  H   UNL     1      46.736  11.813  25.064  1.00  0.00     0.210 HD
ENDBRANCH  25  28
ENDBRANCH   2   6
ENDBRANCH   1   2
BRANCH   1  30
ATOM     30  C   UNL     1      50.364   1.810  21.343  1.00  0.00     0.028 C 
BRANCH  30  31
ATOM     31  C   UNL     1      50.626   2.960  20.398  1.00  0.00    -0.028 C 
ATOM     32  C   UNL     1      51.667   3.035  19.538  1.00  0.00    -0.080 C 
ATOM     33  C   UNL     1      51.806   4.271  18.689  1.00  0.00     0.039 C 
ATOM     34  C   UNL     1      52.684   1.926  19.408  1.00  0.00     0.039 C 
ENDBRANCH  30  31
ENDBRANCH   1  30
TORSDOF 6
ENDMDL
MODEL 2
REMARK VINA RESULT:    -7.628      3.313      8.518
REMARK INTER + INTRA:         -11.202
REMARK INTER:                 -10.157
REMARK INTRA:                  -1.046
REMARK UNBOUND:                -1.121
REMARK SMILES CC(C)=CCC[C@@H](C(=O)[O-])[C@@H]1CC[C@]2(C)C3=C(CC[C@]12C)[C@@]1(C)CC[C@H](O)C(C)(C)[C@H]1CC3
REMARK SMILES IDX 6 1 7 2 8 3 9 4 10 5 11 6 12 7 20 8 13 9 14 10 19 11 21 12
REMARK SMILES IDX 15 13 16 14 18 15 17 16 33 17 22 18 32 19 31 20 24 21 23 22
REMARK SMILES IDX 28 23 25 24 26 25 29 26 30 27 27 28 5 30 4 31 2 32 1 33 3 34
REMARK H PARENT 27 29
REMARK Flexibility Score: inf
ROOT
ATOM      1  C   UNL     1      48.847   8.313  22.697  1.00  0.00     0.014 C 
ENDROOT
BRANCH   1   2
ATOM      2  C   UNL     1      49.238   6.959  23.368  1.00  0.00     0.039 C 
BRANCH   2   3
ATOM      3  C   UNL     1      50.018   7.157  24.646  1.00  0.00     0.045 C 
ATOM      4  O   UNL     1      49.990   8.272  25.229  1.00  0.00    -0.550 OA
ATOM      5  O   UNL     1      50.800   6.137  25.176  1.00  0.00    -0.550 OA
ENDBRANCH   2   3
BRANCH   2   6
ATOM      6  C   UNL     1      48.093   5.903  23.561  1.00  0.00     0.004 C 
ATOM      7  C   UNL     1      47.771   5.610  25.037  1.00  0.00     0.006 C 
ATOM      8  C   UNL     1      48.122   4.519  22.817  1.00  0.00    -0.020 C 
ATOM      9  C   UNL     1      47.487   4.117  25.141  1.00  0.00     0.012 C 
ATOM     10  C   UNL     1      47.204   3.612  23.713  1.00  0.00    -0.006 C 
ATOM     11  C   UNL     1      49.540   3.911  22.781  1.00  0.00     0.012 C 
ATOM     12  C   UNL     1      47.597   4.660  21.356  1.00  0.00     0.012 C 
ATOM     13  C   UNL     1      45.694   3.841  23.394  1.00  0.00     0.017 C 
ATOM     14  C   UNL     1      47.499   2.096  23.628  1.00  0.00    -0.064 C 
ATOM     15  C   UNL     1      49.542   2.488  22.236  1.00  0.00     0.032 C 
ATOM     16  C   UNL     1      48.559   1.564  22.944  1.00  0.00    -0.064 C 
ATOM     17  C   UNL     1      46.595   1.164  24.408  1.00  0.00     0.032 C 
ATOM     18  C   UNL     1      48.634   0.026  22.665  1.00  0.00    -0.008 C 
ATOM     19  C   UNL     1      47.403   0.007  24.968  1.00  0.00     0.009 C 
ATOM     20  C   UNL     1      47.930  -0.853  23.803  1.00  0.00     0.007 C 
ATOM     21  C   UNL     1      50.116  -0.406  22.456  1.00  0.00     0.014 C 
ATOM     22  C   UNL     1      47.884  -0.182  21.321  1.00  0.00     0.016 C 
ATOM     23  C   UNL     1      48.717  -2.128  24.310  1.00  0.00    -0.006 C 
ATOM     24  C   UNL     1      50.376  -1.918  22.333  1.00  0.00     0.033 C 
ATOM     25  C   UNL     1      49.400  -2.830  23.103  1.00  0.00     0.120 C 
ATOM     26  C   UNL     1      49.772  -1.803  25.405  1.00  0.00     0.014 C 
ATOM     27  C   UNL     1      47.729  -3.147  24.945  1.00  0.00     0.014 C 
BRANCH  25  28
ATOM     28  O   UNL     1      48.422  -3.326  22.220  1.00  0.00    -0.393 OA
ATOM     29  H   UNL     1      47.856  -3.959  22.733  1.00  0.00     0.210 HD
ENDBRANCH  25  28
ENDBRANCH   2   6
ENDBRANCH   1   2
BRANCH   1  30
ATOM     30  C   UNL     1      48.640   8.193  21.178  1.00  0.00     0.028 C 
BRANCH  30  31
ATOM     31  C   UNL     1      49.789   7.469  20.515  1.00  0.00    -0.028 C 
ATOM     32  C   UNL     1      50.493   7.935  19.459  1.00  0.00    -0.080 C 
ATOM     33  C   UNL     1      51.587   7.069  18.890  1.00  0.00     0.039 C 
ATOM     34  C   UNL     1      50.215   9.283  18.838  1.00  0.00     0.039 C 
ENDBRANCH  30  31
ENDBRANCH   1  30
TORSDOF 6
ENDMDL
MODEL 3
REMARK VINA RESULT:    -7.231      2.784      5.517
REMARK INTER + INTRA:         -10.677
REMARK INTER:                  -9.142
REMARK INTRA:                  -1.535
REMARK UNBOUND:                -1.121
REMARK SMILES CC(C)=CCC[C@@H](C(=O)[O-])[C@@H]1CC[C@]2(C)C3=C(CC[C@]12C)[C@@]1(C)CC[C@H](O)C(C)(C)[C@H]1CC3
REMARK SMILES IDX 6 1 7 2 8 3 9 4 10 5 11 6 12 7 20 8 13 9 14 10 19 11 21 12
REMARK SMILES IDX 15 13 16 14 18 15 17 16 33 17 22 18 32 19 31 20 24 21 23 22
REMARK SMILES IDX 28 23 25 24 26 25 29 26 30 27 27 28 5 30 4 31 2 32 1 33 3 34
REMARK H PARENT 27 29
REMARK Flexibility Score: inf
ROOT
ATOM      1  C   UNL     1      48.719  -1.679  22.196  1.00  0.00     0.014 C 
ENDROOT
BRANCH   1   2
ATOM      2  C   UNL     1      49.876  -0.792  22.755  1.00  0.00     0.039 C 
BRANCH   2   3
ATOM      3  C   UNL     1      51.164  -1.566  22.914  1.00  0.00     0.045 C 
ATOM      4  O   UNL     1      51.522  -1.954  24.057  1.00  0.00    -0.550 OA
ATOM      5  O   UNL     1      51.984  -1.829  21.823  1.00  0.00    -0.550 OA
ENDBRANCH   2   3
BRANCH   2   6
ATOM      6  C   UNL     1      50.126   0.584  22.044  1.00  0.00     0.004 C 
ATOM      7  C   UNL     1      51.413   1.290  22.509  1.00  0.00     0.006 C 
ATOM      8  C   UNL     1      49.005   1.683  21.969  1.00  0.00    -0.020 C 
ATOM      9  C   UNL     1      51.100   2.780  22.580  1.00  0.00     0.012 C 
ATOM     10  C   UNL     1      49.818   3.010  21.757  1.00  0.00    -0.006 C 
ATOM     11  C   UNL     1      48.211   1.790  23.289  1.00  0.00     0.012 C 
ATOM     12  C   UNL     1      48.011   1.387  20.806  1.00  0.00     0.012 C 
ATOM     13  C   UNL     1      50.214   3.201  20.260  1.00  0.00     0.017 C 
ATOM     14  C   UNL     1      49.110   4.297  22.245  1.00  0.00    -0.064 C 
ATOM     15  C   UNL     1      47.258   2.978  23.291  1.00  0.00     0.032 C 
ATOM     16  C   UNL     1      47.929   4.299  22.937  1.00  0.00    -0.064 C 
ATOM     17  C   UNL     1      49.810   5.616  21.995  1.00  0.00     0.032 C 
ATOM     18  C   UNL     1      47.134   5.631  23.147  1.00  0.00    -0.008 C 
ATOM     19  C   UNL     1      49.576   6.556  23.164  1.00  0.00     0.009 C 
ATOM     20  C   UNL     1      48.080   6.920  23.229  1.00  0.00     0.007 C 
ATOM     21  C   UNL     1      46.228   5.516  24.410  1.00  0.00     0.014 C 
ATOM     22  C   UNL     1      46.208   5.753  21.907  1.00  0.00     0.016 C 
ATOM     23  C   UNL     1      47.768   7.963  24.376  1.00  0.00    -0.006 C 
ATOM     24  C   UNL     1      45.503   6.801  24.849  1.00  0.00     0.033 C 
ATOM     25  C   UNL     1      46.229   8.123  24.528  1.00  0.00     0.120 C 
ATOM     26  C   UNL     1      48.403   7.581  25.743  1.00  0.00     0.014 C 
ATOM     27  C   UNL     1      48.347   9.357  24.001  1.00  0.00     0.014 C 
BRANCH  25  28
ATOM     28  O   UNL     1      45.688   8.687  23.358  1.00  0.00    -0.393 OA
ATOM     29  H   UNL     1      44.813   8.247  23.196  1.00  0.00     0.210 HD
ENDBRANCH  25  28
ENDBRANCH   2   6
ENDBRANCH   1   2
BRANCH   1  30
ATOM     30  C   UNL     1      47.597  -1.916  23.221  1.00  0.00     0.028 C 
BRANCH  30  31
ATOM     31  C   UNL     1      46.329  -1.190  22.836  1.00  0.00    -0.028 C 
ATOM     32  C   UNL     1      45.521  -0.531  23.697  1.00  0.00    -0.080 C 
ATOM     33  C   UNL     1      44.270   0.110  23.156  1.00  0.00     0.039 C 
ATOM     34  C   UNL     1      45.834  -0.422  25.170  1.00  0.00     0.039 C 
ENDBRANCH  30  31
ENDBRANCH   1  30
TORSDOF 6
ENDMDL
MODEL 4
REMARK VINA RESULT:    -7.116      2.664      4.931
REMARK INTER + INTRA:         -10.525
REMARK INTER:                  -8.839
REMARK INTRA:                  -1.687
REMARK UNBOUND:                -1.121
REMARK SMILES CC(C)=CCC[C@@H](C(=O)[O-])[C@@H]1CC[C@]2(C)C3=C(CC[C@]12C)[C@@]1(C)CC[C@H](O)C(C)(C)[C@H]1CC3
REMARK SMILES IDX 6 1 7 2 8 3 9 4 10 5 11 6 12 7 20 8 13 9 14 10 19 11 21 12
REMARK SMILES IDX 15 13 16 14 18 15 17 16 33 17 22 18 32 19 31 20 24 21 23 22
REMARK SMILES IDX 28 23 25 24 26 25 29 26 30 27 27 28 5 30 4 31 2 32 1 33 3 34
REMARK H PARENT 27 29
REMARK Flexibility Score: inf
ROOT
ATOM      1  C   UNL     1      49.269  -1.295  22.345  1.00  0.00     0.014 C 
ENDROOT
BRANCH   1   2
ATOM      2  C   UNL     1      49.691   0.189  22.583  1.00  0.00     0.039 C 
BRANCH   2   3
ATOM      3  C   UNL     1      51.173   0.402  22.381  1.00  0.00     0.045 C 
ATOM      4  O   UNL     1      51.847  -0.455  21.751  1.00  0.00    -0.550 OA
ATOM      5  O   UNL     1      51.817   1.515  22.908  1.00  0.00    -0.550 OA
ENDBRANCH   2   3
BRANCH   2   6
ATOM      6  C   UNL     1      48.854   1.295  21.848  1.00  0.00     0.004 C 
ATOM      7  C   UNL     1      49.677   2.120  20.842  1.00  0.00     0.006 C 
ATOM      8  C   UNL     1      47.959   2.310  22.646  1.00  0.00    -0.020 C 
ATOM      9  C   UNL     1      49.191   3.560  20.948  1.00  0.00     0.012 C 
ATOM     10  C   UNL     1      47.823   3.523  21.657  1.00  0.00    -0.006 C 
ATOM     11  C   UNL     1      48.647   2.796  23.939  1.00  0.00     0.012 C 
ATOM     12  C   UNL     1      46.586   1.671  23.016  1.00  0.00     0.012 C 
ATOM     13  C   UNL     1      46.715   3.264  20.589  1.00  0.00     0.017 C 
ATOM     14  C   UNL     1      47.547   4.889  22.329  1.00  0.00    -0.064 C 
ATOM     15  C   UNL     1      47.873   3.921  24.615  1.00  0.00     0.032 C 
ATOM     16  C   UNL     1      47.553   5.084  23.684  1.00  0.00    -0.064 C 
ATOM     17  C   UNL     1      47.328   6.081  21.423  1.00  0.00     0.032 C 
ATOM     18  C   UNL     1      46.992   6.410  24.298  1.00  0.00    -0.008 C 
ATOM     19  C   UNL     1      47.941   7.323  22.043  1.00  0.00     0.009 C 
ATOM     20  C   UNL     1      47.175   7.675  23.334  1.00  0.00     0.007 C 
ATOM     21  C   UNL     1      47.637   6.667  25.692  1.00  0.00     0.014 C 
ATOM     22  C   UNL     1      45.477   6.149  24.516  1.00  0.00     0.016 C 
ATOM     23  C   UNL     1      47.705   9.009  23.999  1.00  0.00    -0.006 C 
ATOM     24  C   UNL     1      47.312   8.016  26.358  1.00  0.00     0.033 C 
ATOM     25  C   UNL     1      47.046   9.190  25.395  1.00  0.00     0.120 C 
ATOM     26  C   UNL     1      49.254   9.056  24.129  1.00  0.00     0.014 C 
ATOM     27  C   UNL     1      47.303  10.234  23.129  1.00  0.00     0.014 C 
BRANCH  25  28
ATOM     28  O   UNL     1      45.658   9.375  25.249  1.00  0.00    -0.393 OA
ATOM     29  H   UNL     1      45.221   8.957  26.036  1.00  0.00     0.210 HD
ENDBRANCH  25  28
ENDBRANCH   2   6
ENDBRANCH   1   2
BRANCH   1  30
ATOM     30  C   UNL     1      48.579  -1.925  23.567  1.00  0.00     0.028 C 
BRANCH  30  31
ATOM     31  C   UNL     1      48.676  -1.033  24.783  1.00  0.00    -0.028 C 
ATOM     32  C   UNL     1      47.636  -0.681  25.572  1.00  0.00    -0.080 C 
ATOM     33  C   UNL     1      47.896   0.250  26.727  1.00  0.00     0.039 C 
ATOM     34  C   UNL     1      46.235  -1.189  25.329  1.00  0.00     0.039 C 
ENDBRANCH  30  31
ENDBRANCH   1  30
TORSDOF 6
ENDMDL
MODEL 5
REMARK VINA RESULT:    -7.082      1.822      3.178
REMARK INTER + INTRA:         -10.479
REMARK INTER:                  -9.349
REMARK INTRA:                  -1.130
REMARK UNBOUND:                -1.121
REMARK SMILES CC(C)=CCC[C@@H](C(=O)[O-])[C@@H]1CC[C@]2(C)C3=C(CC[C@]12C)[C@@]1(C)CC[C@H](O)C(C)(C)[C@H]1CC3
REMARK SMILES IDX 6 1 7 2 8 3 9 4 10 5 11 6 12 7 20 8 13 9 14 10 19 11 21 12
REMARK SMILES IDX 15 13 16 14 18 15 17 16 33 17 22 18 32 19 31 20 24 21 23 22
REMARK SMILES IDX 28 23 25 24 26 25 29 26 30 27 27 28 5 30 4 31 2 32 1 33 3 34
REMARK H PARENT 27 29
REMARK Flexibility Score: inf
ROOT
ATOM      1  C   UNL     1      47.963   2.663  20.594  1.00  0.00     0.014 C 
ENDROOT
BRANCH   1   2
ATOM      2  C   UNL     1      48.471   2.073  21.947  1.00  0.00     0.039 C 
BRANCH   2   3
ATOM      3  C   UNL     1      49.935   1.704  21.897  1.00  0.00     0.045 C 
ATOM      4  O   UNL     1      50.381   0.810  22.664  1.00  0.00    -0.550 OA
ATOM      5  O   UNL     1      50.812   2.358  21.040  1.00  0.00    -0.550 OA
ENDBRANCH   2   3
BRANCH   2   6
ATOM      6  C   UNL     1      48.135   2.882  23.249  1.00  0.00     0.004 C 
ATOM      7  C   UNL     1      46.681   2.706  23.722  1.00  0.00     0.006 C 
ATOM      8  C   UNL     1      48.472   4.411  23.372  1.00  0.00    -0.020 C 
ATOM      9  C   UNL     1      46.214   4.063  24.235  1.00  0.00     0.012 C 
ATOM     10  C   UNL     1      47.478   4.910  24.482  1.00  0.00    -0.006 C 
ATOM     11  C   UNL     1      48.182   5.176  22.063  1.00  0.00     0.012 C 
ATOM     12  C   UNL     1      49.968   4.623  23.758  1.00  0.00     0.012 C 
ATOM     13  C   UNL     1      48.017   4.594  25.911  1.00  0.00     0.017 C 
ATOM     14  C   UNL     1      47.119   6.413  24.413  1.00  0.00    -0.064 C 
ATOM     15  C   UNL     1      48.322   6.683  22.234  1.00  0.00     0.032 C 
ATOM     16  C   UNL     1      47.511   7.242  23.396  1.00  0.00    -0.064 C 
ATOM     17  C   UNL     1      46.227   6.969  25.503  1.00  0.00     0.032 C 
ATOM     18  C   UNL     1      47.357   8.794  23.533  1.00  0.00    -0.008 C 
ATOM     19  C   UNL     1      45.290   8.012  24.923  1.00  0.00     0.009 C 
ATOM     20  C   UNL     1      46.114   9.223  24.445  1.00  0.00     0.007 C 
ATOM     21  C   UNL     1      47.272   9.447  22.121  1.00  0.00     0.014 C 
ATOM     22  C   UNL     1      48.673   9.276  24.201  1.00  0.00     0.016 C 
ATOM     23  C   UNL     1      45.198  10.392  23.899  1.00  0.00    -0.006 C 
ATOM     24  C   UNL     1      46.955  10.953  22.082  1.00  0.00     0.033 C 
ATOM     25  C   UNL     1      46.086  11.484  23.240  1.00  0.00     0.120 C 
ATOM     26  C   UNL     1      44.116   9.905  22.894  1.00  0.00     0.014 C 
ATOM     27  C   UNL     1      44.430  11.061  25.075  1.00  0.00     0.014 C 
BRANCH  25  28
ATOM     28  O   UNL     1      46.910  12.082  24.212  1.00  0.00    -0.393 OA
ATOM     29  H   UNL     1      46.431  12.028  25.079  1.00  0.00     0.210 HD
ENDBRANCH  25  28
ENDBRANCH   2   6
ENDBRANCH   1   2
BRANCH   1  30
ATOM     30  C   UNL     1      46.619   2.064  20.145  1.00  0.00     0.028 C 
BRANCH  30  31
ATOM     31  C   UNL     1      45.475   3.020  20.386  1.00  0.00    -0.028 C 
ATOM     32  C   UNL     1      44.303   2.694  20.976  1.00  0.00    -0.080 C 
ATOM     33  C   UNL     1      43.246   3.759  21.107  1.00  0.00     0.039 C 
ATOM     34  C   UNL     1      44.025   1.305  21.500  1.00  0.00     0.039 C 
ENDBRANCH  30  31
ENDBRANCH   1  30
TORSDOF 6
ENDMDL
MODEL 6
REMARK VINA RESULT:    -7.079      3.573      8.411
REMARK INTER + INTRA:         -10.476
REMARK INTER:                  -9.482
REMARK INTRA:                  -0.994
REMARK UNBOUND:                -1.121
REMARK SMILES CC(C)=CCC[C@@H](C(=O)[O-])[C@@H]1CC[C@]2(C)C3=C(CC[C@]12C)[C@@]1(C)CC[C@H](O)C(C)(C)[C@H]1CC3
REMARK SMILES IDX 6 1 7 2 8 3 9 4 10 5 11 6 12 7 20 8 13 9 14 10 19 11 21 12
REMARK SMILES IDX 15 13 16 14 18 15 17 16 33 17 22 18 32 19 31 20 24 21 23 22
REMARK SMILES IDX 28 23 25 24 26 25 29 26 30 27 27 28 5 30 4 31 2 32 1 33 3 34
REMARK H PARENT 27 29
REMARK Flexibility Score: inf
ROOT
ATOM      1  C   UNL     1      47.532   7.517  21.160  1.00  0.00     0.014 C 
ENDROOT
BRANCH   1   2
ATOM      2  C   UNL     1      47.155   6.332  22.103  1.00  0.00     0.039 C 
BRANCH   2   3
ATOM      3  C   UNL     1      45.875   6.589  22.861  1.00  0.00     0.045 C 
ATOM      4  O   UNL     1      45.750   6.164  24.040  1.00  0.00    -0.550 OA
ATOM      5  O   UNL     1      44.811   7.260  22.269  1.00  0.00    -0.550 OA
ENDBRANCH   2   3
BRANCH   2   6
ATOM      6  C   UNL     1      47.164   4.893  21.477  1.00  0.00     0.004 C 
ATOM      7  C   UNL     1      45.778   4.225  21.454  1.00  0.00     0.006 C 
ATOM      8  C   UNL     1      48.188   3.800  21.953  1.00  0.00    -0.020 C 
ATOM      9  C   UNL     1      45.990   2.751  21.777  1.00  0.00     0.012 C 
ATOM     10  C   UNL     1      47.485   2.453  21.555  1.00  0.00    -0.006 C 
ATOM     11  C   UNL     1      48.392   3.823  23.483  1.00  0.00     0.012 C 
ATOM     12  C   UNL     1      49.571   3.991  21.258  1.00  0.00     0.012 C 
ATOM     13  C   UNL     1      47.708   2.119  20.047  1.00  0.00     0.017 C 
ATOM     14  C   UNL     1      47.901   1.223  22.396  1.00  0.00    -0.064 C 
ATOM     15  C   UNL     1      49.229   2.648  23.970  1.00  0.00     0.032 C 
ATOM     16  C   UNL     1      48.711   1.294  23.498  1.00  0.00    -0.064 C 
ATOM     17  C   UNL     1      47.317  -0.119  22.009  1.00  0.00     0.032 C 
ATOM     18  C   UNL     1      49.316  -0.006  24.125  1.00  0.00    -0.008 C 
ATOM     19  C   UNL     1      47.040  -0.942  23.253  1.00  0.00     0.009 C 
ATOM     20  C   UNL     1      48.376  -1.288  23.939  1.00  0.00     0.007 C 
ATOM     21  C   UNL     1      49.651   0.233  25.628  1.00  0.00     0.014 C 
ATOM     22  C   UNL     1      50.653  -0.238  23.371  1.00  0.00     0.016 C 
ATOM     23  C   UNL     1      48.175  -2.217  25.204  1.00  0.00    -0.006 C 
ATOM     24  C   UNL     1      50.103  -0.999  26.432  1.00  0.00     0.033 C 
ATOM     25  C   UNL     1      49.522  -2.350  25.969  1.00  0.00     0.120 C 
ATOM     26  C   UNL     1      47.064  -1.711  26.167  1.00  0.00     0.014 C 
ATOM     27  C   UNL     1      47.749  -3.644  24.757  1.00  0.00     0.014 C 
BRANCH  25  28
ATOM     28  O   UNL     1      50.465  -3.018  25.165  1.00  0.00    -0.393 OA
ATOM     29  H   UNL     1      50.029  -3.840  24.819  1.00  0.00     0.210 HD
ENDBRANCH  25  28
ENDBRANCH   2   6
ENDBRANCH   1   2
BRANCH   1  30
ATOM     30  C   UNL     1      48.914   8.116  21.472  1.00  0.00     0.028 C 
BRANCH  30  31
ATOM     31  C   UNL     1      50.008   7.431  20.685  1.00  0.00    -0.028 C 
ATOM     32  C   UNL     1      50.527   7.885  19.522  1.00  0.00    -0.080 C 
ATOM     33  C   UNL     1      51.589   7.060  18.842  1.00  0.00     0.039 C 
ATOM     34  C   UNL     1      50.075   9.180  18.890  1.00  0.00     0.039 C 
ENDBRANCH  30  31
ENDBRANCH   1  30
TORSDOF 6
ENDMDL
MODEL 7
REMARK VINA RESULT:    -7.037      2.275      3.804
REMARK INTER + INTRA:         -10.421
REMARK INTER:                  -9.695
REMARK INTRA:                  -0.726
REMARK UNBOUND:                -1.121
REMARK SMILES CC(C)=CCC[C@@H](C(=O)[O-])[C@@H]1CC[C@]2(C)C3=C(CC[C@]12C)[C@@]1(C)CC[C@H](O)C(C)(C)[C@H]1CC3
REMARK SMILES IDX 6 1 7 2 8 3 9 4 10 5 11 6 12 7 20 8 13 9 14 10 19 11 21 12
REMARK SMILES IDX 15 13 16 14 18 15 17 16 33 17 22 18 32 19 31 20 24 21 23 22
REMARK SMILES IDX 28 23 25 24 26 25 29 26 30 27 27 28 5 30 4 31 2 32 1 33 3 34
REMARK H PARENT 27 29
REMARK Flexibility Score: inf
ROOT
ATOM      1  C   UNL     1      51.491   0.685  22.330  1.00  0.00     0.014 C 
ENDROOT
BRANCH   1   2
ATOM      2  C   UNL     1      50.153  -0.108  22.203  1.00  0.00     0.039 C 
BRANCH   2   3
ATOM      3  C   UNL     1      50.128  -1.333  23.085  1.00  0.00     0.045 C 
ATOM      4  O   UNL     1      49.025  -1.803  23.471  1.00  0.00    -0.550 OA
ATOM      5  O   UNL     1      51.305  -1.937  23.511  1.00  0.00    -0.550 OA
ENDBRANCH   2   3
BRANCH   2   6
ATOM      6  C   UNL     1      48.823   0.713  22.334  1.00  0.00     0.004 C 
ATOM      7  C   UNL     1      48.211   1.112  20.979  1.00  0.00     0.006 C 
ATOM      8  C   UNL     1      48.727   1.975  23.266  1.00  0.00    -0.020 C 
ATOM      9  C   UNL     1      47.652   2.520  21.142  1.00  0.00     0.012 C 
ATOM     10  C   UNL     1      47.525   2.781  22.656  1.00  0.00    -0.006 C 
ATOM     11  C   UNL     1      50.000   2.845  23.194  1.00  0.00     0.012 C 
ATOM     12  C   UNL     1      48.487   1.556  24.748  1.00  0.00     0.012 C 
ATOM     13  C   UNL     1      46.155   2.218  23.146  1.00  0.00     0.017 C 
ATOM     14  C   UNL     1      47.554   4.304  22.925  1.00  0.00    -0.064 C 
ATOM     15  C   UNL     1      49.838   4.163  23.941  1.00  0.00     0.032 C 
ATOM     16  C   UNL     1      48.601   4.950  23.526  1.00  0.00    -0.064 C 
ATOM     17  C   UNL     1      46.382   5.124  22.430  1.00  0.00     0.032 C 
ATOM     18  C   UNL     1      48.446   6.428  24.020  1.00  0.00    -0.008 C 
ATOM     19  C   UNL     1      46.865   6.478  21.942  1.00  0.00     0.009 C 
ATOM     20  C   UNL     1      47.416   7.279  23.138  1.00  0.00     0.007 C 
ATOM     21  C   UNL     1      49.841   7.118  24.081  1.00  0.00     0.014 C 
ATOM     22  C   UNL     1      47.907   6.317  25.472  1.00  0.00     0.016 C 
ATOM     23  C   UNL     1      47.867   8.737  22.723  1.00  0.00    -0.006 C 
ATOM     24  C   UNL     1      49.844   8.626  24.392  1.00  0.00     0.033 C 
ATOM     25  C   UNL     1      48.606   9.411  23.914  1.00  0.00     0.120 C 
ATOM     26  C   UNL     1      48.765   8.764  21.454  1.00  0.00     0.014 C 
ATOM     27  C   UNL     1      46.621   9.608  22.394  1.00  0.00     0.014 C 
BRANCH  25  28
ATOM     28  O   UNL     1      47.716   9.590  24.990  1.00  0.00    -0.393 OA
ATOM     29  H   UNL     1      47.484  10.554  25.023  1.00  0.00     0.210 HD
ENDBRANCH  25  28
ENDBRANCH   2   6
ENDBRANCH   1   2
BRANCH   1  30
ATOM     30  C   UNL     1      52.271   0.764  21.007  1.00  0.00     0.028 C 
BRANCH  30  31
ATOM     31  C   UNL     1      51.782   1.902  20.140  1.00  0.00    -0.028 C 
ATOM     32  C   UNL     1      52.557   2.903  19.665  1.00  0.00    -0.080 C 
ATOM     33  C   UNL     1      51.905   3.985  18.845  1.00  0.00     0.039 C 
ATOM     34  C   UNL     1      54.042   2.968  19.933  1.00  0.00     0.039 C 
ENDBRANCH  30  31
ENDBRANCH   1  30
TORSDOF 6
ENDMDL
MODEL 8
REMARK VINA RESULT:    -7.008      3.116      8.477
REMARK INTER + INTRA:         -10.383
REMARK INTER:                  -9.295
REMARK INTRA:                  -1.088
REMARK UNBOUND:                -1.121
REMARK SMILES CC(C)=CCC[C@@H](C(=O)[O-])[C@@H]1CC[C@]2(C)C3=C(CC[C@]12C)[C@@]1(C)CC[C@H](O)C(C)(C)[C@H]1CC3
REMARK SMILES IDX 6 1 7 2 8 3 9 4 10 5 11 6 12 7 20 8 13 9 14 10 19 11 21 12
REMARK SMILES IDX 15 13 16 14 18 15 17 16 33 17 22 18 32 19 31 20 24 21 23 22
REMARK SMILES IDX 28 23 25 24 26 25 29 26 30 27 27 28 5 30 4 31 2 32 1 33 3 34
REMARK H PARENT 27 29
REMARK Flexibility Score: inf
ROOT
ATOM      1  C   UNL     1      49.662   6.915  23.120  1.00  0.00     0.014 C 
ENDROOT
BRANCH   1   2
ATOM      2  C   UNL     1      48.142   7.264  23.047  1.00  0.00     0.039 C 
BRANCH   2   3
ATOM      3  C   UNL     1      47.798   8.066  21.815  1.00  0.00     0.045 C 
ATOM      4  O   UNL     1      46.643   8.552  21.688  1.00  0.00    -0.550 OA
ATOM      5  O   UNL     1      48.724   8.250  20.795  1.00  0.00    -0.550 OA
ENDBRANCH   2   3
BRANCH   2   6
ATOM      6  C   UNL     1      47.129   6.085  23.257  1.00  0.00     0.004 C 
ATOM      7  C   UNL     1      46.813   5.804  24.737  1.00  0.00     0.006 C 
ATOM      8  C   UNL     1      47.340   4.690  22.565  1.00  0.00    -0.020 C 
ATOM      9  C   UNL     1      46.708   4.291  24.890  1.00  0.00     0.012 C 
ATOM     10  C   UNL     1      46.519   3.709  23.475  1.00  0.00    -0.006 C 
ATOM     11  C   UNL     1      48.822   4.257  22.574  1.00  0.00     0.012 C 
ATOM     12  C   UNL     1      46.834   4.717  21.090  1.00  0.00     0.012 C 
ATOM     13  C   UNL     1      44.999   3.743  23.122  1.00  0.00     0.017 C 
ATOM     14  C   UNL     1      46.996   2.237  23.450  1.00  0.00    -0.064 C 
ATOM     15  C   UNL     1      49.007   2.828  22.081  1.00  0.00     0.032 C 
ATOM     16  C   UNL     1      48.126   1.816  22.804  1.00  0.00    -0.064 C 
ATOM     17  C   UNL     1      46.194   1.230  24.247  1.00  0.00     0.032 C 
ATOM     18  C   UNL     1      48.392   0.289  22.582  1.00  0.00    -0.008 C 
ATOM     19  C   UNL     1      47.123   0.199  24.862  1.00  0.00     0.009 C 
ATOM     20  C   UNL     1      47.774  -0.630  23.738  1.00  0.00     0.007 C 
ATOM     21  C   UNL     1      49.919   0.033  22.414  1.00  0.00     0.014 C 
ATOM     22  C   UNL     1      47.702  -0.053  21.233  1.00  0.00     0.016 C 
ATOM     23  C   UNL     1      48.698  -1.783  24.303  1.00  0.00    -0.006 C 
ATOM     24  C   UNL     1      50.362  -1.440  22.350  1.00  0.00     0.033 C 
ATOM     25  C   UNL     1      49.486  -2.437  23.135  1.00  0.00     0.120 C 
ATOM     26  C   UNL     1      49.682  -1.296  25.405  1.00  0.00     0.014 C 
ATOM     27  C   UNL     1      47.826  -2.893  24.957  1.00  0.00     0.014 C 
BRANCH  25  28
ATOM     28  O   UNL     1      48.594  -3.077  22.253  1.00  0.00    -0.393 OA
ATOM     29  H   UNL     1      47.808  -3.364  22.786  1.00  0.00     0.210 HD
ENDBRANCH  25  28
ENDBRANCH   2   6
ENDBRANCH   1   2
BRANCH   1  30
ATOM     30  C   UNL     1      50.281   7.213  24.496  1.00  0.00     0.028 C 
BRANCH  30  31
ATOM     31  C   UNL     1      50.235   6.004  25.401  1.00  0.00    -0.028 C 
ATOM     32  C   UNL     1      49.757   5.999  26.665  1.00  0.00    -0.080 C 
ATOM     33  C   UNL     1      49.819   4.715  27.450  1.00  0.00     0.039 C 
ATOM     34  C   UNL     1      49.169   7.234  27.308  1.00  0.00     0.039 C 
ENDBRANCH  30  31
ENDBRANCH   1  30
TORSDOF 6
ENDMDL
MODEL 9
REMARK VINA RESULT:    -6.984      2.609      3.735
REMARK INTER + INTRA:         -10.350
REMARK INTER:                  -8.644
REMARK INTRA:                  -1.706
REMARK UNBOUND:                -1.121
REMARK SMILES CC(C)=CCC[C@@H](C(=O)[O-])[C@@H]1CC[C@]2(C)C3=C(CC[C@]12C)[C@@]1(C)CC[C@H](O)C(C)(C)[C@H]1CC3
REMARK SMILES IDX 6 1 7 2 8 3 9 4 10 5 11 6 12 7 20 8 13 9 14 10 19 11 21 12
REMARK SMILES IDX 15 13 16 14 18 15 17 16 33 17 22 18 32 19 31 20 24 21 23 22
REMARK SMILES IDX 28 23 25 24 26 25 29 26 30 27 27 28 5 30 4 31 2 32 1 33 3 34
REMARK H PARENT 27 29
REMARK Flexibility Score: inf
ROOT
ATOM      1  C   UNL     1      49.211   0.635  25.817  1.00  0.00     0.014 C 
ENDROOT
BRANCH   1   2
ATOM      2  C   UNL     1      48.239   1.838  25.608  1.00  0.00     0.039 C 
BRANCH   2   3
ATOM      3  C   UNL     1      46.968   1.693  26.412  1.00  0.00     0.045 C 
ATOM      4  O   UNL     1      45.860   1.975  25.885  1.00  0.00    -0.550 OA
ATOM      5  O   UNL     1      47.001   1.286  27.741  1.00  0.00    -0.550 OA
ENDBRANCH   2   3
BRANCH   2   6
ATOM      6  C   UNL     1      48.843   3.278  25.758  1.00  0.00     0.004 C 
ATOM      7  C   UNL     1      48.147   4.127  26.837  1.00  0.00     0.006 C 
ATOM      8  C   UNL     1      49.055   4.211  24.511  1.00  0.00    -0.020 C 
ATOM      9  C   UNL     1      48.068   5.550  26.299  1.00  0.00     0.012 C 
ATOM     10  C   UNL     1      49.079   5.650  25.140  1.00  0.00    -0.006 C 
ATOM     11  C   UNL     1      47.880   4.122  23.515  1.00  0.00     0.012 C 
ATOM     12  C   UNL     1      50.376   3.853  23.765  1.00  0.00     0.012 C 
ATOM     13  C   UNL     1      50.483   5.989  25.732  1.00  0.00     0.017 C 
ATOM     14  C   UNL     1      48.662   6.791  24.182  1.00  0.00    -0.064 C 
ATOM     15  C   UNL     1      47.985   5.162  22.407  1.00  0.00     0.032 C 
ATOM     16  C   UNL     1      48.172   6.584  22.921  1.00  0.00    -0.064 C 
ATOM     17  C   UNL     1      48.741   8.209  24.708  1.00  0.00     0.032 C 
ATOM     18  C   UNL     1      48.040   7.775  21.914  1.00  0.00    -0.008 C 
ATOM     19  C   UNL     1      47.589   9.030  24.159  1.00  0.00     0.009 C 
ATOM     20  C   UNL     1      47.754   9.176  22.633  1.00  0.00     0.007 C 
ATOM     21  C   UNL     1      46.948   7.455  20.850  1.00  0.00     0.014 C 
ATOM     22  C   UNL     1      49.409   7.844  21.184  1.00  0.00     0.016 C 
ATOM     23  C   UNL     1      46.632  10.091  21.995  1.00  0.00    -0.006 C 
ATOM     24  C   UNL     1      46.582   8.594  19.883  1.00  0.00     0.033 C 
ATOM     25  C   UNL     1      46.726  10.023  20.445  1.00  0.00     0.120 C 
ATOM     26  C   UNL     1      45.197   9.715  22.460  1.00  0.00     0.014 C 
ATOM     27  C   UNL     1      46.851  11.573  22.412  1.00  0.00     0.014 C 
BRANCH  25  28
ATOM     28  O   UNL     1      47.946  10.578  20.014  1.00  0.00    -0.393 OA
ATOM     29  H   UNL     1      48.420   9.879  19.493  1.00  0.00     0.210 HD
ENDBRANCH  25  28
ENDBRANCH   2   6
ENDBRANCH   1   2
BRANCH   1  30
ATOM     30  C   UNL     1      49.371  -0.233  24.558  1.00  0.00     0.028 C 
BRANCH  30  31
ATOM     31  C   UNL     1      48.800   0.448  23.336  1.00  0.00    -0.028 C 
ATOM     32  C   UNL     1      49.511   0.803  22.242  1.00  0.00    -0.080 C 
ATOM     33  C   UNL     1      48.795   1.512  21.122  1.00  0.00     0.039 C 
ATOM     34  C   UNL     1      50.988   0.515  22.114  1.00  0.00     0.039 C 
ENDBRANCH  30  31
ENDBRANCH   1  30
TORSDOF 6
ENDMDL
