MODEL 1
REMARK VINA RESULT:    -4.826      0.000      0.000
REMARK INTER + INTRA:         -11.950
REMARK INTER:                  -9.340
REMARK INTRA:                  -2.609
REMARK UNBOUND:                -2.609
REMARK SMILES CCCCCCCCCCCCCCCCCC(=O)[O-]
REMARK SMILES IDX 10 1 11 2 12 3 13 4 14 5 15 6 16 7 17 8 18 9 19 10 20 11
REMARK SMILES IDX 9 12 8 13 7 14 6 15 5 16 4 17 3 18 2 19 1 20
REMARK H PARENT
REMARK Flexibility Score: inf
ROOT
ATOM      1  C   UNL     1      16.485 -32.534  24.009  1.00  0.00     0.000 C 
ENDROOT
BRANCH   1   2
ATOM      2  C   UNL     1      16.957 -31.114  23.645  1.00  0.00     0.000 C 
BRANCH   2   3
ATOM      3  C   UNL     1      18.175 -31.045  22.705  1.00  0.00     0.000 C 
BRANCH   3   4
ATOM      4  C   UNL     1      17.836 -30.459  21.327  1.00  0.00     0.000 C 
BRANCH   4   5
ATOM      5  C   UNL     1      17.753 -31.563  20.265  1.00  0.00     0.000 C 
BRANCH   5   6
ATOM      6  C   UNL     1      18.659 -32.749  20.633  1.00  0.00     0.000 C 
BRANCH   6   7
ATOM      7  C   UNL     1      17.904 -34.088  20.647  1.00  0.00     0.006 C 
BRANCH   7   8
ATOM      8  C   UNL     1      17.893 -34.774  19.275  1.00  0.00     0.053 C 
BRANCH   8   9
ATOM      9  C   UNL     1      17.170 -36.081  19.351  1.00  0.00     0.041 C 
ATOM     10  O   UNL     1      15.973 -36.121  19.741  1.00  0.00    -0.550 OA
ATOM     11  O   UNL     1      17.801 -37.250  18.942  1.00  0.00    -0.550 OA
ENDBRANCH   8   9
ENDBRANCH   7   8
ENDBRANCH   6   7
ENDBRANCH   5   6
ENDBRANCH   4   5
ENDBRANCH   3   4
ENDBRANCH   2   3
ENDBRANCH   1   2
BRANCH   1  12
ATOM     12  C   UNL     1      15.048 -32.826  23.548  1.00  0.00     0.000 C 
BRANCH  12  13
ATOM     13  C   UNL     1      14.980 -33.437  22.137  1.00  0.00    -0.000 C 
BRANCH  13  14
ATOM     14  C   UNL     1      14.220 -32.600  21.091  1.00  0.00    -0.000 C 
BRANCH  14  15
ATOM     15  C   UNL     1      13.525 -31.370  21.697  1.00  0.00    -0.000 C 
BRANCH  15  16
ATOM     16  C   UNL     1      14.275 -30.061  21.395  1.00  0.00    -0.000 C 
BRANCH  16  17
ATOM     17  C   UNL     1      14.150 -29.036  22.537  1.00  0.00    -0.000 C 
BRANCH  17  18
ATOM     18  C   UNL     1      13.255 -29.533  23.683  1.00  0.00    -0.000 C 
BRANCH  18  19
ATOM     19  C   UNL     1      12.158 -28.527  24.059  1.00  0.00    -0.003 C 
ATOM     20  C   UNL     1      12.743 -27.328  24.801  1.00  0.00     0.004 C 
ENDBRANCH  18  19
ENDBRANCH  17  18
ENDBRANCH  16  17
ENDBRANCH  15  16
ENDBRANCH  14  15
ENDBRANCH  13  14
ENDBRANCH  12  13
ENDBRANCH   1  12
TORSDOF 16
ENDMDL
MODEL 2
REMARK VINA RESULT:    -4.734      1.532      4.413
REMARK INTER + INTRA:         -11.771
REMARK INTER:                  -8.914
REMARK INTRA:                  -2.857
REMARK UNBOUND:                -2.609
REMARK SMILES CCCCCCCCCCCCCCCCCC(=O)[O-]
REMARK SMILES IDX 10 1 11 2 12 3 13 4 14 5 15 6 16 7 17 8 18 9 19 10 20 11
REMARK SMILES IDX 9 12 8 13 7 14 6 15 5 16 4 17 3 18 2 19 1 20
REMARK H PARENT
REMARK Flexibility Score: inf
ROOT
ATOM      1  C   UNL     1      13.493 -29.842  23.662  1.00  0.00     0.000 C 
ENDROOT
BRANCH   1   2
ATOM      2  C   UNL     1      13.052 -31.098  22.889  1.00  0.00     0.000 C 
BRANCH   2   3
ATOM      3  C   UNL     1      12.461 -30.837  21.491  1.00  0.00     0.000 C 
BRANCH   3   4
ATOM      4  C   UNL     1      13.092 -31.714  20.400  1.00  0.00     0.000 C 
BRANCH   4   5
ATOM      5  C   UNL     1      14.187 -32.615  20.984  1.00  0.00     0.000 C 
BRANCH   5   6
ATOM      6  C   UNL     1      14.617 -33.687  19.971  1.00  0.00     0.000 C 
BRANCH   6   7
ATOM      7  C   UNL     1      15.445 -34.811  20.613  1.00  0.00     0.006 C 
BRANCH   7   8
ATOM      8  C   UNL     1      16.234 -35.627  19.581  1.00  0.00     0.053 C 
BRANCH   8   9
ATOM      9  C   UNL     1      17.634 -35.114  19.470  1.00  0.00     0.041 C 
ATOM     10  O   UNL     1      17.906 -34.183  18.667  1.00  0.00    -0.550 OA
ATOM     11  O   UNL     1      18.631 -35.628  20.291  1.00  0.00    -0.550 OA
ENDBRANCH   8   9
ENDBRANCH   7   8
ENDBRANCH   6   7
ENDBRANCH   5   6
ENDBRANCH   4   5
ENDBRANCH   3   4
ENDBRANCH   2   3
ENDBRANCH   1   2
BRANCH   1  12
ATOM     12  C   UNL     1      14.532 -29.001  22.902  1.00  0.00     0.000 C 
BRANCH  12  13
ATOM     13  C   UNL     1      15.858 -29.749  22.671  1.00  0.00    -0.000 C 
BRANCH  13  14
ATOM     14  C   UNL     1      16.665 -29.295  21.441  1.00  0.00    -0.000 C 
BRANCH  14  15
ATOM     15  C   UNL     1      17.886 -30.188  21.161  1.00  0.00    -0.000 C 
BRANCH  15  16
ATOM     16  C   UNL     1      17.542 -31.687  21.208  1.00  0.00    -0.000 C 
BRANCH  16  17
ATOM     17  C   UNL     1      18.600 -32.509  21.967  1.00  0.00    -0.000 C 
BRANCH  17  18
ATOM     18  C   UNL     1      17.975 -33.509  22.952  1.00  0.00    -0.000 C 
BRANCH  18  19
ATOM     19  C   UNL     1      17.147 -32.823  24.049  1.00  0.00    -0.003 C 
ATOM     20  C   UNL     1      15.726 -33.378  24.093  1.00  0.00     0.004 C 
ENDBRANCH  18  19
ENDBRANCH  17  18
ENDBRANCH  16  17
ENDBRANCH  15  16
ENDBRANCH  14  15
ENDBRANCH  13  14
ENDBRANCH  12  13
ENDBRANCH   1  12
TORSDOF 16
ENDMDL
MODEL 3
REMARK VINA RESULT:    -4.681      3.480      6.386
REMARK INTER + INTRA:         -11.670
REMARK INTER:                  -9.283
REMARK INTRA:                  -2.386
REMARK UNBOUND:                -2.609
REMARK SMILES CCCCCCCCCCCCCCCCCC(=O)[O-]
REMARK SMILES IDX 10 1 11 2 12 3 13 4 14 5 15 6 16 7 17 8 18 9 19 10 20 11
REMARK SMILES IDX 9 12 8 13 7 14 6 15 5 16 4 17 3 18 2 19 1 20
REMARK H PARENT
REMARK Flexibility Score: inf
ROOT
ATOM      1  C   UNL     1      16.459 -35.444  19.645  1.00  0.00     0.000 C 
ENDROOT
BRANCH   1   2
ATOM      2  C   UNL     1      15.455 -34.744  20.581  1.00  0.00     0.000 C 
BRANCH   2   3
ATOM      3  C   UNL     1      14.667 -33.582  19.949  1.00  0.00     0.000 C 
BRANCH   3   4
ATOM      4  C   UNL     1      14.111 -32.599  20.990  1.00  0.00     0.000 C 
BRANCH   4   5
ATOM      5  C   UNL     1      12.988 -31.742  20.392  1.00  0.00     0.000 C 
BRANCH   5   6
ATOM      6  C   UNL     1      12.483 -30.708  21.410  1.00  0.00     0.000 C 
BRANCH   6   7
ATOM      7  C   UNL     1      13.613 -30.128  22.275  1.00  0.00     0.006 C 
BRANCH   7   8
ATOM      8  C   UNL     1      13.208 -29.968  23.747  1.00  0.00     0.053 C 
BRANCH   8   9
ATOM      9  C   UNL     1      12.414 -28.715  23.936  1.00  0.00     0.041 C 
ATOM     10  O   UNL     1      11.398 -28.494  23.225  1.00  0.00    -0.550 OA
ATOM     11  O   UNL     1      12.766 -27.812  24.933  1.00  0.00    -0.550 OA
ENDBRANCH   8   9
ENDBRANCH   7   8
ENDBRANCH   6   7
ENDBRANCH   5   6
ENDBRANCH   4   5
ENDBRANCH   3   4
ENDBRANCH   2   3
ENDBRANCH   1   2
BRANCH   1  12
ATOM     12  C   UNL     1      17.853 -34.795  19.666  1.00  0.00     0.000 C 
BRANCH  12  13
ATOM     13  C   UNL     1      18.207 -34.173  21.028  1.00  0.00    -0.000 C 
BRANCH  13  14
ATOM     14  C   UNL     1      18.877 -32.787  20.967  1.00  0.00    -0.000 C 
BRANCH  14  15
ATOM     15  C   UNL     1      18.010 -31.733  20.259  1.00  0.00    -0.000 C 
BRANCH  15  16
ATOM     16  C   UNL     1      17.156 -30.915  21.242  1.00  0.00    -0.000 C 
BRANCH  16  17
ATOM     17  C   UNL     1      17.885 -30.643  22.570  1.00  0.00    -0.000 C 
BRANCH  17  18
ATOM     18  C   UNL     1      17.012 -30.951  23.797  1.00  0.00    -0.000 C 
BRANCH  18  19
ATOM     19  C   UNL     1      16.294 -32.304  23.689  1.00  0.00    -0.003 C 
ATOM     20  C   UNL     1      17.032 -33.382  24.479  1.00  0.00     0.004 C 
ENDBRANCH  18  19
ENDBRANCH  17  18
ENDBRANCH  16  17
ENDBRANCH  15  16
ENDBRANCH  14  15
ENDBRANCH  13  14
ENDBRANCH  12  13
ENDBRANCH   1  12
TORSDOF 16
ENDMDL
MODEL 4
REMARK VINA RESULT:    -4.569      3.113      6.360
REMARK INTER + INTRA:         -11.451
REMARK INTER:                  -8.737
REMARK INTRA:                  -2.715
REMARK UNBOUND:                -2.609
REMARK SMILES CCCCCCCCCCCCCCCCCC(=O)[O-]
REMARK SMILES IDX 10 1 11 2 12 3 13 4 14 5 15 6 16 7 17 8 18 9 19 10 20 11
REMARK SMILES IDX 9 12 8 13 7 14 6 15 5 16 4 17 3 18 2 19 1 20
REMARK H PARENT
REMARK Flexibility Score: inf
ROOT
ATOM      1  C   UNL     1      17.898 -33.781  19.153  1.00  0.00     0.000 C 
ENDROOT
BRANCH   1   2
ATOM      2  C   UNL     1      17.813 -35.281  19.489  1.00  0.00     0.000 C 
BRANCH   2   3
ATOM      3  C   UNL     1      16.540 -35.717  20.237  1.00  0.00     0.000 C 
BRANCH   3   4
ATOM      4  C   UNL     1      15.346 -34.785  19.982  1.00  0.00     0.000 C 
BRANCH   4   5
ATOM      5  C   UNL     1      14.981 -34.002  21.250  1.00  0.00     0.000 C 
BRANCH   5   6
ATOM      6  C   UNL     1      14.255 -32.694  20.898  1.00  0.00     0.000 C 
BRANCH   6   7
ATOM      7  C   UNL     1      13.821 -31.905  22.144  1.00  0.00     0.006 C 
BRANCH   7   8
ATOM      8  C   UNL     1      12.721 -30.880  21.840  1.00  0.00     0.053 C 
BRANCH   8   9
ATOM      9  C   UNL     1      12.656 -29.848  22.921  1.00  0.00     0.041 C 
ATOM     10  O   UNL     1      13.391 -29.949  23.938  1.00  0.00    -0.550 OA
ATOM     11  O   UNL     1      11.820 -28.746  22.781  1.00  0.00    -0.550 OA
ENDBRANCH   8   9
ENDBRANCH   7   8
ENDBRANCH   6   7
ENDBRANCH   5   6
ENDBRANCH   4   5
ENDBRANCH   3   4
ENDBRANCH   2   3
ENDBRANCH   1   2
BRANCH   1  12
ATOM     12  C   UNL     1      18.507 -32.943  20.289  1.00  0.00     0.000 C 
BRANCH  12  13
ATOM     13  C   UNL     1      17.767 -31.614  20.520  1.00  0.00    -0.000 C 
BRANCH  13  14
ATOM     14  C   UNL     1      18.199 -30.827  21.772  1.00  0.00    -0.000 C 
BRANCH  14  15
ATOM     15  C   UNL     1      17.115 -30.791  22.862  1.00  0.00    -0.000 C 
BRANCH  15  16
ATOM     16  C   UNL     1      17.664 -31.159  24.251  1.00  0.00    -0.000 C 
BRANCH  16  17
ATOM     17  C   UNL     1      18.168 -32.612  24.318  1.00  0.00    -0.000 C 
BRANCH  17  18
ATOM     18  C   UNL     1      17.043 -33.637  24.106  1.00  0.00    -0.000 C 
BRANCH  18  19
ATOM     19  C   UNL     1      17.565 -35.002  23.634  1.00  0.00    -0.003 C 
ATOM     20  C   UNL     1      19.048 -34.930  23.278  1.00  0.00     0.004 C 
ENDBRANCH  18  19
ENDBRANCH  17  18
ENDBRANCH  16  17
ENDBRANCH  15  16
ENDBRANCH  14  15
ENDBRANCH  13  14
ENDBRANCH  12  13
ENDBRANCH   1  12
TORSDOF 16
ENDMDL
MODEL 5
REMARK VINA RESULT:    -4.521      3.295      6.903
REMARK INTER + INTRA:         -11.360
REMARK INTER:                  -9.069
REMARK INTRA:                  -2.291
REMARK UNBOUND:                -2.609
REMARK SMILES CCCCCCCCCCCCCCCCCC(=O)[O-]
REMARK SMILES IDX 10 1 11 2 12 3 13 4 14 5 15 6 16 7 17 8 18 9 19 10 20 11
REMARK SMILES IDX 9 12 8 13 7 14 6 15 5 16 4 17 3 18 2 19 1 20
REMARK H PARENT
REMARK Flexibility Score: inf
ROOT
ATOM      1  C   UNL     1      18.225 -32.930  20.542  1.00  0.00     0.000 C 
ENDROOT
BRANCH   1   2
ATOM      2  C   UNL     1      17.698 -31.487  20.638  1.00  0.00     0.000 C 
BRANCH   2   3
ATOM      3  C   UNL     1      16.519 -31.280  21.607  1.00  0.00     0.000 C 
BRANCH   3   4
ATOM      4  C   UNL     1      16.159 -32.549  22.393  1.00  0.00     0.000 C 
BRANCH   4   5
ATOM      5  C   UNL     1      14.662 -32.865  22.271  1.00  0.00     0.000 C 
BRANCH   5   6
ATOM      6  C   UNL     1      14.055 -32.181  21.036  1.00  0.00     0.000 C 
BRANCH   6   7
ATOM      7  C   UNL     1      12.973 -31.153  21.402  1.00  0.00     0.006 C 
BRANCH   7   8
ATOM      8  C   UNL     1      12.849 -30.938  22.916  1.00  0.00     0.053 C 
BRANCH   8   9
ATOM      9  C   UNL     1      13.082 -29.501  23.260  1.00  0.00     0.041 C 
ATOM     10  O   UNL     1      12.246 -28.874  23.962  1.00  0.00    -0.550 OA
ATOM     11  O   UNL     1      14.249 -28.868  22.848  1.00  0.00    -0.550 OA
ENDBRANCH   8   9
ENDBRANCH   7   8
ENDBRANCH   6   7
ENDBRANCH   5   6
ENDBRANCH   4   5
ENDBRANCH   3   4
ENDBRANCH   2   3
ENDBRANCH   1   2
BRANCH   1  12
ATOM     12  C   UNL     1      17.926 -33.590  19.185  1.00  0.00     0.000 C 
BRANCH  12  13
ATOM     13  C   UNL     1      16.508 -34.185  19.104  1.00  0.00    -0.000 C 
BRANCH  13  14
ATOM     14  C   UNL     1      16.274 -35.451  19.950  1.00  0.00    -0.000 C 
BRANCH  14  15
ATOM     15  C   UNL     1      16.975 -36.694  19.376  1.00  0.00    -0.000 C 
BRANCH  15  16
ATOM     16  C   UNL     1      17.871 -37.396  20.411  1.00  0.00    -0.000 C 
BRANCH  16  17
ATOM     17  C   UNL     1      18.316 -36.450  21.541  1.00  0.00    -0.000 C 
BRANCH  17  18
ATOM     18  C   UNL     1      19.051 -37.187  22.672  1.00  0.00    -0.000 C 
BRANCH  18  19
ATOM     19  C   UNL     1      18.775 -36.578  24.055  1.00  0.00    -0.003 C 
ATOM     20  C   UNL     1      17.683 -35.515  23.978  1.00  0.00     0.004 C 
ENDBRANCH  18  19
ENDBRANCH  17  18
ENDBRANCH  16  17
ENDBRANCH  15  16
ENDBRANCH  14  15
ENDBRANCH  13  14
ENDBRANCH  12  13
ENDBRANCH   1  12
TORSDOF 16
ENDMDL
MODEL 6
REMARK VINA RESULT:    -4.515      2.010      4.207
REMARK INTER + INTRA:         -11.348
REMARK INTER:                  -8.587
REMARK INTRA:                  -2.761
REMARK UNBOUND:                -2.609
REMARK SMILES CCCCCCCCCCCCCCCCCC(=O)[O-]
REMARK SMILES IDX 10 1 11 2 12 3 13 4 14 5 15 6 16 7 17 8 18 9 19 10 20 11
REMARK SMILES IDX 9 12 8 13 7 14 6 15 5 16 4 17 3 18 2 19 1 20
REMARK H PARENT
REMARK Flexibility Score: inf
ROOT
ATOM      1  C   UNL     1      17.120 -33.648  19.068  1.00  0.00     0.000 C 
ENDROOT
BRANCH   1   2
ATOM      2  C   UNL     1      15.890 -34.471  19.495  1.00  0.00     0.000 C 
BRANCH   2   3
ATOM      3  C   UNL     1      14.590 -33.665  19.677  1.00  0.00     0.000 C 
BRANCH   3   4
ATOM      4  C   UNL     1      14.531 -32.917  21.017  1.00  0.00     0.000 C 
BRANCH   4   5
ATOM      5  C   UNL     1      15.160 -33.751  22.140  1.00  0.00     0.000 C 
BRANCH   5   6
ATOM      6  C   UNL     1      14.925 -33.095  23.510  1.00  0.00     0.000 C 
BRANCH   6   7
ATOM      7  C   UNL     1      15.865 -33.642  24.597  1.00  0.00     0.006 C 
BRANCH   7   8
ATOM      8  C   UNL     1      17.294 -33.863  24.085  1.00  0.00     0.053 C 
BRANCH   8   9
ATOM      9  C   UNL     1      17.660 -35.311  24.168  1.00  0.00     0.041 C 
ATOM     10  O   UNL     1      18.062 -35.923  23.144  1.00  0.00    -0.550 OA
ATOM     11  O   UNL     1      17.606 -35.973  25.390  1.00  0.00    -0.550 OA
ENDBRANCH   8   9
ENDBRANCH   7   8
ENDBRANCH   6   7
ENDBRANCH   5   6
ENDBRANCH   4   5
ENDBRANCH   3   4
ENDBRANCH   2   3
ENDBRANCH   1   2
BRANCH   1  12
ATOM     12  C   UNL     1      18.366 -33.944  19.919  1.00  0.00     0.000 C 
BRANCH  12  13
ATOM     13  C   UNL     1      18.744 -32.783  20.857  1.00  0.00    -0.000 C 
BRANCH  13  14
ATOM     14  C   UNL     1      17.974 -31.469  20.625  1.00  0.00    -0.000 C 
BRANCH  14  15
ATOM     15  C   UNL     1      17.519 -30.801  21.933  1.00  0.00    -0.000 C 
BRANCH  15  16
ATOM     16  C   UNL     1      16.464 -29.706  21.700  1.00  0.00    -0.000 C 
BRANCH  16  17
ATOM     17  C   UNL     1      15.516 -29.537  22.901  1.00  0.00    -0.000 C 
BRANCH  17  18
ATOM     18  C   UNL     1      14.035 -29.617  22.500  1.00  0.00    -0.000 C 
BRANCH  18  19
ATOM     19  C   UNL     1      13.103 -29.810  23.705  1.00  0.00    -0.003 C 
ATOM     20  C   UNL     1      12.472 -28.487  24.130  1.00  0.00     0.004 C 
ENDBRANCH  18  19
ENDBRANCH  17  18
ENDBRANCH  16  17
ENDBRANCH  15  16
ENDBRANCH  14  15
ENDBRANCH  13  14
ENDBRANCH  12  13
ENDBRANCH   1  12
TORSDOF 16
ENDMDL
MODEL 7
REMARK VINA RESULT:    -4.501      2.111      4.228
REMARK INTER + INTRA:         -11.321
REMARK INTER:                  -8.556
REMARK INTRA:                  -2.765
REMARK UNBOUND:                -2.609
REMARK SMILES CCCCCCCCCCCCCCCCCC(=O)[O-]
REMARK SMILES IDX 10 1 11 2 12 3 13 4 14 5 15 6 16 7 17 8 18 9 19 10 20 11
REMARK SMILES IDX 9 12 8 13 7 14 6 15 5 16 4 17 3 18 2 19 1 20
REMARK H PARENT
REMARK Flexibility Score: inf
ROOT
ATOM      1  C   UNL     1      15.514 -33.675  22.510  1.00  0.00     0.000 C 
ENDROOT
BRANCH   1   2
ATOM      2  C   UNL     1      14.741 -33.335  21.222  1.00  0.00     0.000 C 
BRANCH   2   3
ATOM      3  C   UNL     1      14.958 -34.308  20.049  1.00  0.00     0.000 C 
BRANCH   3   4
ATOM      4  C   UNL     1      16.267 -34.049  19.289  1.00  0.00     0.000 C 
BRANCH   4   5
ATOM      5  C   UNL     1      17.056 -35.351  19.095  1.00  0.00     0.000 C 
BRANCH   5   6
ATOM      6  C   UNL     1      16.730 -36.362  20.204  1.00  0.00     0.000 C 
BRANCH   6   7
ATOM      7  C   UNL     1      17.985 -36.858  20.941  1.00  0.00     0.006 C 
BRANCH   7   8
ATOM      8  C   UNL     1      18.690 -35.743  21.723  1.00  0.00     0.053 C 
BRANCH   8   9
ATOM      9  C   UNL     1      18.774 -36.096  23.174  1.00  0.00     0.041 C 
ATOM     10  O   UNL     1      19.836 -36.576  23.649  1.00  0.00    -0.550 OA
ATOM     11  O   UNL     1      17.694 -35.847  24.014  1.00  0.00    -0.550 OA
ENDBRANCH   8   9
ENDBRANCH   7   8
ENDBRANCH   6   7
ENDBRANCH   5   6
ENDBRANCH   4   5
ENDBRANCH   3   4
ENDBRANCH   2   3
ENDBRANCH   1   2
BRANCH   1  12
ATOM     12  C   UNL     1      15.037 -32.865  23.728  1.00  0.00     0.000 C 
BRANCH  12  13
ATOM     13  C   UNL     1      13.738 -32.085  23.461  1.00  0.00    -0.000 C 
BRANCH  13  14
ATOM     14  C   UNL     1      13.866 -30.551  23.513  1.00  0.00    -0.000 C 
BRANCH  14  15
ATOM     15  C   UNL     1      13.897 -29.904  22.119  1.00  0.00    -0.000 C 
BRANCH  15  16
ATOM     16  C   UNL     1      15.330 -29.647  21.620  1.00  0.00    -0.000 C 
BRANCH  16  17
ATOM     17  C   UNL     1      16.363 -29.674  22.761  1.00  0.00    -0.000 C 
BRANCH  17  18
ATOM     18  C   UNL     1      17.626 -30.469  22.395  1.00  0.00    -0.000 C 
BRANCH  18  19
ATOM     19  C   UNL     1      17.629 -30.940  20.933  1.00  0.00    -0.003 C 
ATOM     20  C   UNL     1      18.742 -31.954  20.684  1.00  0.00     0.004 C 
ENDBRANCH  18  19
ENDBRANCH  17  18
ENDBRANCH  16  17
ENDBRANCH  15  16
ENDBRANCH  14  15
ENDBRANCH  13  14
ENDBRANCH  12  13
ENDBRANCH   1  12
TORSDOF 16
ENDMDL
MODEL 8
REMARK VINA RESULT:    -4.480      3.498      6.477
REMARK INTER + INTRA:         -11.279
REMARK INTER:                  -8.652
REMARK INTRA:                  -2.628
REMARK UNBOUND:                -2.609
REMARK SMILES CCCCCCCCCCCCCCCCCC(=O)[O-]
REMARK SMILES IDX 10 1 11 2 12 3 13 4 14 5 15 6 16 7 17 8 18 9 19 10 20 11
REMARK SMILES IDX 9 12 8 13 7 14 6 15 5 16 4 17 3 18 2 19 1 20
REMARK H PARENT
REMARK Flexibility Score: inf
ROOT
ATOM      1  C   UNL     1      18.823 -32.682  23.155  1.00  0.00     0.000 C 
ENDROOT
BRANCH   1   2
ATOM      2  C   UNL     1      19.170 -31.313  22.541  1.00  0.00     0.000 C 
BRANCH   2   3
ATOM      3  C   UNL     1      18.714 -31.111  21.084  1.00  0.00     0.000 C 
BRANCH   3   4
ATOM      4  C   UNL     1      17.218 -30.786  20.963  1.00  0.00     0.000 C 
BRANCH   4   5
ATOM      5  C   UNL     1      16.865 -29.521  21.755  1.00  0.00     0.000 C 
BRANCH   5   6
ATOM      6  C   UNL     1      15.875 -29.840  22.887  1.00  0.00     0.000 C 
BRANCH   6   7
ATOM      7  C   UNL     1      14.439 -29.403  22.557  1.00  0.00     0.006 C 
BRANCH   7   8
ATOM      8  C   UNL     1      13.441 -29.766  23.665  1.00  0.00     0.053 C 
BRANCH   8   9
ATOM      9  C   UNL     1      12.422 -28.683  23.825  1.00  0.00     0.041 C 
ATOM     10  O   UNL     1      11.416 -28.643  23.069  1.00  0.00    -0.550 OA
ATOM     11  O   UNL     1      12.557 -27.746  24.843  1.00  0.00    -0.550 OA
ENDBRANCH   8   9
ENDBRANCH   7   8
ENDBRANCH   6   7
ENDBRANCH   5   6
ENDBRANCH   4   5
ENDBRANCH   3   4
ENDBRANCH   2   3
ENDBRANCH   1   2
BRANCH   1  12
ATOM     12  C   UNL     1      17.971 -32.570  24.430  1.00  0.00     0.000 C 
BRANCH  12  13
ATOM     13  C   UNL     1      16.555 -33.151  24.261  1.00  0.00    -0.000 C 
BRANCH  13  14
ATOM     14  C   UNL     1      16.221 -33.678  22.853  1.00  0.00    -0.000 C 
BRANCH  14  15
ATOM     15  C   UNL     1      14.795 -33.322  22.401  1.00  0.00    -0.000 C 
BRANCH  15  16
ATOM     16  C   UNL     1      14.644 -33.325  20.871  1.00  0.00    -0.000 C 
BRANCH  16  17
ATOM     17  C   UNL     1      15.352 -34.522  20.212  1.00  0.00    -0.000 C 
BRANCH  17  18
ATOM     18  C   UNL     1      16.422 -34.090  19.197  1.00  0.00    -0.000 C 
BRANCH  18  19
ATOM     19  C   UNL     1      17.781 -34.760  19.445  1.00  0.00    -0.003 C 
ATOM     20  C   UNL     1      17.666 -36.280  19.366  1.00  0.00     0.004 C 
ENDBRANCH  18  19
ENDBRANCH  17  18
ENDBRANCH  16  17
ENDBRANCH  15  16
ENDBRANCH  14  15
ENDBRANCH  13  14
ENDBRANCH  12  13
ENDBRANCH   1  12
TORSDOF 16
ENDMDL
MODEL 9
REMARK VINA RESULT:    -4.478      3.755      7.001
REMARK INTER + INTRA:         -11.275
REMARK INTER:                  -8.832
REMARK INTRA:                  -2.444
REMARK UNBOUND:                -2.609
REMARK SMILES CCCCCCCCCCCCCCCCCC(=O)[O-]
REMARK SMILES IDX 10 1 11 2 12 3 13 4 14 5 15 6 16 7 17 8 18 9 19 10 20 11
REMARK SMILES IDX 9 12 8 13 7 14 6 15 5 16 4 17 3 18 2 19 1 20
REMARK H PARENT
REMARK Flexibility Score: inf
ROOT
ATOM      1  C   UNL     1      16.018 -34.263  19.524  1.00  0.00     0.000 C 
ENDROOT
BRANCH   1   2
ATOM      2  C   UNL     1      15.414 -34.458  20.927  1.00  0.00     0.000 C 
BRANCH   2   3
ATOM      3  C   UNL     1      14.792 -33.198  21.557  1.00  0.00     0.000 C 
BRANCH   3   4
ATOM      4  C   UNL     1      14.772 -33.243  23.092  1.00  0.00     0.000 C 
BRANCH   4   5
ATOM      5  C   UNL     1      14.428 -31.868  23.677  1.00  0.00     0.000 C 
BRANCH   5   6
ATOM      6  C   UNL     1      15.185 -30.751  22.942  1.00  0.00     0.000 C 
BRANCH   6   7
ATOM      7  C   UNL     1      14.514 -29.377  23.099  1.00  0.00     0.006 C 
BRANCH   7   8
ATOM      8  C   UNL     1      13.057 -29.482  23.568  1.00  0.00     0.053 C 
BRANCH   8   9
ATOM      9  C   UNL     1      12.455 -28.120  23.709  1.00  0.00     0.041 C 
ATOM     10  O   UNL     1      11.283 -27.988  24.149  1.00  0.00    -0.550 OA
ATOM     11  O   UNL     1      13.208 -26.992  23.404  1.00  0.00    -0.550 OA
ENDBRANCH   8   9
ENDBRANCH   7   8
ENDBRANCH   6   7
ENDBRANCH   5   6
ENDBRANCH   4   5
ENDBRANCH   3   4
ENDBRANCH   2   3
ENDBRANCH   1   2
BRANCH   1  12
ATOM     12  C   UNL     1      16.963 -35.403  19.112  1.00  0.00     0.000 C 
BRANCH  12  13
ATOM     13  C   UNL     1      16.860 -36.633  20.033  1.00  0.00    -0.000 C 
BRANCH  13  14
ATOM     14  C   UNL     1      18.152 -37.004  20.786  1.00  0.00    -0.000 C 
BRANCH  14  15
ATOM     15  C   UNL     1      18.295 -36.271  22.130  1.00  0.00    -0.000 C 
BRANCH  15  16
ATOM     16  C   UNL     1      18.990 -34.906  21.986  1.00  0.00    -0.000 C 
BRANCH  16  17
ATOM     17  C   UNL     1      18.727 -33.982  23.188  1.00  0.00    -0.000 C 
BRANCH  17  18
ATOM     18  C   UNL     1      18.361 -32.551  22.765  1.00  0.00    -0.000 C 
BRANCH  18  19
ATOM     19  C   UNL     1      18.953 -32.166  21.401  1.00  0.00    -0.003 C 
ATOM     20  C   UNL     1      17.929 -31.422  20.548  1.00  0.00     0.004 C 
ENDBRANCH  18  19
ENDBRANCH  17  18
ENDBRANCH  16  17
ENDBRANCH  15  16
ENDBRANCH  14  15
ENDBRANCH  13  14
ENDBRANCH  12  13
ENDBRANCH   1  12
TORSDOF 16
ENDMDL
