MODEL 1
REMARK VINA RESULT:    -4.465      0.000      0.000
REMARK INTER + INTRA:          -6.616
REMARK INTER:                  -6.422
REMARK INTRA:                  -0.194
REMARK UNBOUND:                -0.194
REMARK SMILES CCCCCCCCCO
REMARK SMILES IDX 6 1 5 2 4 3 3 4 2 5 1 6 7 7 8 8 9 9 10 10
REMARK H PARENT 10 11
REMARK Flexibility Score: inf
ROOT
ATOM      1  C   UNL     1       7.008   5.638  -2.415  1.00  0.00     0.000 C 
ENDROOT
BRANCH   1   2
ATOM      2  C   UNL     1       7.362   5.784  -3.903  1.00  0.00     0.000 C 
BRANCH   2   3
ATOM      3  C   UNL     1       8.170   7.059  -4.196  1.00  0.00    -0.000 C 
BRANCH   3   4
ATOM      4  C   UNL     1       9.353   6.806  -5.147  1.00  0.00    -0.000 C 
BRANCH   4   5
ATOM      5  C   UNL     1       8.909   6.646  -6.608  1.00  0.00    -0.003 C 
ATOM      6  C   UNL     1       9.060   5.213  -7.117  1.00  0.00     0.004 C 
ENDBRANCH   4   5
ENDBRANCH   3   4
ENDBRANCH   2   3
ENDBRANCH   1   2
BRANCH   1   7
ATOM      7  C   UNL     1       6.425   4.247  -2.124  1.00  0.00     0.002 C 
BRANCH   7   8
ATOM      8  C   UNL     1       6.301   3.958  -0.619  1.00  0.00     0.028 C 
BRANCH   8   9
ATOM      9  C   UNL     1       6.902   5.056   0.271  1.00  0.00     0.156 C 
BRANCH   9  10
ATOM     10  O   UNL     1       6.836   4.701   1.626  1.00  0.00    -0.396 OA
ATOM     11  H   UNL     1       6.956   5.538   2.145  1.00  0.00     0.210 HD
ENDBRANCH   9  10
ENDBRANCH   8   9
ENDBRANCH   7   8
ENDBRANCH   1   7
TORSDOF 8
ENDMDL
MODEL 2
REMARK VINA RESULT:    -4.342      3.163      6.151
REMARK INTER + INTRA:          -6.440
REMARK INTER:                  -6.222
REMARK INTRA:                  -0.218
REMARK UNBOUND:                -0.194
REMARK SMILES CCCCCCCCCO
REMARK SMILES IDX 6 1 5 2 4 3 3 4 2 5 1 6 7 7 8 8 9 9 10 10
REMARK H PARENT 10 11
REMARK Flexibility Score: inf
ROOT
ATOM      1  C   UNL     1       9.132   6.748  -6.034  1.00  0.00     0.000 C 
ENDROOT
BRANCH   1   2
ATOM      2  C   UNL     1       8.727   6.857  -4.556  1.00  0.00     0.000 C 
BRANCH   2   3
ATOM      3  C   UNL     1       7.446   6.071  -4.235  1.00  0.00    -0.000 C 
BRANCH   3   4
ATOM      4  C   UNL     1       7.261   5.827  -2.727  1.00  0.00    -0.000 C 
BRANCH   4   5
ATOM      5  C   UNL     1       6.607   4.471  -2.426  1.00  0.00    -0.003 C 
ATOM      6  C   UNL     1       6.494   4.190  -0.928  1.00  0.00     0.004 C 
ENDBRANCH   4   5
ENDBRANCH   3   4
ENDBRANCH   2   3
ENDBRANCH   1   2
BRANCH   1   7
ATOM      7  C   UNL     1       8.706   5.394  -6.622  1.00  0.00     0.002 C 
BRANCH   7   8
ATOM      8  C   UNL     1       9.134   5.222  -8.089  1.00  0.00     0.028 C 
BRANCH   8   9
ATOM      9  C   UNL     1       8.721   3.875  -8.698  1.00  0.00     0.156 C 
BRANCH   9  10
ATOM     10  O   UNL     1       8.444   2.932  -7.697  1.00  0.00    -0.396 OA
ATOM     11  H   UNL     1       8.819   2.068  -8.011  1.00  0.00     0.210 HD
ENDBRANCH   9  10
ENDBRANCH   8   9
ENDBRANCH   7   8
ENDBRANCH   1   7
TORSDOF 8
ENDMDL
MODEL 3
REMARK VINA RESULT:    -4.144      2.939      6.039
REMARK INTER + INTRA:          -6.155
REMARK INTER:                  -5.940
REMARK INTRA:                  -0.215
REMARK UNBOUND:                -0.194
REMARK SMILES CCCCCCCCCO
REMARK SMILES IDX 6 1 5 2 4 3 3 4 2 5 1 6 7 7 8 8 9 9 10 10
REMARK H PARENT 10 11
REMARK Flexibility Score: inf
ROOT
ATOM      1  C   UNL     1       7.787   6.531  -4.362  1.00  0.00     0.000 C 
ENDROOT
BRANCH   1   2
ATOM      2  C   UNL     1       7.375   6.022  -2.972  1.00  0.00     0.000 C 
BRANCH   2   3
ATOM      3  C   UNL     1       6.676   4.654  -3.027  1.00  0.00    -0.000 C 
BRANCH   3   4
ATOM      4  C   UNL     1       6.860   3.842  -1.733  1.00  0.00    -0.000 C 
BRANCH   4   5
ATOM      5  C   UNL     1       6.130   4.469  -0.536  1.00  0.00    -0.003 C 
ATOM      6  C   UNL     1       6.798   4.144   0.799  1.00  0.00     0.004 C 
ENDBRANCH   4   5
ENDBRANCH   3   4
ENDBRANCH   2   3
ENDBRANCH   1   2
BRANCH   1   7
ATOM      7  C   UNL     1       9.286   6.862  -4.403  1.00  0.00     0.002 C 
BRANCH   7   8
ATOM      8  C   UNL     1       9.887   6.722  -5.811  1.00  0.00     0.028 C 
BRANCH   8   9
ATOM      9  C   UNL     1       8.896   6.187  -6.854  1.00  0.00     0.156 C 
BRANCH   9  10
ATOM     10  O   UNL     1       9.079   4.812  -7.067  1.00  0.00    -0.396 OA
ATOM     11  H   UNL     1       8.746   4.620  -7.981  1.00  0.00     0.210 HD
ENDBRANCH   9  10
ENDBRANCH   8   9
ENDBRANCH   7   8
ENDBRANCH   1   7
TORSDOF 8
ENDMDL
MODEL 4
REMARK VINA RESULT:    -4.026      5.366      7.302
REMARK INTER + INTRA:          -5.986
REMARK INTER:                  -5.604
REMARK INTRA:                  -0.382
REMARK UNBOUND:                -0.194
REMARK SMILES CCCCCCCCCO
REMARK SMILES IDX 6 1 5 2 4 3 3 4 2 5 1 6 7 7 8 8 9 9 10 10
REMARK H PARENT 10 11
REMARK Flexibility Score: inf
ROOT
ATOM      1  C   UNL     1       8.811   3.823  -7.895  1.00  0.00     0.000 C 
ENDROOT
BRANCH   1   2
ATOM      2  C   UNL     1       9.115   5.114  -8.669  1.00  0.00     0.000 C 
BRANCH   2   3
ATOM      3  C   UNL     1       9.267   6.334  -7.748  1.00  0.00    -0.000 C 
BRANCH   3   4
ATOM      4  C   UNL     1       8.835   6.042  -6.300  1.00  0.00    -0.000 C 
BRANCH   4   5
ATOM      5  C   UNL     1       9.672   6.812  -5.269  1.00  0.00    -0.003 C 
ATOM      6  C   UNL     1      11.047   7.211  -5.805  1.00  0.00     0.004 C 
ENDBRANCH   4   5
ENDBRANCH   3   4
ENDBRANCH   2   3
ENDBRANCH   1   2
BRANCH   1   7
ATOM      7  C   UNL     1       8.544   2.655  -8.858  1.00  0.00     0.002 C 
BRANCH   7   8
ATOM      8  C   UNL     1       9.346   2.769 -10.165  1.00  0.00     0.028 C 
BRANCH   8   9
ATOM      9  C   UNL     1      10.201   1.532 -10.473  1.00  0.00     0.156 C 
BRANCH   9  10
ATOM     10  O   UNL     1      10.810   1.036  -9.311  1.00  0.00    -0.396 OA
ATOM     11  H   UNL     1      10.077   0.740  -8.711  1.00  0.00     0.210 HD
ENDBRANCH   9  10
ENDBRANCH   8   9
ENDBRANCH   7   8
ENDBRANCH   1   7
TORSDOF 8
ENDMDL
MODEL 5
REMARK VINA RESULT:    -4.015      5.995      8.470
REMARK INTER + INTRA:          -5.970
REMARK INTER:                  -5.641
REMARK INTRA:                  -0.329
REMARK UNBOUND:                -0.194
REMARK SMILES CCCCCCCCCO
REMARK SMILES IDX 6 1 5 2 4 3 3 4 2 5 1 6 7 7 8 8 9 9 10 10
REMARK H PARENT 10 11
REMARK Flexibility Score: inf
ROOT
ATOM      1  C   UNL     1       9.629   1.628 -10.049  1.00  0.00     0.000 C 
ENDROOT
BRANCH   1   2
ATOM      2  C   UNL     1       9.588   2.988 -10.761  1.00  0.00     0.000 C 
BRANCH   2   3
ATOM      3  C   UNL     1       8.974   4.094  -9.888  1.00  0.00    -0.000 C 
BRANCH   3   4
ATOM      4  C   UNL     1       8.494   3.574  -8.522  1.00  0.00    -0.000 C 
BRANCH   4   5
ATOM      5  C   UNL     1       8.942   4.473  -7.360  1.00  0.00    -0.003 C 
ATOM      6  C   UNL     1       9.218   5.910  -7.798  1.00  0.00     0.004 C 
ENDBRANCH   4   5
ENDBRANCH   3   4
ENDBRANCH   2   3
ENDBRANCH   1   2
BRANCH   1   7
ATOM      7  C   UNL     1      10.856   0.814 -10.490  1.00  0.00     0.002 C 
BRANCH   7   8
ATOM      8  C   UNL     1      10.862  -0.610  -9.911  1.00  0.00     0.028 C 
BRANCH   8   9
ATOM      9  C   UNL     1       9.492  -1.074  -9.399  1.00  0.00     0.156 C 
BRANCH   9  10
ATOM     10  O   UNL     1       9.553  -1.432  -8.044  1.00  0.00    -0.396 OA
ATOM     11  H   UNL     1       9.525  -0.586  -7.525  1.00  0.00     0.210 HD
ENDBRANCH   9  10
ENDBRANCH   8   9
ENDBRANCH   7   8
ENDBRANCH   1   7
TORSDOF 8
ENDMDL
MODEL 6
REMARK VINA RESULT:    -3.940      2.621      5.609
REMARK INTER + INTRA:          -5.861
REMARK INTER:                  -5.489
REMARK INTRA:                  -0.372
REMARK UNBOUND:                -0.194
REMARK SMILES CCCCCCCCCO
REMARK SMILES IDX 6 1 5 2 4 3 3 4 2 5 1 6 7 7 8 8 9 9 10 10
REMARK H PARENT 10 11
REMARK Flexibility Score: inf
ROOT
ATOM      1  C   UNL     1       7.378   6.081  -3.289  1.00  0.00     0.000 C 
ENDROOT
BRANCH   1   2
ATOM      2  C   UNL     1       6.848   6.848  -2.068  1.00  0.00     0.000 C 
BRANCH   2   3
ATOM      3  C   UNL     1       6.513   5.922  -0.888  1.00  0.00    -0.000 C 
BRANCH   3   4
ATOM      4  C   UNL     1       6.429   4.442  -1.301  1.00  0.00    -0.000 C 
BRANCH   4   5
ATOM      5  C   UNL     1       6.381   3.496  -0.092  1.00  0.00    -0.003 C 
ATOM      6  C   UNL     1       6.710   4.202   1.223  1.00  0.00     0.004 C 
ENDBRANCH   4   5
ENDBRANCH   3   4
ENDBRANCH   2   3
ENDBRANCH   1   2
BRANCH   1   7
ATOM      7  C   UNL     1       8.191   7.006  -4.208  1.00  0.00     0.002 C 
BRANCH   7   8
ATOM      8  C   UNL     1       7.988   8.495  -3.882  1.00  0.00     0.028 C 
BRANCH   8   9
ATOM      9  C   UNL     1       9.288   9.235  -3.541  1.00  0.00     0.156 C 
BRANCH   9  10
ATOM     10  O   UNL     1       9.426   9.403  -2.155  1.00  0.00    -0.396 OA
ATOM     11  H   UNL     1       9.673   8.517  -1.784  1.00  0.00     0.210 HD
ENDBRANCH   9  10
ENDBRANCH   8   9
ENDBRANCH   7   8
ENDBRANCH   1   7
TORSDOF 8
ENDMDL
MODEL 7
REMARK VINA RESULT:    -3.900      2.038      3.195
REMARK INTER + INTRA:          -5.803
REMARK INTER:                  -5.360
REMARK INTRA:                  -0.443
REMARK UNBOUND:                -0.194
REMARK SMILES CCCCCCCCCO
REMARK SMILES IDX 6 1 5 2 4 3 3 4 2 5 1 6 7 7 8 8 9 9 10 10
REMARK H PARENT 10 11
REMARK Flexibility Score: inf
ROOT
ATOM      1  C   UNL     1       6.638   4.708  -3.069  1.00  0.00     0.000 C 
ENDROOT
BRANCH   1   2
ATOM      2  C   UNL     1       7.650   5.801  -3.442  1.00  0.00     0.000 C 
BRANCH   2   3
ATOM      3  C   UNL     1       7.021   7.203  -3.475  1.00  0.00    -0.000 C 
BRANCH   3   4
ATOM      4  C   UNL     1       7.944   8.281  -2.881  1.00  0.00    -0.000 C 
BRANCH   4   5
ATOM      5  C   UNL     1       7.392   8.873  -1.575  1.00  0.00    -0.003 C 
ATOM      6  C   UNL     1       6.275   8.023  -0.968  1.00  0.00     0.004 C 
ENDBRANCH   4   5
ENDBRANCH   3   4
ENDBRANCH   2   3
ENDBRANCH   1   2
BRANCH   1   7
ATOM      7  C   UNL     1       7.027   4.027  -1.747  1.00  0.00     0.002 C 
BRANCH   7   8
ATOM      8  C   UNL     1       5.999   4.269  -0.630  1.00  0.00     0.028 C 
BRANCH   8   9
ATOM      9  C   UNL     1       6.407   3.670   0.723  1.00  0.00     0.156 C 
BRANCH   9  10
ATOM     10  O   UNL     1       6.843   4.669   1.607  1.00  0.00    -0.396 OA
ATOM     11  H   UNL     1       6.049   4.947   2.134  1.00  0.00     0.210 HD
ENDBRANCH   9  10
ENDBRANCH   8   9
ENDBRANCH   7   8
ENDBRANCH   1   7
TORSDOF 8
ENDMDL
MODEL 8
REMARK VINA RESULT:    -3.867      3.068      5.713
REMARK INTER + INTRA:          -5.757
REMARK INTER:                  -5.396
REMARK INTRA:                  -0.361
REMARK UNBOUND:                -0.194
REMARK SMILES CCCCCCCCCO
REMARK SMILES IDX 6 1 5 2 4 3 3 4 2 5 1 6 7 7 8 8 9 9 10 10
REMARK H PARENT 10 11
REMARK Flexibility Score: inf
ROOT
ATOM      1  C   UNL     1       7.115   7.710  -3.186  1.00  0.00     0.000 C 
ENDROOT
BRANCH   1   2
ATOM      2  C   UNL     1       6.912   7.934  -1.680  1.00  0.00     0.000 C 
BRANCH   2   3
ATOM      3  C   UNL     1       6.443   6.665  -0.951  1.00  0.00    -0.000 C 
BRANCH   3   4
ATOM      4  C   UNL     1       6.903   5.375  -1.651  1.00  0.00    -0.000 C 
BRANCH   4   5
ATOM      5  C   UNL     1       6.187   4.126  -1.114  1.00  0.00    -0.003 C 
ATOM      6  C   UNL     1       6.515   3.842   0.351  1.00  0.00     0.004 C 
ENDBRANCH   4   5
ENDBRANCH   3   4
ENDBRANCH   2   3
ENDBRANCH   1   2
BRANCH   1   7
ATOM      7  C   UNL     1       8.510   8.178  -3.628  1.00  0.00     0.002 C 
BRANCH   7   8
ATOM      8  C   UNL     1       9.332   7.057  -4.285  1.00  0.00     0.028 C 
BRANCH   8   9
ATOM      9  C   UNL     1       8.655   6.435  -5.514  1.00  0.00     0.156 C 
BRANCH   9  10
ATOM     10  O   UNL     1       8.551   7.365  -6.559  1.00  0.00    -0.396 OA
ATOM     11  H   UNL     1       7.612   7.687  -6.560  1.00  0.00     0.210 HD
ENDBRANCH   9  10
ENDBRANCH   8   9
ENDBRANCH   7   8
ENDBRANCH   1   7
TORSDOF 8
ENDMDL
