MODEL 1
REMARK VINA RESULT:    -5.132      0.000      0.000
REMARK INTER + INTRA:          -8.234
REMARK INTER:                  -7.082
REMARK INTRA:                  -1.152
REMARK UNBOUND:                -1.152
REMARK SMILES CCCCc1cccc(O)c1CCCC
REMARK SMILES IDX 5 1 11 2 9 3 8 4 7 5 6 6 4 7 3 8 2 9 1 10 12 11 13 12 14 13
REMARK SMILES IDX 15 14 10 15
REMARK H PARENT 10 16
REMARK Flexibility Score: inf
ROOT
ATOM      1  C   UNL     1       4.871  12.256   8.316  1.00  0.00    -0.041 A 
ATOM      2  C   UNL     1       4.566  10.977   7.764  1.00  0.00    -0.003 A 
ATOM      3  C   UNL     1       3.375  10.324   8.159  1.00  0.00     0.119 A 
ATOM      4  C   UNL     1       2.529  10.911   9.106  1.00  0.00     0.046 A 
ATOM      5  C   UNL     1       2.839  12.151   9.655  1.00  0.00     0.004 A 
ATOM      6  C   UNL     1       3.994  12.820   9.261  1.00  0.00     0.004 A 
ENDROOT
BRANCH   1   7
ATOM      7  C   UNL     1       6.102  13.061   7.937  1.00  0.00     0.036 C 
BRANCH   7   8
ATOM      8  C   UNL     1       7.309  12.745   8.841  1.00  0.00     0.004 C 
BRANCH   8   9
ATOM      9  C   UNL     1       8.660  12.808   8.112  1.00  0.00    -0.003 C 
ATOM     10  C   UNL     1       8.928  11.556   7.274  1.00  0.00     0.004 C 
ENDBRANCH   8   9
ENDBRANCH   7   8
ENDBRANCH   1   7
BRANCH   2  11
ATOM     11  C   UNL     1       5.439  10.324   6.711  1.00  0.00     0.040 C 
BRANCH  11  12
ATOM     12  C   UNL     1       5.129  10.893   5.319  1.00  0.00     0.005 C 
BRANCH  12  13
ATOM     13  C   UNL     1       6.380  11.005   4.434  1.00  0.00    -0.003 C 
ATOM     14  C   UNL     1       6.958  12.420   4.405  1.00  0.00     0.004 C 
ENDBRANCH  12  13
ENDBRANCH  11  12
ENDBRANCH   2  11
BRANCH   3  15
ATOM     15  O   UNL     1       3.031   9.090   7.604  1.00  0.00    -0.508 OA
ATOM     16  H   UNL     1       3.467   8.228   7.909  1.00  0.00     0.293 HD
ENDBRANCH   3  15
TORSDOF 7
ENDMDL
MODEL 2
REMARK VINA RESULT:    -4.836      1.390      3.410
REMARK INTER + INTRA:          -7.825
REMARK INTER:                  -6.689
REMARK INTRA:                  -1.136
REMARK UNBOUND:                -1.152
REMARK SMILES CCCCc1cccc(O)c1CCCC
REMARK SMILES IDX 5 1 11 2 9 3 8 4 7 5 6 6 4 7 3 8 2 9 1 10 12 11 13 12 14 13
REMARK SMILES IDX 15 14 10 15
REMARK H PARENT 10 16
REMARK Flexibility Score: inf
ROOT
ATOM      1  C   UNL     1       5.207  10.548   7.212  1.00  0.00    -0.041 A 
ATOM      2  C   UNL     1       4.998  11.681   8.052  1.00  0.00    -0.003 A 
ATOM      3  C   UNL     1       3.984  11.629   9.038  1.00  0.00     0.119 A 
ATOM      4  C   UNL     1       3.176  10.493   9.159  1.00  0.00     0.046 A 
ATOM      5  C   UNL     1       3.372   9.397   8.325  1.00  0.00     0.004 A 
ATOM      6  C   UNL     1       4.380   9.421   7.365  1.00  0.00     0.004 A 
ENDROOT
BRANCH   1   7
ATOM      7  C   UNL     1       6.288  10.482   6.147  1.00  0.00     0.036 C 
BRANCH   7   8
ATOM      8  C   UNL     1       5.846  11.133   4.823  1.00  0.00     0.004 C 
BRANCH   8   9
ATOM      9  C   UNL     1       6.648  12.392   4.456  1.00  0.00    -0.003 C 
ATOM     10  C   UNL     1       8.060  12.062   3.970  1.00  0.00     0.004 C 
ENDBRANCH   8   9
ENDBRANCH   7   8
ENDBRANCH   1   7
BRANCH   2  11
ATOM     11  C   UNL     1       5.874  12.915   7.975  1.00  0.00     0.040 C 
BRANCH  11  12
ATOM     12  C   UNL     1       7.236  12.656   8.636  1.00  0.00     0.005 C 
BRANCH  12  13
ATOM     13  C   UNL     1       8.414  13.124   7.767  1.00  0.00    -0.003 C 
ATOM     14  C   UNL     1       9.370  11.988   7.407  1.00  0.00     0.004 C 
ENDBRANCH  12  13
ENDBRANCH  11  12
ENDBRANCH   2  11
BRANCH   3  15
ATOM     15  O   UNL     1       3.785  12.707   9.901  1.00  0.00    -0.508 OA
ATOM     16  H   UNL     1       4.182  12.724  10.833  1.00  0.00     0.293 HD
ENDBRANCH   3  15
TORSDOF 7
ENDMDL
MODEL 3
REMARK VINA RESULT:    -4.549      2.308      5.482
REMARK INTER + INTRA:          -7.429
REMARK INTER:                  -6.182
REMARK INTRA:                  -1.247
REMARK UNBOUND:                -1.152
REMARK SMILES CCCCc1cccc(O)c1CCCC
REMARK SMILES IDX 5 1 11 2 9 3 8 4 7 5 6 6 4 7 3 8 2 9 1 10 12 11 13 12 14 13
REMARK SMILES IDX 15 14 10 15
REMARK H PARENT 10 16
REMARK Flexibility Score: inf
ROOT
ATOM      1  C   UNL     1       6.551  10.832   5.925  1.00  0.00    -0.041 A 
ATOM      2  C   UNL     1       7.575  11.546   6.615  1.00  0.00    -0.003 A 
ATOM      3  C   UNL     1       8.499  12.315   5.869  1.00  0.00     0.119 A 
ATOM      4  C   UNL     1       8.430  12.341   4.471  1.00  0.00     0.046 A 
ATOM      5  C   UNL     1       7.440  11.629   3.802  1.00  0.00     0.004 A 
ATOM      6  C   UNL     1       6.507  10.886   4.520  1.00  0.00     0.004 A 
ENDROOT
BRANCH   1   7
ATOM      7  C   UNL     1       5.487  10.005   6.626  1.00  0.00     0.036 C 
BRANCH   7   8
ATOM      8  C   UNL     1       4.091  10.648   6.532  1.00  0.00     0.004 C 
BRANCH   8   9
ATOM      9  C   UNL     1       3.088  10.102   7.561  1.00  0.00    -0.003 C 
ATOM     10  C   UNL     1       3.757   9.218   8.614  1.00  0.00     0.004 C 
ENDBRANCH   8   9
ENDBRANCH   7   8
ENDBRANCH   1   7
BRANCH   2  11
ATOM     11  C   UNL     1       7.663  11.570   8.128  1.00  0.00     0.040 C 
BRANCH  11  12
ATOM     12  C   UNL     1       6.848  12.739   8.700  1.00  0.00     0.005 C 
BRANCH  12  13
ATOM     13  C   UNL     1       5.626  12.269   9.505  1.00  0.00    -0.003 C 
ATOM     14  C   UNL     1       4.386  13.125   9.250  1.00  0.00     0.004 C 
ENDBRANCH  12  13
ENDBRANCH  11  12
ENDBRANCH   2  11
BRANCH   3  15
ATOM     15  O   UNL     1       9.486  13.057   6.520  1.00  0.00    -0.508 OA
ATOM     16  H   UNL     1       9.412  14.062   6.628  1.00  0.00     0.293 HD
ENDBRANCH   3  15
TORSDOF 7
ENDMDL
MODEL 4
REMARK VINA RESULT:    -4.547      2.124      5.050
REMARK INTER + INTRA:          -7.427
REMARK INTER:                  -6.411
REMARK INTRA:                  -1.016
REMARK UNBOUND:                -1.152
REMARK SMILES CCCCc1cccc(O)c1CCCC
REMARK SMILES IDX 5 1 11 2 9 3 8 4 7 5 6 6 4 7 3 8 2 9 1 10 12 11 13 12 14 13
REMARK SMILES IDX 15 14 10 15
REMARK H PARENT 10 16
REMARK Flexibility Score: inf
ROOT
ATOM      1  C   UNL     1       8.019  11.389   6.732  1.00  0.00    -0.041 A 
ATOM      2  C   UNL     1       7.303  11.817   7.889  1.00  0.00    -0.003 A 
ATOM      3  C   UNL     1       7.955  12.640   8.836  1.00  0.00     0.119 A 
ATOM      4  C   UNL     1       9.296  12.997   8.657  1.00  0.00     0.046 A 
ATOM      5  C   UNL     1       9.996  12.563   7.536  1.00  0.00     0.004 A 
ATOM      6  C   UNL     1       9.364  11.772   6.581  1.00  0.00     0.004 A 
ENDROOT
BRANCH   1   7
ATOM      7  C   UNL     1       7.408  10.535   5.635  1.00  0.00     0.036 C 
BRANCH   7   8
ATOM      8  C   UNL     1       7.196  11.322   4.329  1.00  0.00     0.004 C 
BRANCH   8   9
ATOM      9  C   UNL     1       5.805  11.963   4.211  1.00  0.00    -0.003 C 
ATOM     10  C   UNL     1       4.709  11.093   4.829  1.00  0.00     0.004 C 
ENDBRANCH   8   9
ENDBRANCH   7   8
ENDBRANCH   1   7
BRANCH   2  11
ATOM     11  C   UNL     1       5.840  11.480   8.102  1.00  0.00     0.040 C 
BRANCH  11  12
ATOM     12  C   UNL     1       5.683  10.035   8.600  1.00  0.00     0.005 C 
BRANCH  12  13
ATOM     13  C   UNL     1       4.375   9.386   8.124  1.00  0.00    -0.003 C 
ATOM     14  C   UNL     1       3.201  10.365   8.106  1.00  0.00     0.004 C 
ENDBRANCH  12  13
ENDBRANCH  11  12
ENDBRANCH   2  11
BRANCH   3  15
ATOM     15  O   UNL     1       7.266  13.107   9.956  1.00  0.00    -0.508 OA
ATOM     16  H   UNL     1       7.046  14.089  10.076  1.00  0.00     0.293 HD
ENDBRANCH   3  15
TORSDOF 7
ENDMDL
MODEL 5
REMARK VINA RESULT:    -4.536      2.248      4.813
REMARK INTER + INTRA:          -7.411
REMARK INTER:                  -6.372
REMARK INTRA:                  -1.039
REMARK UNBOUND:                -1.152
REMARK SMILES CCCCc1cccc(O)c1CCCC
REMARK SMILES IDX 5 1 11 2 9 3 8 4 7 5 6 6 4 7 3 8 2 9 1 10 12 11 13 12 14 13
REMARK SMILES IDX 15 14 10 15
REMARK H PARENT 10 16
REMARK Flexibility Score: inf
ROOT
ATOM      1  C   UNL     1       7.365  12.788   7.045  1.00  0.00    -0.041 A 
ATOM      2  C   UNL     1       7.368  12.602   5.631  1.00  0.00    -0.003 A 
ATOM      3  C   UNL     1       8.587  12.300   4.980  1.00  0.00     0.119 A 
ATOM      4  C   UNL     1       9.777  12.222   5.712  1.00  0.00     0.046 A 
ATOM      5  C   UNL     1       9.772  12.422   7.088  1.00  0.00     0.004 A 
ATOM      6  C   UNL     1       8.578  12.697   7.750  1.00  0.00     0.004 A 
ENDROOT
BRANCH   1   7
ATOM      7  C   UNL     1       6.110  13.081   7.850  1.00  0.00     0.036 C 
BRANCH   7   8
ATOM      8  C   UNL     1       6.173  12.488   9.270  1.00  0.00     0.004 C 
BRANCH   8   9
ATOM      9  C   UNL     1       4.934  11.663   9.652  1.00  0.00    -0.003 C 
ATOM     10  C   UNL     1       3.629  12.362   9.268  1.00  0.00     0.004 C 
ENDBRANCH   8   9
ENDBRANCH   7   8
ENDBRANCH   1   7
BRANCH   2  11
ATOM     11  C   UNL     1       6.095  12.644   4.809  1.00  0.00     0.040 C 
BRANCH  11  12
ATOM     12  C   UNL     1       5.525  11.231   4.619  1.00  0.00     0.005 C 
BRANCH  12  13
ATOM     13  C   UNL     1       4.419  10.898   5.632  1.00  0.00    -0.003 C 
ATOM     14  C   UNL     1       4.871   9.892   6.691  1.00  0.00     0.004 C 
ENDBRANCH  12  13
ENDBRANCH  11  12
ENDBRANCH   2  11
BRANCH   3  15
ATOM     15  O   UNL     1       8.613  12.072   3.604  1.00  0.00    -0.508 OA
ATOM     16  H   UNL     1       7.961  11.438   3.156  1.00  0.00     0.293 HD
ENDBRANCH   3  15
TORSDOF 7
ENDMDL
MODEL 6
REMARK VINA RESULT:    -4.518      2.033      4.587
REMARK INTER + INTRA:          -7.386
REMARK INTER:                  -6.692
REMARK INTRA:                  -0.694
REMARK UNBOUND:                -1.152
REMARK SMILES CCCCc1cccc(O)c1CCCC
REMARK SMILES IDX 5 1 11 2 9 3 8 4 7 5 6 6 4 7 3 8 2 9 1 10 12 11 13 12 14 13
REMARK SMILES IDX 15 14 10 15
REMARK H PARENT 10 16
REMARK Flexibility Score: inf
ROOT
ATOM      1  C   UNL     1       5.291  10.487   7.369  1.00  0.00    -0.041 A 
ATOM      2  C   UNL     1       6.510  10.935   6.779  1.00  0.00    -0.003 A 
ATOM      3  C   UNL     1       6.502  11.373   5.433  1.00  0.00     0.119 A 
ATOM      4  C   UNL     1       5.320  11.330   4.684  1.00  0.00     0.046 A 
ATOM      5  C   UNL     1       4.138  10.876   5.259  1.00  0.00     0.004 A 
ATOM      6  C   UNL     1       4.121  10.464   6.589  1.00  0.00     0.004 A 
ENDROOT
BRANCH   1   7
ATOM      7  C   UNL     1       5.178  10.030   8.813  1.00  0.00     0.036 C 
BRANCH   7   8
ATOM      8  C   UNL     1       4.343  11.000   9.670  1.00  0.00     0.004 C 
BRANCH   8   9
ATOM      9  C   UNL     1       2.910  10.513   9.937  1.00  0.00    -0.003 C 
ATOM     10  C   UNL     1       1.864  11.584   9.621  1.00  0.00     0.004 C 
ENDBRANCH   8   9
ENDBRANCH   7   8
ENDBRANCH   1   7
BRANCH   2  11
ATOM     11  C   UNL     1       7.801  11.028   7.566  1.00  0.00     0.040 C 
BRANCH  11  12
ATOM     12  C   UNL     1       7.951  12.419   8.201  1.00  0.00     0.005 C 
BRANCH  12  13
ATOM     13  C   UNL     1       9.400  12.929   8.172  1.00  0.00    -0.003 C 
ATOM     14  C   UNL     1      10.125  12.576   6.874  1.00  0.00     0.004 C 
ENDBRANCH  12  13
ENDBRANCH  11  12
ENDBRANCH   2  11
BRANCH   3  15
ATOM     15  O   UNL     1       7.670  11.855   4.843  1.00  0.00    -0.508 OA
ATOM     16  H   UNL     1       7.745  12.809   4.508  1.00  0.00     0.293 HD
ENDBRANCH   3  15
TORSDOF 7
ENDMDL
MODEL 7
REMARK VINA RESULT:    -4.361      1.960      4.141
REMARK INTER + INTRA:          -7.170
REMARK INTER:                  -6.455
REMARK INTRA:                  -0.715
REMARK UNBOUND:                -1.152
REMARK SMILES CCCCc1cccc(O)c1CCCC
REMARK SMILES IDX 5 1 11 2 9 3 8 4 7 5 6 6 4 7 3 8 2 9 1 10 12 11 13 12 14 13
REMARK SMILES IDX 15 14 10 15
REMARK H PARENT 10 16
REMARK Flexibility Score: inf
ROOT
ATOM      1  C   UNL     1       5.521  11.717   8.155  1.00  0.00    -0.041 A 
ATOM      2  C   UNL     1       6.629  11.417   7.309  1.00  0.00    -0.003 A 
ATOM      3  C   UNL     1       7.897  11.967   7.614  1.00  0.00     0.119 A 
ATOM      4  C   UNL     1       8.049  12.822   8.711  1.00  0.00     0.046 A 
ATOM      5  C   UNL     1       6.962  13.125   9.524  1.00  0.00     0.004 A 
ATOM      6  C   UNL     1       5.712  12.575   9.253  1.00  0.00     0.004 A 
ENDROOT
BRANCH   1   7
ATOM      7  C   UNL     1       4.127  11.154   7.942  1.00  0.00     0.036 C 
BRANCH   7   8
ATOM      8  C   UNL     1       3.774  10.060   8.968  1.00  0.00     0.004 C 
BRANCH   8   9
ATOM      9  C   UNL     1       2.710  10.491   9.990  1.00  0.00    -0.003 C 
ATOM     10  C   UNL     1       2.035  11.809   9.608  1.00  0.00     0.004 C 
ENDBRANCH   8   9
ENDBRANCH   7   8
ENDBRANCH   1   7
BRANCH   2  11
ATOM     11  C   UNL     1       6.512  10.469   6.132  1.00  0.00     0.040 C 
BRANCH  11  12
ATOM     12  C   UNL     1       5.825  11.160   4.945  1.00  0.00     0.005 C 
BRANCH  12  13
ATOM     13  C   UNL     1       6.609  12.380   4.437  1.00  0.00    -0.003 C 
ATOM     14  C   UNL     1       7.903  11.994   3.721  1.00  0.00     0.004 C 
ENDBRANCH  12  13
ENDBRANCH  11  12
ENDBRANCH   2  11
BRANCH   3  15
ATOM     15  O   UNL     1       9.007  11.657   6.827  1.00  0.00    -0.508 OA
ATOM     16  H   UNL     1       9.147  12.076   5.915  1.00  0.00     0.293 HD
ENDBRANCH   3  15
TORSDOF 7
ENDMDL
MODEL 8
REMARK VINA RESULT:    -4.349      1.763      4.534
REMARK INTER + INTRA:          -7.153
REMARK INTER:                  -6.557
REMARK INTRA:                  -0.597
REMARK UNBOUND:                -1.152
REMARK SMILES CCCCc1cccc(O)c1CCCC
REMARK SMILES IDX 5 1 11 2 9 3 8 4 7 5 6 6 4 7 3 8 2 9 1 10 12 11 13 12 14 13
REMARK SMILES IDX 15 14 10 15
REMARK H PARENT 10 16
REMARK Flexibility Score: inf
ROOT
ATOM      1  C   UNL     1       7.671  11.485   6.746  1.00  0.00    -0.041 A 
ATOM      2  C   UNL     1       6.568  11.747   7.611  1.00  0.00    -0.003 A 
ATOM      3  C   UNL     1       6.768  12.553   8.756  1.00  0.00     0.119 A 
ATOM      4  C   UNL     1       8.040  13.054   9.053  1.00  0.00     0.046 A 
ATOM      5  C   UNL     1       9.117  12.781   8.216  1.00  0.00     0.004 A 
ATOM      6  C   UNL     1       8.935  12.010   7.071  1.00  0.00     0.004 A 
ENDROOT
BRANCH   1   7
ATOM      7  C   UNL     1       7.562  10.664   5.473  1.00  0.00     0.036 C 
BRANCH   7   8
ATOM      8  C   UNL     1       7.086  11.505   4.273  1.00  0.00     0.004 C 
BRANCH   8   9
ATOM      9  C   UNL     1       7.733  12.897   4.198  1.00  0.00    -0.003 C 
ATOM     10  C   UNL     1       9.009  12.901   3.355  1.00  0.00     0.004 C 
ENDBRANCH   8   9
ENDBRANCH   7   8
ENDBRANCH   1   7
BRANCH   2  11
ATOM     11  C   UNL     1       5.168  11.251   7.306  1.00  0.00     0.040 C 
BRANCH  11  12
ATOM     12  C   UNL     1       5.010   9.782   7.724  1.00  0.00     0.005 C 
BRANCH  12  13
ATOM     13  C   UNL     1       3.624   9.482   8.317  1.00  0.00    -0.003 C 
ATOM     14  C   UNL     1       3.083  10.634   9.164  1.00  0.00     0.004 C 
ENDBRANCH  12  13
ENDBRANCH  11  12
ENDBRANCH   2  11
BRANCH   3  15
ATOM     15  O   UNL     1       5.698  12.860   9.598  1.00  0.00    -0.508 OA
ATOM     16  H   UNL     1       4.829  12.338   9.567  1.00  0.00     0.293 HD
ENDBRANCH   3  15
TORSDOF 7
ENDMDL
MODEL 9
REMARK VINA RESULT:    -4.283      1.867      2.164
REMARK INTER + INTRA:          -7.062
REMARK INTER:                  -6.386
REMARK INTRA:                  -0.676
REMARK UNBOUND:                -1.152
REMARK SMILES CCCCc1cccc(O)c1CCCC
REMARK SMILES IDX 5 1 11 2 9 3 8 4 7 5 6 6 4 7 3 8 2 9 1 10 12 11 13 12 14 13
REMARK SMILES IDX 15 14 10 15
REMARK H PARENT 10 16
REMARK Flexibility Score: inf
ROOT
ATOM      1  C   UNL     1       6.141  10.870   7.913  1.00  0.00    -0.041 A 
ATOM      2  C   UNL     1       5.320  11.031   6.759  1.00  0.00    -0.003 A 
ATOM      3  C   UNL     1       4.103  10.316   6.675  1.00  0.00     0.119 A 
ATOM      4  C   UNL     1       3.730   9.435   7.697  1.00  0.00     0.046 A 
ATOM      5  C   UNL     1       4.542   9.268   8.813  1.00  0.00     0.004 A 
ATOM      6  C   UNL     1       5.732   9.981   8.924  1.00  0.00     0.004 A 
ENDROOT
BRANCH   1   7
ATOM      7  C   UNL     1       7.448  11.614   8.124  1.00  0.00     0.036 C 
BRANCH   7   8
ATOM      8  C   UNL     1       8.612  10.989   7.332  1.00  0.00     0.004 C 
BRANCH   8   9
ATOM      9  C   UNL     1       9.784  11.953   7.090  1.00  0.00    -0.003 C 
ATOM     10  C   UNL     1       9.786  13.125   8.073  1.00  0.00     0.004 C 
ENDBRANCH   8   9
ENDBRANCH   7   8
ENDBRANCH   1   7
BRANCH   2  11
ATOM     11  C   UNL     1       5.672  12.000   5.648  1.00  0.00     0.040 C 
BRANCH  11  12
ATOM     12  C   UNL     1       6.064  11.243   4.370  1.00  0.00     0.005 C 
BRANCH  12  13
ATOM     13  C   UNL     1       7.586  11.099   4.212  1.00  0.00    -0.003 C 
ATOM     14  C   UNL     1       8.253  12.384   3.724  1.00  0.00     0.004 C 
ENDBRANCH  12  13
ENDBRANCH  11  12
ENDBRANCH   2  11
BRANCH   3  15
ATOM     15  O   UNL     1       3.260  10.485   5.575  1.00  0.00    -0.508 OA
ATOM     16  H   UNL     1       2.381  10.985   5.649  1.00  0.00     0.293 HD
ENDBRANCH   3  15
TORSDOF 7
ENDMDL
