MODEL 1
REMARK VINA RESULT:    -3.596      0.000      0.000
REMARK INTER + INTRA:          -4.326
REMARK INTER:                  -4.227
REMARK INTRA:                  -0.099
REMARK UNBOUND:                -0.099
REMARK SMILES O=C([O-])CCC(=O)[O-]
REMARK SMILES IDX 4 1 2 2 1 3 3 4 5 5 6 6 7 7 8 8
REMARK H PARENT
REMARK Flexibility Score: inf
ROOT
ATOM      1  C   UNL     1       5.999   5.515  13.292  1.00  0.00     0.059 C 
ENDROOT
BRANCH   1   2
ATOM      2  C   UNL     1       6.512   5.295  14.683  1.00  0.00     0.042 C 
ATOM      3  O   UNL     1       5.920   4.499  15.458  1.00  0.00    -0.550 OA
ATOM      4  O   UNL     1       7.667   5.938  15.106  1.00  0.00    -0.550 OA
ENDBRANCH   1   2
BRANCH   1   5
ATOM      5  C   UNL     1       5.133   4.343  12.818  1.00  0.00     0.059 C 
BRANCH   5   6
ATOM      6  C   UNL     1       5.910   3.394  11.958  1.00  0.00     0.042 C 
ATOM      7  O   UNL     1       6.095   2.206  12.333  1.00  0.00    -0.550 OA
ATOM      8  O   UNL     1       6.464   3.831  10.762  1.00  0.00    -0.550 OA
ENDBRANCH   5   6
ENDBRANCH   1   5
TORSDOF 3
ENDMDL
MODEL 2
REMARK VINA RESULT:    -3.582      1.306      1.730
REMARK INTER + INTRA:          -4.309
REMARK INTER:                  -4.276
REMARK INTRA:                  -0.033
REMARK UNBOUND:                -0.099
REMARK SMILES O=C([O-])CCC(=O)[O-]
REMARK SMILES IDX 4 1 2 2 1 3 3 4 5 5 6 6 7 7 8 8
REMARK H PARENT
REMARK Flexibility Score: inf
ROOT
ATOM      1  C   UNL     1       6.167   4.942  14.525  1.00  0.00     0.059 C 
ENDROOT
BRANCH   1   2
ATOM      2  C   UNL     1       6.801   6.213  15.000  1.00  0.00     0.042 C 
ATOM      3  O   UNL     1       7.241   6.302  16.177  1.00  0.00    -0.550 OA
ATOM      4  O   UNL     1       6.944   7.286  14.129  1.00  0.00    -0.550 OA
ENDBRANCH   1   2
BRANCH   1   5
ATOM      5  C   UNL     1       5.538   5.109  13.139  1.00  0.00     0.059 C 
BRANCH   5   6
ATOM      6  C   UNL     1       5.150   3.789  12.545  1.00  0.00     0.042 C 
ATOM      7  O   UNL     1       3.951   3.566  12.227  1.00  0.00    -0.550 OA
ATOM      8  O   UNL     1       6.102   2.791  12.381  1.00  0.00    -0.550 OA
ENDBRANCH   5   6
ENDBRANCH   1   5
TORSDOF 3
ENDMDL
MODEL 3
REMARK VINA RESULT:    -3.578      0.091      3.682
REMARK INTER + INTRA:          -4.305
REMARK INTER:                  -4.206
REMARK INTRA:                  -0.099
REMARK UNBOUND:                -0.099
REMARK SMILES O=C([O-])CCC(=O)[O-]
REMARK SMILES IDX 4 1 2 2 1 3 3 4 5 5 6 6 7 7 8 8
REMARK H PARENT
REMARK Flexibility Score: inf
ROOT
ATOM      1  C   UNL     1       5.109   4.377  12.796  1.00  0.00     0.059 C 
ENDROOT
BRANCH   1   2
ATOM      2  C   UNL     1       5.851   3.419  11.914  1.00  0.00     0.042 C 
ATOM      3  O   UNL     1       6.014   2.223  12.273  1.00  0.00    -0.550 OA
ATOM      4  O   UNL     1       6.324   3.838  10.677  1.00  0.00    -0.550 OA
ENDBRANCH   1   2
BRANCH   1   5
ATOM      5  C   UNL     1       6.017   5.506  13.292  1.00  0.00     0.059 C 
BRANCH   5   6
ATOM      6  C   UNL     1       6.511   5.247  14.683  1.00  0.00     0.042 C 
ATOM      7  O   UNL     1       5.918   4.416  15.421  1.00  0.00    -0.550 OA
ATOM      8  O   UNL     1       7.600   5.951  15.179  1.00  0.00    -0.550 OA
ENDBRANCH   5   6
ENDBRANCH   1   5
TORSDOF 3
ENDMDL
MODEL 4
REMARK VINA RESULT:    -3.570      1.333      4.010
REMARK INTER + INTRA:          -4.295
REMARK INTER:                  -4.261
REMARK INTRA:                  -0.034
REMARK UNBOUND:                -0.099
REMARK SMILES O=C([O-])CCC(=O)[O-]
REMARK SMILES IDX 4 1 2 2 1 3 3 4 5 5 6 6 7 7 8 8
REMARK H PARENT
REMARK Flexibility Score: inf
ROOT
ATOM      1  C   UNL     1       5.618   5.117  13.081  1.00  0.00     0.059 C 
ENDROOT
BRANCH   1   2
ATOM      2  C   UNL     1       5.250   3.764  12.551  1.00  0.00     0.042 C 
ATOM      3  O   UNL     1       6.128   2.870  12.429  1.00  0.00    -0.550 OA
ATOM      4  O   UNL     1       3.928   3.479  12.234  1.00  0.00    -0.550 OA
ENDBRANCH   1   2
BRANCH   1   5
ATOM      5  C   UNL     1       6.157   5.035  14.512  1.00  0.00     0.059 C 
BRANCH   5   6
ATOM      6  C   UNL     1       6.805   6.319  14.933  1.00  0.00     0.042 C 
ATOM      7  O   UNL     1       7.147   6.491  16.133  1.00  0.00    -0.550 OA
ATOM      8  O   UNL     1       6.994   7.340  14.011  1.00  0.00    -0.550 OA
ENDBRANCH   5   6
ENDBRANCH   1   5
TORSDOF 3
ENDMDL
MODEL 5
REMARK VINA RESULT:    -3.537      1.152      1.386
REMARK INTER + INTRA:          -4.257
REMARK INTER:                  -4.135
REMARK INTRA:                  -0.122
REMARK UNBOUND:                -0.099
REMARK SMILES O=C([O-])CCC(=O)[O-]
REMARK SMILES IDX 4 1 2 2 1 3 3 4 5 5 6 6 7 7 8 8
REMARK H PARENT
REMARK Flexibility Score: inf
ROOT
ATOM      1  C   UNL     1       5.798   5.122  12.656  1.00  0.00     0.059 C 
ENDROOT
BRANCH   1   2
ATOM      2  C   UNL     1       6.194   5.351  14.083  1.00  0.00     0.042 C 
ATOM      3  O   UNL     1       6.131   4.410  14.917  1.00  0.00    -0.550 OA
ATOM      4  O   UNL     1       6.672   6.593  14.481  1.00  0.00    -0.550 OA
ENDBRANCH   1   2
BRANCH   1   5
ATOM      5  C   UNL     1       4.585   4.193  12.549  1.00  0.00     0.059 C 
BRANCH   5   6
ATOM      6  C   UNL     1       4.924   2.920  11.835  1.00  0.00     0.042 C 
ATOM      7  O   UNL     1       4.154   2.469  10.946  1.00  0.00    -0.550 OA
ATOM      8  O   UNL     1       6.069   2.212  12.178  1.00  0.00    -0.550 OA
ENDBRANCH   5   6
ENDBRANCH   1   5
TORSDOF 3
ENDMDL
MODEL 6
REMARK VINA RESULT:    -3.433      2.028      4.544
REMARK INTER + INTRA:          -4.134
REMARK INTER:                  -4.041
REMARK INTRA:                  -0.093
REMARK UNBOUND:                -0.099
REMARK SMILES O=C([O-])CCC(=O)[O-]
REMARK SMILES IDX 4 1 2 2 1 3 3 4 5 5 6 6 7 7 8 8
REMARK H PARENT
REMARK Flexibility Score: inf
ROOT
ATOM      1  C   UNL     1       6.879   6.461  14.187  1.00  0.00     0.059 C 
ENDROOT
BRANCH   1   2
ATOM      2  C   UNL     1       6.066   5.209  14.049  1.00  0.00     0.042 C 
ATOM      3  O   UNL     1       6.124   4.314  14.933  1.00  0.00    -0.550 OA
ATOM      4  O   UNL     1       5.212   5.052  12.965  1.00  0.00    -0.550 OA
ENDBRANCH   1   2
BRANCH   1   5
ATOM      5  C   UNL     1       7.011   6.888  15.652  1.00  0.00     0.059 C 
BRANCH   5   6
ATOM      6  C   UNL     1       8.415   6.725  16.151  1.00  0.00     0.042 C 
ATOM      7  O   UNL     1       9.356   6.525  15.338  1.00  0.00    -0.550 OA
ATOM      8  O   UNL     1       8.678   6.752  17.515  1.00  0.00    -0.550 OA
ENDBRANCH   5   6
ENDBRANCH   1   5
TORSDOF 3
ENDMDL
MODEL 7
REMARK VINA RESULT:    -3.403      2.018      3.124
REMARK INTER + INTRA:          -4.099
REMARK INTER:                  -4.010
REMARK INTRA:                  -0.088
REMARK UNBOUND:                -0.099
REMARK SMILES O=C([O-])CCC(=O)[O-]
REMARK SMILES IDX 4 1 2 2 1 3 3 4 5 5 6 6 7 7 8 8
REMARK H PARENT
REMARK Flexibility Score: inf
ROOT
ATOM      1  C   UNL     1       7.077   6.632  15.913  1.00  0.00     0.059 C 
ENDROOT
BRANCH   1   2
ATOM      2  C   UNL     1       8.545   6.650  16.213  1.00  0.00     0.042 C 
ATOM      3  O   UNL     1       9.384   6.650  15.275  1.00  0.00    -0.550 OA
ATOM      4  O   UNL     1       8.984   6.710  17.529  1.00  0.00    -0.550 OA
ENDBRANCH   1   2
BRANCH   1   5
ATOM      5  C   UNL     1       6.810   6.597  14.405  1.00  0.00     0.059 C 
BRANCH   5   6
ATOM      6  C   UNL     1       6.108   5.337  13.997  1.00  0.00     0.042 C 
ATOM      7  O   UNL     1       5.948   4.405  14.828  1.00  0.00    -0.550 OA
ATOM      8  O   UNL     1       5.668   5.177  12.689  1.00  0.00    -0.550 OA
ENDBRANCH   5   6
ENDBRANCH   1   5
TORSDOF 3
ENDMDL
MODEL 8
REMARK VINA RESULT:    -3.228      3.408      5.269
REMARK INTER + INTRA:          -3.893
REMARK INTER:                  -3.802
REMARK INTRA:                  -0.091
REMARK UNBOUND:                -0.099
REMARK SMILES O=C([O-])CCC(=O)[O-]
REMARK SMILES IDX 4 1 2 2 1 3 3 4 5 5 6 6 7 7 8 8
REMARK H PARENT
REMARK Flexibility Score: inf
ROOT
ATOM      1  C   UNL     1       2.493   2.085  11.848  1.00  0.00     0.059 C 
ENDROOT
BRANCH   1   2
ATOM      2  C   UNL     1       2.307   0.599  11.792  1.00  0.00     0.042 C 
ATOM      3  O   UNL     1       3.123  -0.164  12.371  1.00  0.00    -0.550 OA
ATOM      4  O   UNL     1       1.208   0.061  11.134  1.00  0.00    -0.550 OA
ENDBRANCH   1   2
BRANCH   1   5
ATOM      5  C   UNL     1       3.697   2.535  11.016  1.00  0.00     0.059 C 
BRANCH   5   6
ATOM      6  C   UNL     1       4.770   3.133  11.875  1.00  0.00     0.042 C 
ATOM      7  O   UNL     1       5.821   2.482  12.120  1.00  0.00    -0.550 OA
ATOM      8  O   UNL     1       4.593   4.390  12.437  1.00  0.00    -0.550 OA
ENDBRANCH   5   6
ENDBRANCH   1   5
TORSDOF 3
ENDMDL
MODEL 9
REMARK VINA RESULT:    -3.205      3.152      4.121
REMARK INTER + INTRA:          -3.866
REMARK INTER:                  -3.771
REMARK INTRA:                  -0.095
REMARK UNBOUND:                -0.099
REMARK SMILES O=C([O-])CCC(=O)[O-]
REMARK SMILES IDX 4 1 2 2 1 3 3 4 5 5 6 6 7 7 8 8
REMARK H PARENT
REMARK Flexibility Score: inf
ROOT
ATOM      1  C   UNL     1       4.029   2.769  11.096  1.00  0.00     0.059 C 
ENDROOT
BRANCH   1   2
ATOM      2  C   UNL     1       4.992   3.394  12.059  1.00  0.00     0.042 C 
ATOM      3  O   UNL     1       6.016   2.763  12.431  1.00  0.00    -0.550 OA
ATOM      4  O   UNL     1       4.779   4.690  12.512  1.00  0.00    -0.550 OA
ENDBRANCH   1   2
BRANCH   1   5
ATOM      5  C   UNL     1       2.745   2.315  11.797  1.00  0.00     0.059 C 
BRANCH   5   6
ATOM      6  C   UNL     1       2.569   0.829  11.721  1.00  0.00     0.042 C 
ATOM      7  O   UNL     1       3.452   0.063  12.191  1.00  0.00    -0.550 OA
ATOM      8  O   UNL     1       1.453   0.289  11.097  1.00  0.00    -0.550 OA
ENDBRANCH   5   6
ENDBRANCH   1   5
TORSDOF 3
ENDMDL
