MODEL 1
REMARK VINA RESULT:    35.117      0.000      0.000
REMARK INTER + INTRA:          35.117
REMARK INTER:                  35.117
REMARK INTRA:                   0.000
REMARK UNBOUND:                 0.000
REMARK SMILES C=C1CCC[C@@]2(C)C=C3OC(=O)C(C)=C3C[C@@H]12
REMARK SMILES IDX 14 1 13 2 15 3 16 4 17 5 2 6 1 7 3 8 4 9 5 10 6 11 8 12 9 13
REMARK SMILES IDX 10 14 11 15 12 16 7 17
REMARK H PARENT
REMARK Flexibility Score: inf
ROOT
ATOM      1  C   UNL     1      13.886  49.039  62.535  1.00  0.00     0.053 C 
ATOM      2  C   UNL     1      14.700  49.839  61.569  1.00  0.00     0.041 C 
ATOM      3  C   UNL     1      14.941  51.146  61.628  1.00  0.00     0.005 C 
ATOM      4  C   UNL     1      14.501  52.140  62.652  1.00  0.00     0.049 C 
ATOM      5  C   UNL     1      14.620  53.572  62.069  1.00  0.00     0.029 C 
ATOM      6  C   UNL     1      14.385  54.585  63.175  1.00  0.00    -0.073 C 
ATOM      7  C   UNL     1      13.165  55.109  63.370  1.00  0.00     0.008 C 
ATOM      8  C   UNL     1      15.502  54.870  64.152  1.00  0.00     0.031 C 
ATOM      9  C   UNL     1      16.823  55.125  63.421  1.00  0.00     0.005 C 
ATOM     10  C   UNL     1      17.131  54.032  62.384  1.00  0.00     0.012 C 
ATOM     11  C   UNL     1      15.994  53.848  61.341  1.00  0.00    -0.004 C 
ATOM     12  C   UNL     1      16.386  52.702  60.414  1.00  0.00     0.027 C 
ATOM     13  C   UNL     1      15.902  51.478  60.597  1.00  0.00     0.131 C 
ATOM     14  O   UNL     1      16.241  50.344  59.874  1.00  0.00    -0.423 OA
ATOM     15  C   UNL     1      15.512  49.320  60.465  1.00  0.00     0.339 C 
ATOM     16  O   UNL     1      15.567  48.117  60.098  1.00  0.00    -0.246 OA
ATOM     17  C   UNL     1      15.861  55.113  60.460  1.00  0.00     0.016 C 
ENDROOT
TORSDOF 0
ENDMDL
MODEL 2
REMARK VINA RESULT:    38.028      2.491      4.127
REMARK INTER + INTRA:          38.028
REMARK INTER:                  38.028
REMARK INTRA:                   0.000
REMARK UNBOUND:                 0.000
REMARK SMILES C=C1CCC[C@@]2(C)C=C3OC(=O)C(C)=C3C[C@@H]12
REMARK SMILES IDX 14 1 13 2 15 3 16 4 17 5 2 6 1 7 3 8 4 9 5 10 6 11 8 12 9 13
REMARK SMILES IDX 10 14 11 15 12 16 7 17
REMARK H PARENT
REMARK Flexibility Score: inf
ROOT
ATOM      1  C   UNL     1      20.565  53.712  63.320  1.00  0.00     0.053 C 
ATOM      2  C   UNL     1      19.860  52.748  62.420  1.00  0.00     0.041 C 
ATOM      3  C   UNL     1      18.566  52.757  62.110  1.00  0.00     0.005 C 
ATOM      4  C   UNL     1      17.500  53.710  62.538  1.00  0.00     0.049 C 
ATOM      5  C   UNL     1      16.107  53.065  62.314  1.00  0.00     0.029 C 
ATOM      6  C   UNL     1      15.029  54.110  62.541  1.00  0.00    -0.073 C 
ATOM      7  C   UNL     1      14.431  54.221  63.737  1.00  0.00     0.008 C 
ATOM      8  C   UNL     1      14.756  55.124  61.454  1.00  0.00     0.031 C 
ATOM      9  C   UNL     1      14.609  54.444  60.090  1.00  0.00     0.005 C 
ATOM     10  C   UNL     1      15.767  53.476  59.797  1.00  0.00     0.012 C 
ATOM     11  C   UNL     1      15.942  52.391  60.895  1.00  0.00    -0.004 C 
ATOM     12  C   UNL     1      17.153  51.539  60.527  1.00  0.00     0.027 C 
ATOM     13  C   UNL     1      18.339  51.757  61.086  1.00  0.00     0.131 C 
ATOM     14  O   UNL     1      19.524  51.105  60.780  1.00  0.00    -0.423 OA
ATOM     15  C   UNL     1      20.476  51.710  61.590  1.00  0.00     0.339 C 
ATOM     16  O   UNL     1      21.698  51.404  61.587  1.00  0.00    -0.246 OA
ATOM     17  C   UNL     1      14.718  51.445  60.918  1.00  0.00     0.016 C 
ENDROOT
TORSDOF 0
ENDMDL
