MODEL 1
REMARK VINA RESULT:    -3.302      0.000      0.000
REMARK INTER + INTRA:          -4.531
REMARK INTER:                  -4.075
REMARK INTRA:                  -0.456
REMARK UNBOUND:                -0.456
REMARK SMILES C=CC[C@@H](C)C(=O)CC
REMARK SMILES IDX 4 1 5 2 6 3 7 4 8 5 9 6 3 7 2 8 1 9
REMARK H PARENT
REMARK Flexibility Score: inf
ROOT
ATOM      1  C   UNL     1      31.536  71.405 105.851  1.00  0.00     0.057 C 
ATOM      2  C   UNL     1      32.692  71.851 106.761  1.00  0.00     0.016 C 
ENDROOT
BRANCH   1   3
ATOM      3  C   UNL     1      31.992  70.311 104.907  1.00  0.00     0.135 C 
ATOM      4  O   UNL     1      33.114  69.845 105.035  1.00  0.00    -0.299 OA
BRANCH   3   5
ATOM      5  C   UNL     1      31.113  69.799 103.791  1.00  0.00     0.072 C 
ATOM      6  C   UNL     1      31.091  68.274 103.773  1.00  0.00     0.012 C 
ENDBRANCH   3   5
ENDBRANCH   1   3
BRANCH   1   7
ATOM      7  C   UNL     1      30.306  70.948 106.663  1.00  0.00     0.038 C 
BRANCH   7   8
ATOM      8  C   UNL     1      30.585  69.712 107.477  1.00  0.00    -0.034 C 
ATOM      9  C   UNL     1      29.831  68.614 107.372  1.00  0.00     0.004 C 
ENDBRANCH   7   8
ENDBRANCH   1   7
TORSDOF 4
ENDMDL
MODEL 2
REMARK VINA RESULT:    -3.293      2.096      4.036
REMARK INTER + INTRA:          -4.519
REMARK INTER:                  -4.334
REMARK INTRA:                  -0.185
REMARK UNBOUND:                -0.456
REMARK SMILES C=CC[C@@H](C)C(=O)CC
REMARK SMILES IDX 4 1 5 2 6 3 7 4 8 5 9 6 3 7 2 8 1 9
REMARK H PARENT
REMARK Flexibility Score: inf
ROOT
ATOM      1  C   UNL     1      33.876  71.840 106.019  1.00  0.00     0.057 C 
ATOM      2  C   UNL     1      34.826  71.201 104.994  1.00  0.00     0.016 C 
ENDROOT
BRANCH   1   3
ATOM      3  C   UNL     1      32.459  71.343 105.816  1.00  0.00     0.135 C 
ATOM      4  O   UNL     1      32.249  70.470 104.987  1.00  0.00    -0.299 OA
BRANCH   3   5
ATOM      5  C   UNL     1      31.292  71.913 106.584  1.00  0.00     0.072 C 
ATOM      6  C   UNL     1      30.280  70.824 106.926  1.00  0.00     0.012 C 
ENDBRANCH   3   5
ENDBRANCH   1   3
BRANCH   1   7
ATOM      7  C   UNL     1      34.339  71.591 107.470  1.00  0.00     0.038 C 
BRANCH   7   8
ATOM      8  C   UNL     1      35.038  72.788 108.060  1.00  0.00    -0.034 C 
ATOM      9  C   UNL     1      35.479  72.794 109.321  1.00  0.00     0.004 C 
ENDBRANCH   7   8
ENDBRANCH   1   7
TORSDOF 4
ENDMDL
MODEL 3
REMARK VINA RESULT:    -3.275      1.868      3.589
REMARK INTER + INTRA:          -4.497
REMARK INTER:                  -4.241
REMARK INTRA:                  -0.256
REMARK UNBOUND:                -0.456
REMARK SMILES C=CC[C@@H](C)C(=O)CC
REMARK SMILES IDX 4 1 5 2 6 3 7 4 8 5 9 6 3 7 2 8 1 9
REMARK H PARENT
REMARK Flexibility Score: inf
ROOT
ATOM      1  C   UNL     1      31.145  71.023 105.809  1.00  0.00     0.057 C 
ATOM      2  C   UNL     1      32.008  69.952 105.125  1.00  0.00     0.016 C 
ENDROOT
BRANCH   1   3
ATOM      3  C   UNL     1      30.244  70.395 106.853  1.00  0.00     0.135 C 
ATOM      4  O   UNL     1      29.202  70.959 107.155  1.00  0.00    -0.299 OA
BRANCH   3   5
ATOM      5  C   UNL     1      30.605  69.108 107.554  1.00  0.00     0.072 C 
ATOM      6  C   UNL     1      29.577  68.021 107.260  1.00  0.00     0.012 C 
ENDBRANCH   3   5
ENDBRANCH   1   3
BRANCH   1   7
ATOM      7  C   UNL     1      32.002  72.145 106.433  1.00  0.00     0.038 C 
BRANCH   7   8
ATOM      8  C   UNL     1      33.478  71.861 106.328  1.00  0.00    -0.034 C 
ATOM      9  C   UNL     1      34.327  72.180 107.309  1.00  0.00     0.004 C 
ENDBRANCH   7   8
ENDBRANCH   1   7
TORSDOF 4
ENDMDL
MODEL 4
REMARK VINA RESULT:    -3.256      1.435      2.842
REMARK INTER + INTRA:          -4.473
REMARK INTER:                  -4.054
REMARK INTRA:                  -0.419
REMARK UNBOUND:                -0.456
REMARK SMILES C=CC[C@@H](C)C(=O)CC
REMARK SMILES IDX 4 1 5 2 6 3 7 4 8 5 9 6 3 7 2 8 1 9
REMARK H PARENT
REMARK Flexibility Score: inf
ROOT
ATOM      1  C   UNL     1      31.087  70.528 106.736  1.00  0.00     0.057 C 
ATOM      2  C   UNL     1      29.614  70.765 107.106  1.00  0.00     0.016 C 
ENDROOT
BRANCH   1   3
ATOM      3  C   UNL     1      31.203  69.465 105.662  1.00  0.00     0.135 C 
ATOM      4  O   UNL     1      31.233  68.288 105.992  1.00  0.00    -0.299 OA
BRANCH   3   5
ATOM      5  C   UNL     1      31.313  69.814 104.198  1.00  0.00     0.072 C 
ATOM      6  C   UNL     1      32.602  69.259 103.601  1.00  0.00     0.012 C 
ENDBRANCH   3   5
ENDBRANCH   1   3
BRANCH   1   7
ATOM      7  C   UNL     1      31.788  71.829 106.293  1.00  0.00     0.038 C 
BRANCH   7   8
ATOM      8  C   UNL     1      33.222  71.890 106.750  1.00  0.00    -0.034 C 
ATOM      9  C   UNL     1      34.237  71.923 105.881  1.00  0.00     0.004 C 
ENDBRANCH   7   8
ENDBRANCH   1   7
TORSDOF 4
ENDMDL
MODEL 5
REMARK VINA RESULT:    -3.222      1.883      3.849
REMARK INTER + INTRA:          -4.432
REMARK INTER:                  -4.151
REMARK INTRA:                  -0.281
REMARK UNBOUND:                -0.456
REMARK SMILES C=CC[C@@H](C)C(=O)CC
REMARK SMILES IDX 4 1 5 2 6 3 7 4 8 5 9 6 3 7 2 8 1 9
REMARK H PARENT
REMARK Flexibility Score: inf
ROOT
ATOM      1  C   UNL     1      33.549  70.903 105.957  1.00  0.00     0.057 C 
ATOM      2  C   UNL     1      33.854  69.698 106.861  1.00  0.00     0.016 C 
ENDROOT
BRANCH   1   3
ATOM      3  C   UNL     1      32.066  70.982 105.657  1.00  0.00     0.135 C 
ATOM      4  O   UNL     1      31.626  70.397 104.679  1.00  0.00    -0.299 OA
BRANCH   3   5
ATOM      5  C   UNL     1      31.117  71.788 106.511  1.00  0.00     0.072 C 
ATOM      6  C   UNL     1      29.921  70.944 106.940  1.00  0.00     0.012 C 
ENDBRANCH   3   5
ENDBRANCH   1   3
BRANCH   1   7
ATOM      7  C   UNL     1      34.053  72.226 106.570  1.00  0.00     0.038 C 
BRANCH   7   8
ATOM      8  C   UNL     1      34.894  72.003 107.799  1.00  0.00    -0.034 C 
ATOM      9  C   UNL     1      35.216  73.005 108.623  1.00  0.00     0.004 C 
ENDBRANCH   7   8
ENDBRANCH   1   7
TORSDOF 4
ENDMDL
MODEL 6
REMARK VINA RESULT:    -3.138      1.594      3.293
REMARK INTER + INTRA:          -4.328
REMARK INTER:                  -4.130
REMARK INTRA:                  -0.198
REMARK UNBOUND:                -0.456
REMARK SMILES C=CC[C@@H](C)C(=O)CC
REMARK SMILES IDX 4 1 5 2 6 3 7 4 8 5 9 6 3 7 2 8 1 9
REMARK H PARENT
REMARK Flexibility Score: inf
ROOT
ATOM      1  C   UNL     1      32.721  71.247 106.635  1.00  0.00     0.057 C 
ATOM      2  C   UNL     1      31.390  72.014 106.628  1.00  0.00     0.016 C 
ENDROOT
BRANCH   1   3
ATOM      3  C   UNL     1      32.796  70.296 105.458  1.00  0.00     0.135 C 
ATOM      4  O   UNL     1      33.778  70.326 104.732  1.00  0.00    -0.299 OA
BRANCH   3   5
ATOM      5  C   UNL     1      31.680  69.332 105.135  1.00  0.00     0.072 C 
ATOM      6  C   UNL     1      31.109  69.606 103.747  1.00  0.00     0.012 C 
ENDBRANCH   3   5
ENDBRANCH   1   3
BRANCH   1   7
ATOM      7  C   UNL     1      33.936  72.199 106.646  1.00  0.00     0.038 C 
BRANCH   7   8
ATOM      8  C   UNL     1      34.819  71.985 107.847  1.00  0.00    -0.034 C 
ATOM      9  C   UNL     1      35.238  73.004 108.603  1.00  0.00     0.004 C 
ENDBRANCH   7   8
ENDBRANCH   1   7
TORSDOF 4
ENDMDL
MODEL 7
REMARK VINA RESULT:    -3.138      7.362      8.662
REMARK INTER + INTRA:          -4.327
REMARK INTER:                  -4.056
REMARK INTRA:                  -0.271
REMARK UNBOUND:                -0.456
REMARK SMILES C=CC[C@@H](C)C(=O)CC
REMARK SMILES IDX 4 1 5 2 6 3 7 4 8 5 9 6 3 7 2 8 1 9
REMARK H PARENT
REMARK Flexibility Score: inf
ROOT
ATOM      1  C   UNL     1      25.973  74.950 106.154  1.00  0.00     0.057 C 
ATOM      2  C   UNL     1      27.249  75.788 105.986  1.00  0.00     0.016 C 
ENDROOT
BRANCH   1   3
ATOM      3  C   UNL     1      25.294  75.269 107.471  1.00  0.00     0.135 C 
ATOM      4  O   UNL     1      25.172  76.438 107.808  1.00  0.00    -0.299 OA
BRANCH   3   5
ATOM      5  C   UNL     1      24.790  74.188 108.395  1.00  0.00     0.072 C 
ATOM      6  C   UNL     1      25.600  72.906 108.226  1.00  0.00     0.012 C 
ENDBRANCH   3   5
ENDBRANCH   1   3
BRANCH   1   7
ATOM      7  C   UNL     1      24.995  75.142 104.976  1.00  0.00     0.038 C 
BRANCH   7   8
ATOM      8  C   UNL     1      25.313  76.371 104.165  1.00  0.00    -0.034 C 
ATOM      9  C   UNL     1      24.549  76.753 103.137  1.00  0.00     0.004 C 
ENDBRANCH   7   8
ENDBRANCH   1   7
TORSDOF 4
ENDMDL
MODEL 8
REMARK VINA RESULT:    -3.115      1.548      1.990
REMARK INTER + INTRA:          -4.299
REMARK INTER:                  -3.852
REMARK INTRA:                  -0.447
REMARK UNBOUND:                -0.456
REMARK SMILES C=CC[C@@H](C)C(=O)CC
REMARK SMILES IDX 4 1 5 2 6 3 7 4 8 5 9 6 3 7 2 8 1 9
REMARK H PARENT
REMARK Flexibility Score: inf
ROOT
ATOM      1  C   UNL     1      33.039  71.270 105.862  1.00  0.00     0.057 C 
ATOM      2  C   UNL     1      34.331  72.088 106.014  1.00  0.00     0.016 C 
ENDROOT
BRANCH   1   3
ATOM      3  C   UNL     1      33.289  69.812 106.192  1.00  0.00     0.135 C 
ATOM      4  O   UNL     1      33.727  69.520 107.295  1.00  0.00    -0.299 OA
BRANCH   3   5
ATOM      5  C   UNL     1      33.042  68.710 105.191  1.00  0.00     0.072 C 
ATOM      6  C   UNL     1      32.612  69.285 103.844  1.00  0.00     0.012 C 
ENDBRANCH   3   5
ENDBRANCH   1   3
BRANCH   1   7
ATOM      7  C   UNL     1      31.892  71.836 106.724  1.00  0.00     0.038 C 
BRANCH   7   8
ATOM      8  C   UNL     1      30.546  71.307 106.304  1.00  0.00    -0.034 C 
ATOM      9  C   UNL     1      29.861  70.444 107.060  1.00  0.00     0.004 C 
ENDBRANCH   7   8
ENDBRANCH   1   7
TORSDOF 4
ENDMDL
MODEL 9
REMARK VINA RESULT:    -3.068      0.983      2.830
REMARK INTER + INTRA:          -4.242
REMARK INTER:                  -3.829
REMARK INTRA:                  -0.413
REMARK UNBOUND:                -0.456
REMARK SMILES C=CC[C@@H](C)C(=O)CC
REMARK SMILES IDX 4 1 5 2 6 3 7 4 8 5 9 6 3 7 2 8 1 9
REMARK H PARENT
REMARK Flexibility Score: inf
ROOT
ATOM      1  C   UNL     1      31.805  70.027 105.210  1.00  0.00     0.057 C 
ATOM      2  C   UNL     1      31.415  69.619 103.781  1.00  0.00     0.016 C 
ENDROOT
BRANCH   1   3
ATOM      3  C   UNL     1      33.199  70.620 105.234  1.00  0.00     0.135 C 
ATOM      4  O   UNL     1      34.100  70.043 104.642  1.00  0.00    -0.299 OA
BRANCH   3   5
ATOM      5  C   UNL     1      33.518  71.885 105.992  1.00  0.00     0.072 C 
ATOM      6  C   UNL     1      34.303  71.575 107.263  1.00  0.00     0.012 C 
ENDBRANCH   3   5
ENDBRANCH   1   3
BRANCH   1   7
ATOM      7  C   UNL     1      30.785  71.006 105.830  1.00  0.00     0.038 C 
BRANCH   7   8
ATOM      8  C   UNL     1      30.157  70.458 107.085  1.00  0.00    -0.034 C 
ATOM      9  C   UNL     1      30.592  69.330 107.655  1.00  0.00     0.004 C 
ENDBRANCH   7   8
ENDBRANCH   1   7
TORSDOF 4
ENDMDL
