MODEL 1
REMARK VINA RESULT:    -4.110      0.000      0.000
REMARK INTER + INTRA:          -4.231
REMARK INTER:                  -4.231
REMARK INTRA:                   0.000
REMARK UNBOUND:                 0.000
REMARK SMILES Oc1ccc2[nH]ccc2c1
REMARK SMILES IDX 3 1 4 2 5 3 9 4 8 5 7 6 6 7 10 8 2 9 1 11
REMARK H PARENT 6 10 1 12
REMARK Flexibility Score: inf
ROOT
ATOM      1  C   UNL     1       5.602  -7.793  30.374  1.00  0.00     0.048 A 
ATOM      2  C   UNL     1       5.384  -8.746  29.362  1.00  0.00     0.030 A 
ATOM      3  C   UNL     1       4.074  -9.162  29.132  1.00  0.00     0.046 A 
ATOM      4  C   UNL     1       3.023  -8.668  29.859  1.00  0.00     0.003 A 
ATOM      5  C   UNL     1       1.877  -9.273  29.391  1.00  0.00     0.028 A 
ATOM      6  C   UNL     1       2.305 -10.125  28.377  1.00  0.00     0.083 A 
ATOM      7  N   UNL     1       3.647 -10.053  28.223  1.00  0.00    -0.361 N 
ATOM      8  C   UNL     1       3.206  -7.724  30.868  1.00  0.00     0.056 A 
ATOM      9  C   UNL     1       4.520  -7.282  31.126  1.00  0.00     0.116 A 
ATOM     10  H   UNL     1       4.227 -10.584  27.537  1.00  0.00     0.166 HD
ENDROOT
BRANCH   9  11
ATOM     11  O   UNL     1       4.764  -6.340  32.123  1.00  0.00    -0.508 OA
ATOM     12  H   UNL     1       4.025  -6.014  32.735  1.00  0.00     0.293 HD
ENDBRANCH   9  11
TORSDOF 1
ENDMDL
MODEL 2
REMARK VINA RESULT:    -3.678      0.871      2.041
REMARK INTER + INTRA:          -3.785
REMARK INTER:                  -3.785
REMARK INTRA:                   0.000
REMARK UNBOUND:                 0.000
REMARK SMILES Oc1ccc2[nH]ccc2c1
REMARK SMILES IDX 3 1 4 2 5 3 9 4 8 5 7 6 6 7 10 8 2 9 1 11
REMARK H PARENT 6 10 1 12
REMARK Flexibility Score: inf
ROOT
ATOM      1  C   UNL     1       2.999  -7.549  31.251  1.00  0.00     0.048 A 
ATOM      2  C   UNL     1       2.436  -8.431  30.310  1.00  0.00     0.030 A 
ATOM      3  C   UNL     1       3.284  -8.999  29.361  1.00  0.00     0.046 A 
ATOM      4  C   UNL     1       4.625  -8.718  29.335  1.00  0.00     0.003 A 
ATOM      5  C   UNL     1       5.175  -9.431  28.292  1.00  0.00     0.028 A 
ATOM      6  C   UNL     1       4.110 -10.125  27.725  1.00  0.00     0.083 A 
ATOM      7  N   UNL     1       2.958  -9.857  28.383  1.00  0.00    -0.361 N 
ATOM      8  C   UNL     1       5.213  -7.850  30.252  1.00  0.00     0.056 A 
ATOM      9  C   UNL     1       4.383  -7.257  31.226  1.00  0.00     0.116 A 
ATOM     10  H   UNL     1       2.012 -10.242  28.169  1.00  0.00     0.166 HD
ENDROOT
BRANCH   9  11
ATOM     11  O   UNL     1       4.914  -6.381  32.168  1.00  0.00    -0.508 OA
ATOM     12  H   UNL     1       4.728  -6.492  33.158  1.00  0.00     0.293 HD
ENDBRANCH   9  11
TORSDOF 1
ENDMDL
MODEL 3
REMARK VINA RESULT:    -3.615      1.484      2.186
REMARK INTER + INTRA:          -3.721
REMARK INTER:                  -3.721
REMARK INTRA:                   0.000
REMARK UNBOUND:                 0.000
REMARK SMILES Oc1ccc2[nH]ccc2c1
REMARK SMILES IDX 3 1 4 2 5 3 9 4 8 5 7 6 6 7 10 8 2 9 1 11
REMARK H PARENT 6 10 1 12
REMARK Flexibility Score: inf
ROOT
ATOM      1  C   UNL     1       5.046  -7.500  30.993  1.00  0.00     0.048 A 
ATOM      2  C   UNL     1       3.662  -7.752  31.002  1.00  0.00     0.030 A 
ATOM      3  C   UNL     1       3.153  -8.625  30.042  1.00  0.00     0.046 A 
ATOM      4  C   UNL     1       3.963  -9.226  29.115  1.00  0.00     0.003 A 
ATOM      5  C   UNL     1       3.162 -10.019  28.321  1.00  0.00     0.028 A 
ATOM      6  C   UNL     1       1.875  -9.853  28.824  1.00  0.00     0.083 A 
ATOM      7  N   UNL     1       1.875  -9.001  29.875  1.00  0.00    -0.361 N 
ATOM      8  C   UNL     1       5.337  -8.997  29.079  1.00  0.00     0.056 A 
ATOM      9  C   UNL     1       5.884  -8.118  30.037  1.00  0.00     0.116 A 
ATOM     10  H   UNL     1       1.049  -8.700  30.436  1.00  0.00     0.166 HD
ENDROOT
BRANCH   9  11
ATOM     11  O   UNL     1       7.250  -7.851  30.049  1.00  0.00    -0.508 OA
ATOM     12  H   UNL     1       7.798  -7.935  30.898  1.00  0.00     0.293 HD
ENDBRANCH   9  11
TORSDOF 1
ENDMDL
MODEL 4
REMARK VINA RESULT:    -3.109      2.541      3.590
REMARK INTER + INTRA:          -3.200
REMARK INTER:                  -3.200
REMARK INTRA:                   0.000
REMARK UNBOUND:                 0.000
REMARK SMILES Oc1ccc2[nH]ccc2c1
REMARK SMILES IDX 3 1 4 2 5 3 9 4 8 5 7 6 6 7 10 8 2 9 1 11
REMARK H PARENT 6 10 1 12
REMARK Flexibility Score: inf
ROOT
ATOM      1  C   UNL     1       4.498  -9.387  28.616  1.00  0.00     0.048 A 
ATOM      2  C   UNL     1       5.355  -8.627  29.433  1.00  0.00     0.030 A 
ATOM      3  C   UNL     1       4.779  -7.859  30.443  1.00  0.00     0.046 A 
ATOM      4  C   UNL     1       3.425  -7.836  30.646  1.00  0.00     0.003 A 
ATOM      5  C   UNL     1       3.181  -6.992  31.708  1.00  0.00     0.028 A 
ATOM      6  C   UNL     1       4.435  -6.536  32.104  1.00  0.00     0.083 A 
ATOM      7  N   UNL     1       5.407  -7.069  31.328  1.00  0.00    -0.361 N 
ATOM      8  C   UNL     1       2.549  -8.576  29.855  1.00  0.00     0.056 A 
ATOM      9  C   UNL     1       3.099  -9.364  28.823  1.00  0.00     0.116 A 
ATOM     10  H   UNL     1       6.434  -6.897  31.405  1.00  0.00     0.166 HD
ENDROOT
BRANCH   9  11
ATOM     11  O   UNL     1       2.274 -10.125  27.999  1.00  0.00    -0.508 OA
ATOM     12  H   UNL     1       2.400 -11.126  27.902  1.00  0.00     0.293 HD
ENDBRANCH   9  11
TORSDOF 1
ENDMDL
