MODEL 1
REMARK VINA RESULT:    -3.195      0.000      0.000
REMARK INTER + INTRA:          -3.573
REMARK INTER:                  -3.568
REMARK INTRA:                  -0.005
REMARK UNBOUND:                -0.005
REMARK SMILES CCCC(=O)[O-]
REMARK SMILES IDX 3 1 4 2 5 3 6 4 2 5 1 6
REMARK H PARENT
REMARK Flexibility Score: inf
ROOT
ATOM      1  C   UNL     1     -18.584  42.509  20.067  1.00  0.00     0.052 C 
ENDROOT
BRANCH   1   2
ATOM      2  C   UNL     1     -18.918  41.148  19.537  1.00  0.00     0.041 C 
ATOM      3  O   UNL     1     -19.740  40.414  20.146  1.00  0.00    -0.550 OA
ATOM      4  O   UNL     1     -18.297  40.678  18.387  1.00  0.00    -0.550 OA
ENDBRANCH   1   2
BRANCH   1   5
ATOM      5  C   UNL     1     -17.483  42.448  21.131  1.00  0.00     0.003 C 
ATOM      6  C   UNL     1     -17.137  43.829  21.690  1.00  0.00     0.004 C 
ENDBRANCH   1   5
TORSDOF 2
ENDMDL
MODEL 2
REMARK VINA RESULT:    -3.161      2.323      2.917
REMARK INTER + INTRA:          -3.535
REMARK INTER:                  -3.522
REMARK INTRA:                  -0.013
REMARK UNBOUND:                -0.005
REMARK SMILES CCCC(=O)[O-]
REMARK SMILES IDX 3 1 4 2 5 3 6 4 2 5 1 6
REMARK H PARENT
REMARK Flexibility Score: inf
ROOT
ATOM      1  C   UNL     1     -16.152  42.637  21.882  1.00  0.00     0.052 C 
ENDROOT
BRANCH   1   2
ATOM      2  C   UNL     1     -16.945  41.367  21.913  1.00  0.00     0.041 C 
ATOM      3  O   UNL     1     -18.008  41.265  21.246  1.00  0.00    -0.550 OA
ATOM      4  O   UNL     1     -16.527  40.306  22.706  1.00  0.00    -0.550 OA
ENDBRANCH   1   2
BRANCH   1   5
ATOM      5  C   UNL     1     -17.060  43.870  21.798  1.00  0.00     0.003 C 
ATOM      6  C   UNL     1     -16.767  44.884  22.903  1.00  0.00     0.004 C 
ENDBRANCH   1   5
TORSDOF 2
ENDMDL
MODEL 3
REMARK VINA RESULT:    -3.160      2.295      3.552
REMARK INTER + INTRA:          -3.534
REMARK INTER:                  -3.521
REMARK INTRA:                  -0.013
REMARK UNBOUND:                -0.005
REMARK SMILES CCCC(=O)[O-]
REMARK SMILES IDX 3 1 4 2 5 3 6 4 2 5 1 6
REMARK H PARENT
REMARK Flexibility Score: inf
ROOT
ATOM      1  C   UNL     1     -17.754  40.780  19.033  1.00  0.00     0.052 C 
ENDROOT
BRANCH   1   2
ATOM      2  C   UNL     1     -18.131  41.659  20.186  1.00  0.00     0.041 C 
ATOM      3  O   UNL     1     -18.779  42.721  19.989  1.00  0.00    -0.550 OA
ATOM      4  O   UNL     1     -17.736  41.324  21.474  1.00  0.00    -0.550 OA
ENDBRANCH   1   2
BRANCH   1   5
ATOM      5  C   UNL     1     -18.078  39.308  19.314  1.00  0.00     0.003 C 
ATOM      6  C   UNL     1     -17.128  38.354  18.590  1.00  0.00     0.004 C 
ENDBRANCH   1   5
TORSDOF 2
ENDMDL
MODEL 4
REMARK VINA RESULT:    -3.151      1.537      1.885
REMARK INTER + INTRA:          -3.524
REMARK INTER:                  -3.465
REMARK INTRA:                  -0.059
REMARK UNBOUND:                -0.005
REMARK SMILES CCCC(=O)[O-]
REMARK SMILES IDX 3 1 4 2 5 3 6 4 2 5 1 6
REMARK H PARENT
REMARK Flexibility Score: inf
ROOT
ATOM      1  C   UNL     1     -18.604  41.113  20.706  1.00  0.00     0.052 C 
ENDROOT
BRANCH   1   2
ATOM      2  C   UNL     1     -18.241  40.344  19.473  1.00  0.00     0.041 C 
ATOM      3  O   UNL     1     -18.583  39.137  19.354  1.00  0.00    -0.550 OA
ATOM      4  O   UNL     1     -17.498  40.950  18.469  1.00  0.00    -0.550 OA
ENDBRANCH   1   2
BRANCH   1   5
ATOM      5  C   UNL     1     -17.360  41.526  21.503  1.00  0.00     0.003 C 
ATOM      6  C   UNL     1     -16.758  40.360  22.288  1.00  0.00     0.004 C 
ENDBRANCH   1   5
TORSDOF 2
ENDMDL
MODEL 5
REMARK VINA RESULT:    -3.147     11.778     12.281
REMARK INTER + INTRA:          -3.520
REMARK INTER:                  -3.481
REMARK INTRA:                  -0.039
REMARK UNBOUND:                -0.005
REMARK SMILES CCCC(=O)[O-]
REMARK SMILES IDX 3 1 4 2 5 3 6 4 2 5 1 6
REMARK H PARENT
REMARK Flexibility Score: inf
ROOT
ATOM      1  C   UNL     1     -29.500  42.263  18.758  1.00  0.00     0.052 C 
ENDROOT
BRANCH   1   2
ATOM      2  C   UNL     1     -30.770  43.054  18.818  1.00  0.00     0.041 C 
ATOM      3  O   UNL     1     -31.225  43.604  17.781  1.00  0.00    -0.550 OA
ATOM      4  O   UNL     1     -31.435  43.211  20.027  1.00  0.00    -0.550 OA
ENDBRANCH   1   2
BRANCH   1   5
ATOM      5  C   UNL     1     -29.195  41.577  20.095  1.00  0.00     0.003 C 
ATOM      6  C   UNL     1     -29.565  40.094  20.087  1.00  0.00     0.004 C 
ENDBRANCH   1   5
TORSDOF 2
ENDMDL
MODEL 6
REMARK VINA RESULT:    -3.128      3.001      3.687
REMARK INTER + INTRA:          -3.498
REMARK INTER:                  -3.455
REMARK INTRA:                  -0.044
REMARK UNBOUND:                -0.005
REMARK SMILES CCCC(=O)[O-]
REMARK SMILES IDX 3 1 4 2 5 3 6 4 2 5 1 6
REMARK H PARENT
REMARK Flexibility Score: inf
ROOT
ATOM      1  C   UNL     1     -17.186  44.044  21.693  1.00  0.00     0.052 C 
ENDROOT
BRANCH   1   2
ATOM      2  C   UNL     1     -16.369  42.806  21.903  1.00  0.00     0.041 C 
ATOM      3  O   UNL     1     -16.926  41.678  21.946  1.00  0.00    -0.550 OA
ATOM      4  O   UNL     1     -14.995  42.902  22.084  1.00  0.00    -0.550 OA
ENDBRANCH   1   2
BRANCH   1   5
ATOM      5  C   UNL     1     -16.509  45.280  22.298  1.00  0.00     0.003 C 
ATOM      6  C   UNL     1     -16.939  45.529  23.743  1.00  0.00     0.004 C 
ENDBRANCH   1   5
TORSDOF 2
ENDMDL
MODEL 7
REMARK VINA RESULT:    -3.126      2.533      3.351
REMARK INTER + INTRA:          -3.497
REMARK INTER:                  -3.428
REMARK INTRA:                  -0.069
REMARK UNBOUND:                -0.005
REMARK SMILES CCCC(=O)[O-]
REMARK SMILES IDX 3 1 4 2 5 3 6 4 2 5 1 6
REMARK H PARENT
REMARK Flexibility Score: inf
ROOT
ATOM      1  C   UNL     1     -18.707  41.088  20.785  1.00  0.00     0.052 C 
ENDROOT
BRANCH   1   2
ATOM      2  C   UNL     1     -17.427  41.109  21.563  1.00  0.00     0.041 C 
ATOM      3  O   UNL     1     -16.719  42.150  21.592  1.00  0.00    -0.550 OA
ATOM      4  O   UNL     1     -17.000  39.968  22.231  1.00  0.00    -0.550 OA
ENDBRANCH   1   2
BRANCH   1   5
ATOM      5  C   UNL     1     -18.482  41.450  19.313  1.00  0.00     0.003 C 
ATOM      6  C   UNL     1     -17.691  40.377  18.564  1.00  0.00     0.004 C 
ENDBRANCH   1   5
TORSDOF 2
ENDMDL
MODEL 8
REMARK VINA RESULT:    -3.113     12.388     13.131
REMARK INTER + INTRA:          -3.482
REMARK INTER:                  -3.473
REMARK INTRA:                  -0.010
REMARK UNBOUND:                -0.005
REMARK SMILES CCCC(=O)[O-]
REMARK SMILES IDX 3 1 4 2 5 3 6 4 2 5 1 6
REMARK H PARENT
REMARK Flexibility Score: inf
ROOT
ATOM      1  C   UNL     1     -30.801  42.682  18.297  1.00  0.00     0.052 C 
ENDROOT
BRANCH   1   2
ATOM      2  C   UNL     1     -31.879  43.674  17.984  1.00  0.00     0.041 C 
ATOM      3  O   UNL     1     -32.690  44.033  18.877  1.00  0.00    -0.550 OA
ATOM      4  O   UNL     1     -32.007  44.177  16.696  1.00  0.00    -0.550 OA
ENDBRANCH   1   2
BRANCH   1   5
ATOM      5  C   UNL     1     -30.260  42.863  19.720  1.00  0.00     0.003 C 
ATOM      6  C   UNL     1     -29.290  41.751  20.120  1.00  0.00     0.004 C 
ENDBRANCH   1   5
TORSDOF 2
ENDMDL
MODEL 9
REMARK VINA RESULT:    -3.018      2.883      3.667
REMARK INTER + INTRA:          -3.376
REMARK INTER:                  -3.350
REMARK INTRA:                  -0.026
REMARK UNBOUND:                -0.005
REMARK SMILES CCCC(=O)[O-]
REMARK SMILES IDX 3 1 4 2 5 3 6 4 2 5 1 6
REMARK H PARENT
REMARK Flexibility Score: inf
ROOT
ATOM      1  C   UNL     1     -17.377  41.628  21.340  1.00  0.00     0.052 C 
ENDROOT
BRANCH   1   2
ATOM      2  C   UNL     1     -16.725  42.948  21.616  1.00  0.00     0.041 C 
ATOM      3  O   UNL     1     -17.404  44.008  21.594  1.00  0.00    -0.550 OA
ATOM      4  O   UNL     1     -15.360  43.011  21.865  1.00  0.00    -0.550 OA
ENDBRANCH   1   2
BRANCH   1   5
ATOM      5  C   UNL     1     -18.513  41.759  20.319  1.00  0.00     0.003 C 
ATOM      6  C   UNL     1     -18.149  41.152  18.964  1.00  0.00     0.004 C 
ENDBRANCH   1   5
TORSDOF 2
ENDMDL
