MODEL 1
REMARK VINA RESULT:    -6.448      0.000      0.000
REMARK INTER + INTRA:          -9.148
REMARK INTER:                  -8.710
REMARK INTRA:                  -0.438
REMARK UNBOUND:                -0.438
REMARK SMILES COc1ccc(-c2cc(=O)c3c(OC)c(OC)c(OC)c(OC)c3o2)cc1
REMARK SMILES IDX 7 1 8 2 9 3 10 4 11 5 24 6 25 7 21 8 18 9 15 10 12 11 6 12
REMARK SMILES IDX 3 13 4 14 27 15 5 16 26 17 2 18 1 19 22 20 23 21 13 22 14 23
REMARK SMILES IDX 19 24 20 25 16 26 17 27
REMARK H PARENT
REMARK Flexibility Score: inf
ROOT
ATOM      1  C   UNL     1      42.511  -9.139   9.540  1.00  0.00     0.138 A 
ATOM      2  C   UNL     1      42.702  -7.811   9.946  1.00  0.00     0.100 A 
ATOM      3  C   UNL     1      42.756  -7.514  11.308  1.00  0.00     0.197 A 
ATOM      4  O   UNL     1      42.946  -6.320  11.661  1.00  0.00    -0.289 OA
ATOM      5  C   UNL     1      42.612  -8.551  12.256  1.00  0.00     0.115 A 
ATOM      6  C   UNL     1      42.405  -9.860  11.768  1.00  0.00     0.188 A 
ATOM      7  O   UNL     1      42.368 -10.092  10.457  1.00  0.00    -0.452 OA
ATOM      8  C   UNL     1      42.221 -10.933  12.650  1.00  0.00     0.209 A 
ATOM      9  C   UNL     1      42.347 -10.716  14.040  1.00  0.00     0.211 A 
ATOM     10  C   UNL     1      42.570  -9.422  14.539  1.00  0.00     0.208 A 
ATOM     11  C   UNL     1      42.645  -8.327  13.652  1.00  0.00     0.179 A 
ENDROOT
BRANCH   1  12
ATOM     12  C   UNL     1      42.489  -9.518   8.109  1.00  0.00     0.018 A 
ATOM     13  C   UNL     1      42.415 -10.195   5.371  1.00  0.00     0.118 A 
ATOM     14  C   UNL     1      43.251 -10.903   6.255  1.00  0.00     0.047 A 
ATOM     15  C   UNL     1      41.630  -9.147   5.864  1.00  0.00     0.047 A 
ATOM     16  C   UNL     1      43.287 -10.566   7.612  1.00  0.00     0.016 A 
ATOM     17  C   UNL     1      41.670  -8.804   7.218  1.00  0.00     0.016 A 
BRANCH  13  18
ATOM     18  O   UNL     1      42.340 -10.499   4.002  1.00  0.00    -0.497 OA
ATOM     19  C   UNL     1      42.030  -9.554   2.984  1.00  0.00     0.278 C 
ENDBRANCH  13  18
ENDBRANCH   1  12
BRANCH   8  20
ATOM     20  O   UNL     1      41.927 -12.187  12.084  1.00  0.00    -0.490 OA
ATOM     21  C   UNL     1      40.639 -12.781  11.996  1.00  0.00     0.278 C 
ENDBRANCH   8  20
BRANCH  11  22
ATOM     22  O   UNL     1      42.715  -7.024  14.149  1.00  0.00    -0.492 OA
ATOM     23  C   UNL     1      41.786  -6.551  15.113  1.00  0.00     0.278 C 
ENDBRANCH  11  22
BRANCH   9  24
ATOM     24  O   UNL     1      42.282 -11.784  14.935  1.00  0.00    -0.490 OA
ATOM     25  C   UNL     1      41.042 -12.213  15.487  1.00  0.00     0.279 C 
ENDBRANCH   9  24
BRANCH  10  26
ATOM     26  O   UNL     1      42.702  -9.265  15.927  1.00  0.00    -0.490 OA
ATOM     27  C   UNL     1      43.954  -9.171  16.600  1.00  0.00     0.278 C 
ENDBRANCH  10  26
TORSDOF 6
ENDMDL
MODEL 2
REMARK VINA RESULT:    -6.234      1.875      3.414
REMARK INTER + INTRA:          -8.858
REMARK INTER:                  -8.217
REMARK INTRA:                  -0.642
REMARK UNBOUND:                -0.438
REMARK SMILES COc1ccc(-c2cc(=O)c3c(OC)c(OC)c(OC)c(OC)c3o2)cc1
REMARK SMILES IDX 7 1 8 2 9 3 10 4 11 5 24 6 25 7 21 8 18 9 15 10 12 11 6 12
REMARK SMILES IDX 3 13 4 14 27 15 5 16 26 17 2 18 1 19 22 20 23 21 13 22 14 23
REMARK SMILES IDX 19 24 20 25 16 26 17 27
REMARK H PARENT
REMARK Flexibility Score: inf
ROOT
ATOM      1  C   UNL     1      43.378 -10.029   9.015  1.00  0.00     0.138 A 
ATOM      2  C   UNL     1      44.115 -11.131   9.468  1.00  0.00     0.100 A 
ATOM      3  C   UNL     1      44.540 -11.169  10.796  1.00  0.00     0.197 A 
ATOM      4  O   UNL     1      45.187 -12.173  11.197  1.00  0.00    -0.289 OA
ATOM      5  C   UNL     1      44.228 -10.098  11.662  1.00  0.00     0.115 A 
ATOM      6  C   UNL     1      43.496  -9.015  11.125  1.00  0.00     0.188 A 
ATOM      7  O   UNL     1      43.108  -9.030   9.852  1.00  0.00    -0.452 OA
ATOM      8  C   UNL     1      43.179  -7.903  11.916  1.00  0.00     0.209 A 
ATOM      9  C   UNL     1      43.506  -7.915  13.289  1.00  0.00     0.211 A 
ATOM     10  C   UNL     1      44.218  -8.992  13.841  1.00  0.00     0.208 A 
ATOM     11  C   UNL     1      44.631 -10.060  13.016  1.00  0.00     0.179 A 
ENDROOT
BRANCH   1  12
ATOM     12  C   UNL     1      42.864  -9.955   7.628  1.00  0.00     0.018 A 
ATOM     13  C   UNL     1      41.862  -9.766   4.997  1.00  0.00     0.118 A 
ATOM     14  C   UNL     1      42.771 -10.784   5.339  1.00  0.00     0.047 A 
ATOM     15  C   UNL     1      41.469  -8.844   5.974  1.00  0.00     0.047 A 
ATOM     16  C   UNL     1      43.267 -10.877   6.643  1.00  0.00     0.016 A 
ATOM     17  C   UNL     1      41.970  -8.930   7.276  1.00  0.00     0.016 A 
BRANCH  13  18
ATOM     18  O   UNL     1      41.332  -9.634   3.704  1.00  0.00    -0.497 OA
ATOM     19  C   UNL     1      42.081  -9.802   2.506  1.00  0.00     0.278 C 
ENDBRANCH  13  18
ENDBRANCH   1  12
BRANCH   8  20
ATOM     20  O   UNL     1      42.531  -6.828  11.282  1.00  0.00    -0.490 OA
ATOM     21  C   UNL     1      41.139  -6.738  11.006  1.00  0.00     0.278 C 
ENDBRANCH   8  20
BRANCH  11  22
ATOM     22  O   UNL     1      45.466 -11.057  13.524  1.00  0.00    -0.492 OA
ATOM     23  C   UNL     1      46.847 -10.818  13.752  1.00  0.00     0.278 C 
ENDBRANCH  11  22
BRANCH   9  24
ATOM     24  O   UNL     1      43.103  -6.873  14.125  1.00  0.00    -0.490 OA
ATOM     25  C   UNL     1      41.826  -6.879  14.753  1.00  0.00     0.279 C 
ENDBRANCH   9  24
BRANCH  10  26
ATOM     26  O   UNL     1      44.504  -8.959  15.214  1.00  0.00    -0.490 OA
ATOM     27  C   UNL     1      43.765  -9.679  16.196  1.00  0.00     0.278 C 
ENDBRANCH  10  26
TORSDOF 6
ENDMDL
MODEL 3
REMARK VINA RESULT:    -6.211     17.331     19.226
REMARK INTER + INTRA:          -8.827
REMARK INTER:                  -8.304
REMARK INTRA:                  -0.524
REMARK UNBOUND:                -0.438
REMARK SMILES COc1ccc(-c2cc(=O)c3c(OC)c(OC)c(OC)c(OC)c3o2)cc1
REMARK SMILES IDX 7 1 8 2 9 3 10 4 11 5 24 6 25 7 21 8 18 9 15 10 12 11 6 12
REMARK SMILES IDX 3 13 4 14 27 15 5 16 26 17 2 18 1 19 22 20 23 21 13 22 14 23
REMARK SMILES IDX 19 24 20 25 16 26 17 27
REMARK H PARENT
REMARK Flexibility Score: inf
ROOT
ATOM      1  C   UNL     1      53.982 -21.441  12.009  1.00  0.00     0.138 A 
ATOM      2  C   UNL     1      53.965 -21.384  10.609  1.00  0.00     0.100 A 
ATOM      3  C   UNL     1      55.078 -21.823   9.893  1.00  0.00     0.197 A 
ATOM      4  O   UNL     1      55.044 -21.784   8.634  1.00  0.00    -0.289 OA
ATOM      5  C   UNL     1      56.207 -22.312  10.587  1.00  0.00     0.115 A 
ATOM      6  C   UNL     1      56.155 -22.320  11.998  1.00  0.00     0.188 A 
ATOM      7  O   UNL     1      55.065 -21.897  12.634  1.00  0.00    -0.452 OA
ATOM      8  C   UNL     1      57.250 -22.760  12.753  1.00  0.00     0.209 A 
ATOM      9  C   UNL     1      58.377 -23.296  12.091  1.00  0.00     0.211 A 
ATOM     10  C   UNL     1      58.436 -23.310  10.687  1.00  0.00     0.208 A 
ATOM     11  C   UNL     1      57.376 -22.765   9.932  1.00  0.00     0.179 A 
ENDROOT
BRANCH   1  12
ATOM     12  C   UNL     1      52.812 -21.029  12.818  1.00  0.00     0.018 A 
ATOM     13  C   UNL     1      50.611 -20.198  14.376  1.00  0.00     0.118 A 
ATOM     14  C   UNL     1      50.494 -21.305  13.515  1.00  0.00     0.047 A 
ATOM     15  C   UNL     1      51.827 -19.509  14.442  1.00  0.00     0.047 A 
ATOM     16  C   UNL     1      51.586 -21.716  12.743  1.00  0.00     0.016 A 
ATOM     17  C   UNL     1      52.917 -19.914  13.666  1.00  0.00     0.016 A 
BRANCH  13  18
ATOM     18  O   UNL     1      49.546 -19.751  15.173  1.00  0.00    -0.497 OA
ATOM     19  C   UNL     1      49.640 -18.694  16.122  1.00  0.00     0.278 C 
ENDBRANCH  13  18
ENDBRANCH   1  12
BRANCH   8  20
ATOM     20  O   UNL     1      57.152 -22.650  14.152  1.00  0.00    -0.490 OA
ATOM     21  C   UNL     1      56.869 -23.711  15.055  1.00  0.00     0.278 C 
ENDBRANCH   8  20
BRANCH  11  22
ATOM     22  O   UNL     1      57.494 -22.638   8.547  1.00  0.00    -0.492 OA
ATOM     23  C   UNL     1      58.333 -21.651   7.965  1.00  0.00     0.278 C 
ENDBRANCH  11  22
BRANCH   9  24
ATOM     24  O   UNL     1      59.433 -23.846  12.817  1.00  0.00    -0.490 OA
ATOM     25  C   UNL     1      59.418 -25.207  13.232  1.00  0.00     0.279 C 
ENDBRANCH   9  24
BRANCH  10  26
ATOM     26  O   UNL     1      59.572 -23.867  10.082  1.00  0.00    -0.490 OA
ATOM     27  C   UNL     1      59.553 -25.062   9.307  1.00  0.00     0.278 C 
ENDBRANCH  10  26
TORSDOF 6
ENDMDL
MODEL 4
REMARK VINA RESULT:    -6.173      2.275      8.146
REMARK INTER + INTRA:          -8.776
REMARK INTER:                  -8.128
REMARK INTRA:                  -0.648
REMARK UNBOUND:                -0.438
REMARK SMILES COc1ccc(-c2cc(=O)c3c(OC)c(OC)c(OC)c(OC)c3o2)cc1
REMARK SMILES IDX 7 1 8 2 9 3 10 4 11 5 24 6 25 7 21 8 18 9 15 10 12 11 6 12
REMARK SMILES IDX 3 13 4 14 27 15 5 16 26 17 2 18 1 19 22 20 23 21 13 22 14 23
REMARK SMILES IDX 19 24 20 25 16 26 17 27
REMARK H PARENT
REMARK Flexibility Score: inf
ROOT
ATOM      1  C   UNL     1      42.952  -9.673  11.210  1.00  0.00     0.138 A 
ATOM      2  C   UNL     1      43.600 -10.910  11.329  1.00  0.00     0.100 A 
ATOM      3  C   UNL     1      43.866 -11.655  10.181  1.00  0.00     0.197 A 
ATOM      4  O   UNL     1      44.466 -12.757  10.299  1.00  0.00    -0.289 OA
ATOM      5  C   UNL     1      43.475 -11.159   8.918  1.00  0.00     0.115 A 
ATOM      6  C   UNL     1      42.810  -9.913   8.883  1.00  0.00     0.188 A 
ATOM      7  O   UNL     1      42.587  -9.237  10.008  1.00  0.00    -0.452 OA
ATOM      8  C   UNL     1      42.364  -9.373   7.669  1.00  0.00     0.209 A 
ATOM      9  C   UNL     1      42.674 -10.036   6.461  1.00  0.00     0.211 A 
ATOM     10  C   UNL     1      43.350 -11.268   6.480  1.00  0.00     0.208 A 
ATOM     11  C   UNL     1      43.701 -11.860   7.711  1.00  0.00     0.179 A 
ENDROOT
BRANCH   1  12
ATOM     12  C   UNL     1      42.683  -8.820  12.390  1.00  0.00     0.018 A 
ATOM     13  C   UNL     1      42.217  -7.165  14.628  1.00  0.00     0.118 A 
ATOM     14  C   UNL     1      41.249  -8.104  14.225  1.00  0.00     0.047 A 
ATOM     15  C   UNL     1      43.407  -7.056  13.901  1.00  0.00     0.047 A 
ATOM     16  C   UNL     1      41.481  -8.924  13.115  1.00  0.00     0.016 A 
ATOM     17  C   UNL     1      43.638  -7.869  12.787  1.00  0.00     0.016 A 
BRANCH  13  18
ATOM     18  O   UNL     1      42.032  -6.324  15.736  1.00  0.00    -0.497 OA
ATOM     19  C   UNL     1      43.066  -5.937  16.634  1.00  0.00     0.278 C 
ENDBRANCH  13  18
ENDBRANCH   1  12
BRANCH   8  20
ATOM     20  O   UNL     1      41.629  -8.176   7.730  1.00  0.00    -0.490 OA
ATOM     21  C   UNL     1      42.159  -6.864   7.583  1.00  0.00     0.278 C 
ENDBRANCH   8  20
BRANCH  11  22
ATOM     22  O   UNL     1      44.235 -13.150   7.743  1.00  0.00    -0.492 OA
ATOM     23  C   UNL     1      43.433 -14.288   7.467  1.00  0.00     0.278 C 
ENDBRANCH  11  22
BRANCH   9  24
ATOM     24  O   UNL     1      42.342  -9.467   5.232  1.00  0.00    -0.490 OA
ATOM     25  C   UNL     1      41.052  -9.644   4.658  1.00  0.00     0.279 C 
ENDBRANCH   9  24
BRANCH  10  26
ATOM     26  O   UNL     1      43.645 -11.875   5.251  1.00  0.00    -0.490 OA
ATOM     27  C   UNL     1      44.910 -11.779   4.602  1.00  0.00     0.278 C 
ENDBRANCH  10  26
TORSDOF 6
ENDMDL
MODEL 5
REMARK VINA RESULT:    -6.063     18.958     21.559
REMARK INTER + INTRA:          -8.628
REMARK INTER:                  -8.118
REMARK INTRA:                  -0.509
REMARK UNBOUND:                -0.438
REMARK SMILES COc1ccc(-c2cc(=O)c3c(OC)c(OC)c(OC)c(OC)c3o2)cc1
REMARK SMILES IDX 7 1 8 2 9 3 10 4 11 5 24 6 25 7 21 8 18 9 15 10 12 11 6 12
REMARK SMILES IDX 3 13 4 14 27 15 5 16 26 17 2 18 1 19 22 20 23 21 13 22 14 23
REMARK SMILES IDX 19 24 20 25 16 26 17 27
REMARK H PARENT
REMARK Flexibility Score: inf
ROOT
ATOM      1  C   UNL     1      58.247 -23.248   8.757  1.00  0.00     0.138 A 
ATOM      2  C   UNL     1      58.797 -23.941   7.670  1.00  0.00     0.100 A 
ATOM      3  C   UNL     1      58.797 -23.344   6.410  1.00  0.00     0.197 A 
ATOM      4  O   UNL     1      59.311 -23.968   5.443  1.00  0.00    -0.289 OA
ATOM      5  C   UNL     1      58.238 -22.058   6.245  1.00  0.00     0.115 A 
ATOM      6  C   UNL     1      57.687 -21.433   7.385  1.00  0.00     0.188 A 
ATOM      7  O   UNL     1      57.719 -22.042   8.569  1.00  0.00    -0.452 OA
ATOM      8  C   UNL     1      57.086 -20.171   7.290  1.00  0.00     0.209 A 
ATOM      9  C   UNL     1      57.126 -19.476   6.061  1.00  0.00     0.211 A 
ATOM     10  C   UNL     1      57.686 -20.078   4.923  1.00  0.00     0.208 A 
ATOM     11  C   UNL     1      58.192 -21.393   4.998  1.00  0.00     0.179 A 
ENDROOT
BRANCH   1  12
ATOM     12  C   UNL     1      58.259 -23.815  10.126  1.00  0.00     0.018 A 
ATOM     13  C   UNL     1      58.234 -24.919  12.722  1.00  0.00     0.118 A 
ATOM     14  C   UNL     1      59.366 -24.224  12.257  1.00  0.00     0.047 A 
ATOM     15  C   UNL     1      57.127 -25.064  11.879  1.00  0.00     0.047 A 
ATOM     16  C   UNL     1      59.377 -23.677  10.970  1.00  0.00     0.016 A 
ATOM     17  C   UNL     1      57.140 -24.525  10.589  1.00  0.00     0.016 A 
BRANCH  13  18
ATOM     18  O   UNL     1      58.173 -25.482  14.007  1.00  0.00    -0.497 OA
ATOM     19  C   UNL     1      56.966 -25.751  14.711  1.00  0.00     0.278 C 
ENDBRANCH  13  18
ENDBRANCH   1  12
BRANCH   8  20
ATOM     20  O   UNL     1      56.478 -19.660   8.451  1.00  0.00    -0.490 OA
ATOM     21  C   UNL     1      57.062 -18.734   9.360  1.00  0.00     0.278 C 
ENDBRANCH   8  20
BRANCH  11  22
ATOM     22  O   UNL     1      58.611 -22.051   3.840  1.00  0.00    -0.492 OA
ATOM     23  C   UNL     1      59.731 -21.596   3.095  1.00  0.00     0.278 C 
ENDBRANCH  11  22
BRANCH   9  24
ATOM     24  O   UNL     1      56.637 -18.173   5.965  1.00  0.00    -0.490 OA
ATOM     25  C   UNL     1      55.247 -17.913   5.804  1.00  0.00     0.279 C 
ENDBRANCH   9  24
BRANCH  10  26
ATOM     26  O   UNL     1      57.713 -19.337   3.732  1.00  0.00    -0.490 OA
ATOM     27  C   UNL     1      56.706 -19.413   2.727  1.00  0.00     0.278 C 
ENDBRANCH  10  26
TORSDOF 6
ENDMDL
MODEL 6
REMARK VINA RESULT:    -6.052     14.198     15.706
REMARK INTER + INTRA:          -8.613
REMARK INTER:                  -8.078
REMARK INTRA:                  -0.535
REMARK UNBOUND:                -0.438
REMARK SMILES COc1ccc(-c2cc(=O)c3c(OC)c(OC)c(OC)c(OC)c3o2)cc1
REMARK SMILES IDX 7 1 8 2 9 3 10 4 11 5 24 6 25 7 21 8 18 9 15 10 12 11 6 12
REMARK SMILES IDX 3 13 4 14 27 15 5 16 26 17 2 18 1 19 22 20 23 21 13 22 14 23
REMARK SMILES IDX 19 24 20 25 16 26 17 27
REMARK H PARENT
REMARK Flexibility Score: inf
ROOT
ATOM      1  C   UNL     1      53.444 -20.783  12.804  1.00  0.00     0.138 A 
ATOM      2  C   UNL     1      52.176 -21.216  13.216  1.00  0.00     0.100 A 
ATOM      3  C   UNL     1      51.240 -20.277  13.647  1.00  0.00     0.197 A 
ATOM      4  O   UNL     1      50.097 -20.677  13.997  1.00  0.00    -0.289 OA
ATOM      5  C   UNL     1      51.582 -18.907  13.670  1.00  0.00     0.115 A 
ATOM      6  C   UNL     1      52.886 -18.552  13.257  1.00  0.00     0.188 A 
ATOM      7  O   UNL     1      53.740 -19.486  12.846  1.00  0.00    -0.452 OA
ATOM      8  C   UNL     1      53.306 -17.216  13.284  1.00  0.00     0.209 A 
ATOM      9  C   UNL     1      52.382 -16.206  13.631  1.00  0.00     0.211 A 
ATOM     10  C   UNL     1      51.077 -16.543  14.027  1.00  0.00     0.208 A 
ATOM     11  C   UNL     1      50.691 -17.898  14.103  1.00  0.00     0.179 A 
ENDROOT
BRANCH   1  12
ATOM     12  C   UNL     1      54.462 -21.731  12.295  1.00  0.00     0.018 A 
ATOM     13  C   UNL     1      56.422 -23.542  11.378  1.00  0.00     0.118 A 
ATOM     14  C   UNL     1      55.404 -23.099  10.513  1.00  0.00     0.047 A 
ATOM     15  C   UNL     1      56.444 -23.081  12.699  1.00  0.00     0.047 A 
ATOM     16  C   UNL     1      54.432 -22.201  10.969  1.00  0.00     0.016 A 
ATOM     17  C   UNL     1      55.470 -22.190  13.159  1.00  0.00     0.016 A 
BRANCH  13  18
ATOM     18  O   UNL     1      57.421 -24.438  10.967  1.00  0.00    -0.497 OA
ATOM     19  C   UNL     1      58.439 -24.954  11.817  1.00  0.00     0.278 C 
ENDBRANCH  13  18
ENDBRANCH   1  12
BRANCH   8  20
ATOM     20  O   UNL     1      54.647 -16.957  12.947  1.00  0.00    -0.490 OA
ATOM     21  C   UNL     1      55.125 -16.574  11.663  1.00  0.00     0.278 C 
ENDBRANCH   8  20
BRANCH  11  22
ATOM     22  O   UNL     1      49.450 -18.246  14.639  1.00  0.00    -0.492 OA
ATOM     23  C   UNL     1      49.241 -18.302  16.042  1.00  0.00     0.278 C 
ENDBRANCH  11  22
BRANCH   9  24
ATOM     24  O   UNL     1      52.739 -14.859  13.558  1.00  0.00    -0.490 OA
ATOM     25  C   UNL     1      52.547 -14.107  12.365  1.00  0.00     0.279 C 
ENDBRANCH   9  24
BRANCH  10  26
ATOM     26  O   UNL     1      50.196 -15.500  14.347  1.00  0.00    -0.490 OA
ATOM     27  C   UNL     1      50.148 -14.862  15.620  1.00  0.00     0.278 C 
ENDBRANCH  10  26
TORSDOF 6
ENDMDL
MODEL 7
REMARK VINA RESULT:    -6.023      2.224      7.866
REMARK INTER + INTRA:          -8.574
REMARK INTER:                  -8.087
REMARK INTRA:                  -0.487
REMARK UNBOUND:                -0.438
REMARK SMILES COc1ccc(-c2cc(=O)c3c(OC)c(OC)c(OC)c(OC)c3o2)cc1
REMARK SMILES IDX 7 1 8 2 9 3 10 4 11 5 24 6 25 7 21 8 18 9 15 10 12 11 6 12
REMARK SMILES IDX 3 13 4 14 27 15 5 16 26 17 2 18 1 19 22 20 23 21 13 22 14 23
REMARK SMILES IDX 19 24 20 25 16 26 17 27
REMARK H PARENT
REMARK Flexibility Score: inf
ROOT
ATOM      1  C   UNL     1      42.439  -8.302   9.969  1.00  0.00     0.138 A 
ATOM      2  C   UNL     1      41.925  -7.398   9.029  1.00  0.00     0.100 A 
ATOM      3  C   UNL     1      41.927  -7.743   7.678  1.00  0.00     0.197 A 
ATOM      4  O   UNL     1      41.445  -6.931   6.843  1.00  0.00    -0.289 OA
ATOM      5  C   UNL     1      42.449  -8.992   7.276  1.00  0.00     0.115 A 
ATOM      6  C   UNL     1      42.965  -9.840   8.281  1.00  0.00     0.188 A 
ATOM      7  O   UNL     1      42.934  -9.466   9.558  1.00  0.00    -0.452 OA
ATOM      8  C   UNL     1      43.530 -11.080   7.952  1.00  0.00     0.209 A 
ATOM      9  C   UNL     1      43.487 -11.526   6.613  1.00  0.00     0.211 A 
ATOM     10  C   UNL     1      42.962 -10.701   5.605  1.00  0.00     0.208 A 
ATOM     11  C   UNL     1      42.494  -9.409   5.925  1.00  0.00     0.179 A 
ENDROOT
BRANCH   1  12
ATOM     12  C   UNL     1      42.423  -8.006  11.420  1.00  0.00     0.018 A 
ATOM     13  C   UNL     1      42.438  -7.410  14.178  1.00  0.00     0.118 A 
ATOM     14  C   UNL     1      41.365  -8.122  13.612  1.00  0.00     0.047 A 
ATOM     15  C   UNL     1      43.491  -6.994  13.357  1.00  0.00     0.047 A 
ATOM     16  C   UNL     1      41.358  -8.417  12.244  1.00  0.00     0.016 A 
ATOM     17  C   UNL     1      43.483  -7.280  11.989  1.00  0.00     0.016 A 
BRANCH  13  18
ATOM     18  O   UNL     1      42.493  -7.095  15.545  1.00  0.00    -0.497 OA
ATOM     19  C   UNL     1      43.697  -6.921  16.283  1.00  0.00     0.278 C 
ENDBRANCH  13  18
ENDBRANCH   1  12
BRANCH   8  20
ATOM     20  O   UNL     1      44.104 -11.821   9.000  1.00  0.00    -0.490 OA
ATOM     21  C   UNL     1      43.465 -12.854   9.739  1.00  0.00     0.278 C 
ENDBRANCH   8  20
BRANCH  11  22
ATOM     22  O   UNL     1      42.112  -8.529   4.910  1.00  0.00    -0.492 OA
ATOM     23  C   UNL     1      41.013  -8.816   4.059  1.00  0.00     0.278 C 
ENDBRANCH  11  22
BRANCH   9  24
ATOM     24  O   UNL     1      43.938 -12.802   6.275  1.00  0.00    -0.490 OA
ATOM     25  C   UNL     1      45.320 -13.068   6.065  1.00  0.00     0.279 C 
ENDBRANCH   9  24
BRANCH  10  26
ATOM     26  O   UNL     1      42.931 -11.201   4.295  1.00  0.00    -0.490 OA
ATOM     27  C   UNL     1      43.955 -10.968   3.332  1.00  0.00     0.278 C 
ENDBRANCH  10  26
TORSDOF 6
ENDMDL
MODEL 8
REMARK VINA RESULT:    -5.930      2.692      3.629
REMARK INTER + INTRA:          -8.447
REMARK INTER:                  -7.773
REMARK INTRA:                  -0.674
REMARK UNBOUND:                -0.438
REMARK SMILES COc1ccc(-c2cc(=O)c3c(OC)c(OC)c(OC)c(OC)c3o2)cc1
REMARK SMILES IDX 7 1 8 2 9 3 10 4 11 5 24 6 25 7 21 8 18 9 15 10 12 11 6 12
REMARK SMILES IDX 3 13 4 14 27 15 5 16 26 17 2 18 1 19 22 20 23 21 13 22 14 23
REMARK SMILES IDX 19 24 20 25 16 26 17 27
REMARK H PARENT
REMARK Flexibility Score: inf
ROOT
ATOM      1  C   UNL     1      43.265 -11.569   9.186  1.00  0.00     0.138 A 
ATOM      2  C   UNL     1      43.355 -10.284   8.634  1.00  0.00     0.100 A 
ATOM      3  C   UNL     1      43.015  -9.180   9.415  1.00  0.00     0.197 A 
ATOM      4  O   UNL     1      43.117  -8.028   8.914  1.00  0.00    -0.289 OA
ATOM      5  C   UNL     1      42.579  -9.371  10.744  1.00  0.00     0.115 A 
ATOM      6  C   UNL     1      42.498 -10.698  11.222  1.00  0.00     0.188 A 
ATOM      7  O   UNL     1      42.842 -11.718  10.438  1.00  0.00    -0.452 OA
ATOM      8  C   UNL     1      42.042 -10.966  12.519  1.00  0.00     0.209 A 
ATOM      9  C   UNL     1      41.761  -9.890  13.390  1.00  0.00     0.211 A 
ATOM     10  C   UNL     1      41.854  -8.564  12.934  1.00  0.00     0.208 A 
ATOM     11  C   UNL     1      42.207  -8.303  11.594  1.00  0.00     0.179 A 
ENDROOT
BRANCH   1  12
ATOM     12  C   UNL     1      43.656 -12.774   8.417  1.00  0.00     0.018 A 
ATOM     13  C   UNL     1      44.419 -15.036   6.913  1.00  0.00     0.118 A 
ATOM     14  C   UNL     1      43.938 -15.186   8.227  1.00  0.00     0.047 A 
ATOM     15  C   UNL     1      44.522 -13.752   6.366  1.00  0.00     0.047 A 
ATOM     16  C   UNL     1      43.560 -14.064   8.972  1.00  0.00     0.016 A 
ATOM     17  C   UNL     1      44.153 -12.629   7.112  1.00  0.00     0.016 A 
BRANCH  13  18
ATOM     18  O   UNL     1      44.805 -16.131   6.125  1.00  0.00    -0.497 OA
ATOM     19  C   UNL     1      46.136 -16.626   6.032  1.00  0.00     0.278 C 
ENDBRANCH  13  18
ENDBRANCH   1  12
BRANCH   8  20
ATOM     20  O   UNL     1      41.902 -12.317  12.885  1.00  0.00    -0.490 OA
ATOM     21  C   UNL     1      40.686 -13.053  12.907  1.00  0.00     0.278 C 
ENDBRANCH   8  20
BRANCH  11  22
ATOM     22  O   UNL     1      42.154  -7.000  11.095  1.00  0.00    -0.492 OA
ATOM     23  C   UNL     1      40.929  -6.419  10.676  1.00  0.00     0.278 C 
ENDBRANCH  11  22
BRANCH   9  24
ATOM     24  O   UNL     1      41.415 -10.124  14.721  1.00  0.00    -0.490 OA
ATOM     25  C   UNL     1      42.390 -10.516  15.681  1.00  0.00     0.279 C 
ENDBRANCH   9  24
BRANCH  10  26
ATOM     26  O   UNL     1      41.577  -7.534  13.845  1.00  0.00    -0.490 OA
ATOM     27  C   UNL     1      42.565  -6.903  14.654  1.00  0.00     0.278 C 
ENDBRANCH  10  26
TORSDOF 6
ENDMDL
MODEL 9
REMARK VINA RESULT:    -5.819      2.359      3.583
REMARK INTER + INTRA:          -8.297
REMARK INTER:                  -7.549
REMARK INTRA:                  -0.748
REMARK UNBOUND:                -0.438
REMARK SMILES COc1ccc(-c2cc(=O)c3c(OC)c(OC)c(OC)c(OC)c3o2)cc1
REMARK SMILES IDX 7 1 8 2 9 3 10 4 11 5 24 6 25 7 21 8 18 9 15 10 12 11 6 12
REMARK SMILES IDX 3 13 4 14 27 15 5 16 26 17 2 18 1 19 22 20 23 21 13 22 14 23
REMARK SMILES IDX 19 24 20 25 16 26 17 27
REMARK H PARENT
REMARK Flexibility Score: inf
ROOT
ATOM      1  C   UNL     1      42.604  -9.748   6.926  1.00  0.00     0.138 A 
ATOM      2  C   UNL     1      42.079  -8.670   7.652  1.00  0.00     0.100 A 
ATOM      3  C   UNL     1      42.252  -8.629   9.035  1.00  0.00     0.197 A 
ATOM      4  O   UNL     1      41.792  -7.645   9.675  1.00  0.00    -0.289 OA
ATOM      5  C   UNL     1      42.945  -9.673   9.685  1.00  0.00     0.115 A 
ATOM      6  C   UNL     1      43.428 -10.734   8.886  1.00  0.00     0.188 A 
ATOM      7  O   UNL     1      43.244 -10.722   7.568  1.00  0.00    -0.452 OA
ATOM      8  C   UNL     1      44.097 -11.820   9.466  1.00  0.00     0.209 A 
ATOM      9  C   UNL     1      44.378 -11.801  10.850  1.00  0.00     0.211 A 
ATOM     10  C   UNL     1      43.918 -10.745  11.654  1.00  0.00     0.208 A 
ATOM     11  C   UNL     1      43.152  -9.707  11.083  1.00  0.00     0.179 A 
ENDROOT
BRANCH   1  12
ATOM     12  C   UNL     1      42.488  -9.821   5.451  1.00  0.00     0.018 A 
ATOM     13  C   UNL     1      42.305 -10.003   2.642  1.00  0.00     0.118 A 
ATOM     14  C   UNL     1      41.419  -9.178   3.359  1.00  0.00     0.047 A 
ATOM     15  C   UNL     1      43.271 -10.738   3.339  1.00  0.00     0.047 A 
ATOM     16  C   UNL     1      41.510  -9.089   4.752  1.00  0.00     0.016 A 
ATOM     17  C   UNL     1      43.358 -10.656   4.731  1.00  0.00     0.016 A 
BRANCH  13  18
ATOM     18  O   UNL     1      42.257 -10.122   1.244  1.00  0.00    -0.497 OA
ATOM     19  C   UNL     1      42.896 -11.154   0.501  1.00  0.00     0.278 C 
ENDBRANCH  13  18
ENDBRANCH   1  12
BRANCH   8  20
ATOM     20  O   UNL     1      44.463 -12.878   8.614  1.00  0.00    -0.490 OA
ATOM     21  C   UNL     1      43.733 -14.082   8.418  1.00  0.00     0.278 C 
ENDBRANCH   8  20
BRANCH  11  22
ATOM     22  O   UNL     1      42.566  -8.737  11.899  1.00  0.00    -0.492 OA
ATOM     23  C   UNL     1      41.441  -9.037  12.711  1.00  0.00     0.278 C 
ENDBRANCH  11  22
BRANCH   9  24
ATOM     24  O   UNL     1      45.140 -12.813  11.434  1.00  0.00    -0.490 OA
ATOM     25  C   UNL     1      46.562 -12.797  11.376  1.00  0.00     0.279 C 
ENDBRANCH   9  24
BRANCH  10  26
ATOM     26  O   UNL     1      44.239 -10.769  13.019  1.00  0.00    -0.490 OA
ATOM     27  C   UNL     1      45.314 -10.033  13.595  1.00  0.00     0.278 C 
ENDBRANCH  10  26
TORSDOF 6
ENDMDL
