MODEL 1
REMARK VINA RESULT:    -3.736      0.000      0.000
REMARK INTER + INTRA:          -5.181
REMARK INTER:                  -4.828
REMARK INTRA:                  -0.353
REMARK UNBOUND:                -0.353
REMARK SMILES CCO[C@H]1O[C@H](CO)[C@@H](O)[C@H](O)[C@H]1O
REMARK SMILES IDX 4 1 13 2 11 3 9 4 6 5 5 6 3 7 2 8 1 9 14 10 12 12 7 14 8 15
REMARK SMILES IDX 10 17
REMARK H PARENT 14 11 12 13 8 16 10 18
REMARK Flexibility Score: inf
ROOT
ATOM      1  C   UNL     1       7.324   3.609   3.172  1.00  0.00     0.281 C 
ATOM      2  C   UNL     1       7.026   4.507   1.930  1.00  0.00     0.202 C 
ATOM      3  C   UNL     1       7.819   5.829   1.987  1.00  0.00     0.179 C 
ATOM      4  C   UNL     1       9.336   5.587   2.245  1.00  0.00     0.177 C 
ATOM      5  C   UNL     1       9.580   4.223   2.939  1.00  0.00     0.178 C 
ATOM      6  O   UNL     1       8.529   3.957   3.847  1.00  0.00    -0.341 OA
ENDROOT
BRANCH   1   7
ATOM      7  O   UNL     1       7.333   2.240   2.796  1.00  0.00    -0.350 OA
BRANCH   7   8
ATOM      8  C   UNL     1       6.469   1.467   3.610  1.00  0.00     0.160 C 
ATOM      9  C   UNL     1       6.746  -0.020   3.447  1.00  0.00     0.035 C 
ENDBRANCH   7   8
ENDBRANCH   1   7
BRANCH   2  10
ATOM     10  O   UNL     1       7.361   3.837   0.737  1.00  0.00    -0.385 OA
ATOM     11  H   UNL     1       8.347   3.810   0.685  1.00  0.00     0.211 HD
ENDBRANCH   2  10
BRANCH   3  12
ATOM     12  O   UNL     1       7.261   6.686   2.956  1.00  0.00    -0.387 OA
ATOM     13  H   UNL     1       6.351   6.372   3.169  1.00  0.00     0.211 HD
ENDBRANCH   3  12
BRANCH   5  14
ATOM     14  C   UNL     1      10.920   4.210   3.690  1.00  0.00     0.191 C 
BRANCH  14  15
ATOM     15  O   UNL     1      11.983   4.316   2.789  1.00  0.00    -0.394 OA
ATOM     16  H   UNL     1      11.649   4.888   2.045  1.00  0.00     0.210 HD
ENDBRANCH  14  15
ENDBRANCH   5  14
BRANCH   4  17
ATOM     17  O   UNL     1      10.071   5.674   1.048  1.00  0.00    -0.387 OA
ATOM     18  H   UNL     1       9.741   6.469   0.550  1.00  0.00     0.211 HD
ENDBRANCH   4  17
TORSDOF 7
ENDMDL
MODEL 2
REMARK VINA RESULT:    -3.709      1.500      4.369
REMARK INTER + INTRA:          -5.146
REMARK INTER:                  -4.793
REMARK INTRA:                  -0.353
REMARK UNBOUND:                -0.353
REMARK SMILES CCO[C@H]1O[C@H](CO)[C@@H](O)[C@H](O)[C@H]1O
REMARK SMILES IDX 4 1 13 2 11 3 9 4 6 5 5 6 3 7 2 8 1 9 14 10 12 12 7 14 8 15
REMARK SMILES IDX 10 17
REMARK H PARENT 14 11 12 13 8 16 10 18
REMARK Flexibility Score: inf
ROOT
ATOM      1  C   UNL     1       8.900   3.554   2.466  1.00  0.00     0.281 C 
ATOM      2  C   UNL     1       7.876   4.725   2.333  1.00  0.00     0.202 C 
ATOM      3  C   UNL     1       6.536   4.238   1.745  1.00  0.00     0.179 C 
ATOM      4  C   UNL     1       5.984   2.997   2.508  1.00  0.00     0.177 C 
ATOM      5  C   UNL     1       7.117   2.227   3.230  1.00  0.00     0.178 C 
ATOM      6  O   UNL     1       8.293   2.265   2.445  1.00  0.00    -0.341 OA
ENDROOT
BRANCH   1   7
ATOM      7  O   UNL     1       9.688   3.721   3.636  1.00  0.00    -0.350 OA
BRANCH   7   8
ATOM      8  C   UNL     1      10.957   4.274   3.337  1.00  0.00     0.160 C 
ATOM      9  C   UNL     1      12.075   3.442   3.950  1.00  0.00     0.035 C 
ENDBRANCH   7   8
ENDBRANCH   1   7
BRANCH   2  10
ATOM     10  O   UNL     1       7.626   5.315   3.587  1.00  0.00    -0.385 OA
ATOM     11  H   UNL     1       6.956   6.027   3.446  1.00  0.00     0.211 HD
ENDBRANCH   2  10
BRANCH   3  12
ATOM     12  O   UNL     1       6.678   3.977   0.369  1.00  0.00    -0.387 OA
ATOM     13  H   UNL     1       5.840   3.580   0.034  1.00  0.00     0.211 HD
ENDBRANCH   3  12
BRANCH   5  14
ATOM     14  C   UNL     1       6.723   0.765   3.490  1.00  0.00     0.191 C 
BRANCH  14  15
ATOM     15  O   UNL     1       5.386   0.554   3.144  1.00  0.00    -0.394 OA
ATOM     16  H   UNL     1       5.305  -0.423   2.968  1.00  0.00     0.210 HD
ENDBRANCH  14  15
ENDBRANCH   5  14
BRANCH   4  17
ATOM     17  O   UNL     1       4.978   3.372   3.419  1.00  0.00    -0.387 OA
ATOM     18  H   UNL     1       5.233   4.255   3.801  1.00  0.00     0.211 HD
ENDBRANCH   4  17
TORSDOF 7
ENDMDL
MODEL 3
REMARK VINA RESULT:    -3.697      1.926      4.826
REMARK INTER + INTRA:          -5.131
REMARK INTER:                  -4.742
REMARK INTRA:                  -0.389
REMARK UNBOUND:                -0.353
REMARK SMILES CCO[C@H]1O[C@H](CO)[C@@H](O)[C@H](O)[C@H]1O
REMARK SMILES IDX 4 1 13 2 11 3 9 4 6 5 5 6 3 7 2 8 1 9 14 10 12 12 7 14 8 15
REMARK SMILES IDX 10 17
REMARK H PARENT 14 11 12 13 8 16 10 18
REMARK Flexibility Score: inf
ROOT
ATOM      1  C   UNL     1       7.265   3.704   2.645  1.00  0.00     0.281 C 
ATOM      2  C   UNL     1       5.783   4.185   2.746  1.00  0.00     0.202 C 
ATOM      3  C   UNL     1       4.803   3.107   2.239  1.00  0.00     0.179 C 
ATOM      4  C   UNL     1       5.067   1.723   2.904  1.00  0.00     0.177 C 
ATOM      5  C   UNL     1       6.523   1.613   3.420  1.00  0.00     0.178 C 
ATOM      6  O   UNL     1       7.394   2.289   2.535  1.00  0.00    -0.341 OA
ENDROOT
BRANCH   1   7
ATOM      7  O   UNL     1       8.016   4.195   3.745  1.00  0.00    -0.350 OA
BRANCH   7   8
ATOM      8  C   UNL     1       9.394   4.301   3.431  1.00  0.00     0.160 C 
ATOM      9  C   UNL     1       9.624   5.290   2.298  1.00  0.00     0.035 C 
ENDBRANCH   7   8
ENDBRANCH   1   7
BRANCH   2  10
ATOM     10  O   UNL     1       5.450   4.500   4.078  1.00  0.00    -0.385 OA
ATOM     11  H   UNL     1       6.032   5.247   4.356  1.00  0.00     0.211 HD
ENDBRANCH   2  10
BRANCH   3  12
ATOM     12  O   UNL     1       4.861   3.024   0.834  1.00  0.00    -0.387 OA
ATOM     13  H   UNL     1       4.549   2.131   0.557  1.00  0.00     0.211 HD
ENDBRANCH   3  12
BRANCH   5  14
ATOM     14  C   UNL     1       6.962   0.146   3.548  1.00  0.00     0.191 C 
BRANCH  14  15
ATOM     15  O   UNL     1       6.117  -0.680   2.802  1.00  0.00    -0.394 OA
ATOM     16  H   UNL     1       5.994  -0.220   1.927  1.00  0.00     0.210 HD
ENDBRANCH  14  15
ENDBRANCH   5  14
BRANCH   4  17
ATOM     17  O   UNL     1       4.151   1.482   3.945  1.00  0.00    -0.387 OA
ATOM     18  H   UNL     1       4.665   1.144   4.726  1.00  0.00     0.211 HD
ENDBRANCH   4  17
TORSDOF 7
ENDMDL
MODEL 4
REMARK VINA RESULT:    -3.662      1.972      4.583
REMARK INTER + INTRA:          -5.085
REMARK INTER:                  -4.768
REMARK INTRA:                  -0.318
REMARK UNBOUND:                -0.353
REMARK SMILES CCO[C@H]1O[C@H](CO)[C@@H](O)[C@H](O)[C@H]1O
REMARK SMILES IDX 4 1 13 2 11 3 9 4 6 5 5 6 3 7 2 8 1 9 14 10 12 12 7 14 8 15
REMARK SMILES IDX 10 17
REMARK H PARENT 14 11 12 13 8 16 10 18
REMARK Flexibility Score: inf
ROOT
ATOM      1  C   UNL     1       7.547   5.926   3.445  1.00  0.00     0.281 C 
ATOM      2  C   UNL     1       8.895   5.914   2.658  1.00  0.00     0.202 C 
ATOM      3  C   UNL     1       9.284   4.485   2.228  1.00  0.00     0.179 C 
ATOM      4  C   UNL     1       8.117   3.759   1.497  1.00  0.00     0.177 C 
ATOM      5  C   UNL     1       6.744   4.368   1.880  1.00  0.00     0.178 C 
ATOM      6  O   UNL     1       6.760   4.756   3.240  1.00  0.00    -0.341 OA
ENDROOT
BRANCH   1   7
ATOM      7  O   UNL     1       6.804   7.095   3.130  1.00  0.00    -0.350 OA
BRANCH   7   8
ATOM      8  C   UNL     1       5.811   7.363   4.103  1.00  0.00     0.160 C 
ATOM      9  C   UNL     1       5.449   8.841   4.125  1.00  0.00     0.035 C 
ENDBRANCH   7   8
ENDBRANCH   1   7
BRANCH   2  10
ATOM     10  O   UNL     1       8.807   6.719   1.505  1.00  0.00    -0.385 OA
ATOM     11  H   UNL     1       8.867   7.659   1.800  1.00  0.00     0.211 HD
ENDBRANCH   2  10
BRANCH   3  12
ATOM     12  O   UNL     1       9.731   3.750   3.343  1.00  0.00    -0.387 OA
ATOM     13  H   UNL     1       8.946   3.410   3.833  1.00  0.00     0.211 HD
ENDBRANCH   3  12
BRANCH   5  14
ATOM     14  C   UNL     1       5.603   3.366   1.648  1.00  0.00     0.191 C 
BRANCH  14  15
ATOM     15  O   UNL     1       5.177   3.414   0.318  1.00  0.00    -0.394 OA
ATOM     16  H   UNL     1       5.984   3.653  -0.215  1.00  0.00     0.210 HD
ENDBRANCH  14  15
ENDBRANCH   5  14
BRANCH   4  17
ATOM     17  O   UNL     1       8.301   3.788   0.101  1.00  0.00    -0.387 OA
ATOM     18  H   UNL     1       7.404   3.708  -0.322  1.00  0.00     0.211 HD
ENDBRANCH   4  17
TORSDOF 7
ENDMDL
MODEL 5
REMARK VINA RESULT:    -3.642      1.335      1.585
REMARK INTER + INTRA:          -5.060
REMARK INTER:                  -4.678
REMARK INTRA:                  -0.382
REMARK UNBOUND:                -0.353
REMARK SMILES CCO[C@H]1O[C@H](CO)[C@@H](O)[C@H](O)[C@H]1O
REMARK SMILES IDX 4 1 13 2 11 3 9 4 6 5 5 6 3 7 2 8 1 9 14 10 12 12 7 14 8 15
REMARK SMILES IDX 10 17
REMARK H PARENT 14 11 12 13 8 16 10 18
REMARK Flexibility Score: inf
ROOT
ATOM      1  C   UNL     1       8.421   3.954   3.071  1.00  0.00     0.281 C 
ATOM      2  C   UNL     1       8.488   5.019   1.931  1.00  0.00     0.202 C 
ATOM      3  C   UNL     1       9.495   6.139   2.265  1.00  0.00     0.179 C 
ATOM      4  C   UNL     1      10.882   5.569   2.682  1.00  0.00     0.177 C 
ATOM      5  C   UNL     1      10.761   4.119   3.214  1.00  0.00     0.178 C 
ATOM      6  O   UNL     1       9.552   3.977   3.936  1.00  0.00    -0.341 OA
ENDROOT
BRANCH   1   7
ATOM      7  O   UNL     1       8.233   2.658   2.521  1.00  0.00    -0.350 OA
BRANCH   7   8
ATOM      8  C   UNL     1       7.187   1.959   3.172  1.00  0.00     0.160 C 
ATOM      9  C   UNL     1       5.970   2.851   3.366  1.00  0.00     0.035 C 
ENDBRANCH   7   8
ENDBRANCH   1   7
BRANCH   2  10
ATOM     10  O   UNL     1       8.871   4.424   0.713  1.00  0.00    -0.385 OA
ATOM     11  H   UNL     1       9.332   3.579   0.934  1.00  0.00     0.211 HD
ENDBRANCH   2  10
BRANCH   3  12
ATOM     12  O   UNL     1       8.964   6.985   3.259  1.00  0.00    -0.387 OA
ATOM     13  H   UNL     1       9.119   6.573   4.141  1.00  0.00     0.211 HD
ENDBRANCH   3  12
BRANCH   5  14
ATOM     14  C   UNL     1      11.944   3.755   4.124  1.00  0.00     0.191 C 
BRANCH  14  15
ATOM     15  O   UNL     1      13.135   3.747   3.392  1.00  0.00    -0.394 OA
ATOM     16  H   UNL     1      12.873   3.939   2.450  1.00  0.00     0.210 HD
ENDBRANCH  14  15
ENDBRANCH   5  14
BRANCH   4  17
ATOM     17  O   UNL     1      11.795   5.631   1.612  1.00  0.00    -0.387 OA
ATOM     18  H   UNL     1      11.765   4.755   1.141  1.00  0.00     0.211 HD
ENDBRANCH   4  17
TORSDOF 7
ENDMDL
MODEL 6
REMARK VINA RESULT:    -3.605      2.798      4.032
REMARK INTER + INTRA:          -5.013
REMARK INTER:                  -4.619
REMARK INTRA:                  -0.394
REMARK UNBOUND:                -0.353
REMARK SMILES CCO[C@H]1O[C@H](CO)[C@@H](O)[C@H](O)[C@H]1O
REMARK SMILES IDX 4 1 13 2 11 3 9 4 6 5 5 6 3 7 2 8 1 9 14 10 12 12 7 14 8 15
REMARK SMILES IDX 10 17
REMARK H PARENT 14 11 12 13 8 16 10 18
REMARK Flexibility Score: inf
ROOT
ATOM      1  C   UNL     1       9.643   6.519   2.375  1.00  0.00     0.281 C 
ATOM      2  C   UNL     1      10.695   7.055   1.353  1.00  0.00     0.202 C 
ATOM      3  C   UNL     1      12.109   7.097   1.968  1.00  0.00     0.179 C 
ATOM      4  C   UNL     1      12.498   5.740   2.625  1.00  0.00     0.177 C 
ATOM      5  C   UNL     1      11.242   4.920   3.016  1.00  0.00     0.178 C 
ATOM      6  O   UNL     1      10.222   5.796   3.457  1.00  0.00    -0.341 OA
ENDROOT
BRANCH   1   7
ATOM      7  O   UNL     1       8.667   5.733   1.708  1.00  0.00    -0.350 OA
BRANCH   7   8
ATOM      8  C   UNL     1       7.378   5.916   2.266  1.00  0.00     0.160 C 
ATOM      9  C   UNL     1       6.910   7.355   2.105  1.00  0.00     0.035 C 
ENDBRANCH   7   8
ENDBRANCH   1   7
BRANCH   2  10
ATOM     10  O   UNL     1      10.733   6.242   0.203  1.00  0.00    -0.385 OA
ATOM     11  H   UNL     1      11.505   5.635   0.300  1.00  0.00     0.211 HD
ENDBRANCH   2  10
BRANCH   3  12
ATOM     12  O   UNL     1      12.205   8.161   2.886  1.00  0.00    -0.387 OA
ATOM     13  H   UNL     1      11.295   8.450   3.131  1.00  0.00     0.211 HD
ENDBRANCH   3  12
BRANCH   5  14
ATOM     14  C   UNL     1      11.560   3.905   4.125  1.00  0.00     0.191 C 
BRANCH  14  15
ATOM     15  O   UNL     1      12.679   3.144   3.780  1.00  0.00    -0.394 OA
ATOM     16  H   UNL     1      12.781   2.471   4.506  1.00  0.00     0.210 HD
ENDBRANCH  14  15
ENDBRANCH   5  14
BRANCH   4  17
ATOM     17  O   UNL     1      13.335   4.991   1.776  1.00  0.00    -0.387 OA
ATOM     18  H   UNL     1      13.446   4.090   2.183  1.00  0.00     0.211 HD
ENDBRANCH   4  17
TORSDOF 7
ENDMDL
MODEL 7
REMARK VINA RESULT:    -3.453      1.873      3.099
REMARK INTER + INTRA:          -4.816
REMARK INTER:                  -4.436
REMARK INTRA:                  -0.380
REMARK UNBOUND:                -0.353
REMARK SMILES CCO[C@H]1O[C@H](CO)[C@@H](O)[C@H](O)[C@H]1O
REMARK SMILES IDX 4 1 13 2 11 3 9 4 6 5 5 6 3 7 2 8 1 9 14 10 12 12 7 14 8 15
REMARK SMILES IDX 10 17
REMARK H PARENT 14 11 12 13 8 16 10 18
REMARK Flexibility Score: inf
ROOT
ATOM      1  C   UNL     1       6.251   4.132   2.140  1.00  0.00     0.281 C 
ATOM      2  C   UNL     1       7.397   3.095   1.917  1.00  0.00     0.202 C 
ATOM      3  C   UNL     1       8.504   3.666   1.008  1.00  0.00     0.179 C 
ATOM      4  C   UNL     1       8.997   5.060   1.496  1.00  0.00     0.177 C 
ATOM      5  C   UNL     1       7.922   5.770   2.358  1.00  0.00     0.178 C 
ATOM      6  O   UNL     1       6.635   5.473   1.851  1.00  0.00    -0.341 OA
ENDROOT
BRANCH   1   7
ATOM      7  O   UNL     1       5.744   4.027   3.462  1.00  0.00    -0.350 OA
BRANCH   7   8
ATOM      8  C   UNL     1       4.328   3.993   3.479  1.00  0.00     0.160 C 
ATOM      9  C   UNL     1       3.788   3.084   2.384  1.00  0.00     0.035 C 
ENDBRANCH   7   8
ENDBRANCH   1   7
BRANCH   2  10
ATOM     10  O   UNL     1       7.977   2.720   3.145  1.00  0.00    -0.385 OA
ATOM     11  H   UNL     1       8.846   3.183   3.210  1.00  0.00     0.211 HD
ENDBRANCH   2  10
BRANCH   3  12
ATOM     12  O   UNL     1       8.056   3.715  -0.326  1.00  0.00    -0.387 OA
ATOM     13  H   UNL     1       8.059   2.801  -0.695  1.00  0.00     0.211 HD
ENDBRANCH   3  12
BRANCH   5  14
ATOM     14  C   UNL     1       8.129   7.292   2.368  1.00  0.00     0.191 C 
BRANCH  14  15
ATOM     15  O   UNL     1       9.005   7.670   1.348  1.00  0.00    -0.394 OA
ATOM     16  H   UNL     1       8.854   8.644   1.210  1.00  0.00     0.210 HD
ENDBRANCH  14  15
ENDBRANCH   5  14
BRANCH   4  17
ATOM     17  O   UNL     1      10.207   4.947   2.206  1.00  0.00    -0.387 OA
ATOM     18  H   UNL     1       9.986   4.667   3.134  1.00  0.00     0.211 HD
ENDBRANCH   4  17
TORSDOF 7
ENDMDL
MODEL 8
REMARK VINA RESULT:    -3.371      1.687      3.981
REMARK INTER + INTRA:          -4.709
REMARK INTER:                  -4.508
REMARK INTRA:                  -0.201
REMARK UNBOUND:                -0.353
REMARK SMILES CCO[C@H]1O[C@H](CO)[C@@H](O)[C@H](O)[C@H]1O
REMARK SMILES IDX 4 1 13 2 11 3 9 4 6 5 5 6 3 7 2 8 1 9 14 10 12 12 7 14 8 15
REMARK SMILES IDX 10 17
REMARK H PARENT 14 11 12 13 8 16 10 18
REMARK Flexibility Score: inf
ROOT
ATOM      1  C   UNL     1       8.525   6.018   1.920  1.00  0.00     0.281 C 
ATOM      2  C   UNL     1       7.331   5.102   1.505  1.00  0.00     0.202 C 
ATOM      3  C   UNL     1       7.812   3.688   1.119  1.00  0.00     0.179 C 
ATOM      4  C   UNL     1       8.736   3.070   2.209  1.00  0.00     0.177 C 
ATOM      5  C   UNL     1       9.399   4.169   3.077  1.00  0.00     0.178 C 
ATOM      6  O   UNL     1       9.700   5.293   2.273  1.00  0.00    -0.341 OA
ENDROOT
BRANCH   1   7
ATOM      7  O   UNL     1       8.134   6.888   2.972  1.00  0.00    -0.350 OA
BRANCH   7   8
ATOM      8  C   UNL     1       8.075   8.236   2.542  1.00  0.00     0.160 C 
ATOM      9  C   UNL     1       6.644   8.648   2.226  1.00  0.00     0.035 C 
ENDBRANCH   7   8
ENDBRANCH   1   7
BRANCH   2  10
ATOM     10  O   UNL     1       6.402   4.985   2.557  1.00  0.00    -0.385 OA
ATOM     11  H   UNL     1       6.683   5.612   3.266  1.00  0.00     0.211 HD
ENDBRANCH   2  10
BRANCH   3  12
ATOM     12  O   UNL     1       8.448   3.721  -0.138  1.00  0.00    -0.387 OA
ATOM     13  H   UNL     1       8.799   2.822  -0.339  1.00  0.00     0.211 HD
ENDBRANCH   3  12
BRANCH   5  14
ATOM     14  C   UNL     1      10.686   3.657   3.741  1.00  0.00     0.191 C 
BRANCH  14  15
ATOM     15  O   UNL     1      11.802   4.024   2.984  1.00  0.00    -0.394 OA
ATOM     16  H   UNL     1      12.000   3.243   2.399  1.00  0.00     0.210 HD
ENDBRANCH  14  15
ENDBRANCH   5  14
BRANCH   4  17
ATOM     17  O   UNL     1       8.024   2.162   3.016  1.00  0.00    -0.387 OA
ATOM     18  H   UNL     1       8.655   1.809   3.699  1.00  0.00     0.211 HD
ENDBRANCH   4  17
TORSDOF 7
ENDMDL
MODEL 9
REMARK VINA RESULT:    -3.251      9.501     11.662
REMARK INTER + INTRA:          -4.554
REMARK INTER:                  -4.181
REMARK INTRA:                  -0.373
REMARK UNBOUND:                -0.353
REMARK SMILES CCO[C@H]1O[C@H](CO)[C@@H](O)[C@H](O)[C@H]1O
REMARK SMILES IDX 4 1 13 2 11 3 9 4 6 5 5 6 3 7 2 8 1 9 14 10 12 12 7 14 8 15
REMARK SMILES IDX 10 17
REMARK H PARENT 14 11 12 13 8 16 10 18
REMARK Flexibility Score: inf
ROOT
ATOM      1  C   UNL     1      17.627   8.400   1.368  1.00  0.00     0.281 C 
ATOM      2  C   UNL     1      18.698   9.430   1.849  1.00  0.00     0.202 C 
ATOM      3  C   UNL     1      19.843   8.737   2.616  1.00  0.00     0.179 C 
ATOM      4  C   UNL     1      20.432   7.536   1.819  1.00  0.00     0.177 C 
ATOM      5  C   UNL     1      19.410   6.980   0.796  1.00  0.00     0.178 C 
ATOM      6  O   UNL     1      18.106   7.059   1.337  1.00  0.00    -0.341 OA
ENDROOT
BRANCH   1   7
ATOM      7  O   UNL     1      17.114   8.781   0.100  1.00  0.00    -0.350 OA
BRANCH   7   8
ATOM      8  C   UNL     1      15.856   9.422   0.215  1.00  0.00     0.160 C 
ATOM      9  C   UNL     1      15.121   8.966   1.467  1.00  0.00     0.035 C 
ENDBRANCH   7   8
ENDBRANCH   1   7
BRANCH   2  10
ATOM     10  O   UNL     1      19.250  10.125   0.754  1.00  0.00    -0.385 OA
ATOM     11  H   UNL     1      18.851   9.743  -0.064  1.00  0.00     0.211 HD
ENDBRANCH   2  10
BRANCH   3  12
ATOM     12  O   UNL     1      19.399   8.342   3.892  1.00  0.00    -0.387 OA
ATOM     13  H   UNL     1      20.154   7.933   4.377  1.00  0.00     0.211 HD
ENDBRANCH   3  12
BRANCH   5  14
ATOM     14  C   UNL     1      19.724   5.521   0.429  1.00  0.00     0.191 C 
BRANCH  14  15
ATOM     15  O   UNL     1      20.906   5.451  -0.312  1.00  0.00    -0.394 OA
ATOM     16  H   UNL     1      20.654   5.041  -1.184  1.00  0.00     0.210 HD
ENDBRANCH  14  15
ENDBRANCH   5  14
BRANCH   4  17
ATOM     17  O   UNL     1      21.631   7.898   1.177  1.00  0.00    -0.387 OA
ATOM     18  H   UNL     1      21.393   8.441   0.378  1.00  0.00     0.211 HD
ENDBRANCH   4  17
TORSDOF 7
ENDMDL
