MODEL 1
REMARK VINA RESULT:    -3.486      0.000      0.000
REMARK INTER + INTRA:          -4.141
REMARK INTER:                  -4.098
REMARK INTRA:                  -0.043
REMARK UNBOUND:                -0.043
REMARK SMILES O=C([O-])CCC(=O)[O-]
REMARK SMILES IDX 4 1 2 2 1 3 3 4 5 5 6 6 7 7 8 8
REMARK H PARENT
REMARK Flexibility Score: inf
ROOT
ATOM      1  C   UNL     1      -6.122  36.251  22.647  1.00  0.00     0.059 C 
ENDROOT
BRANCH   1   2
ATOM      2  C   UNL     1      -5.968  35.412  23.879  1.00  0.00     0.042 C 
ATOM      3  O   UNL     1      -6.010  34.157  23.800  1.00  0.00    -0.550 OA
ATOM      4  O   UNL     1      -5.736  36.017  25.109  1.00  0.00    -0.550 OA
ENDBRANCH   1   2
BRANCH   1   5
ATOM      5  C   UNL     1      -6.045  35.404  21.373  1.00  0.00     0.059 C 
BRANCH   5   6
ATOM      6  C   UNL     1      -5.338  36.129  20.268  1.00  0.00     0.042 C 
ATOM      7  O   UNL     1      -5.319  37.388  20.248  1.00  0.00    -0.550 OA
ATOM      8  O   UNL     1      -4.665  35.414  19.285  1.00  0.00    -0.550 OA
ENDBRANCH   5   6
ENDBRANCH   1   5
TORSDOF 3
ENDMDL
MODEL 2
REMARK VINA RESULT:    -3.481      0.192      4.210
REMARK INTER + INTRA:          -4.134
REMARK INTER:                  -4.093
REMARK INTRA:                  -0.041
REMARK UNBOUND:                -0.043
REMARK SMILES O=C([O-])CCC(=O)[O-]
REMARK SMILES IDX 4 1 2 2 1 3 3 4 5 5 6 6 7 7 8 8
REMARK H PARENT
REMARK Flexibility Score: inf
ROOT
ATOM      1  C   UNL     1      -6.085  35.402  21.287  1.00  0.00     0.059 C 
ENDROOT
BRANCH   1   2
ATOM      2  C   UNL     1      -5.321  36.119  20.216  1.00  0.00     0.042 C 
ATOM      3  O   UNL     1      -4.672  35.467  19.358  1.00  0.00    -0.550 OA
ATOM      4  O   UNL     1      -5.360  37.506  20.143  1.00  0.00    -0.550 OA
ENDBRANCH   1   2
BRANCH   1   5
ATOM      5  C   UNL     1      -6.097  36.192  22.600  1.00  0.00     0.059 C 
BRANCH   5   6
ATOM      6  C   UNL     1      -6.065  35.285  23.792  1.00  0.00     0.042 C 
ATOM      7  O   UNL     1      -5.976  34.039  23.637  1.00  0.00    -0.550 OA
ATOM      8  O   UNL     1      -6.093  35.819  25.074  1.00  0.00    -0.550 OA
ENDBRANCH   5   6
ENDBRANCH   1   5
TORSDOF 3
ENDMDL
MODEL 3
REMARK VINA RESULT:    -3.305      0.261      1.634
REMARK INTER + INTRA:          -3.928
REMARK INTER:                  -3.889
REMARK INTRA:                  -0.039
REMARK UNBOUND:                -0.043
REMARK SMILES O=C([O-])CCC(=O)[O-]
REMARK SMILES IDX 4 1 2 2 1 3 3 4 5 5 6 6 7 7 8 8
REMARK H PARENT
REMARK Flexibility Score: inf
ROOT
ATOM      1  C   UNL     1      -6.125  36.082  22.480  1.00  0.00     0.059 C 
ENDROOT
BRANCH   1   2
ATOM      2  C   UNL     1      -5.977  35.253  23.719  1.00  0.00     0.042 C 
ATOM      3  O   UNL     1      -5.992  35.801  24.852  1.00  0.00    -0.550 OA
ATOM      4  O   UNL     1      -5.864  33.871  23.624  1.00  0.00    -0.550 OA
ENDBRANCH   1   2
BRANCH   1   5
ATOM      5  C   UNL     1      -5.922  35.245  21.212  1.00  0.00     0.059 C 
BRANCH   5   6
ATOM      6  C   UNL     1      -5.240  36.032  20.134  1.00  0.00     0.042 C 
ATOM      7  O   UNL     1      -4.640  35.438  19.200  1.00  0.00    -0.550 OA
ATOM      8  O   UNL     1      -5.302  37.420  20.140  1.00  0.00    -0.550 OA
ENDBRANCH   5   6
ENDBRANCH   1   5
TORSDOF 3
ENDMDL
MODEL 4
REMARK VINA RESULT:    -3.278      0.198      4.351
REMARK INTER + INTRA:          -3.896
REMARK INTER:                  -3.855
REMARK INTRA:                  -0.041
REMARK UNBOUND:                -0.043
REMARK SMILES O=C([O-])CCC(=O)[O-]
REMARK SMILES IDX 4 1 2 2 1 3 3 4 5 5 6 6 7 7 8 8
REMARK H PARENT
REMARK Flexibility Score: inf
ROOT
ATOM      1  C   UNL     1      -6.115  35.380  21.405  1.00  0.00     0.059 C 
ENDROOT
BRANCH   1   2
ATOM      2  C   UNL     1      -5.370  36.103  20.325  1.00  0.00     0.042 C 
ATOM      3  O   UNL     1      -5.403  37.360  20.265  1.00  0.00    -0.550 OA
ATOM      4  O   UNL     1      -4.605  35.391  19.409  1.00  0.00    -0.550 OA
ENDBRANCH   1   2
BRANCH   1   5
ATOM      5  C   UNL     1      -6.118  36.171  22.717  1.00  0.00     0.059 C 
BRANCH   5   6
ATOM      6  C   UNL     1      -6.124  35.262  23.910  1.00  0.00     0.042 C 
ATOM      7  O   UNL     1      -6.125  34.014  23.754  1.00  0.00    -0.550 OA
ATOM      8  O   UNL     1      -6.088  35.797  25.192  1.00  0.00    -0.550 OA
ENDBRANCH   5   6
ENDBRANCH   1   5
TORSDOF 3
ENDMDL
MODEL 5
REMARK VINA RESULT:    -2.912      2.845      4.263
REMARK INTER + INTRA:          -3.466
REMARK INTER:                  -3.422
REMARK INTRA:                  -0.044
REMARK UNBOUND:                -0.043
REMARK SMILES O=C([O-])CCC(=O)[O-]
REMARK SMILES IDX 4 1 2 2 1 3 3 4 5 5 6 6 7 7 8 8
REMARK H PARENT
REMARK Flexibility Score: inf
ROOT
ATOM      1  C   UNL     1      -4.526  35.179  20.001  1.00  0.00     0.059 C 
ENDROOT
BRANCH   1   2
ATOM      2  C   UNL     1      -5.014  34.613  18.703  1.00  0.00     0.042 C 
ATOM      3  O   UNL     1      -6.121  34.018  18.648  1.00  0.00    -0.550 OA
ATOM      4  O   UNL     1      -4.263  34.778  17.545  1.00  0.00    -0.550 OA
ENDBRANCH   1   2
BRANCH   1   5
ATOM      5  C   UNL     1      -5.596  36.039  20.681  1.00  0.00     0.059 C 
BRANCH   5   6
ATOM      6  C   UNL     1      -5.385  37.499  20.415  1.00  0.00     0.042 C 
ATOM      7  O   UNL     1      -5.013  37.887  19.277  1.00  0.00    -0.550 OA
ATOM      8  O   UNL     1      -5.639  38.432  21.412  1.00  0.00    -0.550 OA
ENDBRANCH   5   6
ENDBRANCH   1   5
TORSDOF 3
ENDMDL
MODEL 6
REMARK VINA RESULT:    -2.595      2.488      3.444
REMARK INTER + INTRA:          -3.093
REMARK INTER:                  -3.059
REMARK INTRA:                  -0.034
REMARK UNBOUND:                -0.043
REMARK SMILES O=C([O-])CCC(=O)[O-]
REMARK SMILES IDX 4 1 2 2 1 3 3 4 5 5 6 6 7 7 8 8
REMARK H PARENT
REMARK Flexibility Score: inf
ROOT
ATOM      1  C   UNL     1      -5.878  37.925  21.816  1.00  0.00     0.059 C 
ENDROOT
BRANCH   1   2
ATOM      2  C   UNL     1      -5.756  39.388  22.120  1.00  0.00     0.042 C 
ATOM      3  O   UNL     1      -6.125  40.243  21.274  1.00  0.00    -0.550 OA
ATOM      4  O   UNL     1      -5.273  39.804  23.355  1.00  0.00    -0.550 OA
ENDBRANCH   1   2
BRANCH   1   5
ATOM      5  C   UNL     1      -5.369  37.595  20.409  1.00  0.00     0.059 C 
BRANCH   5   6
ATOM      6  C   UNL     1      -5.385  36.119  20.148  1.00  0.00     0.042 C 
ATOM      7  O   UNL     1      -6.113  35.362  20.841  1.00  0.00    -0.550 OA
ATOM      8  O   UNL     1      -4.627  35.588  19.112  1.00  0.00    -0.550 OA
ENDBRANCH   5   6
ENDBRANCH   1   5
TORSDOF 3
ENDMDL
MODEL 7
REMARK VINA RESULT:    -2.451      2.705      3.953
REMARK INTER + INTRA:          -2.924
REMARK INTER:                  -2.885
REMARK INTRA:                  -0.039
REMARK UNBOUND:                -0.043
REMARK SMILES O=C([O-])CCC(=O)[O-]
REMARK SMILES IDX 4 1 2 2 1 3 3 4 5 5 6 6 7 7 8 8
REMARK H PARENT
REMARK Flexibility Score: inf
ROOT
ATOM      1  C   UNL     1      -5.188  37.240  19.879  1.00  0.00     0.059 C 
ENDROOT
BRANCH   1   2
ATOM      2  C   UNL     1      -5.308  35.751  19.756  1.00  0.00     0.042 C 
ATOM      3  O   UNL     1      -4.645  35.134  18.882  1.00  0.00    -0.550 OA
ATOM      4  O   UNL     1      -6.120  35.043  20.634  1.00  0.00    -0.550 OA
ENDBRANCH   1   2
BRANCH   1   5
ATOM      5  C   UNL     1      -5.372  37.705  21.327  1.00  0.00     0.059 C 
BRANCH   5   6
ATOM      6  C   UNL     1      -5.739  39.156  21.400  1.00  0.00     0.042 C 
ATOM      7  O   UNL     1      -5.662  39.774  22.494  1.00  0.00    -0.550 OA
ATOM      8  O   UNL     1      -6.125  39.834  20.251  1.00  0.00    -0.550 OA
ENDBRANCH   5   6
ENDBRANCH   1   5
TORSDOF 3
ENDMDL
MODEL 8
REMARK VINA RESULT:    -2.433      1.564      2.321
REMARK INTER + INTRA:          -2.903
REMARK INTER:                  -2.862
REMARK INTRA:                  -0.042
REMARK UNBOUND:                -0.043
REMARK SMILES O=C([O-])CCC(=O)[O-]
REMARK SMILES IDX 4 1 2 2 1 3 3 4 5 5 6 6 7 7 8 8
REMARK H PARENT
REMARK Flexibility Score: inf
ROOT
ATOM      1  C   UNL     1      -4.802  35.268  21.248  1.00  0.00     0.059 C 
ENDROOT
BRANCH   1   2
ATOM      2  C   UNL     1      -5.708  35.562  22.404  1.00  0.00     0.042 C 
ATOM      3  O   UNL     1      -6.125  36.733  22.599  1.00  0.00    -0.550 OA
ATOM      4  O   UNL     1      -6.125  34.533  23.241  1.00  0.00    -0.550 OA
ENDBRANCH   1   2
BRANCH   1   5
ATOM      5  C   UNL     1      -5.283  35.950  19.963  1.00  0.00     0.059 C 
BRANCH   5   6
ATOM      6  C   UNL     1      -5.224  35.022  18.788  1.00  0.00     0.042 C 
ATOM      7  O   UNL     1      -4.339  35.172  17.907  1.00  0.00    -0.550 OA
ATOM      8  O   UNL     1      -6.122  33.966  18.690  1.00  0.00    -0.550 OA
ENDBRANCH   5   6
ENDBRANCH   1   5
TORSDOF 3
ENDMDL
