MODEL 1
REMARK VINA RESULT:    -3.717      0.000      0.000
REMARK INTER + INTRA:          -5.436
REMARK INTER:                  -5.020
REMARK INTRA:                  -0.416
REMARK UNBOUND:                -0.416
REMARK SMILES C=C1C(=O)O[C@H]2[C@H]1CCC(C)=CCC[C@@]1(C)O[C@@H]21
REMARK SMILES IDX 6 1 7 2 2 3 1 4 3 5 4 6 5 7 8 8 9 9 10 10 11 11 12 12 18 14
REMARK SMILES IDX 15 15 17 16 16 17 14 18 13 19
REMARK H PARENT
REMARK Flexibility Score: 70.00
ROOT
ATOM      1  C   UNL     1      20.177  -1.840   2.517  1.00  0.00     0.216 C 
ATOM      2  C   UNL     1      19.992  -0.596   1.570  1.00  0.00     0.070 C 
ATOM      3  C   UNL     1      21.010  -0.825   0.492  1.00  0.00     0.037 C 
ATOM      4  C   UNL     1      21.158  -0.099  -0.616  1.00  0.00     0.021 C 
ATOM      5  C   UNL     1      21.745  -2.018   0.815  1.00  0.00     0.334 C 
ATOM      6  O   UNL     1      22.691  -2.503   0.141  1.00  0.00    -0.247 OA
ATOM      7  O   UNL     1      21.266  -2.584   1.973  1.00  0.00    -0.455 OA
ENDROOT
BRANCH   2   8
ATOM      8  C   UNL     1      20.261   0.756   2.283  1.00  0.00     0.017 C 
BRANCH   8   9
ATOM      9  C   UNL     1      19.048   1.377   3.012  1.00  0.00     0.031 C 
BRANCH   9  10
ATOM     10  C   UNL     1      19.207   1.431   4.521  1.00  0.00    -0.077 C 
ATOM     11  C   UNL     1      20.191   2.413   5.108  1.00  0.00     0.039 C 
ATOM     12  C   UNL     1      18.546   0.617   5.379  1.00  0.00    -0.028 CG0
ATOM     13  G   UNL     1      17.621  -0.527   5.015  1.00  0.00     0.000 G0
ENDBRANCH   9  10
ENDBRANCH   8   9
ENDBRANCH   2   8
BRANCH   1  14
ATOM     14  C   UNL     1      18.944  -2.781   2.579  1.00  0.00     0.192 C 
ATOM     15  C   UNL     1      18.010  -2.807   3.760  1.00  0.00     0.096 C 
ATOM     16  O   UNL     1      17.732  -2.059   2.603  1.00  0.00    -0.362 OA
ATOM     17  C   UNL     1      17.065  -4.003   3.881  1.00  0.00     0.045 C 
BRANCH  15  18
ATOM     18  C   UNL     1      18.250  -1.945   5.023  1.00  0.00     0.042 C 
BRANCH  18  19
ATOM     19  C   UNL     1      17.620  -0.533   5.029  1.00  0.00     0.030 CG0
ATOM     20  G   UNL     1      18.530   0.626   5.380  1.00  0.00     0.000 G0
ENDBRANCH  18  19
ENDBRANCH  15  18
ENDBRANCH   1  14
TORSDOF 0
ENDMDL
MODEL 2
REMARK VINA RESULT:    -3.569      2.215      4.320
REMARK INTER + INTRA:          -5.237
REMARK INTER:                  -4.871
REMARK INTRA:                  -0.367
REMARK UNBOUND:                -0.416
REMARK SMILES C=C1C(=O)O[C@H]2[C@H]1CCC(C)=CCC[C@@]1(C)O[C@@H]21
REMARK SMILES IDX 6 1 7 2 2 3 1 4 3 5 4 6 5 7 8 8 9 9 10 10 11 11 12 12 18 14
REMARK SMILES IDX 15 15 17 16 16 17 14 18 13 19
REMARK H PARENT
REMARK Flexibility Score: 70.00
ROOT
ATOM      1  C   UNL     1      17.803  -0.971   3.254  1.00  0.00     0.216 C 
ATOM      2  C   UNL     1      18.859  -1.248   4.389  1.00  0.00     0.070 C 
ATOM      3  C   UNL     1      18.587  -2.672   4.777  1.00  0.00     0.037 C 
ATOM      4  C   UNL     1      19.309  -3.406   5.623  1.00  0.00     0.021 C 
ATOM      5  C   UNL     1      17.464  -3.138   4.011  1.00  0.00     0.334 C 
ATOM      6  O   UNL     1      16.946  -4.284   4.089  1.00  0.00    -0.247 OA
ATOM      7  O   UNL     1      17.022  -2.161   3.152  1.00  0.00    -0.455 OA
ENDROOT
BRANCH   2   8
ATOM      8  C   UNL     1      18.688  -0.316   5.618  1.00  0.00     0.017 C 
BRANCH   8   9
ATOM      9  C   UNL     1      19.785   0.758   5.797  1.00  0.00     0.031 C 
BRANCH   9  10
ATOM     10  C   UNL     1      19.263   2.182   5.716  1.00  0.00    -0.077 C 
ATOM     11  C   UNL     1      18.695   2.814   6.963  1.00  0.00     0.039 C 
ATOM     12  C   UNL     1      19.236   2.911   4.574  1.00  0.00    -0.028 CG0
ATOM     13  G   UNL     1      19.621   2.440   3.187  1.00  0.00     0.000 G0
ENDBRANCH   9  10
ENDBRANCH   8   9
ENDBRANCH   2   8
BRANCH   1  14
ATOM     14  C   UNL     1      18.428  -0.692   1.860  1.00  0.00     0.192 C 
ATOM     15  C   UNL     1      18.780   0.697   1.399  1.00  0.00     0.096 C 
ATOM     16  O   UNL     1      19.733  -0.168   1.963  1.00  0.00    -0.362 OA
ATOM     17  C   UNL     1      19.036   0.897  -0.095  1.00  0.00     0.045 C 
BRANCH  15  18
ATOM     18  C   UNL     1      18.485   1.953   2.257  1.00  0.00     0.042 C 
BRANCH  18  19
ATOM     19  C   UNL     1      19.621   2.442   3.184  1.00  0.00     0.030 CG0
ATOM     20  G   UNL     1      19.225   2.917   4.567  1.00  0.00     0.000 G0
ENDBRANCH  18  19
ENDBRANCH  15  18
ENDBRANCH   1  14
TORSDOF 0
ENDMDL
MODEL 3
REMARK VINA RESULT:    -3.568      2.504      4.561
REMARK INTER + INTRA:          -5.235
REMARK INTER:                  -4.846
REMARK INTRA:                  -0.389
REMARK UNBOUND:                -0.416
REMARK SMILES C=C1C(=O)O[C@H]2[C@H]1CCC(C)=CCC[C@@]1(C)O[C@@H]21
REMARK SMILES IDX 6 1 7 2 2 3 1 4 3 5 4 6 5 7 8 8 9 9 10 10 11 11 12 12 18 14
REMARK SMILES IDX 15 15 17 16 16 17 14 18 13 19
REMARK H PARENT
REMARK Flexibility Score: 70.00
ROOT
ATOM      1  C   UNL     1      19.236  -1.035   4.901  1.00  0.00     0.216 C 
ATOM      2  C   UNL     1      17.929  -1.655   4.279  1.00  0.00     0.070 C 
ATOM      3  C   UNL     1      18.108  -3.129   4.490  1.00  0.00     0.037 C 
ATOM      4  C   UNL     1      17.203  -4.074   4.239  1.00  0.00     0.021 C 
ATOM      5  C   UNL     1      19.395  -3.342   5.096  1.00  0.00     0.334 C 
ATOM      6  O   UNL     1      19.888  -4.461   5.399  1.00  0.00    -0.247 OA
ATOM      7  O   UNL     1      20.030  -2.145   5.319  1.00  0.00    -0.455 OA
ENDROOT
BRANCH   2   8
ATOM      8  C   UNL     1      17.771  -1.346   2.767  1.00  0.00     0.017 C 
BRANCH   8   9
ATOM      9  C   UNL     1      17.385   0.110   2.421  1.00  0.00     0.031 C 
BRANCH   9  10
ATOM     10  C   UNL     1      18.515   0.909   1.797  1.00  0.00    -0.077 C 
ATOM     11  C   UNL     1      19.043   0.481   0.449  1.00  0.00     0.039 C 
ATOM     12  C   UNL     1      19.113   1.965   2.399  1.00  0.00    -0.028 CG0
ATOM     13  G   UNL     1      18.847   2.484   3.797  1.00  0.00     0.000 G0
ENDBRANCH   9  10
ENDBRANCH   8   9
ENDBRANCH   2   8
BRANCH   1  14
ATOM     14  C   UNL     1      18.985  -0.136   6.142  1.00  0.00     0.192 C 
ATOM     15  C   UNL     1      19.247   1.346   6.128  1.00  0.00     0.096 C 
ATOM     16  O   UNL     1      17.967   0.811   5.908  1.00  0.00    -0.362 OA
ATOM     17  C   UNL     1      19.320   2.058   7.480  1.00  0.00     0.045 C 
BRANCH  15  18
ATOM     18  C   UNL     1      19.847   2.069   4.897  1.00  0.00     0.042 C 
BRANCH  18  19
ATOM     19  C   UNL     1      18.856   2.491   3.789  1.00  0.00     0.030 CG0
ATOM     20  G   UNL     1      19.109   1.954   2.395  1.00  0.00     0.000 G0
ENDBRANCH  18  19
ENDBRANCH  15  18
ENDBRANCH   1  14
TORSDOF 0
ENDMDL
MODEL 4
REMARK VINA RESULT:    -3.541     11.439     12.859
REMARK INTER + INTRA:          -5.199
REMARK INTER:                  -4.813
REMARK INTRA:                  -0.386
REMARK UNBOUND:                -0.416
REMARK SMILES C=C1C(=O)O[C@H]2[C@H]1CCC(C)=CCC[C@@]1(C)O[C@@H]21
REMARK SMILES IDX 6 1 7 2 2 3 1 4 3 5 4 6 5 7 8 8 9 9 10 10 11 11 12 12 18 14
REMARK SMILES IDX 15 15 17 16 16 17 14 18 13 19
REMARK H PARENT
REMARK Flexibility Score: 70.00
ROOT
ATOM      1  C   UNL     1      10.128  -0.141  -2.115  1.00  0.00     0.216 C 
ATOM      2  C   UNL     1       9.014   0.660  -1.343  1.00  0.00     0.070 C 
ATOM      3  C   UNL     1       9.040   0.056   0.030  1.00  0.00     0.037 C 
ATOM      4  C   UNL     1       8.353   0.485   1.089  1.00  0.00     0.021 C 
ATOM      5  C   UNL     1      10.002  -1.012   0.032  1.00  0.00     0.334 C 
ATOM      6  O   UNL     1      10.274  -1.754   1.013  1.00  0.00    -0.247 OA
ATOM      7  O   UNL     1      10.610  -1.119  -1.196  1.00  0.00    -0.455 OA
ENDROOT
BRANCH   2   8
ATOM      8  C   UNL     1       7.604   0.499  -1.973  1.00  0.00     0.017 C 
BRANCH   8   9
ATOM      9  C   UNL     1       7.103   1.704  -2.801  1.00  0.00     0.031 C 
BRANCH   9  10
ATOM     10  C   UNL     1       6.870   1.381  -4.266  1.00  0.00    -0.077 C 
ATOM     11  C   UNL     1       5.576   0.711  -4.660  1.00  0.00     0.039 C 
ATOM     12  C   UNL     1       7.776   1.622  -5.244  1.00  0.00    -0.028 CG0
ATOM     13  G   UNL     1       9.183   2.155  -5.068  1.00  0.00     0.000 G0
ENDBRANCH   9  10
ENDBRANCH   8   9
ENDBRANCH   2   8
BRANCH   1  14
ATOM     14  C   UNL     1      11.336   0.725  -2.565  1.00  0.00     0.192 C 
ATOM     15  C   UNL     1      11.416   1.348  -3.933  1.00  0.00     0.096 C 
ATOM     16  O   UNL     1      10.963   2.063  -2.811  1.00  0.00    -0.362 OA
ATOM     17  C   UNL     1      12.782   1.857  -4.393  1.00  0.00     0.045 C 
BRANCH  15  18
ATOM     18  C   UNL     1      10.330   1.116  -5.012  1.00  0.00     0.042 C 
BRANCH  18  19
ATOM     19  C   UNL     1       9.184   2.152  -5.076  1.00  0.00     0.030 CG0
ATOM     20  G   UNL     1       7.777   1.615  -5.239  1.00  0.00     0.000 G0
ENDBRANCH  18  19
ENDBRANCH  15  18
ENDBRANCH   1  14
TORSDOF 0
ENDMDL
MODEL 5
REMARK VINA RESULT:    -3.499      1.629      3.751
REMARK INTER + INTRA:          -5.143
REMARK INTER:                  -4.754
REMARK INTRA:                  -0.389
REMARK UNBOUND:                -0.416
REMARK SMILES C=C1C(=O)O[C@H]2[C@H]1CCC(C)=CCC[C@@]1(C)O[C@@H]21
REMARK SMILES IDX 6 1 7 2 2 3 1 4 3 5 4 6 5 7 8 8 9 9 10 10 11 11 12 12 18 14
REMARK SMILES IDX 15 15 17 16 16 17 14 18 13 19
REMARK H PARENT
REMARK Flexibility Score: 70.00
ROOT
ATOM      1  C   UNL     1      20.316  -0.287   2.415  1.00  0.00     0.216 C 
ATOM      2  C   UNL     1      21.113  -1.636   2.256  1.00  0.00     0.070 C 
ATOM      3  C   UNL     1      21.542  -1.620   0.819  1.00  0.00     0.037 C 
ATOM      4  C   UNL     1      22.354  -2.500   0.232  1.00  0.00     0.021 C 
ATOM      5  C   UNL     1      20.998  -0.441   0.202  1.00  0.00     0.334 C 
ATOM      6  O   UNL     1      21.140  -0.112  -1.005  1.00  0.00    -0.247 OA
ATOM      7  O   UNL     1      20.298   0.307   1.118  1.00  0.00    -0.455 OA
ENDROOT
BRANCH   2   8
ATOM      8  C   UNL     1      20.246  -2.890   2.544  1.00  0.00     0.017 C 
BRANCH   8   9
ATOM      9  C   UNL     1      19.903  -3.137   4.030  1.00  0.00     0.031 C 
BRANCH   9  10
ATOM     10  C   UNL     1      18.449  -2.864   4.374  1.00  0.00    -0.077 C 
ATOM     11  C   UNL     1      17.384  -3.727   3.743  1.00  0.00     0.039 C 
ATOM     12  C   UNL     1      18.043  -1.858   5.185  1.00  0.00    -0.028 CG0
ATOM     13  G   UNL     1      18.915  -0.791   5.815  1.00  0.00     0.000 G0
ENDBRANCH   9  10
ENDBRANCH   8   9
ENDBRANCH   2   8
BRANCH   1  14
ATOM     14  C   UNL     1      20.971   0.727   3.392  1.00  0.00     0.192 C 
ATOM     15  C   UNL     1      20.328   1.119   4.695  1.00  0.00     0.096 C 
ATOM     16  O   UNL     1      21.318   0.126   4.620  1.00  0.00    -0.362 OA
ATOM     17  C   UNL     1      20.859   2.373   5.390  1.00  0.00     0.045 C 
BRANCH  15  18
ATOM     18  C   UNL     1      18.937   0.590   5.123  1.00  0.00     0.042 C 
BRANCH  18  19
ATOM     19  C   UNL     1      18.903  -0.790   5.819  1.00  0.00     0.030 CG0
ATOM     20  G   UNL     1      18.039  -1.861   5.186  1.00  0.00     0.000 G0
ENDBRANCH  18  19
ENDBRANCH  15  18
ENDBRANCH   1  14
TORSDOF 0
ENDMDL
MODEL 6
REMARK VINA RESULT:    -3.431      2.783      5.314
REMARK INTER + INTRA:          -5.050
REMARK INTER:                  -4.640
REMARK INTRA:                  -0.410
REMARK UNBOUND:                -0.416
REMARK SMILES C=C1C(=O)O[C@H]2[C@H]1CCC(C)=CCC[C@@]1(C)O[C@@H]21
REMARK SMILES IDX 6 1 7 2 2 3 1 4 3 5 4 6 5 7 8 8 9 9 10 10 11 11 12 12 18 14
REMARK SMILES IDX 15 15 17 16 16 17 14 18 13 19
REMARK H PARENT
REMARK Flexibility Score: 70.00
ROOT
ATOM      1  C   UNL     1      19.920  -2.132   2.132  1.00  0.00     0.216 C 
ATOM      2  C   UNL     1      19.196  -0.857   2.705  1.00  0.00     0.070 C 
ATOM      3  C   UNL     1      18.365  -1.403   3.828  1.00  0.00     0.037 C 
ATOM      4  C   UNL     1      17.658  -0.687   4.702  1.00  0.00     0.021 C 
ATOM      5  C   UNL     1      18.531  -2.831   3.855  1.00  0.00     0.334 C 
ATOM      6  O   UNL     1      17.966  -3.622   4.657  1.00  0.00    -0.247 OA
ATOM      7  O   UNL     1      19.413  -3.236   2.882  1.00  0.00    -0.455 OA
ENDROOT
BRANCH   2   8
ATOM      8  C   UNL     1      18.290  -0.152   1.661  1.00  0.00     0.017 C 
BRANCH   8   9
ATOM      9  C   UNL     1      18.992   0.902   0.774  1.00  0.00     0.031 C 
BRANCH   9  10
ATOM     10  C   UNL     1      19.054   0.518  -0.694  1.00  0.00    -0.077 C 
ATOM     11  C   UNL     1      17.781   0.551  -1.503  1.00  0.00     0.039 C 
ATOM     12  C   UNL     1      20.183   0.103  -1.317  1.00  0.00    -0.028 CG0
ATOM     13  G   UNL     1      21.536  -0.139  -0.679  1.00  0.00     0.000 G0
ENDBRANCH   9  10
ENDBRANCH   8   9
ENDBRANCH   2   8
BRANCH   1  14
ATOM     14  C   UNL     1      21.464  -2.115   2.297  1.00  0.00     0.192 C 
ATOM     15  C   UNL     1      22.393  -1.831   1.148  1.00  0.00     0.096 C 
ATOM     16  O   UNL     1      22.004  -0.834   2.059  1.00  0.00    -0.362 OA
ATOM     17  C   UNL     1      23.867  -2.197   1.329  1.00  0.00     0.045 C 
BRANCH  15  18
ATOM     18  C   UNL     1      21.879  -1.600  -0.295  1.00  0.00     0.042 C 
BRANCH  18  19
ATOM     19  C   UNL     1      21.543  -0.143  -0.686  1.00  0.00     0.030 CG0
ATOM     20  G   UNL     1      20.181   0.111  -1.299  1.00  0.00     0.000 G0
ENDBRANCH  18  19
ENDBRANCH  15  18
ENDBRANCH   1  14
TORSDOF 0
ENDMDL
MODEL 7
REMARK VINA RESULT:    -3.428      3.297      5.038
REMARK INTER + INTRA:          -5.047
REMARK INTER:                  -4.687
REMARK INTRA:                  -0.360
REMARK UNBOUND:                -0.416
REMARK SMILES C=C1C(=O)O[C@H]2[C@H]1CCC(C)=CCC[C@@]1(C)O[C@@H]21
REMARK SMILES IDX 6 1 7 2 2 3 1 4 3 5 4 6 5 7 8 8 9 9 10 10 11 11 12 12 18 14
REMARK SMILES IDX 15 15 17 16 16 17 14 18 13 19
REMARK H PARENT
REMARK Flexibility Score: 70.00
ROOT
ATOM      1  C   UNL     1      19.862  -3.113   4.770  1.00  0.00     0.216 C 
ATOM      2  C   UNL     1      19.641  -2.138   3.553  1.00  0.00     0.070 C 
ATOM      3  C   UNL     1      18.240  -2.444   3.111  1.00  0.00     0.037 C 
ATOM      4  C   UNL     1      17.549  -1.785   2.181  1.00  0.00     0.021 C 
ATOM      5  C   UNL     1      17.737  -3.516   3.927  1.00  0.00     0.334 C 
ATOM      6  O   UNL     1      16.599  -4.045   3.825  1.00  0.00    -0.247 OA
ATOM      7  O   UNL     1      18.670  -3.892   4.863  1.00  0.00    -0.455 OA
ENDROOT
BRANCH   2   8
ATOM      8  C   UNL     1      20.637  -2.386   2.389  1.00  0.00     0.017 C 
BRANCH   8   9
ATOM      9  C   UNL     1      21.631  -1.237   2.106  1.00  0.00     0.031 C 
BRANCH   9  10
ATOM     10  C   UNL     1      23.085  -1.628   2.300  1.00  0.00    -0.077 C 
ATOM     11  C   UNL     1      23.833  -2.228   1.135  1.00  0.00     0.039 C 
ATOM     12  C   UNL     1      23.746  -1.509   3.477  1.00  0.00    -0.028 CG0
ATOM     13  G   UNL     1      23.165  -1.066   4.804  1.00  0.00     0.000 G0
ENDBRANCH   9  10
ENDBRANCH   8   9
ENDBRANCH   2   8
BRANCH   1  14
ATOM     14  C   UNL     1      20.067  -2.394   6.131  1.00  0.00     0.192 C 
ATOM     15  C   UNL     1      21.419  -1.928   6.599  1.00  0.00     0.096 C 
ATOM     16  O   UNL     1      20.511  -1.066   5.963  1.00  0.00    -0.362 OA
ATOM     17  C   UNL     1      21.566  -1.577   8.080  1.00  0.00     0.045 C 
BRANCH  15  18
ATOM     18  C   UNL     1      22.712  -2.191   5.788  1.00  0.00     0.042 C 
BRANCH  18  19
ATOM     19  C   UNL     1      23.162  -1.074   4.819  1.00  0.00     0.030 CG0
ATOM     20  G   UNL     1      23.733  -1.507   3.484  1.00  0.00     0.000 G0
ENDBRANCH  18  19
ENDBRANCH  15  18
ENDBRANCH   1  14
TORSDOF 0
ENDMDL
MODEL 8
REMARK VINA RESULT:    -3.387      2.374      3.171
REMARK INTER + INTRA:          -4.992
REMARK INTER:                  -4.567
REMARK INTRA:                  -0.425
REMARK UNBOUND:                -0.416
REMARK SMILES C=C1C(=O)O[C@H]2[C@H]1CCC(C)=CCC[C@@]1(C)O[C@@H]21
REMARK SMILES IDX 6 1 7 2 2 3 1 4 3 5 4 6 5 7 8 8 9 9 10 10 11 11 12 12 18 14
REMARK SMILES IDX 15 15 17 16 16 17 14 18 13 19
REMARK H PARENT
REMARK Flexibility Score: 70.00
ROOT
ATOM      1  C   UNL     1      19.065  -1.082   2.853  1.00  0.00     0.216 C 
ATOM      2  C   UNL     1      18.978   0.343   3.518  1.00  0.00     0.070 C 
ATOM      3  C   UNL     1      18.878   1.270   2.342  1.00  0.00     0.037 C 
ATOM      4  C   UNL     1      18.660   2.583   2.395  1.00  0.00     0.021 C 
ATOM      5  C   UNL     1      18.969   0.483   1.142  1.00  0.00     0.334 C 
ATOM      6  O   UNL     1      18.940   0.932  -0.034  1.00  0.00    -0.247 OA
ATOM      7  O   UNL     1      19.081  -0.853   1.445  1.00  0.00    -0.455 OA
ENDROOT
BRANCH   2   8
ATOM      8  C   UNL     1      20.227   0.691   4.371  1.00  0.00     0.017 C 
BRANCH   8   9
ATOM      9  C   UNL     1      20.290   0.023   5.763  1.00  0.00     0.031 C 
BRANCH   9  10
ATOM     10  C   UNL     1      21.370  -1.037   5.881  1.00  0.00    -0.077 C 
ATOM     11  C   UNL     1      22.815  -0.608   5.798  1.00  0.00     0.039 C 
ATOM     12  C   UNL     1      21.115  -2.361   6.015  1.00  0.00    -0.028 CG0
ATOM     13  G   UNL     1      19.757  -3.032   5.983  1.00  0.00     0.000 G0
ENDBRANCH   9  10
ENDBRANCH   8   9
ENDBRANCH   2   8
BRANCH   1  14
ATOM     14  C   UNL     1      17.858  -2.006   3.170  1.00  0.00     0.192 C 
ATOM     15  C   UNL     1      17.986  -3.228   4.040  1.00  0.00     0.096 C 
ATOM     16  O   UNL     1      17.534  -1.996   4.542  1.00  0.00    -0.362 OA
ATOM     17  C   UNL     1      16.849  -4.250   3.985  1.00  0.00     0.045 C 
BRANCH  15  18
ATOM     18  C   UNL     1      19.343  -3.687   4.626  1.00  0.00     0.042 C 
BRANCH  18  19
ATOM     19  C   UNL     1      19.763  -3.060   5.976  1.00  0.00     0.030 CG0
ATOM     20  G   UNL     1      21.105  -2.360   6.023  1.00  0.00     0.000 G0
ENDBRANCH  18  19
ENDBRANCH  15  18
ENDBRANCH   1  14
TORSDOF 0
ENDMDL
MODEL 9
REMARK VINA RESULT:    -3.382      2.842      5.039
REMARK INTER + INTRA:          -4.985
REMARK INTER:                  -4.589
REMARK INTRA:                  -0.395
REMARK UNBOUND:                -0.416
REMARK SMILES C=C1C(=O)O[C@H]2[C@H]1CCC(C)=CCC[C@@]1(C)O[C@@H]21
REMARK SMILES IDX 6 1 7 2 2 3 1 4 3 5 4 6 5 7 8 8 9 9 10 10 11 11 12 12 18 14
REMARK SMILES IDX 15 15 17 16 16 17 14 18 13 19
REMARK H PARENT
REMARK Flexibility Score: 70.00
ROOT
ATOM      1  C   UNL     1      18.813  -0.579   5.079  1.00  0.00     0.216 C 
ATOM      2  C   UNL     1      20.279  -0.641   5.651  1.00  0.00     0.070 C 
ATOM      3  C   UNL     1      20.226   0.269   6.842  1.00  0.00     0.037 C 
ATOM      4  C   UNL     1      21.200   0.453   7.734  1.00  0.00     0.021 C 
ATOM      5  C   UNL     1      18.910   0.845   6.909  1.00  0.00     0.334 C 
ATOM      6  O   UNL     1      18.513   1.672   7.772  1.00  0.00    -0.247 OA
ATOM      7  O   UNL     1      18.117   0.360   5.897  1.00  0.00    -0.455 OA
ENDROOT
BRANCH   2   8
ATOM      8  C   UNL     1      21.346  -0.142   4.642  1.00  0.00     0.017 C 
BRANCH   8   9
ATOM      9  C   UNL     1      22.196  -1.246   3.971  1.00  0.00     0.031 C 
BRANCH   9  10
ATOM     10  C   UNL     1      22.026  -1.314   2.464  1.00  0.00    -0.077 C 
ATOM     11  C   UNL     1      22.818  -0.360   1.604  1.00  0.00     0.039 C 
ATOM     12  C   UNL     1      21.168  -2.157   1.840  1.00  0.00    -0.028 CG0
ATOM     13  G   UNL     1      20.180  -3.098   2.498  1.00  0.00     0.000 G0
ENDBRANCH   9  10
ENDBRANCH   8   9
ENDBRANCH   2   8
BRANCH   1  14
ATOM     14  C   UNL     1      18.047  -1.928   5.147  1.00  0.00     0.192 C 
ATOM     15  C   UNL     1      18.030  -2.903   4.000  1.00  0.00     0.096 C 
ATOM     16  O   UNL     1      18.920  -3.033   5.079  1.00  0.00    -0.362 OA
ATOM     17  C   UNL     1      16.967  -4.001   4.028  1.00  0.00     0.045 C 
BRANCH  15  18
ATOM     18  C   UNL     1      18.721  -2.600   2.647  1.00  0.00     0.042 C 
BRANCH  18  19
ATOM     19  C   UNL     1      20.173  -3.106   2.482  1.00  0.00     0.030 CG0
ATOM     20  G   UNL     1      21.162  -2.162   1.831  1.00  0.00     0.000 G0
ENDBRANCH  18  19
ENDBRANCH  15  18
ENDBRANCH   1  14
TORSDOF 0
ENDMDL
