MODEL 1
REMARK VINA RESULT:    -5.076      0.000      0.000
REMARK INTER + INTRA:         -12.318
REMARK INTER:                  -9.230
REMARK INTRA:                  -3.088
REMARK UNBOUND:                -3.088
REMARK SMILES CCCCCCCCCCCCCC[C@@H](C)C(=O)[O-]
REMARK SMILES IDX 9 1 10 2 11 3 12 4 13 5 14 6 15 7 16 8 17 9 18 10 19 11 8 12
REMARK SMILES IDX 7 13 6 14 5 15 4 16 3 17 2 18 1 19
REMARK H PARENT
REMARK Flexibility Score: inf
ROOT
ATOM      1  C   UNL     1     -11.004  -6.848  14.099  1.00  0.00     0.000 C 
ENDROOT
BRANCH   1   2
ATOM      2  C   UNL     1      -9.926  -6.792  13.003  1.00  0.00     0.000 C 
BRANCH   2   3
ATOM      3  C   UNL     1     -10.214  -5.710  11.949  1.00  0.00     0.000 C 
BRANCH   3   4
ATOM      4  C   UNL     1     -11.423  -4.831  12.315  1.00  0.00     0.000 C 
BRANCH   4   5
ATOM      5  C   UNL     1     -11.024  -3.377  12.617  1.00  0.00     0.001 C 
BRANCH   5   6
ATOM      6  C   UNL     1     -11.365  -2.957  14.058  1.00  0.00     0.009 C 
BRANCH   6   7
ATOM      7  C   UNL     1     -12.648  -3.640  14.573  1.00  0.00     0.032 C 
ATOM      8  C   UNL     1     -12.711  -3.586  16.103  1.00  0.00     0.014 C 
BRANCH   7   9
ATOM      9  C   UNL     1     -13.880  -3.000  13.991  1.00  0.00     0.044 C 
ATOM     10  O   UNL     1     -14.025  -1.750  14.038  1.00  0.00    -0.550 OA
ATOM     11  O   UNL     1     -14.862  -3.782  13.395  1.00  0.00    -0.550 OA
ENDBRANCH   7   9
ENDBRANCH   6   7
ENDBRANCH   5   6
ENDBRANCH   4   5
ENDBRANCH   3   4
ENDBRANCH   2   3
ENDBRANCH   1   2
BRANCH   1  12
ATOM     12  C   UNL     1     -10.438  -6.603  15.510  1.00  0.00     0.000 C 
BRANCH  12  13
ATOM     13  C   UNL     1      -9.192  -5.700  15.565  1.00  0.00    -0.000 C 
BRANCH  13  14
ATOM     14  C   UNL     1      -9.268  -4.643  16.681  1.00  0.00    -0.000 C 
BRANCH  14  15
ATOM     15  C   UNL     1      -8.528  -3.345  16.321  1.00  0.00    -0.000 C 
BRANCH  15  16
ATOM     16  C   UNL     1      -7.385  -3.578  15.317  1.00  0.00    -0.000 C 
BRANCH  16  17
ATOM     17  C   UNL     1      -7.483  -2.673  14.076  1.00  0.00    -0.000 C 
BRANCH  17  18
ATOM     18  C   UNL     1      -7.211  -3.377  12.735  1.00  0.00    -0.003 C 
ATOM     19  C   UNL     1      -6.761  -4.829  12.901  1.00  0.00     0.004 C 
ENDBRANCH  17  18
ENDBRANCH  16  17
ENDBRANCH  15  16
ENDBRANCH  14  15
ENDBRANCH  13  14
ENDBRANCH  12  13
ENDBRANCH   1  12
TORSDOF 14
ENDMDL
MODEL 2
REMARK VINA RESULT:    -5.032      2.943      5.587
REMARK INTER + INTRA:         -12.238
REMARK INTER:                 -10.253
REMARK INTRA:                  -1.985
REMARK UNBOUND:                -3.088
REMARK SMILES CCCCCCCCCCCCCC[C@@H](C)C(=O)[O-]
REMARK SMILES IDX 9 1 10 2 11 3 12 4 13 5 14 6 15 7 16 8 17 9 18 10 19 11 8 12
REMARK SMILES IDX 7 13 6 14 5 15 4 16 3 17 2 18 1 19
REMARK H PARENT
REMARK Flexibility Score: inf
ROOT
ATOM      1  C   UNL     1     -14.341  -3.004  12.590  1.00  0.00     0.000 C 
ENDROOT
BRANCH   1   2
ATOM      2  C   UNL     1     -13.860  -2.482  13.954  1.00  0.00     0.000 C 
BRANCH   2   3
ATOM      3  C   UNL     1     -12.712  -3.324  14.535  1.00  0.00     0.000 C 
BRANCH   3   4
ATOM      4  C   UNL     1     -12.864  -3.572  16.047  1.00  0.00     0.000 C 
BRANCH   4   5
ATOM      5  C   UNL     1     -11.554  -3.339  16.816  1.00  0.00     0.001 C 
BRANCH   5   6
ATOM      6  C   UNL     1     -10.315  -3.390  15.903  1.00  0.00     0.009 C 
BRANCH   6   7
ATOM      7  C   UNL     1      -9.146  -4.155  16.556  1.00  0.00     0.032 C 
ATOM      8  C   UNL     1      -8.286  -4.838  15.488  1.00  0.00     0.014 C 
BRANCH   7   9
ATOM      9  C   UNL     1      -8.289  -3.239  17.389  1.00  0.00     0.044 C 
ATOM     10  O   UNL     1      -7.244  -2.735  16.900  1.00  0.00    -0.550 OA
ATOM     11  O   UNL     1      -8.647  -2.943  18.698  1.00  0.00    -0.550 OA
ENDBRANCH   7   9
ENDBRANCH   6   7
ENDBRANCH   5   6
ENDBRANCH   4   5
ENDBRANCH   3   4
ENDBRANCH   2   3
ENDBRANCH   1   2
BRANCH   1  12
ATOM     12  C   UNL     1     -13.702  -4.352  12.204  1.00  0.00     0.000 C 
BRANCH  12  13
ATOM     13  C   UNL     1     -13.330  -4.495  10.717  1.00  0.00    -0.000 C 
BRANCH  13  14
ATOM     14  C   UNL     1     -12.416  -5.703  10.442  1.00  0.00    -0.000 C 
BRANCH  14  15
ATOM     15  C   UNL     1     -11.024  -5.292   9.940  1.00  0.00    -0.000 C 
BRANCH  15  16
ATOM     16  C   UNL     1      -9.900  -5.726  10.898  1.00  0.00    -0.000 C 
BRANCH  16  17
ATOM     17  C   UNL     1     -10.273  -5.541  12.380  1.00  0.00    -0.000 C 
BRANCH  17  18
ATOM     18  C   UNL     1     -10.372  -6.845  13.193  1.00  0.00    -0.003 C 
ATOM     19  C   UNL     1     -11.336  -6.743  14.374  1.00  0.00     0.004 C 
ENDBRANCH  17  18
ENDBRANCH  16  17
ENDBRANCH  15  16
ENDBRANCH  14  15
ENDBRANCH  13  14
ENDBRANCH  12  13
ENDBRANCH   1  12
TORSDOF 14
ENDMDL
MODEL 3
REMARK VINA RESULT:    -5.023      2.834      4.852
REMARK INTER + INTRA:         -12.222
REMARK INTER:                  -9.402
REMARK INTRA:                  -2.820
REMARK UNBOUND:                -3.088
REMARK SMILES CCCCCCCCCCCCCC[C@@H](C)C(=O)[O-]
REMARK SMILES IDX 9 1 10 2 11 3 12 4 13 5 14 6 15 7 16 8 17 9 18 10 19 11 8 12
REMARK SMILES IDX 7 13 6 14 5 15 4 16 3 17 2 18 1 19
REMARK H PARENT
REMARK Flexibility Score: inf
ROOT
ATOM      1  C   UNL     1     -12.605  -5.384  11.672  1.00  0.00     0.000 C 
ENDROOT
BRANCH   1   2
ATOM      2  C   UNL     1     -11.368  -4.678  11.094  1.00  0.00     0.000 C 
BRANCH   2   3
ATOM      3  C   UNL     1     -10.391  -5.658  10.423  1.00  0.00     0.000 C 
BRANCH   3   4
ATOM      4  C   UNL     1      -9.137  -5.924  11.275  1.00  0.00     0.000 C 
BRANCH   4   5
ATOM      5  C   UNL     1      -8.960  -4.890  12.399  1.00  0.00     0.001 C 
BRANCH   5   6
ATOM      6  C   UNL     1      -7.491  -4.468  12.589  1.00  0.00     0.009 C 
BRANCH   6   7
ATOM      7  C   UNL     1      -7.358  -3.225  13.491  1.00  0.00     0.032 C 
ATOM      8  C   UNL     1      -8.684  -2.460  13.555  1.00  0.00     0.014 C 
BRANCH   7   9
ATOM      9  C   UNL     1      -6.921  -3.602  14.882  1.00  0.00     0.044 C 
ATOM     10  O   UNL     1      -6.590  -4.788  15.140  1.00  0.00    -0.550 OA
ATOM     11  O   UNL     1      -6.878  -2.643  15.887  1.00  0.00    -0.550 OA
ENDBRANCH   7   9
ENDBRANCH   6   7
ENDBRANCH   5   6
ENDBRANCH   4   5
ENDBRANCH   3   4
ENDBRANCH   2   3
ENDBRANCH   1   2
BRANCH   1  12
ATOM     12  C   UNL     1     -12.956  -4.912  13.096  1.00  0.00     0.000 C 
BRANCH  12  13
ATOM     13  C   UNL     1     -12.264  -3.609  13.539  1.00  0.00    -0.000 C 
BRANCH  13  14
ATOM     14  C   UNL     1     -12.427  -3.327  15.043  1.00  0.00    -0.000 C 
BRANCH  14  15
ATOM     15  C   UNL     1     -11.975  -4.506  15.920  1.00  0.00    -0.000 C 
BRANCH  15  16
ATOM     16  C   UNL     1     -10.443  -4.618  16.012  1.00  0.00    -0.000 C 
BRANCH  16  17
ATOM     17  C   UNL     1      -9.912  -5.982  15.534  1.00  0.00    -0.000 C 
BRANCH  17  18
ATOM     18  C   UNL     1     -10.996  -7.038  15.252  1.00  0.00    -0.003 C 
ATOM     19  C   UNL     1     -10.705  -7.876  14.007  1.00  0.00     0.004 C 
ENDBRANCH  17  18
ENDBRANCH  16  17
ENDBRANCH  15  16
ENDBRANCH  14  15
ENDBRANCH  13  14
ENDBRANCH  12  13
ENDBRANCH   1  12
TORSDOF 14
ENDMDL
MODEL 4
REMARK VINA RESULT:    -5.008      1.441      3.220
REMARK INTER + INTRA:         -12.195
REMARK INTER:                  -9.464
REMARK INTRA:                  -2.731
REMARK UNBOUND:                -3.088
REMARK SMILES CCCCCCCCCCCCCC[C@@H](C)C(=O)[O-]
REMARK SMILES IDX 9 1 10 2 11 3 12 4 13 5 14 6 15 7 16 8 17 9 18 10 19 11 8 12
REMARK SMILES IDX 7 13 6 14 5 15 4 16 3 17 2 18 1 19
REMARK H PARENT
REMARK Flexibility Score: inf
ROOT
ATOM      1  C   UNL     1     -10.986  -7.452  13.765  1.00  0.00     0.000 C 
ENDROOT
BRANCH   1   2
ATOM      2  C   UNL     1     -10.535  -6.882  15.120  1.00  0.00     0.000 C 
BRANCH   2   3
ATOM      3  C   UNL     1     -11.390  -5.685  15.569  1.00  0.00     0.000 C 
BRANCH   3   4
ATOM      4  C   UNL     1     -10.582  -4.379  15.660  1.00  0.00     0.000 C 
BRANCH   4   5
ATOM      5  C   UNL     1     -11.462  -3.130  15.486  1.00  0.00     0.001 C 
BRANCH   5   6
ATOM      6  C   UNL     1     -12.862  -3.464  14.940  1.00  0.00     0.009 C 
BRANCH   6   7
ATOM      7  C   UNL     1     -13.262  -2.544  13.769  1.00  0.00     0.032 C 
ATOM      8  C   UNL     1     -12.017  -1.995  13.065  1.00  0.00     0.014 C 
BRANCH   7   9
ATOM      9  C   UNL     1     -14.129  -3.269  12.774  1.00  0.00     0.044 C 
ATOM     10  O   UNL     1     -14.969  -4.119  13.171  1.00  0.00    -0.550 OA
ATOM     11  O   UNL     1     -14.011  -3.004  11.415  1.00  0.00    -0.550 OA
ENDBRANCH   7   9
ENDBRANCH   6   7
ENDBRANCH   5   6
ENDBRANCH   4   5
ENDBRANCH   3   4
ENDBRANCH   2   3
ENDBRANCH   1   2
BRANCH   1  12
ATOM     12  C   UNL     1     -12.230  -6.742  13.199  1.00  0.00     0.000 C 
BRANCH  12  13
ATOM     13  C   UNL     1     -12.005  -5.992  11.872  1.00  0.00    -0.000 C 
BRANCH  13  14
ATOM     14  C   UNL     1     -10.713  -5.156  11.870  1.00  0.00    -0.000 C 
BRANCH  14  15
ATOM     15  C   UNL     1      -9.618  -5.757  10.975  1.00  0.00    -0.000 C 
BRANCH  15  16
ATOM     16  C   UNL     1      -8.284  -5.941  11.720  1.00  0.00    -0.000 C 
BRANCH  16  17
ATOM     17  C   UNL     1      -8.122  -4.974  12.907  1.00  0.00    -0.000 C 
BRANCH  17  18
ATOM     18  C   UNL     1      -7.237  -3.746  12.630  1.00  0.00    -0.003 C 
ATOM     19  C   UNL     1      -7.810  -2.451  13.208  1.00  0.00     0.004 C 
ENDBRANCH  17  18
ENDBRANCH  16  17
ENDBRANCH  15  16
ENDBRANCH  14  15
ENDBRANCH  13  14
ENDBRANCH  12  13
ENDBRANCH   1  12
TORSDOF 14
ENDMDL
MODEL 5
REMARK VINA RESULT:    -4.988      2.241      3.586
REMARK INTER + INTRA:         -12.158
REMARK INTER:                  -9.580
REMARK INTRA:                  -2.578
REMARK UNBOUND:                -3.088
REMARK SMILES CCCCCCCCCCCCCC[C@@H](C)C(=O)[O-]
REMARK SMILES IDX 9 1 10 2 11 3 12 4 13 5 14 6 15 7 16 8 17 9 18 10 19 11 8 12
REMARK SMILES IDX 7 13 6 14 5 15 4 16 3 17 2 18 1 19
REMARK H PARENT
REMARK Flexibility Score: inf
ROOT
ATOM      1  C   UNL     1     -11.294  -3.770  15.640  1.00  0.00     0.000 C 
ENDROOT
BRANCH   1   2
ATOM      2  C   UNL     1     -11.782  -5.221  15.777  1.00  0.00     0.000 C 
BRANCH   2   3
ATOM      3  C   UNL     1     -10.732  -6.242  15.307  1.00  0.00     0.000 C 
BRANCH   3   4
ATOM      4  C   UNL     1     -11.035  -6.805  13.907  1.00  0.00     0.000 C 
BRANCH   4   5
ATOM      5  C   UNL     1     -10.024  -6.329  12.851  1.00  0.00     0.001 C 
BRANCH   5   6
ATOM      6  C   UNL     1     -10.465  -5.030  12.152  1.00  0.00     0.009 C 
BRANCH   6   7
ATOM      7  C   UNL     1     -11.891  -5.139  11.574  1.00  0.00     0.032 C 
ATOM      8  C   UNL     1     -12.689  -3.863  11.864  1.00  0.00     0.014 C 
BRANCH   7   9
ATOM      9  C   UNL     1     -11.862  -5.394  10.091  1.00  0.00     0.044 C 
ATOM     10  O   UNL     1     -10.804  -5.203   9.437  1.00  0.00    -0.550 OA
ATOM     11  O   UNL     1     -13.001  -5.845   9.434  1.00  0.00    -0.550 OA
ENDBRANCH   7   9
ENDBRANCH   6   7
ENDBRANCH   5   6
ENDBRANCH   4   5
ENDBRANCH   3   4
ENDBRANCH   2   3
ENDBRANCH   1   2
BRANCH   1  12
ATOM     12  C   UNL     1     -11.244  -3.023  16.986  1.00  0.00     0.000 C 
BRANCH  12  13
ATOM     13  C   UNL     1      -9.841  -2.566  17.426  1.00  0.00    -0.000 C 
BRANCH  13  14
ATOM     14  C   UNL     1      -8.748  -3.602  17.109  1.00  0.00    -0.000 C 
BRANCH  14  15
ATOM     15  C   UNL     1      -7.717  -3.085  16.093  1.00  0.00    -0.000 C 
BRANCH  15  16
ATOM     16  C   UNL     1      -7.805  -3.815  14.742  1.00  0.00    -0.000 C 
BRANCH  16  17
ATOM     17  C   UNL     1      -7.814  -2.852  13.540  1.00  0.00    -0.000 C 
BRANCH  17  18
ATOM     18  C   UNL     1      -8.572  -1.533  13.771  1.00  0.00    -0.003 C 
ATOM     19  C   UNL     1      -9.840  -1.414  12.924  1.00  0.00     0.004 C 
ENDBRANCH  17  18
ENDBRANCH  16  17
ENDBRANCH  15  16
ENDBRANCH  14  15
ENDBRANCH  13  14
ENDBRANCH  12  13
ENDBRANCH   1  12
TORSDOF 14
ENDMDL
MODEL 6
REMARK VINA RESULT:    -4.983      1.503      3.555
REMARK INTER + INTRA:         -12.149
REMARK INTER:                  -9.659
REMARK INTRA:                  -2.490
REMARK UNBOUND:                -3.088
REMARK SMILES CCCCCCCCCCCCCC[C@@H](C)C(=O)[O-]
REMARK SMILES IDX 9 1 10 2 11 3 12 4 13 5 14 6 15 7 16 8 17 9 18 10 19 11 8 12
REMARK SMILES IDX 7 13 6 14 5 15 4 16 3 17 2 18 1 19
REMARK H PARENT
REMARK Flexibility Score: inf
ROOT
ATOM      1  C   UNL     1      -9.333  -4.515  16.292  1.00  0.00     0.000 C 
ENDROOT
BRANCH   1   2
ATOM      2  C   UNL     1     -10.374  -3.576  15.660  1.00  0.00     0.000 C 
BRANCH   2   3
ATOM      3  C   UNL     1     -11.512  -3.219  16.632  1.00  0.00     0.000 C 
BRANCH   3   4
ATOM      4  C   UNL     1     -12.896  -3.631  16.101  1.00  0.00     0.000 C 
BRANCH   4   5
ATOM      5  C   UNL     1     -12.947  -3.679  14.565  1.00  0.00     0.001 C 
BRANCH   5   6
ATOM      6  C   UNL     1     -13.755  -2.515  13.963  1.00  0.00     0.009 C 
BRANCH   6   7
ATOM      7  C   UNL     1     -13.275  -2.150  12.544  1.00  0.00     0.032 C 
ATOM      8  C   UNL     1     -11.762  -2.353  12.418  1.00  0.00     0.014 C 
BRANCH   7   9
ATOM      9  C   UNL     1     -13.986  -2.967  11.498  1.00  0.00     0.044 C 
ATOM     10  O   UNL     1     -14.857  -2.432  10.763  1.00  0.00    -0.550 OA
ATOM     11  O   UNL     1     -13.685  -4.314  11.335  1.00  0.00    -0.550 OA
ENDBRANCH   7   9
ENDBRANCH   6   7
ENDBRANCH   5   6
ENDBRANCH   4   5
ENDBRANCH   3   4
ENDBRANCH   2   3
ENDBRANCH   1   2
BRANCH   1  12
ATOM     12  C   UNL     1      -9.421  -5.956  15.754  1.00  0.00     0.000 C 
BRANCH  12  13
ATOM     13  C   UNL     1     -10.776  -6.653  15.979  1.00  0.00    -0.000 C 
BRANCH  13  14
ATOM     14  C   UNL     1     -11.448  -7.090  14.666  1.00  0.00    -0.000 C 
BRANCH  14  15
ATOM     15  C   UNL     1     -10.494  -7.034  13.463  1.00  0.00    -0.000 C 
BRANCH  15  16
ATOM     16  C   UNL     1     -10.923  -5.988  12.418  1.00  0.00    -0.000 C 
BRANCH  16  17
ATOM     17  C   UNL     1      -9.776  -5.575  11.478  1.00  0.00    -0.000 C 
BRANCH  17  18
ATOM     18  C   UNL     1      -8.361  -5.806  12.039  1.00  0.00    -0.003 C 
ATOM     19  C   UNL     1      -7.745  -4.547  12.649  1.00  0.00     0.004 C 
ENDBRANCH  17  18
ENDBRANCH  16  17
ENDBRANCH  15  16
ENDBRANCH  14  15
ENDBRANCH  13  14
ENDBRANCH  12  13
ENDBRANCH   1  12
TORSDOF 14
ENDMDL
MODEL 7
REMARK VINA RESULT:    -4.967      2.818      5.598
REMARK INTER + INTRA:         -12.120
REMARK INTER:                  -9.677
REMARK INTRA:                  -2.443
REMARK UNBOUND:                -3.088
REMARK SMILES CCCCCCCCCCCCCC[C@@H](C)C(=O)[O-]
REMARK SMILES IDX 9 1 10 2 11 3 12 4 13 5 14 6 15 7 16 8 17 9 18 10 19 11 8 12
REMARK SMILES IDX 7 13 6 14 5 15 4 16 3 17 2 18 1 19
REMARK H PARENT
REMARK Flexibility Score: inf
ROOT
ATOM      1  C   UNL     1     -12.987  -3.829  16.112  1.00  0.00     0.000 C 
ENDROOT
BRANCH   1   2
ATOM      2  C   UNL     1     -11.477  -3.730  16.385  1.00  0.00     0.000 C 
BRANCH   2   3
ATOM      3  C   UNL     1     -11.138  -2.664  17.441  1.00  0.00     0.000 C 
BRANCH   3   4
ATOM      4  C   UNL     1      -9.655  -2.683  17.850  1.00  0.00     0.000 C 
BRANCH   4   5
ATOM      5  C   UNL     1      -8.848  -3.746  17.086  1.00  0.00     0.001 C 
BRANCH   5   6
ATOM      6  C   UNL     1      -7.877  -3.130  16.063  1.00  0.00     0.009 C 
BRANCH   6   7
ATOM      7  C   UNL     1      -8.330  -3.380  14.611  1.00  0.00     0.032 C 
ATOM      8  C   UNL     1      -8.763  -2.069  13.948  1.00  0.00     0.014 C 
BRANCH   7   9
ATOM      9  C   UNL     1      -7.237  -4.023  13.799  1.00  0.00     0.044 C 
ATOM     10  O   UNL     1      -7.054  -3.680  12.602  1.00  0.00    -0.550 OA
ATOM     11  O   UNL     1      -6.421  -4.995  14.367  1.00  0.00    -0.550 OA
ENDBRANCH   7   9
ENDBRANCH   6   7
ENDBRANCH   5   6
ENDBRANCH   4   5
ENDBRANCH   3   4
ENDBRANCH   2   3
ENDBRANCH   1   2
BRANCH   1  12
ATOM     12  C   UNL     1     -13.436  -2.981  14.908  1.00  0.00     0.000 C 
BRANCH  12  13
ATOM     13  C   UNL     1     -12.724  -3.305  13.581  1.00  0.00    -0.000 C 
BRANCH  13  14
ATOM     14  C   UNL     1     -13.413  -4.434  12.793  1.00  0.00    -0.000 C 
BRANCH  14  15
ATOM     15  C   UNL     1     -12.445  -5.562  12.403  1.00  0.00    -0.000 C 
BRANCH  15  16
ATOM     16  C   UNL     1     -11.025  -5.333  12.950  1.00  0.00    -0.000 C 
BRANCH  16  17
ATOM     17  C   UNL     1     -10.358  -6.630  13.446  1.00  0.00    -0.000 C 
BRANCH  17  18
ATOM     18  C   UNL     1     -10.251  -6.761  14.976  1.00  0.00    -0.003 C 
ATOM     19  C   UNL     1     -11.520  -7.321  15.619  1.00  0.00     0.004 C 
ENDBRANCH  17  18
ENDBRANCH  16  17
ENDBRANCH  15  16
ENDBRANCH  14  15
ENDBRANCH  13  14
ENDBRANCH  12  13
ENDBRANCH   1  12
TORSDOF 14
ENDMDL
MODEL 8
REMARK VINA RESULT:    -4.925      1.990      4.641
REMARK INTER + INTRA:         -12.044
REMARK INTER:                  -9.720
REMARK INTRA:                  -2.323
REMARK UNBOUND:                -3.088
REMARK SMILES CCCCCCCCCCCCCC[C@@H](C)C(=O)[O-]
REMARK SMILES IDX 9 1 10 2 11 3 12 4 13 5 14 6 15 7 16 8 17 9 18 10 19 11 8 12
REMARK SMILES IDX 7 13 6 14 5 15 4 16 3 17 2 18 1 19
REMARK H PARENT
REMARK Flexibility Score: inf
ROOT
ATOM      1  C   UNL     1     -12.814  -3.697  16.254  1.00  0.00     0.000 C 
ENDROOT
BRANCH   1   2
ATOM      2  C   UNL     1     -11.504  -3.326  16.969  1.00  0.00     0.000 C 
BRANCH   2   3
ATOM      3  C   UNL     1     -10.332  -3.139  15.991  1.00  0.00     0.000 C 
BRANCH   3   4
ATOM      4  C   UNL     1      -9.171  -4.112  16.263  1.00  0.00     0.000 C 
BRANCH   4   5
ATOM      5  C   UNL     1      -8.758  -4.900  15.009  1.00  0.00     0.001 C 
BRANCH   5   6
ATOM      6  C   UNL     1      -9.937  -5.660  14.374  1.00  0.00     0.009 C 
BRANCH   6   7
ATOM      7  C   UNL     1     -10.139  -5.282  12.893  1.00  0.00     0.032 C 
ATOM      8  C   UNL     1      -8.994  -5.828  12.035  1.00  0.00     0.014 C 
BRANCH   7   9
ATOM      9  C   UNL     1     -11.455  -5.796  12.371  1.00  0.00     0.044 C 
ATOM     10  O   UNL     1     -11.935  -5.334  11.303  1.00  0.00    -0.550 OA
ATOM     11  O   UNL     1     -12.144  -6.786  13.062  1.00  0.00    -0.550 OA
ENDBRANCH   7   9
ENDBRANCH   6   7
ENDBRANCH   5   6
ENDBRANCH   4   5
ENDBRANCH   3   4
ENDBRANCH   2   3
ENDBRANCH   1   2
BRANCH   1  12
ATOM     12  C   UNL     1     -12.792  -3.366  14.750  1.00  0.00     0.000 C 
BRANCH  12  13
ATOM     13  C   UNL     1     -14.009  -2.573  14.239  1.00  0.00    -0.000 C 
BRANCH  13  14
ATOM     14  C   UNL     1     -13.633  -1.513  13.188  1.00  0.00    -0.000 C 
BRANCH  14  15
ATOM     15  C   UNL     1     -12.532  -1.993  12.228  1.00  0.00    -0.000 C 
BRANCH  15  16
ATOM     16  C   UNL     1     -11.309  -1.060  12.222  1.00  0.00    -0.000 C 
BRANCH  16  17
ATOM     17  C   UNL     1     -10.025  -1.752  12.714  1.00  0.00    -0.000 C 
BRANCH  17  18
ATOM     18  C   UNL     1      -8.948  -0.805  13.272  1.00  0.00    -0.003 C 
ATOM     19  C   UNL     1      -7.643  -1.520  13.621  1.00  0.00     0.004 C 
ENDBRANCH  17  18
ENDBRANCH  16  17
ENDBRANCH  15  16
ENDBRANCH  14  15
ENDBRANCH  13  14
ENDBRANCH  12  13
ENDBRANCH   1  12
TORSDOF 14
ENDMDL
MODEL 9
REMARK VINA RESULT:    -4.917      2.485      5.071
REMARK INTER + INTRA:         -12.028
REMARK INTER:                  -9.887
REMARK INTRA:                  -2.142
REMARK UNBOUND:                -3.088
REMARK SMILES CCCCCCCCCCCCCC[C@@H](C)C(=O)[O-]
REMARK SMILES IDX 9 1 10 2 11 3 12 4 13 5 14 6 15 7 16 8 17 9 18 10 19 11 8 12
REMARK SMILES IDX 7 13 6 14 5 15 4 16 3 17 2 18 1 19
REMARK H PARENT
REMARK Flexibility Score: inf
ROOT
ATOM      1  C   UNL     1      -9.183  -5.976  11.381  1.00  0.00     0.000 C 
ENDROOT
BRANCH   1   2
ATOM      2  C   UNL     1      -9.538  -5.698  12.851  1.00  0.00     0.000 C 
BRANCH   2   3
ATOM      3  C   UNL     1     -10.247  -6.888  13.520  1.00  0.00     0.000 C 
BRANCH   3   4
ATOM      4  C   UNL     1     -10.392  -6.713  15.043  1.00  0.00     0.000 C 
BRANCH   4   5
ATOM      5  C   UNL     1     -10.343  -5.238  15.473  1.00  0.00     0.001 C 
BRANCH   5   6
ATOM      6  C   UNL     1      -9.067  -4.894  16.261  1.00  0.00     0.009 C 
BRANCH   6   7
ATOM      7  C   UNL     1      -8.859  -3.371  16.391  1.00  0.00     0.032 C 
ATOM      8  C   UNL     1      -9.491  -2.638  15.203  1.00  0.00     0.014 C 
BRANCH   7   9
ATOM      9  C   UNL     1      -9.437  -2.847  17.678  1.00  0.00     0.044 C 
ATOM     10  O   UNL     1     -10.621  -2.420  17.711  1.00  0.00    -0.550 OA
ATOM     11  O   UNL     1      -8.671  -2.834  18.838  1.00  0.00    -0.550 OA
ENDBRANCH   7   9
ENDBRANCH   6   7
ENDBRANCH   5   6
ENDBRANCH   4   5
ENDBRANCH   3   4
ENDBRANCH   2   3
ENDBRANCH   1   2
BRANCH   1  12
ATOM     12  C   UNL     1     -10.327  -5.625  10.411  1.00  0.00     0.000 C 
BRANCH  12  13
ATOM     13  C   UNL     1     -11.313  -4.559  10.924  1.00  0.00    -0.000 C 
BRANCH  13  14
ATOM     14  C   UNL     1     -12.724  -5.122  11.174  1.00  0.00    -0.000 C 
BRANCH  14  15
ATOM     15  C   UNL     1     -13.266  -4.767  12.568  1.00  0.00    -0.000 C 
BRANCH  15  16
ATOM     16  C   UNL     1     -12.541  -3.560  13.191  1.00  0.00    -0.000 C 
BRANCH  16  17
ATOM     17  C   UNL     1     -13.379  -2.269  13.144  1.00  0.00    -0.000 C 
BRANCH  17  18
ATOM     18  C   UNL     1     -12.904  -1.223  12.119  1.00  0.00    -0.003 C 
ATOM     19  C   UNL     1     -11.393  -0.989  12.159  1.00  0.00     0.004 C 
ENDBRANCH  17  18
ENDBRANCH  16  17
ENDBRANCH  15  16
ENDBRANCH  14  15
ENDBRANCH  13  14
ENDBRANCH  12  13
ENDBRANCH   1  12
TORSDOF 14
ENDMDL
