MODEL 1
REMARK VINA RESULT:    -6.090      0.000      0.000
REMARK INTER + INTRA:          -6.268
REMARK INTER:                  -6.268
REMARK INTRA:                   0.000
REMARK UNBOUND:                 0.000
REMARK SMILES C=C1CCC[C@]2(C)C[C@]3(O)OC(=O)C(C)=C3C[C@H]12
REMARK SMILES IDX 15 1 14 2 16 3 17 4 18 5 2 6 1 7 3 8 4 9 5 10 6 11 8 12 9 13
REMARK SMILES IDX 11 14 12 15 13 16 7 17 10 18
REMARK H PARENT 10 19
REMARK Flexibility Score: inf
ROOT
ATOM      1  C   UNL     1     -16.094  50.187  10.232  1.00  0.00     0.052 C 
ATOM      2  C   UNL     1     -16.851  49.496   9.139  1.00  0.00     0.040 C 
ATOM      3  C   UNL     1     -18.129  49.665   8.794  1.00  0.00     0.012 C 
ATOM      4  C   UNL     1     -19.151  50.535   9.463  1.00  0.00     0.047 C 
ATOM      5  C   UNL     1     -20.459  49.736   9.745  1.00  0.00     0.025 C 
ATOM      6  C   UNL     1     -20.474  48.909  11.035  1.00  0.00    -0.073 C 
ATOM      7  C   UNL     1     -19.406  48.729  11.831  1.00  0.00     0.008 C 
ATOM      8  C   UNL     1     -21.769  48.224  11.414  1.00  0.00     0.031 C 
ATOM      9  C   UNL     1     -22.787  48.265  10.267  1.00  0.00     0.005 C 
ATOM     10  C   UNL     1     -22.111  47.875   8.947  1.00  0.00     0.008 C 
ATOM     11  C   UNL     1     -20.946  48.853   8.528  1.00  0.00    -0.019 C 
ATOM     12  C   UNL     1     -19.767  47.979   7.980  1.00  0.00     0.092 C 
ATOM     13  C   UNL     1     -18.497  48.778   7.639  1.00  0.00     0.235 C 
ATOM     14  O   UNL     1     -17.355  47.934   7.500  1.00  0.00    -0.426 OA
ATOM     15  C   UNL     1     -16.362  48.389   8.347  1.00  0.00     0.336 C 
ATOM     16  O   UNL     1     -15.214  47.879   8.424  1.00  0.00    -0.246 OA
ATOM     17  C   UNL     1     -21.497  49.778   7.414  1.00  0.00     0.012 C 
ENDROOT
BRANCH  13  18
ATOM     18  O   UNL     1     -18.657  49.549   6.478  1.00  0.00    -0.353 OA
ATOM     19  H   UNL     1     -18.875  50.472   6.773  1.00  0.00     0.215 HD
ENDBRANCH  13  18
TORSDOF 1
ENDMDL
MODEL 2
REMARK VINA RESULT:    -5.916      1.825      2.174
REMARK INTER + INTRA:          -6.089
REMARK INTER:                  -6.089
REMARK INTRA:                   0.000
REMARK UNBOUND:                 0.000
REMARK SMILES C=C1CCC[C@]2(C)C[C@]3(O)OC(=O)C(C)=C3C[C@H]12
REMARK SMILES IDX 15 1 14 2 16 3 17 4 18 5 2 6 1 7 3 8 4 9 5 10 6 11 8 12 9 13
REMARK SMILES IDX 11 14 12 15 13 16 7 17 10 18
REMARK H PARENT 10 19
REMARK Flexibility Score: inf
ROOT
ATOM      1  C   UNL     1     -18.297  53.533   9.777  1.00  0.00     0.052 C 
ATOM      2  C   UNL     1     -18.225  52.212   9.076  1.00  0.00     0.040 C 
ATOM      3  C   UNL     1     -19.235  51.478   8.603  1.00  0.00     0.012 C 
ATOM      4  C   UNL     1     -20.704  51.756   8.722  1.00  0.00     0.047 C 
ATOM      5  C   UNL     1     -21.465  50.502   9.248  1.00  0.00     0.025 C 
ATOM      6  C   UNL     1     -21.483  50.320  10.769  1.00  0.00    -0.073 C 
ATOM      7  C   UNL     1     -20.783  51.077  11.631  1.00  0.00     0.008 C 
ATOM      8  C   UNL     1     -22.320  49.190  11.330  1.00  0.00     0.031 C 
ATOM      9  C   UNL     1     -22.801  48.240  10.225  1.00  0.00     0.005 C 
ATOM     10  C   UNL     1     -21.639  47.895   9.284  1.00  0.00     0.008 C 
ATOM     11  C   UNL     1     -21.038  49.152   8.545  1.00  0.00    -0.019 C 
ATOM     12  C   UNL     1     -19.479  49.002   8.545  1.00  0.00     0.092 C 
ATOM     13  C   UNL     1     -18.731  50.215   7.964  1.00  0.00     0.235 C 
ATOM     14  O   UNL     1     -17.346  50.206   8.310  1.00  0.00    -0.426 OA
ATOM     15  C   UNL     1     -17.034  51.406   8.919  1.00  0.00     0.336 C 
ATOM     16  O   UNL     1     -15.877  51.721   9.303  1.00  0.00    -0.246 OA
ATOM     17  C   UNL     1     -21.583  49.139   7.093  1.00  0.00     0.012 C 
ENDROOT
BRANCH  13  18
ATOM     18  O   UNL     1     -18.867  50.299   6.570  1.00  0.00    -0.353 OA
ATOM     19  H   UNL     1     -17.989  50.592   6.213  1.00  0.00     0.215 HD
ENDBRANCH  13  18
TORSDOF 1
ENDMDL
MODEL 3
REMARK VINA RESULT:    -5.798      1.926      2.913
REMARK INTER + INTRA:          -5.968
REMARK INTER:                  -5.968
REMARK INTRA:                   0.000
REMARK UNBOUND:                 0.000
REMARK SMILES C=C1CCC[C@]2(C)C[C@]3(O)OC(=O)C(C)=C3C[C@H]12
REMARK SMILES IDX 15 1 14 2 16 3 17 4 18 5 2 6 1 7 3 8 4 9 5 10 6 11 8 12 9 13
REMARK SMILES IDX 11 14 12 15 13 16 7 17 10 18
REMARK H PARENT 10 19
REMARK Flexibility Score: inf
ROOT
ATOM      1  C   UNL     1     -17.251  50.856   7.770  1.00  0.00     0.052 C 
ATOM      2  C   UNL     1     -18.675  50.392   7.789  1.00  0.00     0.040 C 
ATOM      3  C   UNL     1     -19.550  50.469   8.795  1.00  0.00     0.012 C 
ATOM      4  C   UNL     1     -19.304  50.972  10.186  1.00  0.00     0.047 C 
ATOM      5  C   UNL     1     -19.823  49.953  11.244  1.00  0.00     0.025 C 
ATOM      6  C   UNL     1     -18.866  48.811  11.601  1.00  0.00    -0.073 C 
ATOM      7  C   UNL     1     -17.705  48.571  10.968  1.00  0.00     0.008 C 
ATOM      8  C   UNL     1     -19.277  47.875  12.718  1.00  0.00     0.031 C 
ATOM      9  C   UNL     1     -20.741  48.086  13.123  1.00  0.00     0.005 C 
ATOM     10  C   UNL     1     -21.627  48.170  11.873  1.00  0.00     0.008 C 
ATOM     11  C   UNL     1     -21.261  49.377  10.926  1.00  0.00    -0.019 C 
ATOM     12  C   UNL     1     -21.329  48.858   9.449  1.00  0.00     0.092 C 
ATOM     13  C   UNL     1     -20.878  49.889   8.400  1.00  0.00     0.235 C 
ATOM     14  O   UNL     1     -20.605  49.282   7.137  1.00  0.00    -0.426 OA
ATOM     15  C   UNL     1     -19.323  49.622   6.750  1.00  0.00     0.336 C 
ATOM     16  O   UNL     1     -18.802  49.275   5.658  1.00  0.00    -0.246 OA
ATOM     17  C   UNL     1     -22.319  50.485  11.160  1.00  0.00     0.012 C 
ENDROOT
BRANCH  13  18
ATOM     18  O   UNL     1     -21.817  50.918   8.235  1.00  0.00    -0.353 OA
ATOM     19  H   UNL     1     -22.408  50.898   9.033  1.00  0.00     0.215 HD
ENDBRANCH  13  18
TORSDOF 1
ENDMDL
MODEL 4
REMARK VINA RESULT:    -5.790      2.132      3.590
REMARK INTER + INTRA:          -5.959
REMARK INTER:                  -5.959
REMARK INTRA:                   0.000
REMARK UNBOUND:                 0.000
REMARK SMILES C=C1CCC[C@]2(C)C[C@]3(O)OC(=O)C(C)=C3C[C@H]12
REMARK SMILES IDX 15 1 14 2 16 3 17 4 18 5 2 6 1 7 3 8 4 9 5 10 6 11 8 12 9 13
REMARK SMILES IDX 11 14 12 15 13 16 7 17 10 18
REMARK H PARENT 10 19
REMARK Flexibility Score: inf
ROOT
ATOM      1  C   UNL     1     -17.679  49.468   7.419  1.00  0.00     0.052 C 
ATOM      2  C   UNL     1     -17.899  49.943   8.822  1.00  0.00     0.040 C 
ATOM      3  C   UNL     1     -18.433  49.269   9.842  1.00  0.00     0.012 C 
ATOM      4  C   UNL     1     -19.019  47.889   9.821  1.00  0.00     0.047 C 
ATOM      5  C   UNL     1     -20.430  47.875  10.484  1.00  0.00     0.025 C 
ATOM      6  C   UNL     1     -21.599  48.271   9.578  1.00  0.00    -0.073 C 
ATOM      7  C   UNL     1     -21.462  48.751   8.330  1.00  0.00     0.008 C 
ATOM      8  C   UNL     1     -22.998  48.146  10.143  1.00  0.00     0.031 C 
ATOM      9  C   UNL     1     -22.976  47.888  11.655  1.00  0.00     0.005 C 
ATOM     10  C   UNL     1     -21.993  48.847  12.339  1.00  0.00     0.008 C 
ATOM     11  C   UNL     1     -20.504  48.672  11.847  1.00  0.00    -0.019 C 
ATOM     12  C   UNL     1     -19.889  50.103  11.680  1.00  0.00     0.092 C 
ATOM     13  C   UNL     1     -18.469  50.111  11.086  1.00  0.00     0.235 C 
ATOM     14  O   UNL     1     -18.095  51.405  10.614  1.00  0.00    -0.426 OA
ATOM     15  C   UNL     1     -17.706  51.298   9.291  1.00  0.00     0.336 C 
ATOM     16  O   UNL     1     -17.278  52.261   8.604  1.00  0.00    -0.246 OA
ATOM     17  C   UNL     1     -19.746  47.881  12.943  1.00  0.00     0.012 C 
ENDROOT
BRANCH  13  18
ATOM     18  O   UNL     1     -17.513  49.649  12.002  1.00  0.00    -0.353 OA
ATOM     19  H   UNL     1     -16.679  49.484  11.489  1.00  0.00     0.215 HD
ENDBRANCH  13  18
TORSDOF 1
ENDMDL
MODEL 5
REMARK VINA RESULT:    -5.779      2.704      4.826
REMARK INTER + INTRA:          -5.948
REMARK INTER:                  -5.948
REMARK INTRA:                   0.000
REMARK UNBOUND:                 0.000
REMARK SMILES C=C1CCC[C@]2(C)C[C@]3(O)OC(=O)C(C)=C3C[C@H]12
REMARK SMILES IDX 15 1 14 2 16 3 17 4 18 5 2 6 1 7 3 8 4 9 5 10 6 11 8 12 9 13
REMARK SMILES IDX 11 14 12 15 13 16 7 17 10 18
REMARK H PARENT 10 19
REMARK Flexibility Score: inf
ROOT
ATOM      1  C   UNL     1     -22.997  49.266  11.312  1.00  0.00     0.052 C 
ATOM      2  C   UNL     1     -21.513  49.453  11.390  1.00  0.00     0.040 C 
ATOM      3  C   UNL     1     -20.737  50.193  10.594  1.00  0.00     0.012 C 
ATOM      4  C   UNL     1     -21.146  50.963   9.375  1.00  0.00     0.047 C 
ATOM      5  C   UNL     1     -20.211  50.634   8.172  1.00  0.00     0.025 C 
ATOM      6  C   UNL     1     -20.568  49.379   7.369  1.00  0.00    -0.073 C 
ATOM      7  C   UNL     1     -21.523  48.501   7.722  1.00  0.00     0.008 C 
ATOM      8  C   UNL     1     -19.766  49.096   6.117  1.00  0.00     0.031 C 
ATOM      9  C   UNL     1     -18.531  49.999   6.020  1.00  0.00     0.005 C 
ATOM     10  C   UNL     1     -17.797  50.037   7.367  1.00  0.00     0.008 C 
ATOM     11  C   UNL     1     -18.673  50.624   8.540  1.00  0.00    -0.019 C 
ATOM     12  C   UNL     1     -18.419  49.741   9.809  1.00  0.00     0.092 C 
ATOM     13  C   UNL     1     -19.298  50.110  11.017  1.00  0.00     0.235 C 
ATOM     14  O   UNL     1     -19.308  49.081  12.006  1.00  0.00    -0.426 OA
ATOM     15  C   UNL     1     -20.619  48.729  12.266  1.00  0.00     0.336 C 
ATOM     16  O   UNL     1     -20.961  47.875  13.125  1.00  0.00    -0.246 OA
ATOM     17  C   UNL     1     -18.198  52.079   8.788  1.00  0.00     0.012 C 
ENDROOT
BRANCH  13  18
ATOM     18  O   UNL     1     -18.903  51.322  11.604  1.00  0.00    -0.353 OA
ATOM     19  H   UNL     1     -17.977  51.502  11.296  1.00  0.00     0.215 HD
ENDBRANCH  13  18
TORSDOF 1
ENDMDL
MODEL 6
REMARK VINA RESULT:    -5.731      2.011      2.567
REMARK INTER + INTRA:          -5.899
REMARK INTER:                  -5.899
REMARK INTRA:                   0.000
REMARK UNBOUND:                 0.000
REMARK SMILES C=C1CCC[C@]2(C)C[C@]3(O)OC(=O)C(C)=C3C[C@H]12
REMARK SMILES IDX 15 1 14 2 16 3 17 4 18 5 2 6 1 7 3 8 4 9 5 10 6 11 8 12 9 13
REMARK SMILES IDX 11 14 12 15 13 16 7 17 10 18
REMARK H PARENT 10 19
REMARK Flexibility Score: inf
ROOT
ATOM      1  C   UNL     1     -15.581  51.139  10.876  1.00  0.00     0.052 C 
ATOM      2  C   UNL     1     -15.932  50.043   9.916  1.00  0.00     0.040 C 
ATOM      3  C   UNL     1     -16.662  50.131   8.802  1.00  0.00     0.012 C 
ATOM      4  C   UNL     1     -17.379  51.336   8.270  1.00  0.00     0.047 C 
ATOM      5  C   UNL     1     -18.858  50.990   7.921  1.00  0.00     0.025 C 
ATOM      6  C   UNL     1     -19.852  51.043   9.085  1.00  0.00    -0.073 C 
ATOM      7  C   UNL     1     -19.504  51.224  10.370  1.00  0.00     0.008 C 
ATOM      8  C   UNL     1     -21.318  50.843   8.765  1.00  0.00     0.031 C 
ATOM      9  C   UNL     1     -21.521  50.345   7.329  1.00  0.00     0.005 C 
ATOM     10  C   UNL     1     -20.542  49.204   7.023  1.00  0.00     0.008 C 
ATOM     11  C   UNL     1     -19.028  49.635   7.123  1.00  0.00    -0.019 C 
ATOM     12  C   UNL     1     -18.251  48.478   7.838  1.00  0.00     0.092 C 
ATOM     13  C   UNL     1     -16.773  48.796   8.124  1.00  0.00     0.235 C 
ATOM     14  O   UNL     1     -16.208  47.897   9.078  1.00  0.00    -0.426 OA
ATOM     15  C   UNL     1     -15.663  48.636  10.112  1.00  0.00     0.336 C 
ATOM     16  O   UNL     1     -15.052  48.132  11.090  1.00  0.00    -0.246 OA
ATOM     17  C   UNL     1     -18.505  49.826   5.676  1.00  0.00     0.012 C 
ENDROOT
BRANCH  13  18
ATOM     18  O   UNL     1     -15.998  48.789   6.955  1.00  0.00    -0.353 OA
ATOM     19  H   UNL     1     -15.592  49.691   6.873  1.00  0.00     0.215 HD
ENDBRANCH  13  18
TORSDOF 1
ENDMDL
MODEL 7
REMARK VINA RESULT:    -5.673      2.311      3.677
REMARK INTER + INTRA:          -5.838
REMARK INTER:                  -5.838
REMARK INTRA:                   0.000
REMARK UNBOUND:                 0.000
REMARK SMILES C=C1CCC[C@]2(C)C[C@]3(O)OC(=O)C(C)=C3C[C@H]12
REMARK SMILES IDX 15 1 14 2 16 3 17 4 18 5 2 6 1 7 3 8 4 9 5 10 6 11 8 12 9 13
REMARK SMILES IDX 11 14 12 15 13 16 7 17 10 18
REMARK H PARENT 10 19
REMARK Flexibility Score: inf
ROOT
ATOM      1  C   UNL     1     -20.421  51.625   6.378  1.00  0.00     0.052 C 
ATOM      2  C   UNL     1     -20.540  50.263   6.988  1.00  0.00     0.040 C 
ATOM      3  C   UNL     1     -21.091  49.933   8.159  1.00  0.00     0.012 C 
ATOM      4  C   UNL     1     -21.663  50.856   9.193  1.00  0.00     0.047 C 
ATOM      5  C   UNL     1     -21.085  50.533  10.604  1.00  0.00     0.025 C 
ATOM      6  C   UNL     1     -19.733  51.171  10.936  1.00  0.00    -0.073 C 
ATOM      7  C   UNL     1     -18.980  51.851  10.055  1.00  0.00     0.008 C 
ATOM      8  C   UNL     1     -19.198  50.991  12.341  1.00  0.00     0.031 C 
ATOM      9  C   UNL     1     -20.006  49.948  13.124  1.00  0.00     0.005 C 
ATOM     10  C   UNL     1     -20.234  48.700  12.260  1.00  0.00     0.008 C 
ATOM     11  C   UNL     1     -21.057  48.990  10.946  1.00  0.00    -0.019 C 
ATOM     12  C   UNL     1     -20.391  48.182   9.781  1.00  0.00     0.092 C 
ATOM     13  C   UNL     1     -21.006  48.453   8.397  1.00  0.00     0.235 C 
ATOM     14  O   UNL     1     -20.162  48.001   7.339  1.00  0.00    -0.426 OA
ATOM     15  C   UNL     1     -19.929  49.055   6.477  1.00  0.00     0.336 C 
ATOM     16  O   UNL     1     -19.253  48.964   5.419  1.00  0.00    -0.246 OA
ATOM     17  C   UNL     1     -22.505  48.494  11.190  1.00  0.00     0.012 C 
ENDROOT
BRANCH  13  18
ATOM     18  O   UNL     1     -22.277  47.875   8.265  1.00  0.00    -0.353 OA
ATOM     19  H   UNL     1     -22.550  47.569   9.169  1.00  0.00     0.215 HD
ENDBRANCH  13  18
TORSDOF 1
ENDMDL
