MODEL 1
REMARK VINA RESULT:    -1.552      0.000      0.000
REMARK INTER + INTRA:           4.945
REMARK INTER:                  -2.188
REMARK INTRA:                   7.133
REMARK UNBOUND:                 7.133
REMARK SMILES CC1=CCC(=C(C)C)C(=O)CC(C)=CCC1
REMARK SMILES IDX 12 1 14 2 13 3 15 4 16 5 2 6 1 7 3 8 11 10 9 11 10 12 5 13
REMARK SMILES IDX 6 14 7 15 8 16 4 17
REMARK H PARENT
REMARK Flexibility Score: 60.00
ROOT
ATOM      1  C   UNL     1      -4.420  -4.301 -17.389  1.00  0.00    -0.070 C 
ATOM      2  C   UNL     1      -3.479  -3.632 -18.100  1.00  0.00    -0.027 C 
ATOM      3  C   UNL     1      -5.856  -4.175 -17.830  1.00  0.00     0.039 C 
ENDROOT
BRANCH   2   4
ATOM      4  C   UNL     1      -1.997  -3.660 -17.819  1.00  0.00     0.032 C 
BRANCH   4   5
ATOM      5  C   UNL     1      -1.636  -4.810 -16.863  1.00  0.00     0.034 C 
BRANCH   5   6
ATOM      6  C   UNL     1      -1.851  -4.467 -15.402  1.00  0.00    -0.077 C 
ATOM      7  C   UNL     1      -1.879  -3.014 -14.998  1.00  0.00     0.039 C 
ATOM      8  C   UNL     1      -1.937  -5.394 -14.416  1.00  0.00    -0.023 CG0
ATOM      9  G   UNL     1      -2.036  -6.896 -14.585  1.00  0.00     0.000 G0
ENDBRANCH   5   6
ENDBRANCH   4   5
ENDBRANCH   2   4
BRANCH   1  10
ATOM     10  C   UNL     1      -4.096  -5.157 -16.173  1.00  0.00     0.111 C 
BRANCH  10  11
ATOM     11  C   UNL     1      -3.725  -6.567 -16.568  1.00  0.00     0.163 C 
ATOM     12  O   UNL     1      -4.412  -7.095 -17.486  1.00  0.00    -0.294 OA
BRANCH  11  13
ATOM     13  C   UNL     1      -2.593  -7.344 -15.949  1.00  0.00    -0.002 C 
ATOM     14  C   UNL     1      -2.061  -8.443 -16.574  1.00  0.00    -0.069 C 
ATOM     15  C   UNL     1      -0.877  -9.189 -15.995  1.00  0.00     0.039 C 
ATOM     16  C   UNL     1      -2.655  -9.008 -17.846  1.00  0.00     0.039 C 
BRANCH  13  17
ATOM     17  C   UNL     1      -2.026  -6.891 -14.606  1.00  0.00     0.066 CG0
ATOM     18  G   UNL     1      -1.957  -5.388 -14.428  1.00  0.00     0.000 G0
ENDBRANCH  13  17
ENDBRANCH  11  13
ENDBRANCH  10  11
ENDBRANCH   1  10
TORSDOF 0
ENDMDL
MODEL 2
REMARK VINA RESULT:    -0.900      1.466      3.197
REMARK INTER + INTRA:           5.865
REMARK INTER:                   3.364
REMARK INTRA:                   2.500
REMARK UNBOUND:                 7.133
REMARK SMILES CC1=CCC(=C(C)C)C(=O)CC(C)=CCC1
REMARK SMILES IDX 12 1 14 2 13 3 15 4 16 5 2 6 1 7 3 8 11 10 9 11 10 12 5 13
REMARK SMILES IDX 6 14 7 15 8 16 4 17
REMARK H PARENT
REMARK Flexibility Score: 60.00
ROOT
ATOM      1  C   UNL     1      -4.720  -4.237 -17.179  1.00  0.00    -0.070 C 
ATOM      2  C   UNL     1      -4.001  -4.889 -18.125  1.00  0.00    -0.027 C 
ATOM      3  C   UNL     1      -5.906  -3.423 -17.633  1.00  0.00     0.039 C 
ENDROOT
BRANCH   2   4
ATOM      4  C   UNL     1      -2.802  -5.764 -17.853  1.00  0.00     0.032 C 
BRANCH   4   5
ATOM      5  C   UNL     1      -3.232  -7.197 -17.495  1.00  0.00     0.034 C 
BRANCH   5   6
ATOM      6  C   UNL     1      -2.094  -8.055 -16.980  1.00  0.00    -0.077 C 
ATOM      7  C   UNL     1      -1.164  -8.698 -17.979  1.00  0.00     0.039 C 
ATOM      8  C   UNL     1      -1.906  -8.350 -15.669  1.00  0.00    -0.023 CG0
ATOM      9  G   UNL     1      -2.639  -7.748 -14.488  1.00  0.00     0.000 G0
ENDBRANCH   5   6
ENDBRANCH   4   5
ENDBRANCH   2   4
BRANCH   1  10
ATOM     10  C   UNL     1      -4.383  -4.280 -15.695  1.00  0.00     0.111 C 
BRANCH  10  11
ATOM     11  C   UNL     1      -4.281  -5.699 -15.190  1.00  0.00     0.163 C 
ATOM     12  O   UNL     1      -5.298  -6.429 -15.345  1.00  0.00    -0.294 OA
BRANCH  11  13
ATOM     13  C   UNL     1      -3.048  -6.276 -14.543  1.00  0.00    -0.002 C 
ATOM     14  C   UNL     1      -2.137  -5.471 -13.907  1.00  0.00    -0.069 C 
ATOM     15  C   UNL     1      -0.933  -6.047 -13.193  1.00  0.00     0.039 C 
ATOM     16  C   UNL     1      -2.250  -3.962 -13.925  1.00  0.00     0.039 C 
BRANCH  13  17
ATOM     17  C   UNL     1      -2.819  -7.785 -14.592  1.00  0.00     0.066 CG0
ATOM     18  G   UNL     1      -1.892  -8.244 -15.698  1.00  0.00     0.000 G0
ENDBRANCH  13  17
ENDBRANCH  11  13
ENDBRANCH  10  11
ENDBRANCH   1  10
TORSDOF 0
ENDMDL
