MODEL 1
REMARK VINA RESULT:    -3.687      0.000      0.000
REMARK INTER + INTRA:          -4.538
REMARK INTER:                  -4.441
REMARK INTRA:                  -0.097
REMARK UNBOUND:                -0.097
REMARK SMILES CC[C@H](C)[C@H]([NH3+])C(=O)[O-]
REMARK SMILES IDX 3 1 4 2 5 3 6 4 7 8 8 9 9 10 2 11 1 12
REMARK H PARENT 6 5 6 6 6 7
REMARK Flexibility Score: inf
ROOT
ATOM      1  C   UNL     1     105.609 101.329 101.325  1.00  0.00     0.050 C 
ATOM      2  C   UNL     1     104.486 100.393 100.836  1.00  0.00     0.014 C 
ENDROOT
BRANCH   1   3
ATOM      3  C   UNL     1     105.055 102.746 101.682  1.00  0.00     0.230 C 
BRANCH   3   4
ATOM      4  N   UNL     1     105.628 103.791 100.822  1.00  0.00    -0.350 N 
ATOM      5  H   UNL     1     106.439 104.255 101.292  1.00  0.00     0.345 HD
ATOM      6  H   UNL     1     105.939 103.383  99.911  1.00  0.00     0.345 HD
ATOM      7  H   UNL     1     104.904 104.514 100.603  1.00  0.00     0.345 HD
ENDBRANCH   3   4
BRANCH   3   8
ATOM      8  C   UNL     1     105.343 103.078 103.126  1.00  0.00     0.099 C 
ATOM      9  O   UNL     1     104.397 103.316 103.923  1.00  0.00    -0.544 OA
ATOM     10  O   UNL     1     106.653 103.114 103.588  1.00  0.00    -0.544 OA
ENDBRANCH   3   8
ENDBRANCH   1   3
BRANCH   1  11
ATOM     11  C   UNL     1     106.783 101.351 100.311  1.00  0.00     0.006 C 
ATOM     12  C   UNL     1     107.986 100.490 100.710  1.00  0.00     0.004 C 
ENDBRANCH   1  11
TORSDOF 4
ENDMDL
MODEL 2
REMARK VINA RESULT:    -3.673     11.608     12.436
REMARK INTER + INTRA:          -4.522
REMARK INTER:                  -4.434
REMARK INTRA:                  -0.088
REMARK UNBOUND:                -0.097
REMARK SMILES CC[C@H](C)[C@H]([NH3+])C(=O)[O-]
REMARK SMILES IDX 3 1 4 2 5 3 6 4 7 8 8 9 9 10 2 11 1 12
REMARK H PARENT 6 5 6 6 6 7
REMARK Flexibility Score: inf
ROOT
ATOM      1  C   UNL     1     103.768 114.735 101.398  1.00  0.00     0.050 C 
ATOM      2  C   UNL     1     103.452 116.182 100.974  1.00  0.00     0.014 C 
ENDROOT
BRANCH   1   3
ATOM      3  C   UNL     1     105.288 114.549 101.707  1.00  0.00     0.230 C 
BRANCH   3   4
ATOM      4  N   UNL     1     105.898 113.519 100.853  1.00  0.00    -0.350 N 
ATOM      5  H   UNL     1     105.162 112.943 100.385  1.00  0.00     0.345 HD
ATOM      6  H   UNL     1     106.509 113.962 100.130  1.00  0.00     0.345 HD
ATOM      7  H   UNL     1     106.507 112.891 101.427  1.00  0.00     0.345 HD
ENDBRANCH   3   4
BRANCH   3   8
ATOM      8  C   UNL     1     105.492 114.179 103.155  1.00  0.00     0.099 C 
ATOM      9  O   UNL     1     104.999 113.114 103.614  1.00  0.00    -0.544 OA
ATOM     10  O   UNL     1     106.233 115.006 103.992  1.00  0.00    -0.544 OA
ENDBRANCH   3   8
ENDBRANCH   1   3
BRANCH   1  11
ATOM     11  C   UNL     1     103.209 113.726 100.359  1.00  0.00     0.006 C 
ATOM     12  C   UNL     1     101.856 113.113 100.730  1.00  0.00     0.004 C 
ENDBRANCH   1  11
TORSDOF 4
ENDMDL
MODEL 3
REMARK VINA RESULT:    -3.625     11.610     12.400
REMARK INTER + INTRA:          -4.463
REMARK INTER:                  -4.378
REMARK INTRA:                  -0.085
REMARK UNBOUND:                -0.097
REMARK SMILES CC[C@H](C)[C@H]([NH3+])C(=O)[O-]
REMARK SMILES IDX 3 1 4 2 5 3 6 4 7 8 8 9 9 10 2 11 1 12
REMARK H PARENT 6 5 6 6 6 7
REMARK Flexibility Score: inf
ROOT
ATOM      1  C   UNL     1     116.211 109.795 101.372  1.00  0.00     0.050 C 
ATOM      2  C   UNL     1     117.624 109.288 101.026  1.00  0.00     0.014 C 
ENDROOT
BRANCH   1   3
ATOM      3  C   UNL     1     115.226 108.610 101.632  1.00  0.00     0.230 C 
BRANCH   3   4
ATOM      4  N   UNL     1     114.014 108.714 100.806  1.00  0.00    -0.350 N 
ATOM      5  H   UNL     1     114.260 108.925  99.812  1.00  0.00     0.345 HD
ATOM      6  H   UNL     1     113.467 107.825 100.850  1.00  0.00     0.345 HD
ATOM      7  H   UNL     1     113.395 109.475 101.171  1.00  0.00     0.345 HD
ENDBRANCH   3   4
BRANCH   3   8
ATOM      8  C   UNL     1     114.834 108.557 103.087  1.00  0.00     0.099 C 
ATOM      9  O   UNL     1     114.020 109.396 103.556  1.00  0.00    -0.544 OA
ATOM     10  O   UNL     1     115.361 107.576 103.919  1.00  0.00    -0.544 OA
ENDBRANCH   3   8
ENDBRANCH   1   3
BRANCH   1  11
ATOM     11  C   UNL     1     115.713 110.803 100.302  1.00  0.00     0.006 C 
ATOM     12  C   UNL     1     115.863 112.275 100.694  1.00  0.00     0.004 C 
ENDBRANCH   1  11
TORSDOF 4
ENDMDL
MODEL 4
REMARK VINA RESULT:    -3.617     13.834     14.848
REMARK INTER + INTRA:          -4.454
REMARK INTER:                  -4.365
REMARK INTRA:                  -0.089
REMARK UNBOUND:                -0.097
REMARK SMILES CC[C@H](C)[C@H]([NH3+])C(=O)[O-]
REMARK SMILES IDX 3 1 4 2 5 3 6 4 7 8 8 9 9 10 2 11 1 12
REMARK H PARENT 6 5 6 6 6 7
REMARK Flexibility Score: inf
ROOT
ATOM      1  C   UNL     1     115.058 113.217 103.750  1.00  0.00     0.050 C 
ATOM      2  C   UNL     1     115.282 114.469 104.620  1.00  0.00     0.014 C 
ENDROOT
BRANCH   1   3
ATOM      3  C   UNL     1     114.543 113.596 102.325  1.00  0.00     0.230 C 
BRANCH   3   4
ATOM      4  N   UNL     1     113.420 112.746 101.904  1.00  0.00    -0.350 N 
ATOM      5  H   UNL     1     112.856 112.441 102.731  1.00  0.00     0.345 HD
ATOM      6  H   UNL     1     112.806 113.260 101.232  1.00  0.00     0.345 HD
ATOM      7  H   UNL     1     113.777 111.897 101.406  1.00  0.00     0.345 HD
ENDBRANCH   3   4
BRANCH   3   8
ATOM      8  C   UNL     1     115.657 113.485 101.313  1.00  0.00     0.099 C 
ATOM      9  O   UNL     1     116.535 114.385 101.234  1.00  0.00    -0.544 OA
ATOM     10  O   UNL     1     115.727 112.384 100.466  1.00  0.00    -0.544 OA
ENDBRANCH   3   8
ENDBRANCH   1   3
BRANCH   1  11
ATOM     11  C   UNL     1     114.161 112.190 104.490  1.00  0.00     0.006 C 
ATOM     12  C   UNL     1     113.565 112.696 105.807  1.00  0.00     0.004 C 
ENDBRANCH   1  11
TORSDOF 4
ENDMDL
MODEL 5
REMARK VINA RESULT:    -3.613     10.593     11.125
REMARK INTER + INTRA:          -4.449
REMARK INTER:                  -4.359
REMARK INTRA:                  -0.090
REMARK UNBOUND:                -0.097
REMARK SMILES CC[C@H](C)[C@H]([NH3+])C(=O)[O-]
REMARK SMILES IDX 3 1 4 2 5 3 6 4 7 8 8 9 9 10 2 11 1 12
REMARK H PARENT 6 5 6 6 6 7
REMARK Flexibility Score: inf
ROOT
ATOM      1  C   UNL     1     101.339 111.942 103.801  1.00  0.00     0.050 C 
ATOM      2  C   UNL     1     100.146 111.509 104.676  1.00  0.00     0.014 C 
ENDROOT
BRANCH   1   3
ATOM      3  C   UNL     1     101.273 111.290 102.383  1.00  0.00     0.230 C 
BRANCH   3   4
ATOM      4  N   UNL     1     102.558 110.689 101.996  1.00  0.00    -0.350 N 
ATOM      5  H   UNL     1     102.735 109.812 102.539  1.00  0.00     0.345 HD
ATOM      6  H   UNL     1     102.566 110.475 100.974  1.00  0.00     0.345 HD
ATOM      7  H   UNL     1     103.339 111.362 102.176  1.00  0.00     0.345 HD
ENDBRANCH   3   4
BRANCH   3   8
ATOM      8  C   UNL     1     100.871 112.311 101.349  1.00  0.00     0.099 C 
ATOM      9  O   UNL     1     101.744 112.859 100.625  1.00  0.00    -0.544 OA
ATOM     10  O   UNL     1      99.533 112.649 101.181  1.00  0.00    -0.544 OA
ENDBRANCH   3   8
ENDBRANCH   1   3
BRANCH   1  11
ATOM     11  C   UNL     1     102.679 111.697 104.544  1.00  0.00     0.006 C 
ATOM     12  C   UNL     1     102.539 110.999 105.900  1.00  0.00     0.004 C 
ENDBRANCH   1  11
TORSDOF 4
ENDMDL
MODEL 6
REMARK VINA RESULT:    -3.564     11.064     12.135
REMARK INTER + INTRA:          -4.389
REMARK INTER:                  -4.251
REMARK INTRA:                  -0.139
REMARK UNBOUND:                -0.097
REMARK SMILES CC[C@H](C)[C@H]([NH3+])C(=O)[O-]
REMARK SMILES IDX 3 1 4 2 5 3 6 4 7 8 8 9 9 10 2 11 1 12
REMARK H PARENT 6 5 6 6 6 7
REMARK Flexibility Score: inf
ROOT
ATOM      1  C   UNL     1     103.375 113.802 100.640  1.00  0.00     0.050 C 
ATOM      2  C   UNL     1     101.972 113.164 100.632  1.00  0.00     0.014 C 
ENDROOT
BRANCH   1   3
ATOM      3  C   UNL     1     104.424 112.867 101.323  1.00  0.00     0.230 C 
BRANCH   3   4
ATOM      4  N   UNL     1     104.548 113.141 102.762  1.00  0.00    -0.350 N 
ATOM      5  H   UNL     1     103.802 112.642 103.299  1.00  0.00     0.345 HD
ATOM      6  H   UNL     1     105.487 112.843 103.109  1.00  0.00     0.345 HD
ATOM      7  H   UNL     1     104.466 114.169 102.941  1.00  0.00     0.345 HD
ENDBRANCH   3   4
BRANCH   3   8
ATOM      8  C   UNL     1     105.775 113.021 100.669  1.00  0.00     0.099 C 
ATOM      9  O   UNL     1     106.670 113.716 101.219  1.00  0.00    -0.544 OA
ATOM     10  O   UNL     1     106.044 112.390  99.460  1.00  0.00    -0.544 OA
ENDBRANCH   3   8
ENDBRANCH   1   3
BRANCH   1  11
ATOM     11  C   UNL     1     103.322 115.232 101.241  1.00  0.00     0.006 C 
ATOM     12  C   UNL     1     104.094 116.287 100.444  1.00  0.00     0.004 C 
ENDBRANCH   1  11
TORSDOF 4
ENDMDL
MODEL 7
REMARK VINA RESULT:    -3.554      2.785      3.576
REMARK INTER + INTRA:          -4.377
REMARK INTER:                  -4.326
REMARK INTRA:                  -0.052
REMARK UNBOUND:                -0.097
REMARK SMILES CC[C@H](C)[C@H]([NH3+])C(=O)[O-]
REMARK SMILES IDX 3 1 4 2 5 3 6 4 7 8 8 9 9 10 2 11 1 12
REMARK H PARENT 6 5 6 6 6 7
REMARK Flexibility Score: inf
ROOT
ATOM      1  C   UNL     1     107.959 101.384 101.191  1.00  0.00     0.050 C 
ATOM      2  C   UNL     1     108.677 100.061 100.860  1.00  0.00     0.014 C 
ENDROOT
BRANCH   1   3
ATOM      3  C   UNL     1     107.807 101.581 102.733  1.00  0.00     0.230 C 
BRANCH   3   4
ATOM      4  N   UNL     1     107.263 102.906 103.065  1.00  0.00    -0.350 N 
ATOM      5  H   UNL     1     107.198 103.504 102.210  1.00  0.00     0.345 HD
ATOM      6  H   UNL     1     106.317 102.812 103.499  1.00  0.00     0.345 HD
ATOM      7  H   UNL     1     107.877 103.382 103.767  1.00  0.00     0.345 HD
ENDBRANCH   3   4
BRANCH   3   8
ATOM      8  C   UNL     1     109.137 101.403 103.424  1.00  0.00     0.099 C 
ATOM      9  O   UNL     1     110.115 102.135 103.116  1.00  0.00    -0.544 OA
ATOM     10  O   UNL     1     109.290 100.435 104.410  1.00  0.00    -0.544 OA
ENDBRANCH   3   8
ENDBRANCH   1   3
BRANCH   1  11
ATOM     11  C   UNL     1     106.623 101.493 100.409  1.00  0.00     0.006 C 
ATOM     12  C   UNL     1     105.467 100.686 101.007  1.00  0.00     0.004 C 
ENDBRANCH   1  11
TORSDOF 4
ENDMDL
MODEL 8
REMARK VINA RESULT:    -3.539     10.395     11.408
REMARK INTER + INTRA:          -4.359
REMARK INTER:                  -4.286
REMARK INTRA:                  -0.073
REMARK UNBOUND:                -0.097
REMARK SMILES CC[C@H](C)[C@H]([NH3+])C(=O)[O-]
REMARK SMILES IDX 3 1 4 2 5 3 6 4 7 8 8 9 9 10 2 11 1 12
REMARK H PARENT 6 5 6 6 6 7
REMARK Flexibility Score: inf
ROOT
ATOM      1  C   UNL     1     102.793 112.881 101.205  1.00  0.00     0.050 C 
ATOM      2  C   UNL     1     101.294 112.933 100.852  1.00  0.00     0.014 C 
ENDROOT
BRANCH   1   3
ATOM      3  C   UNL     1     103.016 112.876 102.751  1.00  0.00     0.230 C 
BRANCH   3   4
ATOM      4  N   UNL     1     104.432 112.685 103.099  1.00  0.00    -0.350 N 
ATOM      5  H   UNL     1     104.645 113.114 104.029  1.00  0.00     0.345 HD
ATOM      6  H   UNL     1     104.667 111.667 103.121  1.00  0.00     0.345 HD
ATOM      7  H   UNL     1     105.044 113.127 102.374  1.00  0.00     0.345 HD
ENDBRANCH   3   4
BRANCH   3   8
ATOM      8  C   UNL     1     102.194 111.791 103.401  1.00  0.00     0.099 C 
ATOM      9  O   UNL     1     102.346 110.588 103.059  1.00  0.00    -0.544 OA
ATOM     10  O   UNL     1     101.269 112.110 104.388  1.00  0.00    -0.544 OA
ENDBRANCH   3   8
ENDBRANCH   1   3
BRANCH   1  11
ATOM     11  C   UNL     1     103.569 114.000 100.461  1.00  0.00     0.006 C 
ATOM     12  C   UNL     1     103.345 115.409 101.018  1.00  0.00     0.004 C 
ENDBRANCH   1  11
TORSDOF 4
ENDMDL
MODEL 9
REMARK VINA RESULT:    -3.526     11.957     12.630
REMARK INTER + INTRA:          -4.344
REMARK INTER:                  -4.234
REMARK INTRA:                  -0.111
REMARK UNBOUND:                -0.097
REMARK SMILES CC[C@H](C)[C@H]([NH3+])C(=O)[O-]
REMARK SMILES IDX 3 1 4 2 5 3 6 4 7 8 8 9 9 10 2 11 1 12
REMARK H PARENT 6 5 6 6 6 7
REMARK Flexibility Score: inf
ROOT
ATOM      1  C   UNL     1     115.395 111.325 100.421  1.00  0.00     0.050 C 
ATOM      2  C   UNL     1     115.744 112.808 100.654  1.00  0.00     0.014 C 
ENDROOT
BRANCH   1   3
ATOM      3  C   UNL     1     113.852 111.088 100.462  1.00  0.00     0.230 C 
BRANCH   3   4
ATOM      4  N   UNL     1     113.362 110.904 101.836  1.00  0.00    -0.350 N 
ATOM      5  H   UNL     1     113.565 111.749 102.418  1.00  0.00     0.345 HD
ATOM      6  H   UNL     1     112.333 110.720 101.833  1.00  0.00     0.345 HD
ATOM      7  H   UNL     1     113.822 110.071 102.273  1.00  0.00     0.345 HD
ENDBRANCH   3   4
BRANCH   3   8
ATOM      8  C   UNL     1     113.479 109.883  99.635  1.00  0.00     0.099 C 
ATOM      9  O   UNL     1     113.442 108.739 100.161  1.00  0.00    -0.544 OA
ATOM     10  O   UNL     1     113.165 110.027  98.288  1.00  0.00    -0.544 OA
ENDBRANCH   3   8
ENDBRANCH   1   3
BRANCH   1  11
ATOM     11  C   UNL     1     116.196 110.416 101.390  1.00  0.00     0.006 C 
ATOM     12  C   UNL     1     116.974 109.286 100.708  1.00  0.00     0.004 C 
ENDBRANCH   1  11
TORSDOF 4
ENDMDL
