MODEL 1
REMARK VINA RESULT:    -4.259      0.000      0.000
REMARK INTER + INTRA:          -5.168
REMARK INTER:                  -5.130
REMARK INTRA:                  -0.038
REMARK UNBOUND:                -0.038
REMARK SMILES O=c1c(O)c(-c2ccc(O)cc2O)oc2cc(O)cc(O)c12
REMARK SMILES IDX 5 1 3 2 2 3 1 4 22 5 20 6 19 7 17 8 16 9 15 10 14 11 6 12
REMARK SMILES IDX 8 13 7 14 9 15 11 16 12 17 10 18 13 20 4 22 21 24 18 26
REMARK H PARENT 10 19 13 21 4 23 21 25 18 27
REMARK Flexibility Score: inf
ROOT
ATOM      1  C   UNL     1     -13.746  30.512  11.438  1.00  0.00     0.184 A 
ATOM      2  C   UNL     1     -12.879  29.491  11.857  1.00  0.00     0.208 A 
ATOM      3  C   UNL     1     -13.062  28.921  13.127  1.00  0.00     0.238 A 
ATOM      4  O   UNL     1     -12.316  27.969  13.475  1.00  0.00    -0.285 OA
ATOM      5  C   UNL     1     -14.101  29.393  13.967  1.00  0.00     0.111 A 
ATOM      6  C   UNL     1     -14.353  28.916  15.288  1.00  0.00     0.134 A 
ATOM      7  C   UNL     1     -15.486  29.363  15.979  1.00  0.00     0.093 A 
ATOM      8  C   UNL     1     -16.340  30.318  15.420  1.00  0.00     0.123 A 
ATOM      9  C   UNL     1     -16.069  30.833  14.155  1.00  0.00     0.094 A 
ATOM     10  C   UNL     1     -14.966  30.380  13.426  1.00  0.00     0.146 A 
ATOM     11  O   UNL     1     -14.751  30.888  12.220  1.00  0.00    -0.451 OA
ENDROOT
BRANCH   1  12
ATOM     12  C   UNL     1     -13.598  31.165  10.121  1.00  0.00     0.063 A 
ATOM     13  C   UNL     1     -12.133  32.062   8.399  1.00  0.00     0.047 A 
ATOM     14  C   UNL     1     -12.309  31.450   9.643  1.00  0.00     0.020 A 
ATOM     15  C   UNL     1     -13.242  32.385   7.612  1.00  0.00     0.119 A 
ATOM     16  C   UNL     1     -14.531  32.084   8.069  1.00  0.00     0.093 A 
ATOM     17  C   UNL     1     -14.715  31.464   9.315  1.00  0.00     0.130 A 
BRANCH  15  18
ATOM     18  O   UNL     1     -13.050  32.999   6.376  1.00  0.00    -0.508 OA
ATOM     19  H   UNL     1     -12.977  32.458   5.523  1.00  0.00     0.293 HD
ENDBRANCH  15  18
BRANCH  17  20
ATOM     20  O   UNL     1     -16.001  31.125   9.736  1.00  0.00    -0.507 OA
ATOM     21  H   UNL     1     -16.349  30.176   9.673  1.00  0.00     0.293 HD
ENDBRANCH  17  20
ENDBRANCH   1  12
BRANCH   2  22
ATOM     22  O   UNL     1     -11.875  29.031  11.001  1.00  0.00    -0.502 OA
ATOM     23  H   UNL     1     -11.861  28.087  10.637  1.00  0.00     0.293 HD
ENDBRANCH   2  22
BRANCH   6  24
ATOM     24  O   UNL     1     -13.513  28.033  15.973  1.00  0.00    -0.507 OA
ATOM     25  H   UNL     1     -13.313  27.089  15.683  1.00  0.00     0.293 HD
ENDBRANCH   6  24
BRANCH   8  26
ATOM     26  O   UNL     1     -17.457  30.769  16.121  1.00  0.00    -0.508 OA
ATOM     27  H   UNL     1     -18.136  31.388  15.695  1.00  0.00     0.293 HD
ENDBRANCH   8  26
TORSDOF 6
ENDMDL
MODEL 2
REMARK VINA RESULT:    -4.094      1.234      2.904
REMARK INTER + INTRA:          -4.969
REMARK INTER:                  -4.898
REMARK INTRA:                  -0.071
REMARK UNBOUND:                -0.038
REMARK SMILES O=c1c(O)c(-c2ccc(O)cc2O)oc2cc(O)cc(O)c12
REMARK SMILES IDX 5 1 3 2 2 3 1 4 22 5 20 6 19 7 17 8 16 9 15 10 14 11 6 12
REMARK SMILES IDX 8 13 7 14 9 15 11 16 12 17 10 18 13 20 4 22 21 24 18 26
REMARK H PARENT 10 19 13 21 4 23 21 25 18 27
REMARK Flexibility Score: inf
ROOT
ATOM      1  C   UNL     1     -13.773  30.581  11.474  1.00  0.00     0.184 A 
ATOM      2  C   UNL     1     -14.678  31.172  12.370  1.00  0.00     0.208 A 
ATOM      3  C   UNL     1     -14.905  30.557  13.612  1.00  0.00     0.238 A 
ATOM      4  O   UNL     1     -15.676  31.119  14.431  1.00  0.00    -0.285 OA
ATOM      5  C   UNL     1     -14.236  29.351  13.933  1.00  0.00     0.111 A 
ATOM      6  C   UNL     1     -14.420  28.620  15.145  1.00  0.00     0.134 A 
ATOM      7  C   UNL     1     -13.609  27.510  15.412  1.00  0.00     0.093 A 
ATOM      8  C   UNL     1     -12.666  27.066  14.481  1.00  0.00     0.123 A 
ATOM      9  C   UNL     1     -12.520  27.738  13.270  1.00  0.00     0.094 A 
ATOM     10  C   UNL     1     -13.289  28.870  12.990  1.00  0.00     0.146 A 
ATOM     11  O   UNL     1     -13.110  29.487  11.828  1.00  0.00    -0.451 OA
ENDROOT
BRANCH   1  12
ATOM     12  C   UNL     1     -13.501  31.168  10.145  1.00  0.00     0.063 A 
ATOM     13  C   UNL     1     -11.879  31.968   8.520  1.00  0.00     0.047 A 
ATOM     14  C   UNL     1     -12.172  31.419   9.772  1.00  0.00     0.020 A 
ATOM     15  C   UNL     1     -12.909  32.260   7.622  1.00  0.00     0.119 A 
ATOM     16  C   UNL     1     -14.237  31.991   7.976  1.00  0.00     0.093 A 
ATOM     17  C   UNL     1     -14.539  31.435   9.229  1.00  0.00     0.130 A 
BRANCH  15  18
ATOM     18  O   UNL     1     -12.601  32.811   6.380  1.00  0.00    -0.508 OA
ATOM     19  H   UNL     1     -11.643  32.993   6.105  1.00  0.00     0.293 HD
ENDBRANCH  15  18
BRANCH  17  20
ATOM     20  O   UNL     1     -15.861  31.126   9.549  1.00  0.00    -0.507 OA
ATOM     21  H   UNL     1     -16.571  31.020   8.835  1.00  0.00     0.293 HD
ENDBRANCH  17  20
ENDBRANCH   1  12
BRANCH   2  22
ATOM     22  O   UNL     1     -15.310  32.371  12.035  1.00  0.00    -0.502 OA
ATOM     23  H   UNL     1     -15.998  32.435  11.295  1.00  0.00     0.293 HD
ENDBRANCH   2  22
BRANCH   6  24
ATOM     24  O   UNL     1     -15.396  28.924  16.098  1.00  0.00    -0.507 OA
ATOM     25  H   UNL     1     -16.385  28.979  15.910  1.00  0.00     0.293 HD
ENDBRANCH   6  24
BRANCH   8  26
ATOM     26  O   UNL     1     -11.875  25.951  14.748  1.00  0.00    -0.508 OA
ATOM     27  H   UNL     1     -10.865  25.989  14.683  1.00  0.00     0.293 HD
ENDBRANCH   8  26
TORSDOF 6
ENDMDL
MODEL 3
REMARK VINA RESULT:    -3.747      4.144      6.711
REMARK INTER + INTRA:          -4.552
REMARK INTER:                  -4.585
REMARK INTRA:                   0.034
REMARK UNBOUND:                -0.038
REMARK SMILES O=c1c(O)c(-c2ccc(O)cc2O)oc2cc(O)cc(O)c12
REMARK SMILES IDX 5 1 3 2 2 3 1 4 22 5 20 6 19 7 17 8 16 9 15 10 14 11 6 12
REMARK SMILES IDX 8 13 7 14 9 15 11 16 12 17 10 18 13 20 4 22 21 24 18 26
REMARK H PARENT 10 19 13 21 4 23 21 25 18 27
REMARK Flexibility Score: inf
ROOT
ATOM      1  C   UNL     1     -16.986  29.346  15.545  1.00  0.00     0.184 A 
ATOM      2  C   UNL     1     -18.134  30.133  15.724  1.00  0.00     0.208 A 
ATOM      3  C   UNL     1     -19.373  29.499  15.906  1.00  0.00     0.238 A 
ATOM      4  O   UNL     1     -20.389  30.208  16.120  1.00  0.00    -0.285 OA
ATOM      5  C   UNL     1     -19.448  28.084  15.890  1.00  0.00     0.111 A 
ATOM      6  C   UNL     1     -20.656  27.336  16.025  1.00  0.00     0.134 A 
ATOM      7  C   UNL     1     -20.596  25.940  16.125  1.00  0.00     0.093 A 
ATOM      8  C   UNL     1     -19.378  25.263  16.029  1.00  0.00     0.123 A 
ATOM      9  C   UNL     1     -18.200  25.982  15.838  1.00  0.00     0.094 A 
ATOM     10  C   UNL     1     -18.223  27.377  15.771  1.00  0.00     0.146 A 
ATOM     11  O   UNL     1     -17.076  28.022  15.600  1.00  0.00    -0.451 OA
ENDROOT
BRANCH   1  12
ATOM     12  C   UNL     1     -15.655  29.951  15.331  1.00  0.00     0.063 A 
ATOM     13  C   UNL     1     -14.059  31.704  15.870  1.00  0.00     0.047 A 
ATOM     14  C   UNL     1     -15.311  31.110  16.044  1.00  0.00     0.020 A 
ATOM     15  C   UNL     1     -13.129  31.140  14.992  1.00  0.00     0.119 A 
ATOM     16  C   UNL     1     -13.453  29.970  14.294  1.00  0.00     0.093 A 
ATOM     17  C   UNL     1     -14.707  29.364  14.467  1.00  0.00     0.130 A 
BRANCH  15  18
ATOM     18  O   UNL     1     -11.886  31.747  14.826  1.00  0.00    -0.508 OA
ATOM     19  H   UNL     1     -11.797  32.752  14.728  1.00  0.00     0.293 HD
ENDBRANCH  15  18
BRANCH  17  20
ATOM     20  O   UNL     1     -14.998  28.173  13.804  1.00  0.00    -0.507 OA
ATOM     21  H   UNL     1     -14.351  27.759  13.144  1.00  0.00     0.293 HD
ENDBRANCH  17  20
ENDBRANCH   1  12
BRANCH   2  22
ATOM     22  O   UNL     1     -18.028  31.526  15.754  1.00  0.00    -0.502 OA
ATOM     23  H   UNL     1     -17.577  32.053  15.017  1.00  0.00     0.293 HD
ENDBRANCH   2  22
BRANCH   6  24
ATOM     24  O   UNL     1     -21.931  27.909  16.037  1.00  0.00    -0.507 OA
ATOM     25  H   UNL     1     -22.521  28.014  15.227  1.00  0.00     0.293 HD
ENDBRANCH   6  24
BRANCH   8  26
ATOM     26  O   UNL     1     -19.329  23.873  16.113  1.00  0.00    -0.508 OA
ATOM     27  H   UNL     1     -20.173  23.312  16.117  1.00  0.00     0.293 HD
ENDBRANCH   8  26
TORSDOF 6
ENDMDL
MODEL 4
REMARK VINA RESULT:    -3.601      3.489      5.533
REMARK INTER + INTRA:          -4.375
REMARK INTER:                  -4.029
REMARK INTRA:                  -0.346
REMARK UNBOUND:                -0.038
REMARK SMILES O=c1c(O)c(-c2ccc(O)cc2O)oc2cc(O)cc(O)c12
REMARK SMILES IDX 5 1 3 2 2 3 1 4 22 5 20 6 19 7 17 8 16 9 15 10 14 11 6 12
REMARK SMILES IDX 8 13 7 14 9 15 11 16 12 17 10 18 13 20 4 22 21 24 18 26
REMARK H PARENT 10 19 13 21 4 23 21 25 18 27
REMARK Flexibility Score: inf
ROOT
ATOM      1  C   UNL     1     -16.375  29.857  15.204  1.00  0.00     0.184 A 
ATOM      2  C   UNL     1     -16.248  28.459  15.190  1.00  0.00     0.208 A 
ATOM      3  C   UNL     1     -17.390  27.670  15.404  1.00  0.00     0.238 A 
ATOM      4  O   UNL     1     -17.280  26.419  15.337  1.00  0.00    -0.285 OA
ATOM      5  C   UNL     1     -18.640  28.291  15.644  1.00  0.00     0.111 A 
ATOM      6  C   UNL     1     -19.853  27.591  15.913  1.00  0.00     0.134 A 
ATOM      7  C   UNL     1     -21.055  28.303  16.008  1.00  0.00     0.093 A 
ATOM      8  C   UNL     1     -21.077  29.697  15.908  1.00  0.00     0.123 A 
ATOM      9  C   UNL     1     -19.888  30.394  15.705  1.00  0.00     0.094 A 
ATOM     10  C   UNL     1     -18.678  29.708  15.570  1.00  0.00     0.146 A 
ATOM     11  O   UNL     1     -17.571  30.411  15.366  1.00  0.00    -0.451 OA
ENDROOT
BRANCH   1  12
ATOM     12  C   UNL     1     -15.211  30.745  15.003  1.00  0.00     0.063 A 
ATOM     13  C   UNL     1     -13.476  32.147  15.970  1.00  0.00     0.047 A 
ATOM     14  C   UNL     1     -14.582  31.307  16.124  1.00  0.00     0.020 A 
ATOM     15  C   UNL     1     -12.976  32.424  14.694  1.00  0.00     0.119 A 
ATOM     16  C   UNL     1     -13.582  31.849  13.570  1.00  0.00     0.093 A 
ATOM     17  C   UNL     1     -14.690  31.000  13.717  1.00  0.00     0.130 A 
BRANCH  15  18
ATOM     18  O   UNL     1     -11.875  33.267  14.556  1.00  0.00    -0.508 OA
ATOM     19  H   UNL     1     -11.889  34.217  14.908  1.00  0.00     0.293 HD
ENDBRANCH  15  18
BRANCH  17  20
ATOM     20  O   UNL     1     -15.254  30.395  12.594  1.00  0.00    -0.507 OA
ATOM     21  H   UNL     1     -14.857  29.558  12.186  1.00  0.00     0.293 HD
ENDBRANCH  17  20
ENDBRANCH   1  12
BRANCH   2  22
ATOM     22  O   UNL     1     -15.007  27.873  14.932  1.00  0.00    -0.502 OA
ATOM     23  H   UNL     1     -14.170  28.420  14.773  1.00  0.00     0.293 HD
ENDBRANCH   2  22
BRANCH   6  24
ATOM     24  O   UNL     1     -19.928  26.210  16.122  1.00  0.00    -0.507 OA
ATOM     25  H   UNL     1     -20.086  25.772  17.016  1.00  0.00     0.293 HD
ENDBRANCH   6  24
BRANCH   8  26
ATOM     26  O   UNL     1     -22.275  30.399  16.019  1.00  0.00    -0.508 OA
ATOM     27  H   UNL     1     -23.134  29.940  16.299  1.00  0.00     0.293 HD
ENDBRANCH   8  26
TORSDOF 6
ENDMDL
MODEL 5
REMARK VINA RESULT:    -3.407      3.058      6.801
REMARK INTER + INTRA:          -4.142
REMARK INTER:                  -3.979
REMARK INTRA:                  -0.163
REMARK UNBOUND:                -0.038
REMARK SMILES O=c1c(O)c(-c2ccc(O)cc2O)oc2cc(O)cc(O)c12
REMARK SMILES IDX 5 1 3 2 2 3 1 4 22 5 20 6 19 7 17 8 16 9 15 10 14 11 6 12
REMARK SMILES IDX 8 13 7 14 9 15 11 16 12 17 10 18 13 20 4 22 21 24 18 26
REMARK H PARENT 10 19 13 21 4 23 21 25 18 27
REMARK Flexibility Score: inf
ROOT
ATOM      1  C   UNL     1     -16.937  29.340  14.946  1.00  0.00     0.184 A 
ATOM      2  C   UNL     1     -16.272  28.175  15.359  1.00  0.00     0.208 A 
ATOM      3  C   UNL     1     -14.918  28.010  15.027  1.00  0.00     0.238 A 
ATOM      4  O   UNL     1     -14.314  26.990  15.446  1.00  0.00    -0.285 OA
ATOM      5  C   UNL     1     -14.252  29.007  14.273  1.00  0.00     0.111 A 
ATOM      6  C   UNL     1     -12.893  28.926  13.846  1.00  0.00     0.134 A 
ATOM      7  C   UNL     1     -12.300  30.028  13.216  1.00  0.00     0.093 A 
ATOM      8  C   UNL     1     -13.037  31.182  12.940  1.00  0.00     0.123 A 
ATOM      9  C   UNL     1     -14.381  31.248  13.300  1.00  0.00     0.094 A 
ATOM     10  C   UNL     1     -14.991  30.179  13.962  1.00  0.00     0.146 A 
ATOM     11  O   UNL     1     -16.270  30.288  14.297  1.00  0.00    -0.451 OA
ENDROOT
BRANCH   1  12
ATOM     12  C   UNL     1     -18.366  29.569  15.247  1.00  0.00     0.063 A 
ATOM     13  C   UNL     1     -20.642  28.715  15.288  1.00  0.00     0.047 A 
ATOM     14  C   UNL     1     -19.285  28.535  15.009  1.00  0.00     0.020 A 
ATOM     15  C   UNL     1     -21.095  29.925  15.820  1.00  0.00     0.119 A 
ATOM     16  C   UNL     1     -20.183  30.954  16.084  1.00  0.00     0.093 A 
ATOM     17  C   UNL     1     -18.818  30.779  15.812  1.00  0.00     0.130 A 
BRANCH  15  18
ATOM     18  O   UNL     1     -22.453  30.091  16.089  1.00  0.00    -0.508 OA
ATOM     19  H   UNL     1     -22.820  30.005  17.030  1.00  0.00     0.293 HD
ENDBRANCH  15  18
BRANCH  17  20
ATOM     20  O   UNL     1     -17.913  31.793  16.125  1.00  0.00    -0.507 OA
ATOM     21  H   UNL     1     -17.759  32.579  15.505  1.00  0.00     0.293 HD
ENDBRANCH  17  20
ENDBRANCH   1  12
BRANCH   2  22
ATOM     22  O   UNL     1     -16.949  27.217  16.118  1.00  0.00    -0.502 OA
ATOM     23  H   UNL     1     -16.615  26.905  17.022  1.00  0.00     0.293 HD
ENDBRANCH   2  22
BRANCH   6  24
ATOM     24  O   UNL     1     -12.096  27.786  13.990  1.00  0.00    -0.507 OA
ATOM     25  H   UNL     1     -11.315  27.553  13.398  1.00  0.00     0.293 HD
ENDBRANCH   6  24
BRANCH   8  26
ATOM     26  O   UNL     1     -12.443  32.267  12.299  1.00  0.00    -0.508 OA
ATOM     27  H   UNL     1     -12.992  33.050  11.963  1.00  0.00     0.293 HD
ENDBRANCH   8  26
TORSDOF 6
ENDMDL
MODEL 6
REMARK VINA RESULT:    -3.291      4.669      7.275
REMARK INTER + INTRA:          -4.002
REMARK INTER:                  -4.309
REMARK INTRA:                   0.307
REMARK UNBOUND:                -0.038
REMARK SMILES O=c1c(O)c(-c2ccc(O)cc2O)oc2cc(O)cc(O)c12
REMARK SMILES IDX 5 1 3 2 2 3 1 4 22 5 20 6 19 7 17 8 16 9 15 10 14 11 6 12
REMARK SMILES IDX 8 13 7 14 9 15 11 16 12 17 10 18 13 20 4 22 21 24 18 26
REMARK H PARENT 10 19 13 21 4 23 21 25 18 27
REMARK Flexibility Score: inf
ROOT
ATOM      1  C   UNL     1     -16.910  29.434  15.528  1.00  0.00     0.184 A 
ATOM      2  C   UNL     1     -16.273  30.663  15.763  1.00  0.00     0.208 A 
ATOM      3  C   UNL     1     -14.882  30.750  15.602  1.00  0.00     0.238 A 
ATOM      4  O   UNL     1     -14.324  31.866  15.761  1.00  0.00    -0.285 OA
ATOM      5  C   UNL     1     -14.143  29.602  15.224  1.00  0.00     0.111 A 
ATOM      6  C   UNL     1     -12.725  29.565  15.070  1.00  0.00     0.134 A 
ATOM      7  C   UNL     1     -12.114  28.410  14.567  1.00  0.00     0.093 A 
ATOM      8  C   UNL     1     -12.865  27.268  14.274  1.00  0.00     0.123 A 
ATOM      9  C   UNL     1     -14.243  27.275  14.477  1.00  0.00     0.094 A 
ATOM     10  C   UNL     1     -14.885  28.424  14.943  1.00  0.00     0.146 A 
ATOM     11  O   UNL     1     -16.201  28.391  15.111  1.00  0.00    -0.451 OA
ENDROOT
BRANCH   1  12
ATOM     12  C   UNL     1     -18.369  29.269  15.696  1.00  0.00     0.063 A 
ATOM     13  C   UNL     1     -20.585  30.270  15.699  1.00  0.00     0.047 A 
ATOM     14  C   UNL     1     -19.201  30.391  15.552  1.00  0.00     0.020 A 
ATOM     15  C   UNL     1     -21.156  29.025  15.977  1.00  0.00     0.119 A 
ATOM     16  C   UNL     1     -20.337  27.895  16.099  1.00  0.00     0.093 A 
ATOM     17  C   UNL     1     -18.946  28.008  15.948  1.00  0.00     0.130 A 
BRANCH  15  18
ATOM     18  O   UNL     1     -22.538  28.921  16.125  1.00  0.00    -0.508 OA
ATOM     19  H   UNL     1     -23.169  29.155  15.368  1.00  0.00     0.293 HD
ENDBRANCH  15  18
BRANCH  17  20
ATOM     20  O   UNL     1     -18.146  26.868  16.023  1.00  0.00    -0.507 OA
ATOM     21  H   UNL     1     -17.177  26.916  16.313  1.00  0.00     0.293 HD
ENDBRANCH  17  20
ENDBRANCH   1  12
BRANCH   2  22
ATOM     22  O   UNL     1     -17.028  31.784  16.116  1.00  0.00    -0.502 OA
ATOM     23  H   UNL     1     -17.547  32.326  15.436  1.00  0.00     0.293 HD
ENDBRANCH   2  22
BRANCH   6  24
ATOM     24  O   UNL     1     -11.875  30.618  15.422  1.00  0.00    -0.507 OA
ATOM     25  H   UNL     1     -11.023  30.855  14.937  1.00  0.00     0.293 HD
ENDBRANCH   6  24
BRANCH   8  26
ATOM     26  O   UNL     1     -12.247  26.117  13.789  1.00  0.00    -0.508 OA
ATOM     27  H   UNL     1     -12.191  25.923  12.796  1.00  0.00     0.293 HD
ENDBRANCH   8  26
TORSDOF 6
ENDMDL
MODEL 7
REMARK VINA RESULT:    -2.749      2.157      2.520
REMARK INTER + INTRA:          -3.350
REMARK INTER:                  -3.131
REMARK INTRA:                  -0.219
REMARK UNBOUND:                -0.038
REMARK SMILES O=c1c(O)c(-c2ccc(O)cc2O)oc2cc(O)cc(O)c12
REMARK SMILES IDX 5 1 3 2 2 3 1 4 22 5 20 6 19 7 17 8 16 9 15 10 14 11 6 12
REMARK SMILES IDX 8 13 7 14 9 15 11 16 12 17 10 18 13 20 4 22 21 24 18 26
REMARK H PARENT 10 19 13 21 4 23 21 25 18 27
REMARK Flexibility Score: inf
ROOT
ATOM      1  C   UNL     1     -13.346  31.500  10.663  1.00  0.00     0.184 A 
ATOM      2  C   UNL     1     -13.914  30.257  10.980  1.00  0.00     0.208 A 
ATOM      3  C   UNL     1     -13.926  29.836  12.320  1.00  0.00     0.238 A 
ATOM      4  O   UNL     1     -14.485  28.746  12.605  1.00  0.00    -0.285 OA
ATOM      5  C   UNL     1     -13.355  30.660  13.321  1.00  0.00     0.111 A 
ATOM      6  C   UNL     1     -13.276  30.316  14.704  1.00  0.00     0.134 A 
ATOM      7  C   UNL     1     -12.808  31.261  15.625  1.00  0.00     0.093 A 
ATOM      8  C   UNL     1     -12.355  32.514  15.204  1.00  0.00     0.123 A 
ATOM      9  C   UNL     1     -12.372  32.836  13.848  1.00  0.00     0.094 A 
ATOM     10  C   UNL     1     -12.868  31.928  12.910  1.00  0.00     0.146 A 
ATOM     11  O   UNL     1     -12.877  32.280  11.630  1.00  0.00    -0.451 OA
ENDROOT
BRANCH   1  12
ATOM     12  C   UNL     1     -13.285  31.995   9.272  1.00  0.00     0.063 A 
ATOM     13  C   UNL     1     -11.939  32.630   7.349  1.00  0.00     0.047 A 
ATOM     14  C   UNL     1     -12.032  32.169   8.665  1.00  0.00     0.020 A 
ATOM     15  C   UNL     1     -13.097  32.909   6.619  1.00  0.00     0.119 A 
ATOM     16  C   UNL     1     -14.354  32.717   7.207  1.00  0.00     0.093 A 
ATOM     17  C   UNL     1     -14.455  32.249   8.526  1.00  0.00     0.130 A 
BRANCH  15  18
ATOM     18  O   UNL     1     -12.988  33.372   5.309  1.00  0.00    -0.508 OA
ATOM     19  H   UNL     1     -12.152  33.212   4.760  1.00  0.00     0.293 HD
ENDBRANCH  15  18
BRANCH  17  20
ATOM     20  O   UNL     1     -15.712  32.014   9.084  1.00  0.00    -0.507 OA
ATOM     21  H   UNL     1     -15.993  32.439   9.959  1.00  0.00     0.293 HD
ENDBRANCH  17  20
ENDBRANCH   1  12
BRANCH   2  22
ATOM     22  O   UNL     1     -14.487  29.474   9.975  1.00  0.00    -0.502 OA
ATOM     23  H   UNL     1     -15.068  29.867   9.245  1.00  0.00     0.293 HD
ENDBRANCH   2  22
BRANCH   6  24
ATOM     24  O   UNL     1     -13.616  29.060  15.216  1.00  0.00    -0.507 OA
ATOM     25  H   UNL     1     -13.887  28.883  16.171  1.00  0.00     0.293 HD
ENDBRANCH   6  24
BRANCH   8  26
ATOM     26  O   UNL     1     -11.875  33.442  16.125  1.00  0.00    -0.508 OA
ATOM     27  H   UNL     1     -11.863  34.435  15.921  1.00  0.00     0.293 HD
ENDBRANCH   8  26
TORSDOF 6
ENDMDL
MODEL 8
REMARK VINA RESULT:    -2.699      4.428      7.089
REMARK INTER + INTRA:          -3.289
REMARK INTER:                  -3.655
REMARK INTRA:                   0.366
REMARK UNBOUND:                -0.038
REMARK SMILES O=c1c(O)c(-c2ccc(O)cc2O)oc2cc(O)cc(O)c12
REMARK SMILES IDX 5 1 3 2 2 3 1 4 22 5 20 6 19 7 17 8 16 9 15 10 14 11 6 12
REMARK SMILES IDX 8 13 7 14 9 15 11 16 12 17 10 18 13 20 4 22 21 24 18 26
REMARK H PARENT 10 19 13 21 4 23 21 25 18 27
REMARK Flexibility Score: inf
ROOT
ATOM      1  C   UNL     1     -16.780  28.073  15.349  1.00  0.00     0.184 A 
ATOM      2  C   UNL     1     -15.739  27.244  14.902  1.00  0.00     0.208 A 
ATOM      3  C   UNL     1     -14.459  27.794  14.726  1.00  0.00     0.238 A 
ATOM      4  O   UNL     1     -13.519  27.035  14.377  1.00  0.00    -0.285 OA
ATOM      5  C   UNL     1     -14.243  29.170  14.983  1.00  0.00     0.111 A 
ATOM      6  C   UNL     1     -12.997  29.842  14.800  1.00  0.00     0.134 A 
ATOM      7  C   UNL     1     -12.865  31.175  15.209  1.00  0.00     0.093 A 
ATOM      8  C   UNL     1     -13.952  31.878  15.735  1.00  0.00     0.123 A 
ATOM      9  C   UNL     1     -15.187  31.248  15.863  1.00  0.00     0.094 A 
ATOM     10  C   UNL     1     -15.341  29.908  15.497  1.00  0.00     0.146 A 
ATOM     11  O   UNL     1     -16.533  29.343  15.646  1.00  0.00    -0.451 OA
ENDROOT
BRANCH   1  12
ATOM     12  C   UNL     1     -18.153  27.561  15.540  1.00  0.00     0.063 A 
ATOM     13  C   UNL     1     -19.629  25.671  15.941  1.00  0.00     0.047 A 
ATOM     14  C   UNL     1     -18.344  26.187  15.752  1.00  0.00     0.020 A 
ATOM     15  C   UNL     1     -20.736  26.523  15.935  1.00  0.00     0.119 A 
ATOM     16  C   UNL     1     -20.555  27.899  15.747  1.00  0.00     0.093 A 
ATOM     17  C   UNL     1     -19.267  28.426  15.562  1.00  0.00     0.130 A 
BRANCH  15  18
ATOM     18  O   UNL     1     -22.012  25.993  16.120  1.00  0.00    -0.508 OA
ATOM     19  H   UNL     1     -22.500  26.086  17.003  1.00  0.00     0.293 HD
ENDBRANCH  15  18
BRANCH  17  20
ATOM     20  O   UNL     1     -19.095  29.803  15.426  1.00  0.00    -0.507 OA
ATOM     21  H   UNL     1     -19.057  30.247  14.516  1.00  0.00     0.293 HD
ENDBRANCH  17  20
ENDBRANCH   1  12
BRANCH   2  22
ATOM     22  O   UNL     1     -15.976  25.886  14.674  1.00  0.00    -0.502 OA
ATOM     23  H   UNL     1     -15.275  25.270  14.282  1.00  0.00     0.293 HD
ENDBRANCH   2  22
BRANCH   6  24
ATOM     24  O   UNL     1     -11.878  29.259  14.199  1.00  0.00    -0.507 OA
ATOM     25  H   UNL     1     -11.900  28.705  13.358  1.00  0.00     0.293 HD
ENDBRANCH   6  24
BRANCH   8  26
ATOM     26  O   UNL     1     -13.815  33.209  16.125  1.00  0.00    -0.508 OA
ATOM     27  H   UNL     1     -13.941  33.969  15.468  1.00  0.00     0.293 HD
ENDBRANCH   8  26
TORSDOF 6
ENDMDL
MODEL 9
REMARK VINA RESULT:    -2.289      5.291      9.091
REMARK INTER + INTRA:          -2.795
REMARK INTER:                  -3.229
REMARK INTRA:                   0.434
REMARK UNBOUND:                -0.038
REMARK SMILES O=c1c(O)c(-c2ccc(O)cc2O)oc2cc(O)cc(O)c12
REMARK SMILES IDX 5 1 3 2 2 3 1 4 22 5 20 6 19 7 17 8 16 9 15 10 14 11 6 12
REMARK SMILES IDX 8 13 7 14 9 15 11 16 12 17 10 18 13 20 4 22 21 24 18 26
REMARK H PARENT 10 19 13 21 4 23 21 25 18 27
REMARK Flexibility Score: inf
ROOT
ATOM      1  C   UNL     1     -19.371  27.189  15.797  1.00  0.00     0.184 A 
ATOM      2  C   UNL     1     -19.931  28.476  15.773  1.00  0.00     0.208 A 
ATOM      3  C   UNL     1     -19.077  29.590  15.799  1.00  0.00     0.238 A 
ATOM      4  O   UNL     1     -19.583  30.740  15.723  1.00  0.00    -0.285 OA
ATOM      5  C   UNL     1     -17.675  29.402  15.864  1.00  0.00     0.111 A 
ATOM      6  C   UNL     1     -16.718  30.458  15.934  1.00  0.00     0.134 A 
ATOM      7  C   UNL     1     -15.352  30.158  15.864  1.00  0.00     0.093 A 
ATOM      8  C   UNL     1     -14.908  28.835  15.791  1.00  0.00     0.123 A 
ATOM      9  C   UNL     1     -15.833  27.794  15.781  1.00  0.00     0.094 A 
ATOM     10  C   UNL     1     -17.204  28.063  15.813  1.00  0.00     0.146 A 
ATOM     11  O   UNL     1     -18.051  27.042  15.791  1.00  0.00    -0.451 OA
ENDROOT
BRANCH   1  12
ATOM     12  C   UNL     1     -20.212  25.975  15.788  1.00  0.00     0.063 A 
ATOM     13  C   UNL     1     -22.396  24.959  16.122  1.00  0.00     0.047 A 
ATOM     14  C   UNL     1     -21.571  26.086  16.125  1.00  0.00     0.020 A 
ATOM     15  C   UNL     1     -21.878  23.709  15.770  1.00  0.00     0.119 A 
ATOM     16  C   UNL     1     -20.530  23.591  15.410  1.00  0.00     0.093 A 
ATOM     17  C   UNL     1     -19.696  24.720  15.405  1.00  0.00     0.130 A 
BRANCH  15  18
ATOM     18  O   UNL     1     -22.713  22.593  15.776  1.00  0.00    -0.508 OA
ATOM     19  H   UNL     1     -23.711  22.679  15.624  1.00  0.00     0.293 HD
ENDBRANCH  15  18
BRANCH  17  20
ATOM     20  O   UNL     1     -18.368  24.598  14.997  1.00  0.00    -0.507 OA
ATOM     21  H   UNL     1     -18.087  24.769  14.039  1.00  0.00     0.293 HD
ENDBRANCH  17  20
ENDBRANCH   1  12
BRANCH   2  22
ATOM     22  O   UNL     1     -21.316  28.633  15.690  1.00  0.00    -0.502 OA
ATOM     23  H   UNL     1     -21.935  27.875  15.428  1.00  0.00     0.293 HD
ENDBRANCH   2  22
BRANCH   6  24
ATOM     24  O   UNL     1     -17.054  31.805  16.102  1.00  0.00    -0.507 OA
ATOM     25  H   UNL     1     -17.931  32.137  16.472  1.00  0.00     0.293 HD
ENDBRANCH   6  24
BRANCH   8  26
ATOM     26  O   UNL     1     -13.546  28.545  15.737  1.00  0.00    -0.508 OA
ATOM     27  H   UNL     1     -13.200  27.600  15.854  1.00  0.00     0.293 HD
ENDBRANCH   8  26
TORSDOF 6
ENDMDL
