MODEL 1
REMARK VINA RESULT:    -5.215      0.000      0.000
REMARK INTER + INTRA:          -8.633
REMARK INTER:                  -8.111
REMARK INTRA:                  -0.522
REMARK UNBOUND:                -0.522
REMARK SMILES COc1cc(CNC(=O)CCCCC=CC(C)C)ccc1O
REMARK SMILES IDX 11 1 12 2 13 3 14 4 15 5 16 6 17 7 18 8 10 9 8 10 9 11 7 12
REMARK SMILES IDX 6 14 5 15 4 16 19 17 3 18 20 19 21 20 2 21 1 22 22 23
REMARK H PARENT 7 13 22 24
REMARK Flexibility Score: inf
ROOT
ATOM      1  C   UNL     1     170.599 251.075 348.044  1.00  0.00     0.010 C 
ENDROOT
BRANCH   1   2
ATOM      2  C   UNL     1     170.463 252.007 346.826  1.00  0.00     0.005 C 
BRANCH   2   3
ATOM      3  C   UNL     1     169.753 251.354 345.627  1.00  0.00     0.027 C 
BRANCH   3   4
ATOM      4  C   UNL     1     170.650 250.360 344.929  1.00  0.00    -0.031 C 
ATOM      5  C   UNL     1     170.396 249.710 343.769  1.00  0.00    -0.028 C 
BRANCH   5   6
ATOM      6  C   UNL     1     169.227 249.905 342.818  1.00  0.00     0.005 C 
ATOM      7  C   UNL     1     168.915 248.638 342.014  1.00  0.00     0.012 C 
ATOM      8  C   UNL     1     169.348 251.148 341.925  1.00  0.00     0.012 C 
ENDBRANCH   5   6
ENDBRANCH   3   4
ENDBRANCH   2   3
ENDBRANCH   1   2
BRANCH   1   9
ATOM      9  C   UNL     1     170.451 251.824 349.376  1.00  0.00     0.100 C 
BRANCH   9  10
ATOM     10  C   UNL     1     171.006 251.004 350.502  1.00  0.00     0.220 C 
ATOM     11  O   UNL     1     170.260 250.168 351.086  1.00  0.00    -0.275 OA
ATOM     12  N   UNL     1     172.378 251.158 350.903  1.00  0.00    -0.352 N 
ATOM     13  H   UNL     1     172.973 251.876 350.431  1.00  0.00     0.163 HD
BRANCH  12  14
ATOM     14  C   UNL     1     172.987 250.332 351.946  1.00  0.00     0.151 C 
BRANCH  14  15
ATOM     15  C   UNL     1     174.483 250.520 351.960  1.00  0.00    -0.025 A 
ATOM     16  C   UNL     1     175.341 249.408 351.986  1.00  0.00     0.056 A 
ATOM     17  C   UNL     1     175.028 251.813 351.969  1.00  0.00     0.009 A 
ATOM     18  C   UNL     1     176.741 249.585 352.019  1.00  0.00     0.160 A 
ATOM     19  C   UNL     1     176.413 251.994 352.007  1.00  0.00     0.050 A 
ATOM     20  C   UNL     1     177.272 250.890 352.032  1.00  0.00     0.157 A 
BRANCH  18  21
ATOM     21  O   UNL     1     177.628 248.493 352.039  1.00  0.00    -0.493 OA
ATOM     22  C   UNL     1     177.895 247.650 350.921  1.00  0.00     0.278 C 
ENDBRANCH  18  21
BRANCH  20  23
ATOM     23  O   UNL     1     178.651 251.111 352.072  1.00  0.00    -0.504 OA
ATOM     24  H   UNL     1     179.098 251.836 351.525  1.00  0.00     0.293 HD
ENDBRANCH  20  23
ENDBRANCH  14  15
ENDBRANCH  12  14
ENDBRANCH   9  10
ENDBRANCH   1   9
TORSDOF 10
ENDMDL
MODEL 2
REMARK VINA RESULT:    -5.200     13.790     16.159
REMARK INTER + INTRA:          -8.610
REMARK INTER:                  -8.049
REMARK INTRA:                  -0.561
REMARK UNBOUND:                -0.522
REMARK SMILES COc1cc(CNC(=O)CCCCC=CC(C)C)ccc1O
REMARK SMILES IDX 11 1 12 2 13 3 14 4 15 5 16 6 17 7 18 8 10 9 8 10 9 11 7 12
REMARK SMILES IDX 6 14 5 15 4 16 19 17 3 18 20 19 21 20 2 21 1 22 22 23
REMARK H PARENT 7 13 22 24
REMARK Flexibility Score: inf
ROOT
ATOM      1  C   UNL     1     166.748 262.073 338.882  1.00  0.00     0.010 C 
ENDROOT
BRANCH   1   2
ATOM      2  C   UNL     1     165.826 263.269 338.581  1.00  0.00     0.005 C 
BRANCH   2   3
ATOM      3  C   UNL     1     164.792 262.985 337.477  1.00  0.00     0.027 C 
BRANCH   3   4
ATOM      4  C   UNL     1     164.687 264.140 336.509  1.00  0.00    -0.031 C 
ATOM      5  C   UNL     1     164.681 264.070 335.158  1.00  0.00    -0.028 C 
BRANCH   5   6
ATOM      6  C   UNL     1     164.646 262.829 334.280  1.00  0.00     0.005 C 
ATOM      7  C   UNL     1     166.011 262.519 333.657  1.00  0.00     0.012 C 
ATOM      8  C   UNL     1     163.517 262.833 333.239  1.00  0.00     0.012 C 
ENDBRANCH   5   6
ENDBRANCH   3   4
ENDBRANCH   2   3
ENDBRANCH   1   2
BRANCH   1   9
ATOM      9  C   UNL     1     168.079 262.504 339.516  1.00  0.00     0.100 C 
BRANCH   9  10
ATOM     10  C   UNL     1     168.445 261.585 340.642  1.00  0.00     0.220 C 
ATOM     11  O   UNL     1     169.566 261.002 340.627  1.00  0.00    -0.275 OA
ATOM     12  N   UNL     1     167.534 261.380 341.736  1.00  0.00    -0.352 N 
ATOM     13  H   UNL     1     166.598 261.845 341.717  1.00  0.00     0.163 HD
BRANCH  12  14
ATOM     14  C   UNL     1     167.872 260.552 342.893  1.00  0.00     0.151 C 
BRANCH  14  15
ATOM     15  C   UNL     1     166.716 260.497 343.858  1.00  0.00    -0.025 A 
ATOM     16  C   UNL     1     166.737 261.255 345.041  1.00  0.00     0.056 A 
ATOM     17  C   UNL     1     165.616 259.669 343.589  1.00  0.00     0.009 A 
ATOM     18  C   UNL     1     165.663 261.188 345.954  1.00  0.00     0.160 A 
ATOM     19  C   UNL     1     164.550 259.595 344.491  1.00  0.00     0.050 A 
ATOM     20  C   UNL     1     164.567 260.348 345.670  1.00  0.00     0.157 A 
BRANCH  18  21
ATOM     21  O   UNL     1     165.650 261.937 347.144  1.00  0.00    -0.493 OA
ATOM     22  C   UNL     1     166.660 262.871 347.520  1.00  0.00     0.278 C 
ENDBRANCH  18  21
BRANCH  20  23
ATOM     23  O   UNL     1     163.486 260.245 346.549  1.00  0.00    -0.504 OA
ATOM     24  H   UNL     1     162.717 259.606 346.388  1.00  0.00     0.293 HD
ENDBRANCH  20  23
ENDBRANCH  14  15
ENDBRANCH  12  14
ENDBRANCH   9  10
ENDBRANCH   1   9
TORSDOF 10
ENDMDL
MODEL 3
REMARK VINA RESULT:    -5.015     13.294     14.284
REMARK INTER + INTRA:          -8.323
REMARK INTER:                  -7.803
REMARK INTRA:                  -0.520
REMARK UNBOUND:                -0.522
REMARK SMILES COc1cc(CNC(=O)CCCCC=CC(C)C)ccc1O
REMARK SMILES IDX 11 1 12 2 13 3 14 4 15 5 16 6 17 7 18 8 10 9 8 10 9 11 7 12
REMARK SMILES IDX 6 14 5 15 4 16 19 17 3 18 20 19 21 20 2 21 1 22 22 23
REMARK H PARENT 7 13 22 24
REMARK Flexibility Score: inf
ROOT
ATOM      1  C   UNL     1     165.983 260.250 344.485  1.00  0.00     0.010 C 
ENDROOT
BRANCH   1   2
ATOM      2  C   UNL     1     166.774 261.365 343.777  1.00  0.00     0.005 C 
BRANCH   2   3
ATOM      3  C   UNL     1     167.342 260.944 342.410  1.00  0.00     0.027 C 
BRANCH   3   4
ATOM      4  C   UNL     1     168.788 260.521 342.521  1.00  0.00    -0.031 C 
ATOM      5  C   UNL     1     169.846 261.065 341.877  1.00  0.00    -0.028 C 
BRANCH   5   6
ATOM      6  C   UNL     1     169.876 262.302 340.994  1.00  0.00     0.005 C 
ATOM      7  C   UNL     1     169.129 262.091 339.672  1.00  0.00     0.012 C 
ATOM      8  C   UNL     1     171.280 262.886 340.783  1.00  0.00     0.012 C 
ENDBRANCH   5   6
ENDBRANCH   3   4
ENDBRANCH   2   3
ENDBRANCH   1   2
BRANCH   1   9
ATOM      9  C   UNL     1     166.117 260.316 346.013  1.00  0.00     0.100 C 
BRANCH   9  10
ATOM     10  C   UNL     1     165.833 261.704 346.505  1.00  0.00     0.220 C 
ATOM     11  O   UNL     1     164.666 262.173 346.392  1.00  0.00    -0.275 OA
ATOM     12  N   UNL     1     166.876 262.486 347.111  1.00  0.00    -0.352 N 
ATOM     13  H   UNL     1     167.843 262.094 347.167  1.00  0.00     0.163 HD
BRANCH  12  14
ATOM     14  C   UNL     1     166.633 263.814 347.672  1.00  0.00     0.151 C 
BRANCH  14  15
ATOM     15  C   UNL     1     167.551 264.069 348.841  1.00  0.00    -0.025 A 
ATOM     16  C   UNL     1     167.026 264.389 350.104  1.00  0.00     0.056 A 
ATOM     17  C   UNL     1     168.942 264.007 348.667  1.00  0.00     0.009 A 
ATOM     18  C   UNL     1     167.886 264.646 351.193  1.00  0.00     0.160 A 
ATOM     19  C   UNL     1     169.799 264.264 349.741  1.00  0.00     0.050 A 
ATOM     20  C   UNL     1     169.281 264.584 351.000  1.00  0.00     0.157 A 
BRANCH  18  21
ATOM     21  O   UNL     1     167.393 264.964 352.471  1.00  0.00    -0.493 OA
ATOM     22  C   UNL     1     166.235 264.375 353.058  1.00  0.00     0.278 C 
ENDBRANCH  18  21
BRANCH  20  23
ATOM     23  O   UNL     1     170.169 264.838 352.048  1.00  0.00    -0.504 OA
ATOM     24  H   UNL     1     170.696 264.101 352.501  1.00  0.00     0.293 HD
ENDBRANCH  20  23
ENDBRANCH  14  15
ENDBRANCH  12  14
ENDBRANCH   9  10
ENDBRANCH   1   9
TORSDOF 10
ENDMDL
MODEL 4
REMARK VINA RESULT:    -4.783     13.382     16.012
REMARK INTER + INTRA:          -7.962
REMARK INTER:                  -7.360
REMARK INTRA:                  -0.602
REMARK UNBOUND:                -0.522
REMARK SMILES COc1cc(CNC(=O)CCCCC=CC(C)C)ccc1O
REMARK SMILES IDX 11 1 12 2 13 3 14 4 15 5 16 6 17 7 18 8 10 9 8 10 9 11 7 12
REMARK SMILES IDX 6 14 5 15 4 16 19 17 3 18 20 19 21 20 2 21 1 22 22 23
REMARK H PARENT 7 13 22 24
REMARK Flexibility Score: inf
ROOT
ATOM      1  C   UNL     1     166.772 262.504 347.455  1.00  0.00     0.010 C 
ENDROOT
BRANCH   1   2
ATOM      2  C   UNL     1     167.113 263.995 347.280  1.00  0.00     0.005 C 
BRANCH   2   3
ATOM      3  C   UNL     1     167.475 264.702 348.598  1.00  0.00     0.027 C 
BRANCH   3   4
ATOM      4  C   UNL     1     168.882 264.369 349.035  1.00  0.00    -0.031 C 
ATOM      5  C   UNL     1     169.370 264.395 350.296  1.00  0.00    -0.028 C 
BRANCH   5   6
ATOM      6  C   UNL     1     168.613 264.633 351.593  1.00  0.00     0.005 C 
ATOM      7  C   UNL     1     169.537 265.081 352.731  1.00  0.00     0.012 C 
ATOM      8  C   UNL     1     167.701 263.470 352.007  1.00  0.00     0.012 C 
ENDBRANCH   5   6
ENDBRANCH   3   4
ENDBRANCH   2   3
ENDBRANCH   1   2
BRANCH   1   9
ATOM      9  C   UNL     1     165.465 262.114 346.749  1.00  0.00     0.100 C 
BRANCH   9  10
ATOM     10  C   UNL     1     165.712 261.017 345.757  1.00  0.00     0.220 C 
ATOM     11  O   UNL     1     165.215 259.874 345.962  1.00  0.00    -0.275 OA
ATOM     12  N   UNL     1     166.495 261.269 344.578  1.00  0.00    -0.352 N 
ATOM     13  H   UNL     1     166.925 262.212 344.440  1.00  0.00     0.163 HD
BRANCH  12  14
ATOM     14  C   UNL     1     166.703 260.255 343.545  1.00  0.00     0.151 C 
BRANCH  14  15
ATOM     15  C   UNL     1     167.733 260.722 342.547  1.00  0.00    -0.025 A 
ATOM     16  C   UNL     1     167.342 261.425 341.395  1.00  0.00     0.056 A 
ATOM     17  C   UNL     1     169.091 260.438 342.755  1.00  0.00     0.009 A 
ATOM     18  C   UNL     1     168.304 261.845 340.452  1.00  0.00     0.160 A 
ATOM     19  C   UNL     1     170.048 260.848 341.823  1.00  0.00     0.050 A 
ATOM     20  C   UNL     1     169.664 261.548 340.674  1.00  0.00     0.157 A 
BRANCH  18  21
ATOM     21  O   UNL     1     167.947 262.556 339.292  1.00  0.00    -0.493 OA
ATOM     22  C   UNL     1     166.649 262.538 338.703  1.00  0.00     0.278 C 
ENDBRANCH  18  21
BRANCH  20  23
ATOM     23  O   UNL     1     170.648 261.939 339.763  1.00  0.00    -0.504 OA
ATOM     24  H   UNL     1     171.402 261.322 339.485  1.00  0.00     0.293 HD
ENDBRANCH  20  23
ENDBRANCH  14  15
ENDBRANCH  12  14
ENDBRANCH   9  10
ENDBRANCH   1   9
TORSDOF 10
ENDMDL
MODEL 5
REMARK VINA RESULT:    -4.321      9.428     16.221
REMARK INTER + INTRA:          -7.244
REMARK INTER:                  -6.724
REMARK INTRA:                  -0.520
REMARK UNBOUND:                -0.522
REMARK SMILES COc1cc(CNC(=O)CCCCC=CC(C)C)ccc1O
REMARK SMILES IDX 11 1 12 2 13 3 14 4 15 5 16 6 17 7 18 8 10 9 8 10 9 11 7 12
REMARK SMILES IDX 6 14 5 15 4 16 19 17 3 18 20 19 21 20 2 21 1 22 22 23
REMARK H PARENT 7 13 22 24
REMARK Flexibility Score: inf
ROOT
ATOM      1  C   UNL     1     168.707 250.380 338.544  1.00  0.00     0.010 C 
ENDROOT
BRANCH   1   2
ATOM      2  C   UNL     1     168.416 251.260 339.773  1.00  0.00     0.005 C 
BRANCH   2   3
ATOM      3  C   UNL     1     169.374 251.008 340.951  1.00  0.00     0.027 C 
BRANCH   3   4
ATOM      4  C   UNL     1     168.861 249.912 341.854  1.00  0.00    -0.031 C 
ATOM      5  C   UNL     1     169.317 249.594 343.088  1.00  0.00    -0.028 C 
BRANCH   5   6
ATOM      6  C   UNL     1     170.355 250.326 343.924  1.00  0.00     0.005 C 
ATOM      7  C   UNL     1     171.412 249.376 344.499  1.00  0.00     0.012 C 
ATOM      8  C   UNL     1     169.756 251.249 344.995  1.00  0.00     0.012 C 
ENDBRANCH   5   6
ENDBRANCH   3   4
ENDBRANCH   2   3
ENDBRANCH   1   2
BRANCH   1   9
ATOM      9  C   UNL     1     168.245 251.031 337.233  1.00  0.00     0.100 C 
BRANCH   9  10
ATOM     10  C   UNL     1     168.628 250.179 336.060  1.00  0.00     0.220 C 
ATOM     11  O   UNL     1     169.829 250.172 335.667  1.00  0.00    -0.275 OA
ATOM     12  N   UNL     1     167.642 249.367 335.401  1.00  0.00    -0.352 N 
ATOM     13  H   UNL     1     166.648 249.409 335.720  1.00  0.00     0.163 HD
BRANCH  12  14
ATOM     14  C   UNL     1     167.980 248.464 334.301  1.00  0.00     0.151 C 
BRANCH  14  15
ATOM     15  C   UNL     1     166.826 247.538 334.006  1.00  0.00    -0.025 A 
ATOM     16  C   UNL     1     165.554 247.790 334.546  1.00  0.00     0.056 A 
ATOM     17  C   UNL     1     167.025 246.404 333.204  1.00  0.00     0.009 A 
ATOM     18  C   UNL     1     164.480 246.912 334.285  1.00  0.00     0.160 A 
ATOM     19  C   UNL     1     165.966 245.529 332.945  1.00  0.00     0.050 A 
ATOM     20  C   UNL     1     164.697 245.775 333.480  1.00  0.00     0.157 A 
BRANCH  18  21
ATOM     21  O   UNL     1     163.192 247.137 334.805  1.00  0.00    -0.493 OA
ATOM     22  C   UNL     1     162.623 248.426 335.017  1.00  0.00     0.278 C 
ENDBRANCH  18  21
BRANCH  20  23
ATOM     23  O   UNL     1     163.664 244.876 333.203  1.00  0.00    -0.504 OA
ATOM     24  H   UNL     1     163.535 244.468 332.285  1.00  0.00     0.293 HD
ENDBRANCH  20  23
ENDBRANCH  14  15
ENDBRANCH  12  14
ENDBRANCH   9  10
ENDBRANCH   1   9
TORSDOF 10
ENDMDL
MODEL 6
REMARK VINA RESULT:    -4.256     14.441     18.995
REMARK INTER + INTRA:          -7.142
REMARK INTER:                  -6.576
REMARK INTRA:                  -0.565
REMARK UNBOUND:                -0.522
REMARK SMILES COc1cc(CNC(=O)CCCCC=CC(C)C)ccc1O
REMARK SMILES IDX 11 1 12 2 13 3 14 4 15 5 16 6 17 7 18 8 10 9 8 10 9 11 7 12
REMARK SMILES IDX 6 14 5 15 4 16 19 17 3 18 20 19 21 20 2 21 1 22 22 23
REMARK H PARENT 7 13 22 24
REMARK Flexibility Score: inf
ROOT
ATOM      1  C   UNL     1     168.414 260.882 341.840  1.00  0.00     0.010 C 
ENDROOT
BRANCH   1   2
ATOM      2  C   UNL     1     167.155 261.372 342.578  1.00  0.00     0.005 C 
BRANCH   2   3
ATOM      3  C   UNL     1     166.920 260.671 343.927  1.00  0.00     0.027 C 
BRANCH   3   4
ATOM      4  C   UNL     1     165.750 259.718 343.856  1.00  0.00    -0.031 C 
ATOM      5  C   UNL     1     164.563 259.839 344.495  1.00  0.00    -0.028 C 
BRANCH   5   6
ATOM      6  C   UNL     1     164.057 261.006 345.327  1.00  0.00     0.005 C 
ATOM      7  C   UNL     1     164.797 261.131 346.663  1.00  0.00     0.012 C 
ATOM      8  C   UNL     1     162.532 261.034 345.501  1.00  0.00     0.012 C 
ENDBRANCH   5   6
ENDBRANCH   3   4
ENDBRANCH   2   3
ENDBRANCH   1   2
BRANCH   1   9
ATOM      9  C   UNL     1     168.235 260.874 340.315  1.00  0.00     0.100 C 
BRANCH   9  10
ATOM     10  C   UNL     1     167.817 262.230 339.830  1.00  0.00     0.220 C 
ATOM     11  O   UNL     1     168.658 263.173 339.828  1.00  0.00    -0.275 OA
ATOM     12  N   UNL     1     166.477 262.450 339.358  1.00  0.00    -0.352 N 
ATOM     13  H   UNL     1     165.786 261.667 339.396  1.00  0.00     0.163 HD
BRANCH  12  14
ATOM     14  C   UNL     1     166.041 263.733 338.808  1.00  0.00     0.151 C 
BRANCH  14  15
ATOM     15  C   UNL     1     165.364 263.532 337.475  1.00  0.00    -0.025 A 
ATOM     16  C   UNL     1     165.744 264.295 336.359  1.00  0.00     0.056 A 
ATOM     17  C   UNL     1     164.330 262.591 337.349  1.00  0.00     0.009 A 
ATOM     18  C   UNL     1     165.096 264.120 335.117  1.00  0.00     0.160 A 
ATOM     19  C   UNL     1     163.682 262.416 336.123  1.00  0.00     0.050 A 
ATOM     20  C   UNL     1     164.057 263.173 335.009  1.00  0.00     0.157 A 
BRANCH  18  21
ATOM     21  O   UNL     1     165.456 264.863 333.979  1.00  0.00    -0.493 OA
ATOM     22  C   UNL     1     166.761 264.877 333.405  1.00  0.00     0.278 C 
ENDBRANCH  18  21
BRANCH  20  23
ATOM     23  O   UNL     1     163.384 262.972 333.801  1.00  0.00    -0.504 OA
ATOM     24  H   UNL     1     162.847 263.706 333.353  1.00  0.00     0.293 HD
ENDBRANCH  20  23
ENDBRANCH  14  15
ENDBRANCH  12  14
ENDBRANCH   9  10
ENDBRANCH   1   9
TORSDOF 10
ENDMDL
MODEL 7
REMARK VINA RESULT:    -4.248      2.910      9.030
REMARK INTER + INTRA:          -7.129
REMARK INTER:                  -6.449
REMARK INTRA:                  -0.680
REMARK UNBOUND:                -0.522
REMARK SMILES COc1cc(CNC(=O)CCCCC=CC(C)C)ccc1O
REMARK SMILES IDX 11 1 12 2 13 3 14 4 15 5 16 6 17 7 18 8 10 9 8 10 9 11 7 12
REMARK SMILES IDX 6 14 5 15 4 16 19 17 3 18 20 19 21 20 2 21 1 22 22 23
REMARK H PARENT 7 13 22 24
REMARK Flexibility Score: inf
ROOT
ATOM      1  C   UNL     1     172.632 251.071 351.137  1.00  0.00     0.010 C 
ENDROOT
BRANCH   1   2
ATOM      2  C   UNL     1     173.297 250.155 352.181  1.00  0.00     0.005 C 
BRANCH   2   3
ATOM      3  C   UNL     1     174.698 250.625 352.609  1.00  0.00     0.027 C 
BRANCH   3   4
ATOM      4  C   UNL     1     175.612 250.794 351.418  1.00  0.00    -0.031 C 
ATOM      5  C   UNL     1     176.631 249.982 351.054  1.00  0.00    -0.028 C 
BRANCH   5   6
ATOM      6  C   UNL     1     177.032 248.646 351.658  1.00  0.00     0.005 C 
ATOM      7  C   UNL     1     178.522 248.345 351.465  1.00  0.00     0.012 C 
ATOM      8  C   UNL     1     176.140 247.473 351.228  1.00  0.00     0.012 C 
ENDBRANCH   5   6
ENDBRANCH   3   4
ENDBRANCH   2   3
ENDBRANCH   1   2
BRANCH   1   9
ATOM      9  C   UNL     1     171.592 250.330 350.285  1.00  0.00     0.100 C 
BRANCH   9  10
ATOM     10  C   UNL     1     170.877 251.289 349.381  1.00  0.00     0.220 C 
ATOM     11  O   UNL     1     170.413 252.362 349.859  1.00  0.00    -0.275 OA
ATOM     12  N   UNL     1     170.735 250.996 347.980  1.00  0.00    -0.352 N 
ATOM     13  H   UNL     1     171.097 250.089 347.607  1.00  0.00     0.163 HD
BRANCH  12  14
ATOM     14  C   UNL     1     170.111 251.930 347.044  1.00  0.00     0.151 C 
BRANCH  14  15
ATOM     15  C   UNL     1     169.995 251.307 345.676  1.00  0.00    -0.025 A 
ATOM     16  C   UNL     1     170.646 250.097 345.386  1.00  0.00     0.056 A 
ATOM     17  C   UNL     1     169.248 251.947 344.675  1.00  0.00     0.009 A 
ATOM     18  C   UNL     1     170.553 249.523 344.099  1.00  0.00     0.160 A 
ATOM     19  C   UNL     1     169.155 251.386 343.398  1.00  0.00     0.050 A 
ATOM     20  C   UNL     1     169.802 250.181 343.104  1.00  0.00     0.157 A 
BRANCH  18  21
ATOM     21  O   UNL     1     171.187 248.311 343.777  1.00  0.00    -0.493 OA
ATOM     22  C   UNL     1     170.535 247.043 343.743  1.00  0.00     0.278 C 
ENDBRANCH  18  21
BRANCH  20  23
ATOM     23  O   UNL     1     169.688 249.653 341.815  1.00  0.00    -0.504 OA
ATOM     24  H   UNL     1     169.498 250.235 341.008  1.00  0.00     0.293 HD
ENDBRANCH  20  23
ENDBRANCH  14  15
ENDBRANCH  12  14
ENDBRANCH   9  10
ENDBRANCH   1   9
TORSDOF 10
ENDMDL
MODEL 8
REMARK VINA RESULT:    -4.221      9.436     15.957
REMARK INTER + INTRA:          -7.088
REMARK INTER:                  -6.861
REMARK INTRA:                  -0.227
REMARK UNBOUND:                -0.522
REMARK SMILES COc1cc(CNC(=O)CCCCC=CC(C)C)ccc1O
REMARK SMILES IDX 11 1 12 2 13 3 14 4 15 5 16 6 17 7 18 8 10 9 8 10 9 11 7 12
REMARK SMILES IDX 6 14 5 15 4 16 19 17 3 18 20 19 21 20 2 21 1 22 22 23
REMARK H PARENT 7 13 22 24
REMARK Flexibility Score: inf
ROOT
ATOM      1  C   UNL     1     168.464 250.465 338.383  1.00  0.00     0.010 C 
ENDROOT
BRANCH   1   2
ATOM      2  C   UNL     1     168.589 251.289 339.677  1.00  0.00     0.005 C 
BRANCH   2   3
ATOM      3  C   UNL     1     169.237 250.516 340.839  1.00  0.00     0.027 C 
BRANCH   3   4
ATOM      4  C   UNL     1     169.073 251.250 342.150  1.00  0.00    -0.031 C 
ATOM      5  C   UNL     1     169.562 250.880 343.356  1.00  0.00    -0.028 C 
BRANCH   5   6
ATOM      6  C   UNL     1     170.495 249.724 343.678  1.00  0.00     0.005 C 
ATOM      7  C   UNL     1     169.887 248.366 343.313  1.00  0.00     0.012 C 
ATOM      8  C   UNL     1     171.048 249.749 345.110  1.00  0.00     0.012 C 
ENDBRANCH   5   6
ENDBRANCH   3   4
ENDBRANCH   2   3
ENDBRANCH   1   2
BRANCH   1   9
ATOM      9  C   UNL     1     168.884 251.259 337.139  1.00  0.00     0.100 C 
BRANCH   9  10
ATOM     10  C   UNL     1     168.456 250.544 335.892  1.00  0.00     0.220 C 
ATOM     11  O   UNL     1     168.718 251.054 334.766  1.00  0.00    -0.275 OA
ATOM     12  N   UNL     1     167.768 249.285 335.978  1.00  0.00    -0.352 N 
ATOM     13  H   UNL     1     167.532 248.894 336.918  1.00  0.00     0.163 HD
BRANCH  12  14
ATOM     14  C   UNL     1     167.395 248.514 334.793  1.00  0.00     0.151 C 
BRANCH  14  15
ATOM     15  C   UNL     1     165.913 248.233 334.792  1.00  0.00    -0.025 A 
ATOM     16  C   UNL     1     165.437 246.917 334.918  1.00  0.00     0.056 A 
ATOM     17  C   UNL     1     164.999 249.287 334.645  1.00  0.00     0.009 A 
ATOM     18  C   UNL     1     164.051 246.652 334.898  1.00  0.00     0.160 A 
ATOM     19  C   UNL     1     163.625 249.031 334.620  1.00  0.00     0.050 A 
ATOM     20  C   UNL     1     163.146 247.723 334.745  1.00  0.00     0.157 A 
BRANCH  18  21
ATOM     21  O   UNL     1     163.540 245.348 335.026  1.00  0.00    -0.493 OA
ATOM     22  C   UNL     1     162.810 244.876 336.156  1.00  0.00     0.278 C 
ENDBRANCH  18  21
BRANCH  20  23
ATOM     23  O   UNL     1     161.766 247.505 334.712  1.00  0.00    -0.504 OA
ATOM     24  H   UNL     1     161.100 248.268 334.701  1.00  0.00     0.293 HD
ENDBRANCH  20  23
ENDBRANCH  14  15
ENDBRANCH  12  14
ENDBRANCH   9  10
ENDBRANCH   1   9
TORSDOF 10
ENDMDL
MODEL 9
REMARK VINA RESULT:    -4.082      3.100      9.601
REMARK INTER + INTRA:          -6.872
REMARK INTER:                  -6.354
REMARK INTRA:                  -0.517
REMARK UNBOUND:                -0.522
REMARK SMILES COc1cc(CNC(=O)CCCCC=CC(C)C)ccc1O
REMARK SMILES IDX 11 1 12 2 13 3 14 4 15 5 16 6 17 7 18 8 10 9 8 10 9 11 7 12
REMARK SMILES IDX 6 14 5 15 4 16 19 17 3 18 20 19 21 20 2 21 1 22 22 23
REMARK H PARENT 7 13 22 24
REMARK Flexibility Score: inf
ROOT
ATOM      1  C   UNL     1     172.408 251.251 350.880  1.00  0.00     0.010 C 
ENDROOT
BRANCH   1   2
ATOM      2  C   UNL     1     173.377 250.317 351.629  1.00  0.00     0.005 C 
BRANCH   2   3
ATOM      3  C   UNL     1     174.352 251.060 352.558  1.00  0.00     0.027 C 
BRANCH   3   4
ATOM      4  C   UNL     1     175.372 251.849 351.770  1.00  0.00    -0.031 C 
ATOM      5  C   UNL     1     176.665 251.517 351.552  1.00  0.00    -0.028 C 
BRANCH   5   6
ATOM      6  C   UNL     1     177.382 250.228 351.922  1.00  0.00     0.005 C 
ATOM      7  C   UNL     1     178.716 250.487 352.631  1.00  0.00     0.012 C 
ATOM      8  C   UNL     1     177.522 249.236 350.759  1.00  0.00     0.012 C 
ENDBRANCH   5   6
ENDBRANCH   3   4
ENDBRANCH   2   3
ENDBRANCH   1   2
BRANCH   1   9
ATOM      9  C   UNL     1     171.275 250.484 350.183  1.00  0.00     0.100 C 
BRANCH   9  10
ATOM     10  C   UNL     1     170.724 251.286 349.042  1.00  0.00     0.220 C 
ATOM     11  O   UNL     1     170.133 252.376 349.281  1.00  0.00    -0.275 OA
ATOM     12  N   UNL     1     170.880 250.824 347.689  1.00  0.00    -0.352 N 
ATOM     13  H   UNL     1     171.343 249.905 347.512  1.00  0.00     0.163 HD
BRANCH  12  14
ATOM     14  C   UNL     1     170.425 251.604 346.539  1.00  0.00     0.151 C 
BRANCH  14  15
ATOM     15  C   UNL     1     170.306 250.725 345.320  1.00  0.00    -0.025 A 
ATOM     16  C   UNL     1     169.503 251.114 344.235  1.00  0.00     0.056 A 
ATOM     17  C   UNL     1     170.985 249.497 345.272  1.00  0.00     0.009 A 
ATOM     18  C   UNL     1     169.377 250.281 343.102  1.00  0.00     0.160 A 
ATOM     19  C   UNL     1     170.861 248.667 344.154  1.00  0.00     0.050 A 
ATOM     20  C   UNL     1     170.062 249.049 343.072  1.00  0.00     0.157 A 
BRANCH  18  21
ATOM     21  O   UNL     1     168.585 250.643 341.998  1.00  0.00    -0.493 OA
ATOM     22  C   UNL     1     169.104 251.057 340.736  1.00  0.00     0.278 C 
ENDBRANCH  18  21
BRANCH  20  23
ATOM     23  O   UNL     1     169.960 248.191 341.974  1.00  0.00    -0.504 OA
ATOM     24  H   UNL     1     169.081 248.024 341.499  1.00  0.00     0.293 HD
ENDBRANCH  20  23
ENDBRANCH  14  15
ENDBRANCH  12  14
ENDBRANCH   9  10
ENDBRANCH   1   9
TORSDOF 10
ENDMDL
