MODEL 1
REMARK VINA RESULT:    -4.982      0.000      0.000
REMARK INTER + INTRA:          -6.841
REMARK INTER:                  -6.438
REMARK INTRA:                  -0.403
REMARK UNBOUND:                -0.403
REMARK SMILES CCO[C@@H]1O[C@@H](CO)[C@@H](O)[C@H](O)[C@@H]1O
REMARK SMILES IDX 4 1 13 2 11 3 9 4 6 5 5 6 3 7 2 8 1 9 14 10 12 12 7 14 8 15
REMARK SMILES IDX 10 17
REMARK H PARENT 14 11 12 13 8 16 10 18
REMARK Flexibility Score: inf
ROOT
ATOM      1  C   UNL     1     234.382 241.096 241.652  1.00  0.00     0.281 C 
ATOM      2  C   UNL     1     235.126 240.666 240.366  1.00  0.00     0.202 C 
ATOM      3  C   UNL     1     234.709 239.257 239.890  1.00  0.00     0.179 C 
ATOM      4  C   UNL     1     233.178 239.073 239.948  1.00  0.00     0.177 C 
ATOM      5  C   UNL     1     232.623 239.580 241.303  1.00  0.00     0.178 C 
ATOM      6  O   UNL     1     232.977 240.938 241.510  1.00  0.00    -0.341 OA
ENDROOT
BRANCH   1   7
ATOM      7  O   UNL     1     234.881 240.391 242.778  1.00  0.00    -0.350 OA
BRANCH   7   8
ATOM      8  C   UNL     1     234.797 241.195 243.936  1.00  0.00     0.160 C 
ATOM      9  C   UNL     1     233.686 240.666 244.828  1.00  0.00     0.035 C 
ENDBRANCH   7   8
ENDBRANCH   1   7
BRANCH   2  10
ATOM     10  O   UNL     1     236.516 240.711 240.560  1.00  0.00    -0.385 OA
ATOM     11  H   UNL     1     236.827 239.770 240.629  1.00  0.00     0.211 HD
ENDBRANCH   2  10
BRANCH   3  12
ATOM     12  O   UNL     1     235.386 238.239 240.591  1.00  0.00    -0.387 OA
ATOM     13  H   UNL     1     234.748 237.506 240.777  1.00  0.00     0.211 HD
ENDBRANCH   3  12
BRANCH   5  14
ATOM     14  C   UNL     1     231.095 239.462 241.372  1.00  0.00     0.191 C 
BRANCH  14  15
ATOM     15  O   UNL     1     230.658 238.367 240.617  1.00  0.00    -0.394 OA
ATOM     16  H   UNL     1     230.147 237.788 241.241  1.00  0.00     0.210 HD
ENDBRANCH  14  15
ENDBRANCH   5  14
BRANCH   4  17
ATOM     17  O   UNL     1     232.598 239.793 238.887  1.00  0.00    -0.387 OA
ATOM     18  H   UNL     1     233.091 239.548 238.061  1.00  0.00     0.211 HD
ENDBRANCH   4  17
TORSDOF 7
ENDMDL
MODEL 2
REMARK VINA RESULT:    -4.921      1.534      4.144
REMARK INTER + INTRA:          -6.762
REMARK INTER:                  -6.314
REMARK INTRA:                  -0.448
REMARK UNBOUND:                -0.403
REMARK SMILES CCO[C@@H]1O[C@@H](CO)[C@@H](O)[C@H](O)[C@@H]1O
REMARK SMILES IDX 4 1 13 2 11 3 9 4 6 5 5 6 3 7 2 8 1 9 14 10 12 12 7 14 8 15
REMARK SMILES IDX 10 17
REMARK H PARENT 14 11 12 13 8 16 10 18
REMARK Flexibility Score: inf
ROOT
ATOM      1  C   UNL     1     233.990 240.490 240.544  1.00  0.00     0.281 C 
ATOM      2  C   UNL     1     232.450 240.579 240.441  1.00  0.00     0.202 C 
ATOM      3  C   UNL     1     231.747 240.135 241.742  1.00  0.00     0.179 C 
ATOM      4  C   UNL     1     232.435 240.736 242.986  1.00  0.00     0.177 C 
ATOM      5  C   UNL     1     233.972 240.566 242.891  1.00  0.00     0.178 C 
ATOM      6  O   UNL     1     234.467 241.161 241.703  1.00  0.00    -0.341 OA
ENDROOT
BRANCH   1   7
ATOM      7  O   UNL     1     234.417 239.137 240.505  1.00  0.00    -0.350 OA
BRANCH   7   8
ATOM      8  C   UNL     1     235.631 239.026 239.791  1.00  0.00     0.160 C 
ATOM      9  C   UNL     1     235.507 239.787 238.481  1.00  0.00     0.035 C 
ENDBRANCH   7   8
ENDBRANCH   1   7
BRANCH   2  10
ATOM     10  O   UNL     1     231.981 239.811 239.361  1.00  0.00    -0.385 OA
ATOM     11  H   UNL     1     232.692 239.150 239.151  1.00  0.00     0.211 HD
ENDBRANCH   2  10
BRANCH   3  12
ATOM     12  O   UNL     1     231.635 238.733 241.833  1.00  0.00    -0.387 OA
ATOM     13  H   UNL     1     232.519 238.361 242.074  1.00  0.00     0.211 HD
ENDBRANCH   3  12
BRANCH   5  14
ATOM     14  C   UNL     1     234.691 241.202 244.087  1.00  0.00     0.191 C 
BRANCH  14  15
ATOM     15  O   UNL     1     233.966 240.978 245.264  1.00  0.00    -0.394 OA
ATOM     16  H   UNL     1     233.649 241.869 245.566  1.00  0.00     0.210 HD
ENDBRANCH  14  15
ENDBRANCH   5  14
BRANCH   4  17
ATOM     17  O   UNL     1     232.104 242.102 243.067  1.00  0.00    -0.387 OA
ATOM     18  H   UNL     1     231.119 242.172 242.967  1.00  0.00     0.211 HD
ENDBRANCH   4  17
TORSDOF 7
ENDMDL
MODEL 3
REMARK VINA RESULT:    -4.886      1.342      3.604
REMARK INTER + INTRA:          -6.717
REMARK INTER:                  -6.311
REMARK INTRA:                  -0.405
REMARK UNBOUND:                -0.403
REMARK SMILES CCO[C@@H]1O[C@@H](CO)[C@@H](O)[C@H](O)[C@@H]1O
REMARK SMILES IDX 4 1 13 2 11 3 9 4 6 5 5 6 3 7 2 8 1 9 14 10 12 12 7 14 8 15
REMARK SMILES IDX 10 17
REMARK H PARENT 14 11 12 13 8 16 10 18
REMARK Flexibility Score: inf
ROOT
ATOM      1  C   UNL     1     233.085 240.214 241.670  1.00  0.00     0.281 C 
ATOM      2  C   UNL     1     232.200 239.089 241.086  1.00  0.00     0.202 C 
ATOM      3  C   UNL     1     232.564 238.755 239.623  1.00  0.00     0.179 C 
ATOM      4  C   UNL     1     234.093 238.660 239.431  1.00  0.00     0.177 C 
ATOM      5  C   UNL     1     234.799 239.865 240.103  1.00  0.00     0.178 C 
ATOM      6  O   UNL     1     234.465 239.933 241.480  1.00  0.00    -0.341 OA
ENDROOT
BRANCH   1   7
ATOM      7  O   UNL     1     232.723 241.472 241.123  1.00  0.00    -0.350 OA
BRANCH   7   8
ATOM      8  C   UNL     1     232.916 242.496 242.076  1.00  0.00     0.160 C 
ATOM      9  C   UNL     1     232.668 241.933 243.466  1.00  0.00     0.035 C 
ENDBRANCH   7   8
ENDBRANCH   1   7
BRANCH   2  10
ATOM     10  O   UNL     1     230.841 239.435 241.171  1.00  0.00    -0.385 OA
ATOM     11  H   UNL     1     230.499 239.047 242.019  1.00  0.00     0.211 HD
ENDBRANCH   2  10
BRANCH   3  12
ATOM     12  O   UNL     1     231.978 239.656 238.712  1.00  0.00    -0.387 OA
ATOM     13  H   UNL     1     231.400 239.147 238.092  1.00  0.00     0.211 HD
ENDBRANCH   3  12
BRANCH   5  14
ATOM     14  C   UNL     1     236.325 239.773 239.979  1.00  0.00     0.191 C 
BRANCH  14  15
ATOM     15  O   UNL     1     236.858 239.066 241.065  1.00  0.00    -0.394 OA
ATOM     16  H   UNL     1     237.835 239.243 241.055  1.00  0.00     0.210 HD
ENDBRANCH  14  15
ENDBRANCH   5  14
BRANCH   4  17
ATOM     17  O   UNL     1     234.543 237.455 240.001  1.00  0.00    -0.387 OA
ATOM     18  H   UNL     1     234.549 236.773 239.281  1.00  0.00     0.211 HD
ENDBRANCH   4  17
TORSDOF 7
ENDMDL
MODEL 4
REMARK VINA RESULT:    -4.734      2.067      3.010
REMARK INTER + INTRA:          -6.521
REMARK INTER:                  -6.147
REMARK INTRA:                  -0.374
REMARK UNBOUND:                -0.403
REMARK SMILES CCO[C@@H]1O[C@@H](CO)[C@@H](O)[C@H](O)[C@@H]1O
REMARK SMILES IDX 4 1 13 2 11 3 9 4 6 5 5 6 3 7 2 8 1 9 14 10 12 12 7 14 8 15
REMARK SMILES IDX 10 17
REMARK H PARENT 14 11 12 13 8 16 10 18
REMARK Flexibility Score: inf
ROOT
ATOM      1  C   UNL     1     235.005 239.546 240.141  1.00  0.00     0.281 C 
ATOM      2  C   UNL     1     234.727 240.208 238.772  1.00  0.00     0.202 C 
ATOM      3  C   UNL     1     233.324 239.861 238.227  1.00  0.00     0.179 C 
ATOM      4  C   UNL     1     232.249 239.974 239.328  1.00  0.00     0.177 C 
ATOM      5  C   UNL     1     232.723 239.269 240.624  1.00  0.00     0.178 C 
ATOM      6  O   UNL     1     233.957 239.813 241.063  1.00  0.00    -0.341 OA
ENDROOT
BRANCH   1   7
ATOM      7  O   UNL     1     235.231 238.154 239.989  1.00  0.00    -0.350 OA
BRANCH   7   8
ATOM      8  C   UNL     1     236.383 237.762 240.706  1.00  0.00     0.160 C 
ATOM      9  C   UNL     1     236.433 236.244 240.774  1.00  0.00     0.035 C 
ENDBRANCH   7   8
ENDBRANCH   1   7
BRANCH   2  10
ATOM     10  O   UNL     1     235.706 239.837 237.836  1.00  0.00    -0.385 OA
ATOM     11  H   UNL     1     235.333 239.077 237.317  1.00  0.00     0.211 HD
ENDBRANCH   2  10
BRANCH   3  12
ATOM     12  O   UNL     1     233.296 238.601 237.597  1.00  0.00    -0.387 OA
ATOM     13  H   UNL     1     233.915 238.620 236.825  1.00  0.00     0.211 HD
ENDBRANCH   3  12
BRANCH   5  14
ATOM     14  C   UNL     1     231.700 239.410 241.758  1.00  0.00     0.191 C 
BRANCH  14  15
ATOM     15  O   UNL     1     230.398 239.396 241.241  1.00  0.00    -0.394 OA
ATOM     16  H   UNL     1     229.807 239.129 241.992  1.00  0.00     0.210 HD
ENDBRANCH  14  15
ENDBRANCH   5  14
BRANCH   4  17
ATOM     17  O   UNL     1     232.005 241.337 239.581  1.00  0.00    -0.387 OA
ATOM     18  H   UNL     1     232.824 241.835 239.324  1.00  0.00     0.211 HD
ENDBRANCH   4  17
TORSDOF 7
ENDMDL
MODEL 5
REMARK VINA RESULT:    -4.583      1.502      3.869
REMARK INTER + INTRA:          -6.326
REMARK INTER:                  -5.897
REMARK INTRA:                  -0.428
REMARK UNBOUND:                -0.403
REMARK SMILES CCO[C@@H]1O[C@@H](CO)[C@@H](O)[C@H](O)[C@@H]1O
REMARK SMILES IDX 4 1 13 2 11 3 9 4 6 5 5 6 3 7 2 8 1 9 14 10 12 12 7 14 8 15
REMARK SMILES IDX 10 17
REMARK H PARENT 14 11 12 13 8 16 10 18
REMARK Flexibility Score: inf
ROOT
ATOM      1  C   UNL     1     234.447 239.763 239.264  1.00  0.00     0.281 C 
ATOM      2  C   UNL     1     232.992 240.026 238.812  1.00  0.00     0.202 C 
ATOM      3  C   UNL     1     231.989 239.937 239.982  1.00  0.00     0.179 C 
ATOM      4  C   UNL     1     232.513 240.677 241.231  1.00  0.00     0.177 C 
ATOM      5  C   UNL     1     233.990 240.297 241.505  1.00  0.00     0.178 C 
ATOM      6  O   UNL     1     234.796 240.581 240.373  1.00  0.00    -0.341 OA
ENDROOT
BRANCH   1   7
ATOM      7  O   UNL     1     234.645 238.386 239.543  1.00  0.00    -0.350 OA
BRANCH   7   8
ATOM      8  C   UNL     1     235.998 238.034 239.341  1.00  0.00     0.160 C 
ATOM      9  C   UNL     1     236.567 237.487 240.640  1.00  0.00     0.035 C 
ENDBRANCH   7   8
ENDBRANCH   1   7
BRANCH   2  10
ATOM     10  O   UNL     1     232.620 239.128 237.797  1.00  0.00    -0.385 OA
ATOM     11  H   UNL     1     233.446 238.914 237.288  1.00  0.00     0.211 HD
ENDBRANCH   2  10
BRANCH   3  12
ATOM     12  O   UNL     1     231.631 238.606 240.275  1.00  0.00    -0.387 OA
ATOM     13  H   UNL     1     230.654 238.566 240.422  1.00  0.00     0.211 HD
ENDBRANCH   3  12
BRANCH   5  14
ATOM     14  C   UNL     1     234.560 241.059 242.709  1.00  0.00     0.191 C 
BRANCH  14  15
ATOM     15  O   UNL     1     233.546 241.328 243.637  1.00  0.00    -0.394 OA
ATOM     16  H   UNL     1     233.865 242.097 244.178  1.00  0.00     0.210 HD
ENDBRANCH  14  15
ENDBRANCH   5  14
BRANCH   4  17
ATOM     17  O   UNL     1     232.402 242.063 241.012  1.00  0.00    -0.387 OA
ATOM     18  H   UNL     1     231.485 242.330 241.280  1.00  0.00     0.211 HD
ENDBRANCH   4  17
TORSDOF 7
ENDMDL
MODEL 6
REMARK VINA RESULT:    -4.580      1.351      3.596
REMARK INTER + INTRA:          -6.322
REMARK INTER:                  -6.181
REMARK INTRA:                  -0.140
REMARK UNBOUND:                -0.403
REMARK SMILES CCO[C@@H]1O[C@@H](CO)[C@@H](O)[C@H](O)[C@@H]1O
REMARK SMILES IDX 4 1 13 2 11 3 9 4 6 5 5 6 3 7 2 8 1 9 14 10 12 12 7 14 8 15
REMARK SMILES IDX 10 17
REMARK H PARENT 14 11 12 13 8 16 10 18
REMARK Flexibility Score: inf
ROOT
ATOM      1  C   UNL     1     233.383 239.648 241.394  1.00  0.00     0.281 C 
ATOM      2  C   UNL     1     232.186 239.395 240.448  1.00  0.00     0.202 C 
ATOM      3  C   UNL     1     232.290 240.205 239.138  1.00  0.00     0.179 C 
ATOM      4  C   UNL     1     233.715 240.143 238.550  1.00  0.00     0.177 C 
ATOM      5  C   UNL     1     234.770 240.402 239.654  1.00  0.00     0.178 C 
ATOM      6  O   UNL     1     234.620 239.472 240.715  1.00  0.00    -0.341 OA
ENDROOT
BRANCH   1   7
ATOM      7  O   UNL     1     233.288 240.932 241.990  1.00  0.00    -0.350 OA
BRANCH   7   8
ATOM      8  C   UNL     1     234.107 241.002 243.139  1.00  0.00     0.160 C 
ATOM      9  C   UNL     1     233.235 241.273 244.354  1.00  0.00     0.035 C 
ENDBRANCH   7   8
ENDBRANCH   1   7
BRANCH   2  10
ATOM     10  O   UNL     1     230.974 239.690 241.096  1.00  0.00    -0.385 OA
ATOM     11  H   UNL     1     230.549 238.820 241.316  1.00  0.00     0.211 HD
ENDBRANCH   2  10
BRANCH   3  12
ATOM     12  O   UNL     1     231.849 241.534 239.300  1.00  0.00    -0.387 OA
ATOM     13  H   UNL     1     231.499 241.859 238.434  1.00  0.00     0.211 HD
ENDBRANCH   3  12
BRANCH   5  14
ATOM     14  C   UNL     1     236.201 240.292 239.113  1.00  0.00     0.191 C 
BRANCH  14  15
ATOM     15  O   UNL     1     237.121 240.294 240.170  1.00  0.00    -0.394 OA
ATOM     16  H   UNL     1     237.184 239.353 240.481  1.00  0.00     0.210 HD
ENDBRANCH  14  15
ENDBRANCH   5  14
BRANCH   4  17
ATOM     17  O   UNL     1     233.912 238.870 237.982  1.00  0.00    -0.387 OA
ATOM     18  H   UNL     1     233.015 238.500 237.773  1.00  0.00     0.211 HD
ENDBRANCH   4  17
TORSDOF 7
ENDMDL
MODEL 7
REMARK VINA RESULT:    -4.560      1.986      3.733
REMARK INTER + INTRA:          -6.296
REMARK INTER:                  -6.263
REMARK INTRA:                  -0.033
REMARK UNBOUND:                -0.403
REMARK SMILES CCO[C@@H]1O[C@@H](CO)[C@@H](O)[C@H](O)[C@@H]1O
REMARK SMILES IDX 4 1 13 2 11 3 9 4 6 5 5 6 3 7 2 8 1 9 14 10 12 12 7 14 8 15
REMARK SMILES IDX 10 17
REMARK H PARENT 14 11 12 13 8 16 10 18
REMARK Flexibility Score: inf
ROOT
ATOM      1  C   UNL     1     233.258 240.547 239.230  1.00  0.00     0.281 C 
ATOM      2  C   UNL     1     232.409 239.308 238.864  1.00  0.00     0.202 C 
ATOM      3  C   UNL     1     232.192 238.368 240.070  1.00  0.00     0.179 C 
ATOM      4  C   UNL     1     231.823 239.160 241.342  1.00  0.00     0.177 C 
ATOM      5  C   UNL     1     232.773 240.370 241.522  1.00  0.00     0.178 C 
ATOM      6  O   UNL     1     232.736 241.207 240.377  1.00  0.00    -0.341 OA
ENDROOT
BRANCH   1   7
ATOM      7  O   UNL     1     234.620 240.189 239.403  1.00  0.00    -0.350 OA
BRANCH   7   8
ATOM      8  C   UNL     1     235.387 240.629 238.301  1.00  0.00     0.160 C 
ATOM      9  C   UNL     1     236.847 240.280 238.541  1.00  0.00     0.035 C 
ENDBRANCH   7   8
ENDBRANCH   1   7
BRANCH   2  10
ATOM     10  O   UNL     1     233.002 238.597 237.807  1.00  0.00    -0.385 OA
ATOM     11  H   UNL     1     233.506 239.259 237.264  1.00  0.00     0.211 HD
ENDBRANCH   2  10
BRANCH   3  12
ATOM     12  O   UNL     1     233.296 237.518 240.285  1.00  0.00    -0.387 OA
ATOM     13  H   UNL     1     232.999 236.747 240.828  1.00  0.00     0.211 HD
ENDBRANCH   3  12
BRANCH   5  14
ATOM     14  C   UNL     1     232.399 241.212 242.748  1.00  0.00     0.191 C 
BRANCH  14  15
ATOM     15  O   UNL     1     232.316 242.566 242.400  1.00  0.00    -0.394 OA
ATOM     16  H   UNL     1     233.035 243.025 242.908  1.00  0.00     0.210 HD
ENDBRANCH  14  15
ENDBRANCH   5  14
BRANCH   4  17
ATOM     17  O   UNL     1     230.492 239.602 241.225  1.00  0.00    -0.387 OA
ATOM     18  H   UNL     1     230.401 240.413 241.790  1.00  0.00     0.211 HD
ENDBRANCH   4  17
TORSDOF 7
ENDMDL
MODEL 8
REMARK VINA RESULT:    -4.472      2.146      5.133
REMARK INTER + INTRA:          -6.182
REMARK INTER:                  -5.810
REMARK INTRA:                  -0.371
REMARK UNBOUND:                -0.403
REMARK SMILES CCO[C@@H]1O[C@@H](CO)[C@@H](O)[C@H](O)[C@@H]1O
REMARK SMILES IDX 4 1 13 2 11 3 9 4 6 5 5 6 3 7 2 8 1 9 14 10 12 12 7 14 8 15
REMARK SMILES IDX 10 17
REMARK H PARENT 14 11 12 13 8 16 10 18
REMARK Flexibility Score: inf
ROOT
ATOM      1  C   UNL     1     233.846 240.222 238.365  1.00  0.00     0.281 C 
ATOM      2  C   UNL     1     233.024 240.589 239.622  1.00  0.00     0.202 C 
ATOM      3  C   UNL     1     233.332 239.659 240.816  1.00  0.00     0.179 C 
ATOM      4  C   UNL     1     234.850 239.428 240.974  1.00  0.00     0.177 C 
ATOM      5  C   UNL     1     235.492 239.093 239.604  1.00  0.00     0.178 C 
ATOM      6  O   UNL     1     235.232 240.126 238.667  1.00  0.00    -0.341 OA
ENDROOT
BRANCH   1   7
ATOM      7  O   UNL     1     233.352 239.030 237.773  1.00  0.00    -0.350 OA
BRANCH   7   8
ATOM      8  C   UNL     1     233.566 239.049 236.378  1.00  0.00     0.160 C 
ATOM      9  C   UNL     1     233.873 237.638 235.903  1.00  0.00     0.035 C 
ENDBRANCH   7   8
ENDBRANCH   1   7
BRANCH   2  10
ATOM     10  O   UNL     1     231.649 240.561 239.340  1.00  0.00    -0.385 OA
ATOM     11  H   UNL     1     231.418 239.618 239.132  1.00  0.00     0.211 HD
ENDBRANCH   2  10
BRANCH   3  12
ATOM     12  O   UNL     1     232.623 238.444 240.739  1.00  0.00    -0.387 OA
ATOM     13  H   UNL     1     232.798 238.032 239.857  1.00  0.00     0.211 HD
ENDBRANCH   3  12
BRANCH   5  14
ATOM     14  C   UNL     1     237.011 238.912 239.715  1.00  0.00     0.191 C 
BRANCH  14  15
ATOM     15  O   UNL     1     237.630 240.143 239.964  1.00  0.00    -0.394 OA
ATOM     16  H   UNL     1     238.502 240.113 239.491  1.00  0.00     0.210 HD
ENDBRANCH  14  15
ENDBRANCH   5  14
BRANCH   4  17
ATOM     17  O   UNL     1     235.429 240.594 241.508  1.00  0.00    -0.387 OA
ATOM     18  H   UNL     1     234.824 241.350 241.289  1.00  0.00     0.211 HD
ENDBRANCH   4  17
TORSDOF 7
ENDMDL
MODEL 9
REMARK VINA RESULT:    -4.395      9.222     10.977
REMARK INTER + INTRA:          -6.082
REMARK INTER:                  -5.611
REMARK INTRA:                  -0.471
REMARK UNBOUND:                -0.403
REMARK SMILES CCO[C@@H]1O[C@@H](CO)[C@@H](O)[C@H](O)[C@@H]1O
REMARK SMILES IDX 4 1 13 2 11 3 9 4 6 5 5 6 3 7 2 8 1 9 14 10 12 12 7 14 8 15
REMARK SMILES IDX 10 17
REMARK H PARENT 14 11 12 13 8 16 10 18
REMARK Flexibility Score: inf
ROOT
ATOM      1  C   UNL     1     234.748 238.739 231.663  1.00  0.00     0.281 C 
ATOM      2  C   UNL     1     234.677 239.865 230.606  1.00  0.00     0.202 C 
ATOM      3  C   UNL     1     235.755 239.712 229.511  1.00  0.00     0.179 C 
ATOM      4  C   UNL     1     235.855 238.252 229.021  1.00  0.00     0.177 C 
ATOM      5  C   UNL     1     235.894 237.278 230.225  1.00  0.00     0.178 C 
ATOM      6  O   UNL     1     234.753 237.458 231.048  1.00  0.00    -0.341 OA
ENDROOT
BRANCH   1   7
ATOM      7  O   UNL     1     235.870 238.919 232.513  1.00  0.00    -0.350 OA
BRANCH   7   8
ATOM      8  C   UNL     1     235.587 238.432 233.808  1.00  0.00     0.160 C 
ATOM      9  C   UNL     1     234.206 238.907 234.227  1.00  0.00     0.035 C 
ENDBRANCH   7   8
ENDBRANCH   1   7
BRANCH   2  10
ATOM     10  O   UNL     1     234.796 241.125 231.217  1.00  0.00    -0.385 OA
ATOM     11  H   UNL     1     233.903 241.557 231.158  1.00  0.00     0.211 HD
ENDBRANCH   2  10
BRANCH   3  12
ATOM     12  O   UNL     1     237.006 240.212 229.924  1.00  0.00    -0.387 OA
ATOM     13  H   UNL     1     237.016 241.191 229.784  1.00  0.00     0.211 HD
ENDBRANCH   3  12
BRANCH   5  14
ATOM     14  C   UNL     1     235.938 235.813 229.771  1.00  0.00     0.191 C 
BRANCH  14  15
ATOM     15  O   UNL     1     234.639 235.317 229.605  1.00  0.00    -0.394 OA
ATOM     16  H   UNL     1     234.184 235.942 228.982  1.00  0.00     0.210 HD
ENDBRANCH  14  15
ENDBRANCH   5  14
BRANCH   4  17
ATOM     17  O   UNL     1     234.741 237.973 228.208  1.00  0.00    -0.387 OA
ATOM     18  H   UNL     1     235.084 237.762 227.301  1.00  0.00     0.211 HD
ENDBRANCH   4  17
TORSDOF 7
ENDMDL
