MODEL 1
REMARK VINA RESULT:    -8.013      0.000      0.000
REMARK INTER + INTRA:         -11.473
REMARK INTER:                 -11.058
REMARK INTRA:                  -0.415
REMARK UNBOUND:                -0.415
REMARK SMILES O=C([O-])[C@H]1O[C@@H](Oc2cc3oc(-c4ccccc4)cc(=O)c3c(O)c2O)[C@H](O)[C@H](O)[C@@H]1O
REMARK SMILES IDX 7 1 6 2 4 3 31 4 5 5 29 6 27 7 2 8 1 9 3 10 32 11 30 13
REMARK SMILES IDX 28 15 8 17 25 18 9 19 23 20 10 21 22 22 11 23 20 24 12 25
REMARK SMILES IDX 19 26 21 27 26 28 24 30 13 32 14 33 18 34 15 35 17 36 16 37
REMARK H PARENT 32 12 30 14 28 16 26 29 24 31
REMARK Flexibility Score: inf
ROOT
ATOM      1  O   UNL     1      27.258 -13.822  14.025  1.00  0.00    -0.458 OA
ENDROOT
BRANCH   1   2
ATOM      2  C   UNL     1      28.468 -13.785  14.791  1.00  0.00     0.339 C 
ATOM      3  C   UNL     1      27.378 -13.966  16.905  1.00  0.00     0.199 C 
ATOM      4  C   UNL     1      27.736 -12.514  17.309  1.00  0.00     0.180 C 
ATOM      5  O   UNL     1      28.319 -14.531  15.995  1.00  0.00    -0.328 OA
ATOM      6  C   UNL     1      27.972 -11.645  16.057  1.00  0.00     0.181 C 
ATOM      7  C   UNL     1      28.926 -12.331  15.059  1.00  0.00     0.214 C 
BRANCH   3   8
ATOM      8  C   UNL     1      25.953 -14.161  16.438  1.00  0.00     0.073 C 
ATOM      9  O   UNL     1      25.143 -13.198  16.388  1.00  0.00    -0.547 OA
ATOM     10  O   UNL     1      25.523 -15.430  16.071  1.00  0.00    -0.547 OA
ENDBRANCH   3   8
BRANCH   4  11
ATOM     11  O   UNL     1      28.885 -12.538  18.121  1.00  0.00    -0.387 OA
ATOM     12  H   UNL     1      29.152 -13.488  18.226  1.00  0.00     0.211 HD
ENDBRANCH   4  11
BRANCH   6  13
ATOM     13  O   UNL     1      28.403 -10.347  16.390  1.00  0.00    -0.387 OA
ATOM     14  H   UNL     1      28.461  -9.814  15.556  1.00  0.00     0.211 HD
ENDBRANCH   6  13
BRANCH   7  15
ATOM     15  O   UNL     1      30.265 -12.284  15.493  1.00  0.00    -0.384 OA
ATOM     16  H   UNL     1      30.851 -12.180  14.700  1.00  0.00     0.211 HD
ENDBRANCH   7  15
ENDBRANCH   1   2
BRANCH   1  17
ATOM     17  C   UNL     1      27.139 -13.340  12.715  1.00  0.00     0.172 A 
ATOM     18  C   UNL     1      26.708 -14.162  11.656  1.00  0.00     0.201 A 
ATOM     19  C   UNL     1      27.433 -11.997  12.483  1.00  0.00     0.098 A 
ATOM     20  C   UNL     1      26.651 -13.642  10.337  1.00  0.00     0.176 A 
ATOM     21  C   UNL     1      27.355 -11.463  11.199  1.00  0.00     0.146 A 
ATOM     22  C   UNL     1      26.967 -12.278  10.110  1.00  0.00     0.111 A 
ATOM     23  O   UNL     1      27.658 -10.182  11.014  1.00  0.00    -0.456 OA
ATOM     24  C   UNL     1      26.926 -11.679   8.833  1.00  0.00     0.197 A 
ATOM     25  C   UNL     1      27.619  -9.586   9.825  1.00  0.00     0.138 A 
ATOM     26  C   UNL     1      27.253 -10.330   8.692  1.00  0.00     0.100 A 
ATOM     27  O   UNL     1      26.599 -12.335   7.807  1.00  0.00    -0.289 OA
BRANCH  18  28
ATOM     28  O   UNL     1      26.304 -15.466  11.953  1.00  0.00    -0.502 OA
ATOM     29  H   UNL     1      26.888 -16.159  12.395  1.00  0.00     0.293 HD
ENDBRANCH  18  28
BRANCH  20  30
ATOM     30  O   UNL     1      26.296 -14.449   9.252  1.00  0.00    -0.504 OA
ATOM     31  H   UNL     1      26.021 -14.099   8.345  1.00  0.00     0.293 HD
ENDBRANCH  20  30
BRANCH  25  32
ATOM     32  C   UNL     1      27.988  -8.151   9.734  1.00  0.00     0.017 A 
ATOM     33  C   UNL     1      28.834  -7.667   8.715  1.00  0.00     0.012 A 
ATOM     34  C   UNL     1      27.465  -7.240  10.670  1.00  0.00     0.012 A 
ATOM     35  C   UNL     1      29.162  -6.308   8.654  1.00  0.00     0.001 A 
ATOM     36  C   UNL     1      27.798  -5.883  10.605  1.00  0.00     0.001 A 
ATOM     37  C   UNL     1      28.649  -5.418   9.600  1.00  0.00     0.000 A 
ENDBRANCH  25  32
ENDBRANCH   1  17
TORSDOF 9
ENDMDL
MODEL 2
REMARK VINA RESULT:    -7.236      1.196      1.691
REMARK INTER + INTRA:         -10.401
REMARK INTER:                  -9.671
REMARK INTRA:                  -0.730
REMARK UNBOUND:                -0.415
REMARK SMILES O=C([O-])[C@H]1O[C@@H](Oc2cc3oc(-c4ccccc4)cc(=O)c3c(O)c2O)[C@H](O)[C@H](O)[C@@H]1O
REMARK SMILES IDX 7 1 6 2 4 3 31 4 5 5 29 6 27 7 2 8 1 9 3 10 32 11 30 13
REMARK SMILES IDX 28 15 8 17 25 18 9 19 23 20 10 21 22 22 11 23 20 24 12 25
REMARK SMILES IDX 19 26 21 27 26 28 24 30 13 32 14 33 18 34 15 35 17 36 16 37
REMARK H PARENT 32 12 30 14 28 16 26 29 24 31
REMARK Flexibility Score: inf
ROOT
ATOM      1  O   UNL     1      25.395 -13.096  14.336  1.00  0.00    -0.458 OA
ENDROOT
BRANCH   1   2
ATOM      2  C   UNL     1      26.142 -13.798  15.337  1.00  0.00     0.339 C 
ATOM      3  C   UNL     1      25.955 -12.077  16.978  1.00  0.00     0.199 C 
ATOM      4  C   UNL     1      27.462 -11.721  16.899  1.00  0.00     0.180 C 
ATOM      5  O   UNL     1      25.694 -13.437  16.638  1.00  0.00    -0.328 OA
ATOM      6  C   UNL     1      28.046 -12.133  15.532  1.00  0.00     0.181 C 
ATOM      7  C   UNL     1      27.666 -13.581  15.164  1.00  0.00     0.214 C 
BRANCH   3   8
ATOM      8  C   UNL     1      25.040 -11.125  16.241  1.00  0.00     0.073 C 
ATOM      9  O   UNL     1      25.485 -10.083  15.691  1.00  0.00    -0.547 OA
ATOM     10  O   UNL     1      23.679 -11.396  16.182  1.00  0.00    -0.547 OA
ENDBRANCH   3   8
BRANCH   4  11
ATOM     11  O   UNL     1      28.138 -12.374  17.946  1.00  0.00    -0.387 OA
ATOM     12  H   UNL     1      27.451 -12.700  18.583  1.00  0.00     0.211 HD
ENDBRANCH   4  11
BRANCH   6  13
ATOM     13  O   UNL     1      29.435 -11.921  15.467  1.00  0.00    -0.387 OA
ATOM     14  H   UNL     1      29.608 -10.950  15.567  1.00  0.00     0.211 HD
ENDBRANCH   6  13
BRANCH   7  15
ATOM     15  O   UNL     1      28.408 -14.525  15.902  1.00  0.00    -0.384 OA
ATOM     16  H   UNL     1      28.184 -15.432  15.571  1.00  0.00     0.211 HD
ENDBRANCH   7  15
ENDBRANCH   1   2
BRANCH   1  17
ATOM     17  C   UNL     1      25.855 -12.851  13.036  1.00  0.00     0.172 A 
ATOM     18  C   UNL     1      25.921 -13.870  12.066  1.00  0.00     0.201 A 
ATOM     19  C   UNL     1      26.224 -11.548  12.706  1.00  0.00     0.098 A 
ATOM     20  C   UNL     1      26.441 -13.586  10.777  1.00  0.00     0.176 A 
ATOM     21  C   UNL     1      26.710 -11.245  11.436  1.00  0.00     0.146 A 
ATOM     22  C   UNL     1      26.828 -12.259  10.458  1.00  0.00     0.111 A 
ATOM     23  O   UNL     1      27.067  -9.994  11.164  1.00  0.00    -0.456 OA
ATOM     24  C   UNL     1      27.344 -11.888   9.197  1.00  0.00     0.197 A 
ATOM     25  C   UNL     1      27.548  -9.611   9.984  1.00  0.00     0.138 A 
ATOM     26  C   UNL     1      27.704 -10.560   8.962  1.00  0.00     0.100 A 
ATOM     27  O   UNL     1      27.491 -12.730   8.271  1.00  0.00    -0.289 OA
BRANCH  18  28
ATOM     28  O   UNL     1      25.425 -15.134  12.399  1.00  0.00    -0.502 OA
ATOM     29  H   UNL     1      25.042 -15.379  13.299  1.00  0.00     0.293 HD
ENDBRANCH  18  28
BRANCH  20  30
ATOM     30  O   UNL     1      26.587 -14.589   9.813  1.00  0.00    -0.504 OA
ATOM     31  H   UNL     1      25.823 -15.120   9.421  1.00  0.00     0.293 HD
ENDBRANCH  20  30
BRANCH  25  32
ATOM     32  C   UNL     1      27.924  -8.187   9.794  1.00  0.00     0.017 A 
ATOM     33  C   UNL     1      28.746  -7.775   8.727  1.00  0.00     0.012 A 
ATOM     34  C   UNL     1      27.431  -7.215  10.685  1.00  0.00     0.012 A 
ATOM     35  C   UNL     1      29.082  -6.425   8.573  1.00  0.00     0.001 A 
ATOM     36  C   UNL     1      27.771  -5.868  10.527  1.00  0.00     0.001 A 
ATOM     37  C   UNL     1      28.599  -5.474   9.474  1.00  0.00     0.000 A 
ENDBRANCH  25  32
ENDBRANCH   1  17
TORSDOF 9
ENDMDL
MODEL 3
REMARK VINA RESULT:    -7.099      0.963      2.647
REMARK INTER + INTRA:         -10.212
REMARK INTER:                  -9.350
REMARK INTRA:                  -0.862
REMARK UNBOUND:                -0.415
REMARK SMILES O=C([O-])[C@H]1O[C@@H](Oc2cc3oc(-c4ccccc4)cc(=O)c3c(O)c2O)[C@H](O)[C@H](O)[C@@H]1O
REMARK SMILES IDX 7 1 6 2 4 3 31 4 5 5 29 6 27 7 2 8 1 9 3 10 32 11 30 13
REMARK SMILES IDX 28 15 8 17 25 18 9 19 23 20 10 21 22 22 11 23 20 24 12 25
REMARK SMILES IDX 19 26 21 27 26 28 24 30 13 32 14 33 18 34 15 35 17 36 16 37
REMARK H PARENT 32 12 30 14 28 16 26 29 24 31
REMARK Flexibility Score: inf
ROOT
ATOM      1  O   UNL     1      27.303 -13.780  14.272  1.00  0.00    -0.458 OA
ENDROOT
BRANCH   1   2
ATOM      2  C   UNL     1      26.154 -14.049  15.085  1.00  0.00     0.339 C 
ATOM      3  C   UNL     1      27.006 -12.939  17.017  1.00  0.00     0.199 C 
ATOM      4  C   UNL     1      27.180 -14.263  17.804  1.00  0.00     0.180 C 
ATOM      5  O   UNL     1      25.968 -13.013  16.043  1.00  0.00    -0.328 OA
ATOM      6  C   UNL     1      27.333 -15.454  16.836  1.00  0.00     0.181 C 
ATOM      7  C   UNL     1      26.242 -15.446  15.747  1.00  0.00     0.214 C 
BRANCH   3   8
ATOM      8  C   UNL     1      28.283 -12.373  16.439  1.00  0.00     0.073 C 
ATOM      9  O   UNL     1      29.371 -13.003  16.513  1.00  0.00    -0.547 OA
ATOM     10  O   UNL     1      28.262 -11.125  15.829  1.00  0.00    -0.547 OA
ENDBRANCH   3   8
BRANCH   4  11
ATOM     11  O   UNL     1      26.065 -14.443  18.643  1.00  0.00    -0.387 OA
ATOM     12  H   UNL     1      25.368 -13.800  18.349  1.00  0.00     0.211 HD
ENDBRANCH   4  11
BRANCH   6  13
ATOM     13  O   UNL     1      27.387 -16.683  17.519  1.00  0.00    -0.387 OA
ATOM     14  H   UNL     1      28.112 -16.635  18.193  1.00  0.00     0.211 HD
ENDBRANCH   6  13
BRANCH   7  15
ATOM     15  O   UNL     1      24.992 -15.858  16.250  1.00  0.00    -0.384 OA
ATOM     16  H   UNL     1      24.511 -16.349  15.536  1.00  0.00     0.211 HD
ENDBRANCH   7  15
ENDBRANCH   1   2
BRANCH   1  17
ATOM     17  C   UNL     1      27.242 -13.353  12.939  1.00  0.00     0.172 A 
ATOM     18  C   UNL     1      26.948 -14.241  11.887  1.00  0.00     0.201 A 
ATOM     19  C   UNL     1      27.452 -12.001  12.675  1.00  0.00     0.098 A 
ATOM     20  C   UNL     1      26.947 -13.772  10.547  1.00  0.00     0.176 A 
ATOM     21  C   UNL     1      27.427 -11.518  11.368  1.00  0.00     0.146 A 
ATOM     22  C   UNL     1      27.178 -12.397  10.289  1.00  0.00     0.111 A 
ATOM     23  O   UNL     1      27.647 -10.225  11.154  1.00  0.00    -0.456 OA
ATOM     24  C   UNL     1      27.184 -11.846   8.989  1.00  0.00     0.197 A 
ATOM     25  C   UNL     1      27.650  -9.674   9.942  1.00  0.00     0.138 A 
ATOM     26  C   UNL     1      27.420 -10.482   8.818  1.00  0.00     0.100 A 
ATOM     27  O   UNL     1      26.980 -12.560   7.970  1.00  0.00    -0.289 OA
BRANCH  18  28
ATOM     28  O   UNL     1      26.621 -15.562  12.206  1.00  0.00    -0.502 OA
ATOM     29  H   UNL     1      25.680 -15.913  12.290  1.00  0.00     0.293 HD
ENDBRANCH  18  28
BRANCH  20  30
ATOM     30  O   UNL     1      26.731 -14.641   9.473  1.00  0.00    -0.504 OA
ATOM     31  H   UNL     1      26.405 -14.352   8.561  1.00  0.00     0.293 HD
ENDBRANCH  20  30
BRANCH  25  32
ATOM     32  C   UNL     1      27.918  -8.219   9.820  1.00  0.00     0.017 A 
ATOM     33  C   UNL     1      27.366  -7.286  10.722  1.00  0.00     0.012 A 
ATOM     34  C   UNL     1      28.762  -7.753   8.796  1.00  0.00     0.012 A 
ATOM     35  C   UNL     1      27.638  -5.921  10.582  1.00  0.00     0.001 A 
ATOM     36  C   UNL     1      29.030  -6.387   8.660  1.00  0.00     0.001 A 
ATOM     37  C   UNL     1      28.465  -5.472   9.550  1.00  0.00     0.000 A 
ENDBRANCH  25  32
ENDBRANCH   1  17
TORSDOF 9
ENDMDL
MODEL 4
REMARK VINA RESULT:    -7.099      2.549      4.511
REMARK INTER + INTRA:         -10.212
REMARK INTER:                  -9.105
REMARK INTRA:                  -1.106
REMARK UNBOUND:                -0.415
REMARK SMILES O=C([O-])[C@H]1O[C@@H](Oc2cc3oc(-c4ccccc4)cc(=O)c3c(O)c2O)[C@H](O)[C@H](O)[C@@H]1O
REMARK SMILES IDX 7 1 6 2 4 3 31 4 5 5 29 6 27 7 2 8 1 9 3 10 32 11 30 13
REMARK SMILES IDX 28 15 8 17 25 18 9 19 23 20 10 21 22 22 11 23 20 24 12 25
REMARK SMILES IDX 19 26 21 27 26 28 24 30 13 32 14 33 18 34 15 35 17 36 16 37
REMARK H PARENT 32 12 30 14 28 16 26 29 24 31
REMARK Flexibility Score: inf
ROOT
ATOM      1  O   UNL     1      27.102 -13.696  13.905  1.00  0.00    -0.458 OA
ENDROOT
BRANCH   1   2
ATOM      2  C   UNL     1      28.334 -13.731  14.635  1.00  0.00     0.339 C 
ATOM      3  C   UNL     1      27.301 -13.938  16.775  1.00  0.00     0.199 C 
ATOM      4  C   UNL     1      27.729 -12.514  17.212  1.00  0.00     0.180 C 
ATOM      5  O   UNL     1      28.192 -14.508  15.818  1.00  0.00    -0.328 OA
ATOM      6  C   UNL     1      27.961 -11.614  15.981  1.00  0.00     0.181 C 
ATOM      7  C   UNL     1      28.857 -12.305  14.933  1.00  0.00     0.214 C 
BRANCH   3   8
ATOM      8  C   UNL     1      25.857 -14.062  16.346  1.00  0.00     0.073 C 
ATOM      9  O   UNL     1      25.327 -15.187  16.147  1.00  0.00    -0.547 OA
ATOM     10  O   UNL     1      25.101 -12.912  16.151  1.00  0.00    -0.547 OA
ENDBRANCH   3   8
BRANCH   4  11
ATOM     11  O   UNL     1      28.899 -12.608  17.987  1.00  0.00    -0.387 OA
ATOM     12  H   UNL     1      29.519 -13.223  17.512  1.00  0.00     0.211 HD
ENDBRANCH   4  11
BRANCH   6  13
ATOM     13  O   UNL     1      28.453 -10.346  16.340  1.00  0.00    -0.387 OA
ATOM     14  H   UNL     1      27.684  -9.730  16.442  1.00  0.00     0.211 HD
ENDBRANCH   6  13
BRANCH   7  15
ATOM     15  O   UNL     1      30.210 -12.324  15.327  1.00  0.00    -0.384 OA
ATOM     16  H   UNL     1      30.275 -11.973  16.252  1.00  0.00     0.211 HD
ENDBRANCH   7  15
ENDBRANCH   1   2
BRANCH   1  17
ATOM     17  C   UNL     1      26.959 -13.150  12.623  1.00  0.00     0.172 A 
ATOM     18  C   UNL     1      26.226 -11.971  12.395  1.00  0.00     0.201 A 
ATOM     19  C   UNL     1      27.596 -13.794  11.563  1.00  0.00     0.098 A 
ATOM     20  C   UNL     1      26.067 -11.483  11.071  1.00  0.00     0.176 A 
ATOM     21  C   UNL     1      27.475 -13.313  10.261  1.00  0.00     0.146 A 
ATOM     22  C   UNL     1      26.707 -12.155   9.999  1.00  0.00     0.111 A 
ATOM     23  O   UNL     1      28.084 -13.962   9.275  1.00  0.00    -0.456 OA
ATOM     24  C   UNL     1      26.611 -11.731   8.655  1.00  0.00     0.197 A 
ATOM     25  C   UNL     1      28.020 -13.583   8.001  1.00  0.00     0.138 A 
ATOM     26  C   UNL     1      27.269 -12.448   7.656  1.00  0.00     0.100 A 
ATOM     27  O   UNL     1      25.939 -10.714   8.332  1.00  0.00    -0.289 OA
BRANCH  18  28
ATOM     28  O   UNL     1      25.708 -11.288  13.499  1.00  0.00    -0.502 OA
ATOM     29  H   UNL     1      24.860 -11.542  13.982  1.00  0.00     0.293 HD
ENDBRANCH  18  28
BRANCH  20  30
ATOM     30  O   UNL     1      25.286 -10.355  10.800  1.00  0.00    -0.504 OA
ATOM     31  H   UNL     1      25.475  -9.430  11.158  1.00  0.00     0.293 HD
ENDBRANCH  20  30
BRANCH  25  32
ATOM     32  C   UNL     1      28.732 -14.390   6.979  1.00  0.00     0.017 A 
ATOM     33  C   UNL     1      28.656 -14.082   5.606  1.00  0.00     0.012 A 
ATOM     34  C   UNL     1      29.526 -15.479   7.385  1.00  0.00     0.012 A 
ATOM     35  C   UNL     1      29.340 -14.861   4.666  1.00  0.00     0.001 A 
ATOM     36  C   UNL     1      30.206 -16.255   6.441  1.00  0.00     0.001 A 
ATOM     37  C   UNL     1      30.111 -15.948   5.083  1.00  0.00     0.000 A 
ENDBRANCH  25  32
ENDBRANCH   1  17
TORSDOF 9
ENDMDL
MODEL 5
REMARK VINA RESULT:    -6.933      1.228      2.059
REMARK INTER + INTRA:          -9.982
REMARK INTER:                  -8.815
REMARK INTRA:                  -1.167
REMARK UNBOUND:                -0.415
REMARK SMILES O=C([O-])[C@H]1O[C@@H](Oc2cc3oc(-c4ccccc4)cc(=O)c3c(O)c2O)[C@H](O)[C@H](O)[C@@H]1O
REMARK SMILES IDX 7 1 6 2 4 3 31 4 5 5 29 6 27 7 2 8 1 9 3 10 32 11 30 13
REMARK SMILES IDX 28 15 8 17 25 18 9 19 23 20 10 21 22 22 11 23 20 24 12 25
REMARK SMILES IDX 19 26 21 27 26 28 24 30 13 32 14 33 18 34 15 35 17 36 16 37
REMARK H PARENT 32 12 30 14 28 16 26 29 24 31
REMARK Flexibility Score: inf
ROOT
ATOM      1  O   UNL     1      26.200 -13.509  14.203  1.00  0.00    -0.458 OA
ENDROOT
BRANCH   1   2
ATOM      2  C   UNL     1      26.872 -12.897  15.310  1.00  0.00     0.339 C 
ATOM      3  C   UNL     1      28.130 -14.840  15.887  1.00  0.00     0.199 C 
ATOM      4  C   UNL     1      27.345 -15.060  17.205  1.00  0.00     0.180 C 
ATOM      5  O   UNL     1      28.162 -13.471  15.489  1.00  0.00    -0.328 OA
ATOM      6  C   UNL     1      25.946 -14.416  17.117  1.00  0.00     0.181 C 
ATOM      7  C   UNL     1      26.019 -12.965  16.600  1.00  0.00     0.214 C 
BRANCH   3   8
ATOM      8  C   UNL     1      27.725 -15.749  14.749  1.00  0.00     0.073 C 
ATOM      9  O   UNL     1      26.708 -16.487  14.831  1.00  0.00    -0.547 OA
ATOM     10  O   UNL     1      28.498 -15.784  13.595  1.00  0.00    -0.547 OA
ENDBRANCH   3   8
BRANCH   4  11
ATOM     11  O   UNL     1      28.081 -14.509  18.270  1.00  0.00    -0.387 OA
ATOM     12  H   UNL     1      28.911 -15.044  18.363  1.00  0.00     0.211 HD
ENDBRANCH   4  11
BRANCH   6  13
ATOM     13  O   UNL     1      25.248 -14.505  18.336  1.00  0.00    -0.387 OA
ATOM     14  H   UNL     1      25.900 -14.412  19.077  1.00  0.00     0.211 HD
ENDBRANCH   6  13
BRANCH   7  15
ATOM     15  O   UNL     1      26.500 -12.078  17.584  1.00  0.00    -0.384 OA
ATOM     16  H   UNL     1      26.342 -12.480  18.476  1.00  0.00     0.211 HD
ENDBRANCH   7  15
ENDBRANCH   1   2
BRANCH   1  17
ATOM     17  C   UNL     1      26.364 -13.120  12.867  1.00  0.00     0.172 A 
ATOM     18  C   UNL     1      26.142 -14.011  11.800  1.00  0.00     0.201 A 
ATOM     19  C   UNL     1      26.729 -11.799  12.611  1.00  0.00     0.098 A 
ATOM     20  C   UNL     1      26.370 -13.586  10.466  1.00  0.00     0.176 A 
ATOM     21  C   UNL     1      26.930 -11.357  11.305  1.00  0.00     0.146 A 
ATOM     22  C   UNL     1      26.757 -12.244  10.217  1.00  0.00     0.111 A 
ATOM     23  O   UNL     1      27.293 -10.095  11.101  1.00  0.00    -0.456 OA
ATOM     24  C   UNL     1      26.993 -11.736   8.922  1.00  0.00     0.197 A 
ATOM     25  C   UNL     1      27.514  -9.584   9.892  1.00  0.00     0.138 A 
ATOM     26  C   UNL     1      27.372 -10.403   8.761  1.00  0.00     0.100 A 
ATOM     27  O   UNL     1      26.870 -12.461   7.897  1.00  0.00    -0.289 OA
BRANCH  18  28
ATOM     28  O   UNL     1      25.657 -15.288  12.095  1.00  0.00    -0.502 OA
ATOM     29  H   UNL     1      26.079 -16.148  11.778  1.00  0.00     0.293 HD
ENDBRANCH  18  28
BRANCH  20  30
ATOM     30  O   UNL     1      26.228 -14.465   9.388  1.00  0.00    -0.504 OA
ATOM     31  H   UNL     1      25.469 -14.436   8.723  1.00  0.00     0.293 HD
ENDBRANCH  20  30
BRANCH  25  32
ATOM     32  C   UNL     1      27.925  -8.162   9.782  1.00  0.00     0.017 A 
ATOM     33  C   UNL     1      28.851  -7.732   8.811  1.00  0.00     0.012 A 
ATOM     34  C   UNL     1      27.362  -7.208  10.651  1.00  0.00     0.012 A 
ATOM     35  C   UNL     1      29.218  -6.384   8.731  1.00  0.00     0.001 A 
ATOM     36  C   UNL     1      27.734  -5.862  10.567  1.00  0.00     0.001 A 
ATOM     37  C   UNL     1      28.664  -5.452   9.611  1.00  0.00     0.000 A 
ENDBRANCH  25  32
ENDBRANCH   1  17
TORSDOF 9
ENDMDL
MODEL 6
REMARK VINA RESULT:    -6.873      3.032      5.214
REMARK INTER + INTRA:          -9.900
REMARK INTER:                  -8.883
REMARK INTRA:                  -1.017
REMARK UNBOUND:                -0.415
REMARK SMILES O=C([O-])[C@H]1O[C@@H](Oc2cc3oc(-c4ccccc4)cc(=O)c3c(O)c2O)[C@H](O)[C@H](O)[C@@H]1O
REMARK SMILES IDX 7 1 6 2 4 3 31 4 5 5 29 6 27 7 2 8 1 9 3 10 32 11 30 13
REMARK SMILES IDX 28 15 8 17 25 18 9 19 23 20 10 21 22 22 11 23 20 24 12 25
REMARK SMILES IDX 19 26 21 27 26 28 24 30 13 32 14 33 18 34 15 35 17 36 16 37
REMARK H PARENT 32 12 30 14 28 16 26 29 24 31
REMARK Flexibility Score: inf
ROOT
ATOM      1  O   UNL     1      25.904 -11.232  13.694  1.00  0.00    -0.458 OA
ENDROOT
BRANCH   1   2
ATOM      2  C   UNL     1      25.917 -12.206  14.744  1.00  0.00     0.339 C 
ATOM      3  C   UNL     1      25.013 -10.743  16.396  1.00  0.00     0.199 C 
ATOM      4  C   UNL     1      26.342 -10.684  17.193  1.00  0.00     0.180 C 
ATOM      5  O   UNL     1      24.863 -11.959  15.668  1.00  0.00    -0.328 OA
ATOM      6  C   UNL     1      27.540 -10.998  16.274  1.00  0.00     0.181 C 
ATOM      7  C   UNL     1      27.299 -12.272  15.440  1.00  0.00     0.214 C 
BRANCH   3   8
ATOM      8  C   UNL     1      24.737  -9.531  15.535  1.00  0.00     0.073 C 
ATOM      9  O   UNL     1      25.478  -8.514  15.579  1.00  0.00    -0.547 OA
ATOM     10  O   UNL     1      23.635  -9.532  14.689  1.00  0.00    -0.547 OA
ENDBRANCH   3   8
BRANCH   4  11
ATOM     11  O   UNL     1      26.275 -11.604  18.255  1.00  0.00    -0.387 OA
ATOM     12  H   UNL     1      27.174 -12.015  18.347  1.00  0.00     0.211 HD
ENDBRANCH   4  11
BRANCH   6  13
ATOM     13  O   UNL     1      28.750 -11.058  16.989  1.00  0.00    -0.387 OA
ATOM     14  H   UNL     1      29.162 -10.156  16.983  1.00  0.00     0.211 HD
ENDBRANCH   6  13
BRANCH   7  15
ATOM     15  O   UNL     1      27.431 -13.442  16.215  1.00  0.00    -0.384 OA
ATOM     16  H   UNL     1      26.563 -13.921  16.214  1.00  0.00     0.211 HD
ENDBRANCH   7  15
ENDBRANCH   1   2
BRANCH   1  17
ATOM     17  C   UNL     1      26.051 -11.535  12.335  1.00  0.00     0.172 A 
ATOM     18  C   UNL     1      25.232 -10.951  11.350  1.00  0.00     0.201 A 
ATOM     19  C   UNL     1      27.065 -12.419  11.967  1.00  0.00     0.098 A 
ATOM     20  C   UNL     1      25.386 -11.327   9.990  1.00  0.00     0.176 A 
ATOM     21  C   UNL     1      27.248 -12.777  10.634  1.00  0.00     0.146 A 
ATOM     22  C   UNL     1      26.409 -12.240   9.630  1.00  0.00     0.111 A 
ATOM     23  O   UNL     1      28.214 -13.635  10.324  1.00  0.00    -0.456 OA
ATOM     24  C   UNL     1      26.638 -12.658   8.301  1.00  0.00     0.197 A 
ATOM     25  C   UNL     1      28.461 -14.042   9.081  1.00  0.00     0.138 A 
ATOM     26  C   UNL     1      27.666 -13.561   8.028  1.00  0.00     0.100 A 
ATOM     27  O   UNL     1      25.931 -12.235   7.346  1.00  0.00    -0.289 OA
BRANCH  18  28
ATOM     28  O   UNL     1      24.312  -9.977  11.747  1.00  0.00    -0.502 OA
ATOM     29  H   UNL     1      23.347 -10.160  11.972  1.00  0.00     0.293 HD
ENDBRANCH  18  28
BRANCH  20  30
ATOM     30  O   UNL     1      24.542 -10.822   8.996  1.00  0.00    -0.504 OA
ATOM     31  H   UNL     1      23.543 -10.971   8.964  1.00  0.00     0.293 HD
ENDBRANCH  20  30
BRANCH  25  32
ATOM     32  C   UNL     1      29.561 -15.011   8.851  1.00  0.00     0.017 A 
ATOM     33  C   UNL     1      30.038 -15.848   9.881  1.00  0.00     0.012 A 
ATOM     34  C   UNL     1      30.132 -15.122   7.570  1.00  0.00     0.012 A 
ATOM     35  C   UNL     1      31.075 -16.753   9.634  1.00  0.00     0.001 A 
ATOM     36  C   UNL     1      31.170 -16.029   7.329  1.00  0.00     0.001 A 
ATOM     37  C   UNL     1      31.643 -16.841   8.361  1.00  0.00     0.000 A 
ENDBRANCH  25  32
ENDBRANCH   1  17
TORSDOF 9
ENDMDL
MODEL 7
REMARK VINA RESULT:    -6.556      3.861      6.982
REMARK INTER + INTRA:          -9.462
REMARK INTER:                  -8.593
REMARK INTRA:                  -0.869
REMARK UNBOUND:                -0.415
REMARK SMILES O=C([O-])[C@H]1O[C@@H](Oc2cc3oc(-c4ccccc4)cc(=O)c3c(O)c2O)[C@H](O)[C@H](O)[C@@H]1O
REMARK SMILES IDX 7 1 6 2 4 3 31 4 5 5 29 6 27 7 2 8 1 9 3 10 32 11 30 13
REMARK SMILES IDX 28 15 8 17 25 18 9 19 23 20 10 21 22 22 11 23 20 24 12 25
REMARK SMILES IDX 19 26 21 27 26 28 24 30 13 32 14 33 18 34 15 35 17 36 16 37
REMARK H PARENT 32 12 30 14 28 16 26 29 24 31
REMARK Flexibility Score: inf
ROOT
ATOM      1  O   UNL     1      28.151 -14.951   8.635  1.00  0.00    -0.458 OA
ENDROOT
BRANCH   1   2
ATOM      2  C   UNL     1      27.539 -15.832   7.685  1.00  0.00     0.339 C 
ATOM      3  C   UNL     1      29.486 -16.050   6.323  1.00  0.00     0.199 C 
ATOM      4  C   UNL     1      28.857 -15.254   5.151  1.00  0.00     0.180 C 
ATOM      5  O   UNL     1      28.508 -16.711   7.124  1.00  0.00    -0.328 OA
ATOM      6  C   UNL     1      27.750 -14.312   5.666  1.00  0.00     0.181 C 
ATOM      7  C   UNL     1      26.766 -15.047   6.597  1.00  0.00     0.214 C 
BRANCH   3   8
ATOM      8  C   UNL     1      30.469 -15.268   7.164  1.00  0.00     0.073 C 
ATOM      9  O   UNL     1      30.764 -14.075   6.888  1.00  0.00    -0.547 OA
ATOM     10  O   UNL     1      31.074 -15.882   8.254  1.00  0.00    -0.547 OA
ENDBRANCH   3   8
BRANCH   4  11
ATOM     11  O   UNL     1      28.339 -16.164   4.211  1.00  0.00    -0.387 OA
ATOM     12  H   UNL     1      27.997 -16.947   4.716  1.00  0.00     0.211 HD
ENDBRANCH   4  11
BRANCH   6  13
ATOM     13  O   UNL     1      27.088 -13.654   4.614  1.00  0.00    -0.387 OA
ATOM     14  H   UNL     1      27.625 -13.765   3.788  1.00  0.00     0.211 HD
ENDBRANCH   6  13
BRANCH   7  15
ATOM     15  O   UNL     1      25.889 -15.885   5.881  1.00  0.00    -0.384 OA
ATOM     16  H   UNL     1      25.785 -16.735   6.381  1.00  0.00     0.211 HD
ENDBRANCH   7  15
ENDBRANCH   1   2
BRANCH   1  17
ATOM     17  C   UNL     1      27.473 -13.930   9.313  1.00  0.00     0.172 A 
ATOM     18  C   UNL     1      26.379 -14.198  10.158  1.00  0.00     0.201 A 
ATOM     19  C   UNL     1      27.931 -12.623   9.155  1.00  0.00     0.098 A 
ATOM     20  C   UNL     1      25.692 -13.126  10.785  1.00  0.00     0.176 A 
ATOM     21  C   UNL     1      27.286 -11.561   9.786  1.00  0.00     0.146 A 
ATOM     22  C   UNL     1      26.157 -11.798  10.604  1.00  0.00     0.111 A 
ATOM     23  O   UNL     1      27.742 -10.327   9.599  1.00  0.00    -0.456 OA
ATOM     24  C   UNL     1      25.541 -10.676  11.200  1.00  0.00     0.197 A 
ATOM     25  C   UNL     1      27.189  -9.251  10.153  1.00  0.00     0.138 A 
ATOM     26  C   UNL     1      26.059  -9.401  10.972  1.00  0.00     0.100 A 
ATOM     27  O   UNL     1      24.525 -10.797  11.937  1.00  0.00    -0.289 OA
BRANCH  18  28
ATOM     28  O   UNL     1      26.030 -15.531  10.387  1.00  0.00    -0.502 OA
ATOM     29  H   UNL     1      25.875 -16.215   9.662  1.00  0.00     0.293 HD
ENDBRANCH  18  28
BRANCH  20  30
ATOM     30  O   UNL     1      24.559 -13.349  11.573  1.00  0.00    -0.504 OA
ATOM     31  H   UNL     1      24.579 -13.522  12.567  1.00  0.00     0.293 HD
ENDBRANCH  20  30
BRANCH  25  32
ATOM     32  C   UNL     1      27.777  -7.919   9.867  1.00  0.00     0.017 A 
ATOM     33  C   UNL     1      27.564  -6.816  10.719  1.00  0.00     0.012 A 
ATOM     34  C   UNL     1      28.589  -7.749   8.730  1.00  0.00     0.012 A 
ATOM     35  C   UNL     1      28.134  -5.573  10.424  1.00  0.00     0.001 A 
ATOM     36  C   UNL     1      29.155  -6.503   8.439  1.00  0.00     0.001 A 
ATOM     37  C   UNL     1      28.924  -5.415   9.283  1.00  0.00     0.000 A 
ENDBRANCH  25  32
ENDBRANCH   1  17
TORSDOF 9
ENDMDL
MODEL 8
REMARK VINA RESULT:    -6.542      4.067      6.845
REMARK INTER + INTRA:          -9.443
REMARK INTER:                  -8.539
REMARK INTRA:                  -0.904
REMARK UNBOUND:                -0.415
REMARK SMILES O=C([O-])[C@H]1O[C@@H](Oc2cc3oc(-c4ccccc4)cc(=O)c3c(O)c2O)[C@H](O)[C@H](O)[C@@H]1O
REMARK SMILES IDX 7 1 6 2 4 3 31 4 5 5 29 6 27 7 2 8 1 9 3 10 32 11 30 13
REMARK SMILES IDX 28 15 8 17 25 18 9 19 23 20 10 21 22 22 11 23 20 24 12 25
REMARK SMILES IDX 19 26 21 27 26 28 24 30 13 32 14 33 18 34 15 35 17 36 16 37
REMARK H PARENT 32 12 30 14 28 16 26 29 24 31
REMARK Flexibility Score: inf
ROOT
ATOM      1  O   UNL     1      27.387 -14.164   6.920  1.00  0.00    -0.458 OA
ENDROOT
BRANCH   1   2
ATOM      2  C   UNL     1      28.661 -14.039   6.276  1.00  0.00     0.339 C 
ATOM      3  C   UNL     1      28.766 -16.318   5.581  1.00  0.00     0.199 C 
ATOM      4  C   UNL     1      29.919 -16.651   6.562  1.00  0.00     0.180 C 
ATOM      5  O   UNL     1      28.760 -14.948   5.186  1.00  0.00    -0.328 OA
ATOM      6  C   UNL     1      29.919 -15.671   7.753  1.00  0.00     0.181 C 
ATOM      7  C   UNL     1      29.824 -14.206   7.283  1.00  0.00     0.214 C 
BRANCH   3   8
ATOM      8  C   UNL     1      27.398 -16.781   6.031  1.00  0.00     0.073 C 
ATOM      9  O   UNL     1      27.183 -17.125   7.223  1.00  0.00    -0.547 OA
ATOM     10  O   UNL     1      26.362 -16.845   5.108  1.00  0.00    -0.547 OA
ENDBRANCH   3   8
BRANCH   4  11
ATOM     11  O   UNL     1      31.140 -16.588   5.865  1.00  0.00    -0.387 OA
ATOM     12  H   UNL     1      31.164 -15.717   5.390  1.00  0.00     0.211 HD
ENDBRANCH   4  11
BRANCH   6  13
ATOM     13  O   UNL     1      31.019 -15.880   8.606  1.00  0.00    -0.387 OA
ATOM     14  H   UNL     1      31.476 -15.012   8.744  1.00  0.00     0.211 HD
ENDBRANCH   6  13
BRANCH   7  15
ATOM     15  O   UNL     1      31.042 -13.744   6.746  1.00  0.00    -0.384 OA
ATOM     16  H   UNL     1      31.788 -14.158   7.251  1.00  0.00     0.211 HD
ENDBRANCH   7  15
ENDBRANCH   1   2
BRANCH   1  17
ATOM     17  C   UNL     1      26.948 -13.343   7.966  1.00  0.00     0.172 A 
ATOM     18  C   UNL     1      26.061 -13.809   8.955  1.00  0.00     0.201 A 
ATOM     19  C   UNL     1      27.441 -12.040   8.027  1.00  0.00     0.098 A 
ATOM     20  C   UNL     1      25.605 -12.926   9.968  1.00  0.00     0.176 A 
ATOM     21  C   UNL     1      27.026 -11.168   9.031  1.00  0.00     0.146 A 
ATOM     22  C   UNL     1      26.101 -11.598  10.011  1.00  0.00     0.111 A 
ATOM     23  O   UNL     1      27.505  -9.929   9.047  1.00  0.00    -0.456 OA
ATOM     24  C   UNL     1      25.709 -10.659  10.990  1.00  0.00     0.197 A 
ATOM     25  C   UNL     1      27.163  -9.024   9.961  1.00  0.00     0.138 A 
ATOM     26  C   UNL     1      26.242  -9.370  10.963  1.00  0.00     0.100 A 
ATOM     27  O   UNL     1      24.883 -10.956  11.894  1.00  0.00    -0.289 OA
BRANCH  18  28
ATOM     28  O   UNL     1      25.689 -15.156   8.929  1.00  0.00    -0.502 OA
ATOM     29  H   UNL     1      26.263 -15.901   8.565  1.00  0.00     0.293 HD
ENDBRANCH  18  28
BRANCH  20  30
ATOM     30  O   UNL     1      24.670 -13.335  10.924  1.00  0.00    -0.504 OA
ATOM     31  H   UNL     1      24.173 -14.214  10.896  1.00  0.00     0.293 HD
ENDBRANCH  20  30
BRANCH  25  32
ATOM     32  C   UNL     1      27.754  -7.665   9.876  1.00  0.00     0.017 A 
ATOM     33  C   UNL     1      27.598  -6.723  10.914  1.00  0.00     0.012 A 
ATOM     34  C   UNL     1      28.511  -7.307   8.745  1.00  0.00     0.012 A 
ATOM     35  C   UNL     1      28.168  -5.450  10.806  1.00  0.00     0.001 A 
ATOM     36  C   UNL     1      29.078  -6.033   8.642  1.00  0.00     0.001 A 
ATOM     37  C   UNL     1      28.903  -5.104   9.670  1.00  0.00     0.000 A 
ENDBRANCH  25  32
ENDBRANCH   1  17
TORSDOF 9
ENDMDL
MODEL 9
REMARK VINA RESULT:    -6.457      3.172      4.124
REMARK INTER + INTRA:          -9.326
REMARK INTER:                  -8.176
REMARK INTRA:                  -1.149
REMARK UNBOUND:                -0.415
REMARK SMILES O=C([O-])[C@H]1O[C@@H](Oc2cc3oc(-c4ccccc4)cc(=O)c3c(O)c2O)[C@H](O)[C@H](O)[C@@H]1O
REMARK SMILES IDX 7 1 6 2 4 3 31 4 5 5 29 6 27 7 2 8 1 9 3 10 32 11 30 13
REMARK SMILES IDX 28 15 8 17 25 18 9 19 23 20 10 21 22 22 11 23 20 24 12 25
REMARK SMILES IDX 19 26 21 27 26 28 24 30 13 32 14 33 18 34 15 35 17 36 16 37
REMARK H PARENT 32 12 30 14 28 16 26 29 24 31
REMARK Flexibility Score: inf
ROOT
ATOM      1  O   UNL     1      26.619 -13.335  14.464  1.00  0.00    -0.458 OA
ENDROOT
BRANCH   1   2
ATOM      2  C   UNL     1      26.114 -12.032  14.781  1.00  0.00     0.339 C 
ATOM      3  C   UNL     1      27.931 -11.448  16.211  1.00  0.00     0.199 C 
ATOM      4  C   UNL     1      27.050 -11.488  17.486  1.00  0.00     0.180 C 
ATOM      5  O   UNL     1      27.185 -11.131  15.038  1.00  0.00    -0.328 OA
ATOM      6  C   UNL     1      25.828 -12.405  17.273  1.00  0.00     0.181 C 
ATOM      7  C   UNL     1      25.102 -12.086  15.951  1.00  0.00     0.214 C 
BRANCH   3   8
ATOM      8  C   UNL     1      28.810 -12.662  16.010  1.00  0.00     0.073 C 
ATOM      9  O   UNL     1      28.672 -13.695  16.717  1.00  0.00    -0.547 OA
ATOM     10  O   UNL     1      29.801 -12.633  15.036  1.00  0.00    -0.547 OA
ENDBRANCH   3   8
BRANCH   4  11
ATOM     11  O   UNL     1      26.642 -10.179  17.797  1.00  0.00    -0.387 OA
ATOM     12  H   UNL     1      25.651 -10.182  17.845  1.00  0.00     0.211 HD
ENDBRANCH   4  11
BRANCH   6  13
ATOM     13  O   UNL     1      24.953 -12.379  18.374  1.00  0.00    -0.387 OA
ATOM     14  H   UNL     1      24.619 -13.300  18.529  1.00  0.00     0.211 HD
ENDBRANCH   6  13
BRANCH   7  15
ATOM     15  O   UNL     1      24.349 -10.897  16.036  1.00  0.00    -0.384 OA
ATOM     16  H   UNL     1      23.446 -11.068  15.667  1.00  0.00     0.211 HD
ENDBRANCH   7  15
ENDBRANCH   1   2
BRANCH   1  17
ATOM     17  C   UNL     1      27.084 -13.714  13.198  1.00  0.00     0.172 A 
ATOM     18  C   UNL     1      28.056 -14.719  13.033  1.00  0.00     0.201 A 
ATOM     19  C   UNL     1      26.531 -13.087  12.083  1.00  0.00     0.098 A 
ATOM     20  C   UNL     1      28.531 -15.035  11.734  1.00  0.00     0.176 A 
ATOM     21  C   UNL     1      26.966 -13.404  10.798  1.00  0.00     0.146 A 
ATOM     22  C   UNL     1      27.973 -14.378  10.607  1.00  0.00     0.111 A 
ATOM     23  O   UNL     1      26.426 -12.773   9.760  1.00  0.00    -0.456 OA
ATOM     24  C   UNL     1      28.380 -14.640   9.281  1.00  0.00     0.197 A 
ATOM     25  C   UNL     1      26.782 -13.004   8.499  1.00  0.00     0.138 A 
ATOM     26  C   UNL     1      27.782 -13.950   8.226  1.00  0.00     0.100 A 
ATOM     27  O   UNL     1      29.278 -15.486   9.022  1.00  0.00    -0.289 OA
BRANCH  18  28
ATOM     28  O   UNL     1      28.493 -15.410  14.166  1.00  0.00    -0.502 OA
ATOM     29  H   UNL     1      28.969 -14.986  14.947  1.00  0.00     0.293 HD
ENDBRANCH  18  28
BRANCH  20  30
ATOM     30  O   UNL     1      29.547 -15.976  11.540  1.00  0.00    -0.504 OA
ATOM     31  H   UNL     1      29.613 -16.589  10.740  1.00  0.00     0.293 HD
ENDBRANCH  20  30
BRANCH  25  32
ATOM     32  C   UNL     1      26.118 -12.232   7.418  1.00  0.00     0.017 A 
ATOM     33  C   UNL     1      26.527 -12.340   6.073  1.00  0.00     0.012 A 
ATOM     34  C   UNL     1      25.038 -11.387   7.732  1.00  0.00     0.012 A 
ATOM     35  C   UNL     1      25.880 -11.601   5.076  1.00  0.00     0.001 A 
ATOM     36  C   UNL     1      24.397 -10.650   6.731  1.00  0.00     0.001 A 
ATOM     37  C   UNL     1      24.820 -10.754   5.405  1.00  0.00     0.000 A 
ENDBRANCH  25  32
ENDBRANCH   1  17
TORSDOF 9
ENDMDL
