MODEL 1
REMARK VINA RESULT:    -6.029      0.000      0.000
REMARK INTER + INTRA:          -6.029
REMARK INTER:                  -6.029
REMARK INTRA:                   0.000
REMARK UNBOUND:                 0.000
REMARK SMILES CC(C)=C1CC[C@H](C)CC1=O
REMARK SMILES IDX 8 1 7 2 6 3 5 4 4 5 2 6 1 7 3 8 10 9 11 10 9 11
REMARK H PARENT
REMARK Flexibility Score: inf
ROOT
ATOM      1  C   UNL     1      -8.247  35.623  26.003  1.00  0.00     0.008 C 
ATOM      2  C   UNL     1      -8.623  34.939  24.684  1.00  0.00    -0.006 C 
ATOM      3  C   UNL     1      -7.497  35.102  23.650  1.00  0.00     0.008 C 
ATOM      4  C   UNL     1      -7.898  34.511  22.291  1.00  0.00     0.039 C 
ATOM      5  C   UNL     1      -8.389  33.074  22.401  1.00  0.00    -0.006 C 
ATOM      6  C   UNL     1      -8.191  32.178  21.390  1.00  0.00    -0.070 C 
ATOM      7  C   UNL     1      -7.492  32.580  20.111  1.00  0.00     0.039 C 
ATOM      8  C   UNL     1      -8.623  30.734  21.510  1.00  0.00     0.039 C 
ATOM      9  C   UNL     1      -9.191  32.746  23.617  1.00  0.00     0.159 C 
ATOM     10  O   UNL     1     -10.112  31.886  23.581  1.00  0.00    -0.295 OA
ATOM     11  C   UNL     1      -8.913  33.448  24.913  1.00  0.00     0.084 C 
ENDROOT
TORSDOF 0
ENDMDL
MODEL 2
REMARK VINA RESULT:    -6.009      1.975      3.694
REMARK INTER + INTRA:          -6.009
REMARK INTER:                  -6.009
REMARK INTRA:                   0.000
REMARK UNBOUND:                 0.000
REMARK SMILES CC(C)=C1CC[C@H](C)CC1=O
REMARK SMILES IDX 8 1 7 2 6 3 5 4 4 5 2 6 1 7 3 8 10 9 11 10 9 11
REMARK H PARENT
REMARK Flexibility Score: inf
ROOT
ATOM      1  C   UNL     1      -9.259  28.895  24.972  1.00  0.00     0.008 C 
ATOM      2  C   UNL     1      -8.441  29.943  24.208  1.00  0.00    -0.006 C 
ATOM      3  C   UNL     1      -8.570  29.728  22.691  1.00  0.00     0.008 C 
ATOM      4  C   UNL     1      -7.678  30.705  21.912  1.00  0.00     0.039 C 
ATOM      5  C   UNL     1      -7.905  32.154  22.320  1.00  0.00    -0.006 C 
ATOM      6  C   UNL     1      -7.759  33.174  21.423  1.00  0.00    -0.070 C 
ATOM      7  C   UNL     1      -7.349  32.907  19.992  1.00  0.00     0.039 C 
ATOM      8  C   UNL     1      -8.036  34.612  21.800  1.00  0.00     0.039 C 
ATOM      9  C   UNL     1      -8.176  32.394  23.768  1.00  0.00     0.159 C 
ATOM     10  O   UNL     1      -7.801  33.454  24.338  1.00  0.00    -0.295 OA
ATOM     11  C   UNL     1      -8.903  31.361  24.578  1.00  0.00     0.084 C 
ENDROOT
TORSDOF 0
ENDMDL
MODEL 3
REMARK VINA RESULT:    -5.939      1.605      4.373
REMARK INTER + INTRA:          -5.939
REMARK INTER:                  -5.939
REMARK INTRA:                   0.000
REMARK UNBOUND:                 0.000
REMARK SMILES CC(C)=C1CC[C@H](C)CC1=O
REMARK SMILES IDX 8 1 7 2 6 3 5 4 4 5 2 6 1 7 3 8 10 9 11 10 9 11
REMARK H PARENT
REMARK Flexibility Score: inf
ROOT
ATOM      1  C   UNL     1      -7.462  33.362  19.975  1.00  0.00     0.008 C 
ATOM      2  C   UNL     1      -8.170  33.416  21.333  1.00  0.00    -0.006 C 
ATOM      3  C   UNL     1      -7.955  32.105  22.107  1.00  0.00     0.008 C 
ATOM      4  C   UNL     1      -8.740  32.100  23.426  1.00  0.00     0.039 C 
ATOM      5  C   UNL     1      -8.462  33.333  24.275  1.00  0.00    -0.006 C 
ATOM      6  C   UNL     1      -8.494  33.276  25.639  1.00  0.00    -0.070 C 
ATOM      7  C   UNL     1      -8.824  31.991  26.363  1.00  0.00     0.039 C 
ATOM      8  C   UNL     1      -8.165  34.480  26.494  1.00  0.00     0.039 C 
ATOM      9  C   UNL     1      -8.273  34.613  23.530  1.00  0.00     0.159 C 
ATOM     10  O   UNL     1      -8.627  35.717  24.025  1.00  0.00    -0.295 OA
ATOM     11  C   UNL     1      -7.657  34.603  22.162  1.00  0.00     0.084 C 
ENDROOT
TORSDOF 0
ENDMDL
MODEL 4
REMARK VINA RESULT:    -5.871      1.149      4.020
REMARK INTER + INTRA:          -5.871
REMARK INTER:                  -5.871
REMARK INTRA:                   0.000
REMARK UNBOUND:                 0.000
REMARK SMILES CC(C)=C1CC[C@H](C)CC1=O
REMARK SMILES IDX 8 1 7 2 6 3 5 4 4 5 2 6 1 7 3 8 10 9 11 10 9 11
REMARK H PARENT
REMARK Flexibility Score: inf
ROOT
ATOM      1  C   UNL     1      -7.788  32.997  19.706  1.00  0.00     0.008 C 
ATOM      2  C   UNL     1      -7.502  33.158  21.204  1.00  0.00    -0.006 C 
ATOM      3  C   UNL     1      -7.896  34.565  21.681  1.00  0.00     0.008 C 
ATOM      4  C   UNL     1      -7.523  34.780  23.155  1.00  0.00     0.039 C 
ATOM      5  C   UNL     1      -8.066  33.681  24.059  1.00  0.00    -0.006 C 
ATOM      6  C   UNL     1      -8.426  33.941  25.351  1.00  0.00    -0.070 C 
ATOM      7  C   UNL     1      -8.284  35.325  25.942  1.00  0.00     0.039 C 
ATOM      8  C   UNL     1      -9.019  32.873  26.242  1.00  0.00     0.039 C 
ATOM      9  C   UNL     1      -8.067  32.302  23.488  1.00  0.00     0.159 C 
ATOM     10  O   UNL     1      -7.901  31.290  24.221  1.00  0.00    -0.295 OA
ATOM     11  C   UNL     1      -8.263  32.098  22.015  1.00  0.00     0.084 C 
ENDROOT
TORSDOF 0
ENDMDL
MODEL 5
REMARK VINA RESULT:    -5.791      1.510      2.313
REMARK INTER + INTRA:          -5.791
REMARK INTER:                  -5.791
REMARK INTRA:                   0.000
REMARK UNBOUND:                 0.000
REMARK SMILES CC(C)=C1CC[C@H](C)CC1=O
REMARK SMILES IDX 8 1 7 2 6 3 5 4 4 5 2 6 1 7 3 8 10 9 11 10 9 11
REMARK H PARENT
REMARK Flexibility Score: inf
ROOT
ATOM      1  C   UNL     1      -8.609  35.714  26.056  1.00  0.00     0.008 C 
ATOM      2  C   UNL     1      -8.065  34.743  25.002  1.00  0.00    -0.006 C 
ATOM      3  C   UNL     1      -8.617  33.327  25.235  1.00  0.00     0.008 C 
ATOM      4  C   UNL     1      -8.004  32.320  24.251  1.00  0.00     0.039 C 
ATOM      5  C   UNL     1      -8.134  32.768  22.802  1.00  0.00    -0.006 C 
ATOM      6  C   UNL     1      -8.270  31.862  21.789  1.00  0.00    -0.070 C 
ATOM      7  C   UNL     1      -8.280  30.375  22.064  1.00  0.00     0.039 C 
ATOM      8  C   UNL     1      -8.457  32.295  20.353  1.00  0.00     0.039 C 
ATOM      9  C   UNL     1      -7.985  34.233  22.552  1.00  0.00     0.159 C 
ATOM     10  O   UNL     1      -7.485  34.666  21.479  1.00  0.00    -0.295 OA
ATOM     11  C   UNL     1      -8.430  35.222  23.589  1.00  0.00     0.084 C 
ENDROOT
TORSDOF 0
ENDMDL
MODEL 6
REMARK VINA RESULT:    -5.574      1.878      3.210
REMARK INTER + INTRA:          -5.574
REMARK INTER:                  -5.574
REMARK INTRA:                   0.000
REMARK UNBOUND:                 0.000
REMARK SMILES CC(C)=C1CC[C@H](C)CC1=O
REMARK SMILES IDX 8 1 7 2 6 3 5 4 4 5 2 6 1 7 3 8 10 9 11 10 9 11
REMARK H PARENT
REMARK Flexibility Score: inf
ROOT
ATOM      1  C   UNL     1      -7.484  35.275  21.496  1.00  0.00     0.008 C 
ATOM      2  C   UNL     1      -8.150  34.044  22.120  1.00  0.00    -0.006 C 
ATOM      3  C   UNL     1      -7.830  32.783  21.300  1.00  0.00     0.008 C 
ATOM      4  C   UNL     1      -8.571  31.557  21.851  1.00  0.00     0.039 C 
ATOM      5  C   UNL     1      -8.343  31.359  23.343  1.00  0.00    -0.006 C 
ATOM      6  C   UNL     1      -8.327  30.111  23.899  1.00  0.00    -0.070 C 
ATOM      7  C   UNL     1      -8.555  28.875  23.057  1.00  0.00     0.039 C 
ATOM      8  C   UNL     1      -8.045  29.897  25.369  1.00  0.00     0.039 C 
ATOM      9  C   UNL     1      -8.256  32.602  24.165  1.00  0.00     0.159 C 
ATOM     10  O   UNL     1      -8.660  32.628  25.358  1.00  0.00    -0.295 OA
ATOM     11  C   UNL     1      -7.685  33.857  23.572  1.00  0.00     0.084 C 
ENDROOT
TORSDOF 0
ENDMDL
MODEL 7
REMARK VINA RESULT:    -5.404      2.448      4.037
REMARK INTER + INTRA:          -5.404
REMARK INTER:                  -5.404
REMARK INTRA:                   0.000
REMARK UNBOUND:                 0.000
REMARK SMILES CC(C)=C1CC[C@H](C)CC1=O
REMARK SMILES IDX 8 1 7 2 6 3 5 4 4 5 2 6 1 7 3 8 10 9 11 10 9 11
REMARK H PARENT
REMARK Flexibility Score: inf
ROOT
ATOM      1  C   UNL     1      -8.871  29.328  26.577  1.00  0.00     0.008 C 
ATOM      2  C   UNL     1      -8.277  30.602  25.966  1.00  0.00    -0.006 C 
ATOM      3  C   UNL     1      -8.545  30.651  24.453  1.00  0.00     0.008 C 
ATOM      4  C   UNL     1      -7.871  31.869  23.806  1.00  0.00     0.039 C 
ATOM      5  C   UNL     1      -8.226  33.173  24.506  1.00  0.00    -0.006 C 
ATOM      6  C   UNL     1      -8.306  34.349  23.816  1.00  0.00    -0.070 C 
ATOM      7  C   UNL     1      -8.027  34.408  22.331  1.00  0.00     0.039 C 
ATOM      8  C   UNL     1      -8.714  35.641  24.489  1.00  0.00     0.039 C 
ATOM      9  C   UNL     1      -8.364  33.104  25.991  1.00  0.00     0.159 C 
ATOM     10  O   UNL     1      -8.060  34.085  26.723  1.00  0.00    -0.295 OA
ATOM     11  C   UNL     1      -8.865  31.849  26.643  1.00  0.00     0.084 C 
ENDROOT
TORSDOF 0
ENDMDL
MODEL 8
REMARK VINA RESULT:    -5.392      2.175      4.284
REMARK INTER + INTRA:          -5.392
REMARK INTER:                  -5.392
REMARK INTRA:                   0.000
REMARK UNBOUND:                 0.000
REMARK SMILES CC(C)=C1CC[C@H](C)CC1=O
REMARK SMILES IDX 8 1 7 2 6 3 5 4 4 5 2 6 1 7 3 8 10 9 11 10 9 11
REMARK H PARENT
REMARK Flexibility Score: inf
ROOT
ATOM      1  C   UNL     1      -7.934  32.759  20.122  1.00  0.00     0.008 C 
ATOM      2  C   UNL     1      -7.651  32.468  21.600  1.00  0.00    -0.006 C 
ATOM      3  C   UNL     1      -8.633  33.237  22.500  1.00  0.00     0.008 C 
ATOM      4  C   UNL     1      -8.301  33.038  23.985  1.00  0.00     0.039 C 
ATOM      5  C   UNL     1      -8.186  31.568  24.366  1.00  0.00    -0.006 C 
ATOM      6  C   UNL     1      -8.531  31.130  25.613  1.00  0.00    -0.070 C 
ATOM      7  C   UNL     1      -9.024  32.089  26.673  1.00  0.00     0.039 C 
ATOM      8  C   UNL     1      -8.475  29.666  25.985  1.00  0.00     0.039 C 
ATOM      9  C   UNL     1      -7.570  30.672  23.343  1.00  0.00     0.159 C 
ATOM     10  O   UNL     1      -6.888  29.667  23.679  1.00  0.00    -0.295 OA
ATOM     11  C   UNL     1      -7.752  30.962  21.882  1.00  0.00     0.084 C 
ENDROOT
TORSDOF 0
ENDMDL
