MODEL 1
REMARK VINA RESULT:    -6.898      0.000      0.000
REMARK INTER + INTRA:         -11.402
REMARK INTER:                 -10.125
REMARK INTRA:                  -1.277
REMARK UNBOUND:                -1.277
REMARK SMILES O=c1c(O[C@@H]2O[C@H](CO)[C@@H](O)[C@H](O)[C@H]2O)c(-c2ccc(O)c(O)c2)oc2cc(O)cc(O)c12
REMARK SMILES IDX 4 1 3 2 16 3 25 4 2 5 26 6 1 7 33 8 27 9 31 10 28 11 30 12
REMARK SMILES IDX 17 13 18 14 19 15 20 16 24 17 22 18 21 19 23 21 32 23 29 25
REMARK SMILES IDX 5 27 14 28 6 29 12 30 7 31 10 32 15 33 13 35 8 37 9 38 11 40
REMARK H PARENT 21 20 23 22 32 24 29 26 15 34 13 36 9 39 11 41
REMARK Flexibility Score: inf
ROOT
ATOM      1  O   UNL     1     -37.033   4.325  80.324  1.00  0.00    -0.454 OA
ENDROOT
BRANCH   1   2
ATOM      2  C   UNL     1     -36.106   5.320  80.675  1.00  0.00     0.214 A 
ATOM      3  C   UNL     1     -36.125   5.824  81.986  1.00  0.00     0.180 A 
ATOM      4  O   UNL     1     -35.308   6.807  82.350  1.00  0.00    -0.452 OA
ATOM      5  C   UNL     1     -35.140   5.804  79.776  1.00  0.00     0.239 A 
ATOM      6  C   UNL     1     -34.395   7.323  81.524  1.00  0.00     0.146 A 
ATOM      7  O   UNL     1     -35.077   5.329  78.608  1.00  0.00    -0.285 OA
ATOM      8  C   UNL     1     -34.245   6.806  80.206  1.00  0.00     0.111 A 
ATOM      9  C   UNL     1     -33.568   8.360  81.966  1.00  0.00     0.094 A 
ATOM     10  C   UNL     1     -33.181   7.273  79.394  1.00  0.00     0.134 A 
ATOM     11  C   UNL     1     -32.562   8.864  81.130  1.00  0.00     0.123 A 
ATOM     12  C   UNL     1     -32.343   8.288  79.873  1.00  0.00     0.093 A 
BRANCH   3  13
ATOM     13  C   UNL     1     -37.064   5.219  82.952  1.00  0.00     0.025 A 
ATOM     14  C   UNL     1     -38.279   5.871  83.215  1.00  0.00     0.016 A 
ATOM     15  C   UNL     1     -39.383   5.130  83.663  1.00  0.00     0.051 A 
ATOM     16  C   UNL     1     -39.280   3.745  83.839  1.00  0.00     0.157 A 
ATOM     17  C   UNL     1     -36.924   3.855  83.268  1.00  0.00     0.062 A 
ATOM     18  C   UNL     1     -38.041   3.103  83.674  1.00  0.00     0.158 A 
BRANCH  16  19
ATOM     19  O   UNL     1     -40.409   2.974  84.125  1.00  0.00    -0.504 OA
ATOM     20  H   UNL     1     -40.885   3.059  85.022  1.00  0.00     0.293 HD
ENDBRANCH  16  19
BRANCH  18  21
ATOM     21  O   UNL     1     -37.939   1.721  83.870  1.00  0.00    -0.504 OA
ATOM     22  H   UNL     1     -38.370   1.264  84.671  1.00  0.00     0.293 HD
ENDBRANCH  18  21
ENDBRANCH   3  13
BRANCH  10  23
ATOM     23  O   UNL     1     -32.949   6.730  78.129  1.00  0.00    -0.507 OA
ATOM     24  H   UNL     1     -32.033   6.778  77.696  1.00  0.00     0.293 HD
ENDBRANCH  10  23
BRANCH  11  25
ATOM     25  O   UNL     1     -31.785   9.942  81.559  1.00  0.00    -0.508 OA
ATOM     26  H   UNL     1     -32.118  10.586  82.261  1.00  0.00     0.293 HD
ENDBRANCH  11  25
ENDBRANCH   1   2
BRANCH   1  27
ATOM     27  C   UNL     1     -38.345   4.577  79.814  1.00  0.00     0.339 C 
ATOM     28  C   UNL     1     -38.355   4.258  78.279  1.00  0.00     0.214 C 
ATOM     29  O   UNL     1     -39.283   3.783  80.533  1.00  0.00    -0.332 OA
ATOM     30  C   UNL     1     -39.214   3.014  77.961  1.00  0.00     0.180 C 
ATOM     31  C   UNL     1     -40.571   3.903  79.956  1.00  0.00     0.179 C 
ATOM     32  C   UNL     1     -40.617   3.102  78.626  1.00  0.00     0.177 C 
BRANCH  28  33
ATOM     33  O   UNL     1     -38.848   5.369  77.567  1.00  0.00    -0.384 OA
ATOM     34  H   UNL     1     -39.408   5.006  76.826  1.00  0.00     0.211 HD
ENDBRANCH  28  33
BRANCH  30  35
ATOM     35  O   UNL     1     -38.559   1.867  78.447  1.00  0.00    -0.387 OA
ATOM     36  H   UNL     1     -37.976   2.147  79.195  1.00  0.00     0.211 HD
ENDBRANCH  30  35
BRANCH  31  37
ATOM     37  C   UNL     1     -41.601   3.369  80.959  1.00  0.00     0.191 C 
BRANCH  37  38
ATOM     38  O   UNL     1     -42.871   3.365  80.371  1.00  0.00    -0.394 OA
ATOM     39  H   UNL     1     -42.852   4.085  79.695  1.00  0.00     0.210 HD
ENDBRANCH  37  38
ENDBRANCH  31  37
BRANCH  32  40
ATOM     40  O   UNL     1     -41.566   3.657  77.747  1.00  0.00    -0.387 OA
ATOM     41  H   UNL     1     -41.660   4.621  77.982  1.00  0.00     0.211 HD
ENDBRANCH  32  40
ENDBRANCH   1  27
TORSDOF 12
ENDMDL
MODEL 2
REMARK VINA RESULT:    -6.716      2.113      7.793
REMARK INTER + INTRA:         -11.134
REMARK INTER:                  -9.657
REMARK INTRA:                  -1.477
REMARK UNBOUND:                -1.277
REMARK SMILES O=c1c(O[C@@H]2O[C@H](CO)[C@@H](O)[C@H](O)[C@H]2O)c(-c2ccc(O)c(O)c2)oc2cc(O)cc(O)c12
REMARK SMILES IDX 4 1 3 2 16 3 25 4 2 5 26 6 1 7 33 8 27 9 31 10 28 11 30 12
REMARK SMILES IDX 17 13 18 14 19 15 20 16 24 17 22 18 21 19 23 21 32 23 29 25
REMARK SMILES IDX 5 27 14 28 6 29 12 30 7 31 10 32 15 33 13 35 8 37 9 38 11 40
REMARK H PARENT 21 20 23 22 32 24 29 26 15 34 13 36 9 39 11 41
REMARK Flexibility Score: inf
ROOT
ATOM      1  O   UNL     1     -37.393   5.493  81.024  1.00  0.00    -0.454 OA
ENDROOT
BRANCH   1   2
ATOM      2  C   UNL     1     -38.300   4.856  80.162  1.00  0.00     0.214 A 
ATOM      3  C   UNL     1     -37.894   4.575  78.847  1.00  0.00     0.180 A 
ATOM      4  O   UNL     1     -38.736   4.029  77.976  1.00  0.00    -0.452 OA
ATOM      5  C   UNL     1     -39.584   4.459  80.575  1.00  0.00     0.239 A 
ATOM      6  C   UNL     1     -39.975   3.663  78.310  1.00  0.00     0.146 A 
ATOM      7  O   UNL     1     -39.950   4.660  81.766  1.00  0.00    -0.285 OA
ATOM      8  C   UNL     1     -40.437   3.826  79.647  1.00  0.00     0.111 A 
ATOM      9  C   UNL     1     -40.815   3.097  77.345  1.00  0.00     0.094 A 
ATOM     10  C   UNL     1     -41.704   3.307  80.011  1.00  0.00     0.134 A 
ATOM     11  C   UNL     1     -42.095   2.650  77.700  1.00  0.00     0.123 A 
ATOM     12  C   UNL     1     -42.513   2.712  79.035  1.00  0.00     0.093 A 
BRANCH   3  13
ATOM     13  C   UNL     1     -36.502   4.888  78.465  1.00  0.00     0.025 A 
ATOM     14  C   UNL     1     -36.241   6.079  77.771  1.00  0.00     0.016 A 
ATOM     15  C   UNL     1     -34.972   6.672  77.858  1.00  0.00     0.051 A 
ATOM     16  C   UNL     1     -33.971   6.086  78.643  1.00  0.00     0.157 A 
ATOM     17  C   UNL     1     -35.453   4.227  79.133  1.00  0.00     0.062 A 
ATOM     18  C   UNL     1     -34.194   4.843  79.258  1.00  0.00     0.158 A 
BRANCH  16  19
ATOM     19  O   UNL     1     -32.762   6.746  78.871  1.00  0.00    -0.504 OA
ATOM     20  H   UNL     1     -32.747   7.729  79.141  1.00  0.00     0.293 HD
ENDBRANCH  16  19
BRANCH  18  21
ATOM     21  O   UNL     1     -33.184   4.252  80.025  1.00  0.00    -0.504 OA
ATOM     22  H   UNL     1     -33.118   3.242  80.131  1.00  0.00     0.293 HD
ENDBRANCH  18  21
ENDBRANCH   3  13
BRANCH  10  23
ATOM     23  O   UNL     1     -42.156   3.372  81.331  1.00  0.00    -0.507 OA
ATOM     24  H   UNL     1     -42.933   2.803  81.649  1.00  0.00     0.293 HD
ENDBRANCH  10  23
BRANCH  11  25
ATOM     25  O   UNL     1     -42.946   2.145  76.715  1.00  0.00    -0.508 OA
ATOM     26  H   UNL     1     -42.894   2.464  75.759  1.00  0.00     0.293 HD
ENDBRANCH  11  25
ENDBRANCH   1   2
BRANCH   1  27
ATOM     27  C   UNL     1     -37.320   6.905  81.232  1.00  0.00     0.339 C 
ATOM     28  C   UNL     1     -37.906   7.232  82.650  1.00  0.00     0.214 C 
ATOM     29  O   UNL     1     -35.966   7.325  81.101  1.00  0.00    -0.332 OA
ATOM     30  C   UNL     1     -36.808   7.724  83.620  1.00  0.00     0.180 C 
ATOM     31  C   UNL     1     -35.842   8.694  81.443  1.00  0.00     0.179 C 
ATOM     32  C   UNL     1     -35.945   8.851  82.985  1.00  0.00     0.177 C 
BRANCH  28  33
ATOM     33  O   UNL     1     -38.909   8.214  82.534  1.00  0.00    -0.384 OA
ATOM     34  H   UNL     1     -39.749   7.736  82.291  1.00  0.00     0.211 HD
ENDBRANCH  28  33
BRANCH  30  35
ATOM     35  O   UNL     1     -35.965   6.644  83.944  1.00  0.00    -0.387 OA
ATOM     36  H   UNL     1     -35.423   6.908  84.728  1.00  0.00     0.211 HD
ENDBRANCH  30  35
BRANCH  31  37
ATOM     37  C   UNL     1     -34.490   9.200  80.926  1.00  0.00     0.191 C 
BRANCH  37  38
ATOM     38  O   UNL     1     -33.481   8.298  81.286  1.00  0.00    -0.394 OA
ATOM     39  H   UNL     1     -33.941   7.560  81.753  1.00  0.00     0.210 HD
ENDBRANCH  37  38
ENDBRANCH  31  37
BRANCH  32  40
ATOM     40  O   UNL     1     -36.443  10.125  83.320  1.00  0.00    -0.387 OA
ATOM     41  H   UNL     1     -37.195  10.323  82.697  1.00  0.00     0.211 HD
ENDBRANCH  32  40
ENDBRANCH   1  27
TORSDOF 12
ENDMDL
MODEL 3
REMARK VINA RESULT:    -6.560      3.051      5.198
REMARK INTER + INTRA:         -10.906
REMARK INTER:                  -9.953
REMARK INTRA:                  -0.953
REMARK UNBOUND:                -1.277
REMARK SMILES O=c1c(O[C@@H]2O[C@H](CO)[C@@H](O)[C@H](O)[C@H]2O)c(-c2ccc(O)c(O)c2)oc2cc(O)cc(O)c12
REMARK SMILES IDX 4 1 3 2 16 3 25 4 2 5 26 6 1 7 33 8 27 9 31 10 28 11 30 12
REMARK SMILES IDX 17 13 18 14 19 15 20 16 24 17 22 18 21 19 23 21 32 23 29 25
REMARK SMILES IDX 5 27 14 28 6 29 12 30 7 31 10 32 15 33 13 35 8 37 9 38 11 40
REMARK H PARENT 21 20 23 22 32 24 29 26 15 34 13 36 9 39 11 41
REMARK Flexibility Score: inf
ROOT
ATOM      1  O   UNL     1     -39.168   7.288  79.689  1.00  0.00    -0.454 OA
ENDROOT
BRANCH   1   2
ATOM      2  C   UNL     1     -38.164   6.483  80.251  1.00  0.00     0.214 A 
ATOM      3  C   UNL     1     -38.273   5.088  80.130  1.00  0.00     0.180 A 
ATOM      4  O   UNL     1     -37.381   4.283  80.696  1.00  0.00    -0.452 OA
ATOM      5  C   UNL     1     -37.037   7.022  80.897  1.00  0.00     0.239 A 
ATOM      6  C   UNL     1     -36.311   4.744  81.348  1.00  0.00     0.146 A 
ATOM      7  O   UNL     1     -36.896   8.274  80.974  1.00  0.00    -0.285 OA
ATOM      8  C   UNL     1     -36.073   6.144  81.437  1.00  0.00     0.111 A 
ATOM      9  C   UNL     1     -35.410   3.844  81.926  1.00  0.00     0.094 A 
ATOM     10  C   UNL     1     -34.863   6.608  82.013  1.00  0.00     0.134 A 
ATOM     11  C   UNL     1     -34.250   4.315  82.556  1.00  0.00     0.123 A 
ATOM     12  C   UNL     1     -33.959   5.685  82.553  1.00  0.00     0.093 A 
BRANCH   3  13
ATOM     13  C   UNL     1     -39.398   4.543  79.343  1.00  0.00     0.025 A 
ATOM     14  C   UNL     1     -39.118   3.787  78.194  1.00  0.00     0.016 A 
ATOM     15  C   UNL     1     -40.048   2.838  77.742  1.00  0.00     0.051 A 
ATOM     16  C   UNL     1     -41.246   2.635  78.439  1.00  0.00     0.157 A 
ATOM     17  C   UNL     1     -40.662   4.440  79.954  1.00  0.00     0.062 A 
ATOM     18  C   UNL     1     -41.576   3.458  79.529  1.00  0.00     0.158 A 
BRANCH  16  19
ATOM     19  O   UNL     1     -42.103   1.587  78.099  1.00  0.00    -0.504 OA
ATOM     20  H   UNL     1     -42.183   1.271  77.133  1.00  0.00     0.293 HD
ENDBRANCH  16  19
BRANCH  18  21
ATOM     21  O   UNL     1     -42.784   3.265  80.209  1.00  0.00    -0.504 OA
ATOM     22  H   UNL     1     -43.456   2.562  79.911  1.00  0.00     0.293 HD
ENDBRANCH  18  21
ENDBRANCH   3  13
BRANCH  10  23
ATOM     23  O   UNL     1     -34.555   7.969  82.042  1.00  0.00    -0.507 OA
ATOM     24  H   UNL     1     -33.610   8.290  82.223  1.00  0.00     0.293 HD
ENDBRANCH  10  23
BRANCH  11  25
ATOM     25  O   UNL     1     -33.392   3.411  83.184  1.00  0.00    -0.508 OA
ATOM     26  H   UNL     1     -33.491   3.180  84.161  1.00  0.00     0.293 HD
ENDBRANCH  11  25
ENDBRANCH   1   2
BRANCH   1  27
ATOM     27  C   UNL     1     -38.938   8.340  78.749  1.00  0.00     0.339 C 
ATOM     28  C   UNL     1     -37.741   7.931  77.822  1.00  0.00     0.214 C 
ATOM     29  O   UNL     1     -40.133   8.572  78.011  1.00  0.00    -0.332 OA
ATOM     30  C   UNL     1     -38.207   7.666  76.373  1.00  0.00     0.180 C 
ATOM     31  C   UNL     1     -39.896   9.510  76.976  1.00  0.00     0.179 C 
ATOM     32  C   UNL     1     -39.093   8.825  75.835  1.00  0.00     0.177 C 
BRANCH  28  33
ATOM     33  O   UNL     1     -36.768   8.948  77.827  1.00  0.00    -0.384 OA
ATOM     34  H   UNL     1     -36.651   9.227  78.777  1.00  0.00     0.211 HD
ENDBRANCH  28  33
BRANCH  30  35
ATOM     35  O   UNL     1     -38.961   6.477  76.344  1.00  0.00    -0.387 OA
ATOM     36  H   UNL     1     -39.668   6.583  75.661  1.00  0.00     0.211 HD
ENDBRANCH  30  35
BRANCH  31  37
ATOM     37  C   UNL     1     -41.249  10.022  76.468  1.00  0.00     0.191 C 
BRANCH  37  38
ATOM     38  O   UNL     1     -41.219  10.125  75.072  1.00  0.00    -0.394 OA
ATOM     39  H   UNL     1     -41.657   9.306  74.737  1.00  0.00     0.210 HD
ENDBRANCH  37  38
ENDBRANCH  31  37
BRANCH  32  40
ATOM     40  O   UNL     1     -38.323   9.773  75.135  1.00  0.00    -0.387 OA
ATOM     41  H   UNL     1     -37.692   9.270  74.549  1.00  0.00     0.211 HD
ENDBRANCH  32  40
ENDBRANCH   1  27
TORSDOF 12
ENDMDL
MODEL 4
REMARK VINA RESULT:    -6.537      2.458      7.727
REMARK INTER + INTRA:         -10.872
REMARK INTER:                  -9.488
REMARK INTRA:                  -1.383
REMARK UNBOUND:                -1.277
REMARK SMILES O=c1c(O[C@@H]2O[C@H](CO)[C@@H](O)[C@H](O)[C@H]2O)c(-c2ccc(O)c(O)c2)oc2cc(O)cc(O)c12
REMARK SMILES IDX 4 1 3 2 16 3 25 4 2 5 26 6 1 7 33 8 27 9 31 10 28 11 30 12
REMARK SMILES IDX 17 13 18 14 19 15 20 16 24 17 22 18 21 19 23 21 32 23 29 25
REMARK SMILES IDX 5 27 14 28 6 29 12 30 7 31 10 32 15 33 13 35 8 37 9 38 11 40
REMARK H PARENT 21 20 23 22 32 24 29 26 15 34 13 36 9 39 11 41
REMARK Flexibility Score: inf
ROOT
ATOM      1  O   UNL     1     -37.456   7.324  80.406  1.00  0.00    -0.454 OA
ENDROOT
BRANCH   1   2
ATOM      2  C   UNL     1     -38.248   6.392  79.716  1.00  0.00     0.214 A 
ATOM      3  C   UNL     1     -38.010   6.191  78.346  1.00  0.00     0.180 A 
ATOM      4  O   UNL     1     -38.772   5.366  77.636  1.00  0.00    -0.452 OA
ATOM      5  C   UNL     1     -39.245   5.630  80.351  1.00  0.00     0.239 A 
ATOM      6  C   UNL     1     -39.751   4.643  78.185  1.00  0.00     0.146 A 
ATOM      7  O   UNL     1     -39.441   5.762  81.591  1.00  0.00    -0.285 OA
ATOM      8  C   UNL     1     -39.999   4.716  79.585  1.00  0.00     0.111 A 
ATOM      9  C   UNL     1     -40.521   3.795  77.383  1.00  0.00     0.094 A 
ATOM     10  C   UNL     1     -40.949   3.840  80.168  1.00  0.00     0.134 A 
ATOM     11  C   UNL     1     -41.507   2.983  77.959  1.00  0.00     0.123 A 
ATOM     12  C   UNL     1     -41.682   2.974  79.348  1.00  0.00     0.093 A 
BRANCH   3  13
ATOM     13  C   UNL     1     -36.882   6.910  77.722  1.00  0.00     0.025 A 
ATOM     14  C   UNL     1     -37.034   8.269  77.407  1.00  0.00     0.016 A 
ATOM     15  C   UNL     1     -35.903   9.097  77.332  1.00  0.00     0.051 A 
ATOM     16  C   UNL     1     -34.627   8.575  77.580  1.00  0.00     0.157 A 
ATOM     17  C   UNL     1     -35.590   6.360  77.826  1.00  0.00     0.062 A 
ATOM     18  C   UNL     1     -34.459   7.197  77.796  1.00  0.00     0.158 A 
BRANCH  16  19
ATOM     19  O   UNL     1     -33.516   9.414  77.670  1.00  0.00    -0.504 OA
ATOM     20  H   UNL     1     -32.604   9.111  77.331  1.00  0.00     0.293 HD
ENDBRANCH  16  19
BRANCH  18  21
ATOM     21  O   UNL     1     -33.180   6.677  78.023  1.00  0.00    -0.504 OA
ATOM     22  H   UNL     1     -32.772   5.976  77.407  1.00  0.00     0.293 HD
ENDBRANCH  18  21
ENDBRANCH   3  13
BRANCH  10  23
ATOM     23  O   UNL     1     -41.159   3.822  81.548  1.00  0.00    -0.507 OA
ATOM     24  H   UNL     1     -41.784   4.485  81.994  1.00  0.00     0.293 HD
ENDBRANCH  10  23
BRANCH  11  25
ATOM     25  O   UNL     1     -42.311   2.189  77.139  1.00  0.00    -0.508 OA
ATOM     26  H   UNL     1     -42.879   1.446  77.517  1.00  0.00     0.293 HD
ENDBRANCH  11  25
ENDBRANCH   1   2
BRANCH   1  27
ATOM     27  C   UNL     1     -36.214   7.022  81.046  1.00  0.00     0.339 C 
ATOM     28  C   UNL     1     -36.138   7.820  82.393  1.00  0.00     0.214 C 
ATOM     29  O   UNL     1     -36.127   5.615  81.250  1.00  0.00    -0.332 OA
ATOM     30  C   UNL     1     -36.211   6.880  83.618  1.00  0.00     0.180 C 
ATOM     31  C   UNL     1     -34.973   5.301  82.009  1.00  0.00     0.179 C 
ATOM     32  C   UNL     1     -35.209   5.698  83.493  1.00  0.00     0.177 C 
BRANCH  28  33
ATOM     33  O   UNL     1     -34.941   8.562  82.438  1.00  0.00    -0.384 OA
ATOM     34  H   UNL     1     -34.408   8.198  83.197  1.00  0.00     0.211 HD
ENDBRANCH  28  33
BRANCH  30  35
ATOM     35  O   UNL     1     -37.513   6.355  83.715  1.00  0.00    -0.387 OA
ATOM     36  H   UNL     1     -37.445   5.369  83.682  1.00  0.00     0.211 HD
ENDBRANCH  30  35
BRANCH  31  37
ATOM     37  C   UNL     1     -34.703   3.797  81.877  1.00  0.00     0.191 C 
BRANCH  37  38
ATOM     38  O   UNL     1     -33.805   3.391  82.871  1.00  0.00    -0.394 OA
ATOM     39  H   UNL     1     -34.350   3.265  83.684  1.00  0.00     0.210 HD
ENDBRANCH  37  38
ENDBRANCH  31  37
BRANCH  32  40
ATOM     40  O   UNL     1     -33.986   5.995  84.125  1.00  0.00    -0.387 OA
ATOM     41  H   UNL     1     -33.347   5.267  83.894  1.00  0.00     0.211 HD
ENDBRANCH  32  40
ENDBRANCH   1  27
TORSDOF 12
ENDMDL
MODEL 5
REMARK VINA RESULT:    -6.041      2.186      7.763
REMARK INTER + INTRA:         -10.143
REMARK INTER:                  -9.704
REMARK INTRA:                  -0.440
REMARK UNBOUND:                -1.277
REMARK SMILES O=c1c(O[C@@H]2O[C@H](CO)[C@@H](O)[C@H](O)[C@H]2O)c(-c2ccc(O)c(O)c2)oc2cc(O)cc(O)c12
REMARK SMILES IDX 4 1 3 2 16 3 25 4 2 5 26 6 1 7 33 8 27 9 31 10 28 11 30 12
REMARK SMILES IDX 17 13 18 14 19 15 20 16 24 17 22 18 21 19 23 21 32 23 29 25
REMARK SMILES IDX 5 27 14 28 6 29 12 30 7 31 10 32 15 33 13 35 8 37 9 38 11 40
REMARK H PARENT 21 20 23 22 32 24 29 26 15 34 13 36 9 39 11 41
REMARK Flexibility Score: inf
ROOT
ATOM      1  O   UNL     1     -37.006   6.301  80.665  1.00  0.00    -0.454 OA
ENDROOT
BRANCH   1   2
ATOM      2  C   UNL     1     -37.944   5.604  79.888  1.00  0.00     0.214 A 
ATOM      3  C   UNL     1     -37.837   5.666  78.488  1.00  0.00     0.180 A 
ATOM      4  O   UNL     1     -38.736   5.073  77.710  1.00  0.00    -0.452 OA
ATOM      5  C   UNL     1     -38.962   4.818  80.456  1.00  0.00     0.239 A 
ATOM      6  C   UNL     1     -39.739   4.342  78.201  1.00  0.00     0.146 A 
ATOM      7  O   UNL     1     -39.046   4.712  81.712  1.00  0.00    -0.285 OA
ATOM      8  C   UNL     1     -39.867   4.150  79.605  1.00  0.00     0.111 A 
ATOM      9  C   UNL     1     -40.655   3.747  77.328  1.00  0.00     0.094 A 
ATOM     10  C   UNL     1     -40.856   3.261  80.097  1.00  0.00     0.134 A 
ATOM     11  C   UNL     1     -41.674   2.925  77.829  1.00  0.00     0.123 A 
ATOM     12  C   UNL     1     -41.740   2.648  79.200  1.00  0.00     0.093 A 
BRANCH   3  13
ATOM     13  C   UNL     1     -36.691   6.394  77.908  1.00  0.00     0.025 A 
ATOM     14  C   UNL     1     -36.867   7.729  77.511  1.00  0.00     0.016 A 
ATOM     15  C   UNL     1     -35.763   8.594  77.472  1.00  0.00     0.051 A 
ATOM     16  C   UNL     1     -34.492   8.135  77.838  1.00  0.00     0.157 A 
ATOM     17  C   UNL     1     -35.392   5.900  78.134  1.00  0.00     0.062 A 
ATOM     18  C   UNL     1     -34.292   6.777  78.139  1.00  0.00     0.158 A 
BRANCH  16  19
ATOM     19  O   UNL     1     -33.419   9.020  77.962  1.00  0.00    -0.504 OA
ATOM     20  H   UNL     1     -33.497   9.857  78.538  1.00  0.00     0.293 HD
ENDBRANCH  16  19
BRANCH  18  21
ATOM     21  O   UNL     1     -33.016   6.319  78.485  1.00  0.00    -0.504 OA
ATOM     22  H   UNL     1     -32.835   5.334  78.669  1.00  0.00     0.293 HD
ENDBRANCH  18  21
ENDBRANCH   3  13
BRANCH  10  23
ATOM     23  O   UNL     1     -40.958   2.980  81.461  1.00  0.00    -0.507 OA
ATOM     24  H   UNL     1     -41.735   3.327  82.012  1.00  0.00     0.293 HD
ENDBRANCH  10  23
BRANCH  11  25
ATOM     25  O   UNL     1     -42.620   2.388  76.953  1.00  0.00    -0.508 OA
ATOM     26  H   UNL     1     -43.604   2.389  77.173  1.00  0.00     0.293 HD
ENDBRANCH  11  25
ENDBRANCH   1   2
BRANCH   1  27
ATOM     27  C   UNL     1     -36.461   5.832  81.901  1.00  0.00     0.339 C 
ATOM     28  C   UNL     1     -35.985   4.351  81.707  1.00  0.00     0.214 C 
ATOM     29  O   UNL     1     -35.396   6.691  82.295  1.00  0.00    -0.332 OA
ATOM     30  C   UNL     1     -34.446   4.233  81.774  1.00  0.00     0.180 C 
ATOM     31  C   UNL     1     -34.745   6.170  83.440  1.00  0.00     0.179 C 
ATOM     32  C   UNL     1     -33.871   4.954  83.027  1.00  0.00     0.177 C 
BRANCH  28  33
ATOM     33  O   UNL     1     -36.565   3.533  82.696  1.00  0.00    -0.384 OA
ATOM     34  H   UNL     1     -36.047   2.681  82.701  1.00  0.00     0.211 HD
ENDBRANCH  28  33
BRANCH  30  35
ATOM     35  O   UNL     1     -33.890   4.824  80.624  1.00  0.00    -0.387 OA
ATOM     36  H   UNL     1     -32.906   4.797  80.715  1.00  0.00     0.211 HD
ENDBRANCH  30  35
BRANCH  31  37
ATOM     37  C   UNL     1     -33.887   7.282  84.055  1.00  0.00     0.191 C 
BRANCH  37  38
ATOM     38  O   UNL     1     -32.544   6.887  84.070  1.00  0.00    -0.394 OA
ATOM     39  H   UNL     1     -32.513   6.079  84.637  1.00  0.00     0.210 HD
ENDBRANCH  37  38
ENDBRANCH  31  37
BRANCH  32  40
ATOM     40  O   UNL     1     -33.723   4.062  84.106  1.00  0.00    -0.387 OA
ATOM     41  H   UNL     1     -32.852   4.268  84.545  1.00  0.00     0.211 HD
ENDBRANCH  32  40
ENDBRANCH   1  27
TORSDOF 12
ENDMDL
MODEL 6
REMARK VINA RESULT:    -6.017      2.462      4.395
REMARK INTER + INTRA:         -10.109
REMARK INTER:                  -8.977
REMARK INTRA:                  -1.132
REMARK UNBOUND:                -1.277
REMARK SMILES O=c1c(O[C@@H]2O[C@H](CO)[C@@H](O)[C@H](O)[C@H]2O)c(-c2ccc(O)c(O)c2)oc2cc(O)cc(O)c12
REMARK SMILES IDX 4 1 3 2 16 3 25 4 2 5 26 6 1 7 33 8 27 9 31 10 28 11 30 12
REMARK SMILES IDX 17 13 18 14 19 15 20 16 24 17 22 18 21 19 23 21 32 23 29 25
REMARK SMILES IDX 5 27 14 28 6 29 12 30 7 31 10 32 15 33 13 35 8 37 9 38 11 40
REMARK H PARENT 21 20 23 22 32 24 29 26 15 34 13 36 9 39 11 41
REMARK Flexibility Score: inf
ROOT
ATOM      1  O   UNL     1     -37.707   5.130  79.743  1.00  0.00    -0.454 OA
ENDROOT
BRANCH   1   2
ATOM      2  C   UNL     1     -36.645   5.657  80.495  1.00  0.00     0.214 A 
ATOM      3  C   UNL     1     -36.204   6.961  80.213  1.00  0.00     0.180 A 
ATOM      4  O   UNL     1     -35.164   7.482  80.856  1.00  0.00    -0.452 OA
ATOM      5  C   UNL     1     -36.031   4.944  81.540  1.00  0.00     0.239 A 
ATOM      6  C   UNL     1     -34.527   6.834  81.833  1.00  0.00     0.146 A 
ATOM      7  O   UNL     1     -36.444   3.790  81.839  1.00  0.00    -0.285 OA
ATOM      8  C   UNL     1     -34.968   5.545  82.246  1.00  0.00     0.111 A 
ATOM      9  C   UNL     1     -33.436   7.436  82.468  1.00  0.00     0.094 A 
ATOM     10  C   UNL     1     -34.365   4.934  83.375  1.00  0.00     0.134 A 
ATOM     11  C   UNL     1     -32.801   6.792  83.540  1.00  0.00     0.123 A 
ATOM     12  C   UNL     1     -33.297   5.573  84.017  1.00  0.00     0.093 A 
BRANCH   3  13
ATOM     13  C   UNL     1     -36.938   7.741  79.197  1.00  0.00     0.025 A 
ATOM     14  C   UNL     1     -36.781   7.407  77.843  1.00  0.00     0.016 A 
ATOM     15  C   UNL     1     -37.799   7.715  76.928  1.00  0.00     0.051 A 
ATOM     16  C   UNL     1     -38.973   8.343  77.362  1.00  0.00     0.157 A 
ATOM     17  C   UNL     1     -38.052   8.501  79.602  1.00  0.00     0.062 A 
ATOM     18  C   UNL     1     -39.093   8.770  78.695  1.00  0.00     0.158 A 
BRANCH  16  19
ATOM     19  O   UNL     1     -40.058   8.508  76.499  1.00  0.00    -0.504 OA
ATOM     20  H   UNL     1     -40.944   8.879  76.839  1.00  0.00     0.293 HD
ENDBRANCH  16  19
BRANCH  18  21
ATOM     21  O   UNL     1     -40.259   9.416  79.119  1.00  0.00    -0.504 OA
ATOM     22  H   UNL     1     -40.857   9.920  78.467  1.00  0.00     0.293 HD
ENDBRANCH  18  21
ENDBRANCH   3  13
BRANCH  10  23
ATOM     23  O   UNL     1     -34.826   3.709  83.862  1.00  0.00    -0.507 OA
ATOM     24  H   UNL     1     -34.929   3.545  84.857  1.00  0.00     0.293 HD
ENDBRANCH  10  23
BRANCH  11  25
ATOM     25  O   UNL     1     -31.674   7.375  84.122  1.00  0.00    -0.508 OA
ATOM     26  H   UNL     1     -31.252   8.206  83.739  1.00  0.00     0.293 HD
ENDBRANCH  11  25
ENDBRANCH   1   2
BRANCH   1  27
ATOM     27  C   UNL     1     -39.068   5.082  80.177  1.00  0.00     0.339 C 
ATOM     28  C   UNL     1     -39.986   4.883  78.922  1.00  0.00     0.214 C 
ATOM     29  O   UNL     1     -39.217   4.029  81.123  1.00  0.00    -0.332 OA
ATOM     30  C   UNL     1     -40.655   3.490  78.921  1.00  0.00     0.180 C 
ATOM     31  C   UNL     1     -40.582   3.865  81.464  1.00  0.00     0.179 C 
ATOM     32  C   UNL     1     -41.327   3.176  80.287  1.00  0.00     0.177 C 
BRANCH  28  33
ATOM     33  O   UNL     1     -40.977   5.883  78.895  1.00  0.00    -0.384 OA
ATOM     34  H   UNL     1     -40.917   6.367  79.765  1.00  0.00     0.211 HD
ENDBRANCH  28  33
BRANCH  30  35
ATOM     35  O   UNL     1     -39.676   2.511  78.668  1.00  0.00    -0.387 OA
ATOM     36  H   UNL     1     -39.908   2.063  77.817  1.00  0.00     0.211 HD
ENDBRANCH  30  35
BRANCH  31  37
ATOM     37  C   UNL     1     -40.663   3.020  82.740  1.00  0.00     0.191 C 
BRANCH  37  38
ATOM     38  O   UNL     1     -41.480   1.905  82.515  1.00  0.00    -0.394 OA
ATOM     39  H   UNL     1     -42.351   2.128  82.924  1.00  0.00     0.210 HD
ENDBRANCH  37  38
ENDBRANCH  31  37
BRANCH  32  40
ATOM     40  O   UNL     1     -42.687   3.538  80.283  1.00  0.00    -0.387 OA
ATOM     41  H   UNL     1     -43.213   2.723  80.510  1.00  0.00     0.211 HD
ENDBRANCH  32  40
ENDBRANCH   1  27
TORSDOF 12
ENDMDL
MODEL 7
REMARK VINA RESULT:    -5.900      1.641      2.625
REMARK INTER + INTRA:          -9.936
REMARK INTER:                  -9.409
REMARK INTRA:                  -0.527
REMARK UNBOUND:                -1.277
REMARK SMILES O=c1c(O[C@@H]2O[C@H](CO)[C@@H](O)[C@H](O)[C@H]2O)c(-c2ccc(O)c(O)c2)oc2cc(O)cc(O)c12
REMARK SMILES IDX 4 1 3 2 16 3 25 4 2 5 26 6 1 7 33 8 27 9 31 10 28 11 30 12
REMARK SMILES IDX 17 13 18 14 19 15 20 16 24 17 22 18 21 19 23 21 32 23 29 25
REMARK SMILES IDX 5 27 14 28 6 29 12 30 7 31 10 32 15 33 13 35 8 37 9 38 11 40
REMARK H PARENT 21 20 23 22 32 24 29 26 15 34 13 36 9 39 11 41
REMARK Flexibility Score: inf
ROOT
ATOM      1  O   UNL     1     -38.624   5.724  81.195  1.00  0.00    -0.454 OA
ENDROOT
BRANCH   1   2
ATOM      2  C   UNL     1     -37.381   5.970  81.801  1.00  0.00     0.214 A 
ATOM      3  C   UNL     1     -37.081   5.318  83.010  1.00  0.00     0.180 A 
ATOM      4  O   UNL     1     -35.944   5.564  83.652  1.00  0.00    -0.452 OA
ATOM      5  C   UNL     1     -36.414   6.814  81.228  1.00  0.00     0.239 A 
ATOM      6  C   UNL     1     -35.008   6.381  83.166  1.00  0.00     0.146 A 
ATOM      7  O   UNL     1     -36.646   7.371  80.119  1.00  0.00    -0.285 OA
ATOM      8  C   UNL     1     -35.190   7.010  81.901  1.00  0.00     0.111 A 
ATOM      9  C   UNL     1     -33.834   6.602  83.893  1.00  0.00     0.094 A 
ATOM     10  C   UNL     1     -34.128   7.764  81.342  1.00  0.00     0.134 A 
ATOM     11  C   UNL     1     -32.817   7.406  83.362  1.00  0.00     0.123 A 
ATOM     12  C   UNL     1     -32.947   7.940  82.074  1.00  0.00     0.093 A 
BRANCH   3  13
ATOM     13  C   UNL     1     -38.057   4.343  83.536  1.00  0.00     0.025 A 
ATOM     14  C   UNL     1     -39.309   4.803  83.971  1.00  0.00     0.016 A 
ATOM     15  C   UNL     1     -40.411   3.934  83.963  1.00  0.00     0.051 A 
ATOM     16  C   UNL     1     -40.268   2.616  83.512  1.00  0.00     0.157 A 
ATOM     17  C   UNL     1     -37.886   2.980  83.223  1.00  0.00     0.062 A 
ATOM     18  C   UNL     1     -38.998   2.121  83.171  1.00  0.00     0.158 A 
BRANCH  16  19
ATOM     19  O   UNL     1     -41.383   1.793  83.344  1.00  0.00    -0.504 OA
ATOM     20  H   UNL     1     -41.303   0.898  82.862  1.00  0.00     0.293 HD
ENDBRANCH  16  19
BRANCH  18  21
ATOM     21  O   UNL     1     -38.858   0.797  82.741  1.00  0.00    -0.504 OA
ATOM     22  H   UNL     1     -38.292   0.126  83.256  1.00  0.00     0.293 HD
ENDBRANCH  18  21
ENDBRANCH   3  13
BRANCH  10  23
ATOM     23  O   UNL     1     -34.236   8.324  80.068  1.00  0.00    -0.507 OA
ATOM     24  H   UNL     1     -34.013   7.788  79.237  1.00  0.00     0.293 HD
ENDBRANCH  10  23
BRANCH  11  25
ATOM     25  O   UNL     1     -31.678   7.669  84.125  1.00  0.00    -0.508 OA
ATOM     26  H   UNL     1     -31.048   8.422  83.891  1.00  0.00     0.293 HD
ENDBRANCH  11  25
ENDBRANCH   1   2
BRANCH   1  27
ATOM     27  C   UNL     1     -39.016   4.476  80.619  1.00  0.00     0.339 C 
ATOM     28  C   UNL     1     -40.474   4.621  80.058  1.00  0.00     0.214 C 
ATOM     29  O   UNL     1     -38.084   4.119  79.604  1.00  0.00    -0.332 OA
ATOM     30  C   UNL     1     -40.499   4.559  78.514  1.00  0.00     0.180 C 
ATOM     31  C   UNL     1     -38.525   2.961  78.919  1.00  0.00     0.179 C 
ATOM     32  C   UNL     1     -39.702   3.336  77.977  1.00  0.00     0.177 C 
BRANCH  28  33
ATOM     33  O   UNL     1     -41.288   3.600  80.586  1.00  0.00    -0.384 OA
ATOM     34  H   UNL     1     -41.747   3.985  81.383  1.00  0.00     0.211 HD
ENDBRANCH  28  33
BRANCH  30  35
ATOM     35  O   UNL     1     -39.918   5.733  77.999  1.00  0.00    -0.387 OA
ATOM     36  H   UNL     1     -38.992   5.519  77.728  1.00  0.00     0.211 HD
ENDBRANCH  30  35
BRANCH  31  37
ATOM     37  C   UNL     1     -37.344   2.390  78.125  1.00  0.00     0.191 C 
BRANCH  37  38
ATOM     38  O   UNL     1     -37.727   1.194  77.505  1.00  0.00    -0.394 OA
ATOM     39  H   UNL     1     -38.291   1.462  76.740  1.00  0.00     0.210 HD
ENDBRANCH  37  38
ENDBRANCH  31  37
BRANCH  32  40
ATOM     40  O   UNL     1     -40.545   2.228  77.773  1.00  0.00    -0.387 OA
ATOM     41  H   UNL     1     -40.300   1.539  78.450  1.00  0.00     0.211 HD
ENDBRANCH  32  40
ENDBRANCH   1  27
TORSDOF 12
ENDMDL
MODEL 8
REMARK VINA RESULT:    -5.886      2.157      6.619
REMARK INTER + INTRA:          -9.917
REMARK INTER:                  -8.442
REMARK INTRA:                  -1.475
REMARK UNBOUND:                -1.277
REMARK SMILES O=c1c(O[C@@H]2O[C@H](CO)[C@@H](O)[C@H](O)[C@H]2O)c(-c2ccc(O)c(O)c2)oc2cc(O)cc(O)c12
REMARK SMILES IDX 4 1 3 2 16 3 25 4 2 5 26 6 1 7 33 8 27 9 31 10 28 11 30 12
REMARK SMILES IDX 17 13 18 14 19 15 20 16 24 17 22 18 21 19 23 21 32 23 29 25
REMARK SMILES IDX 5 27 14 28 6 29 12 30 7 31 10 32 15 33 13 35 8 37 9 38 11 40
REMARK H PARENT 21 20 23 22 32 24 29 26 15 34 13 36 9 39 11 41
REMARK Flexibility Score: inf
ROOT
ATOM      1  O   UNL     1     -35.029   5.185  80.245  1.00  0.00    -0.454 OA
ENDROOT
BRANCH   1   2
ATOM      2  C   UNL     1     -36.364   4.921  80.588  1.00  0.00     0.214 A 
ATOM      3  C   UNL     1     -36.745   5.021  81.936  1.00  0.00     0.180 A 
ATOM      4  O   UNL     1     -37.982   4.722  82.319  1.00  0.00    -0.452 OA
ATOM      5  C   UNL     1     -37.340   4.595  79.629  1.00  0.00     0.239 A 
ATOM      6  C   UNL     1     -38.937   4.377  81.452  1.00  0.00     0.146 A 
ATOM      7  O   UNL     1     -37.028   4.546  78.407  1.00  0.00    -0.285 OA
ATOM      8  C   UNL     1     -38.661   4.342  80.056  1.00  0.00     0.111 A 
ATOM      9  C   UNL     1     -40.219   4.070  81.919  1.00  0.00     0.094 A 
ATOM     10  C   UNL     1     -39.721   4.106  79.145  1.00  0.00     0.134 A 
ATOM     11  C   UNL     1     -41.245   3.769  81.013  1.00  0.00     0.123 A 
ATOM     12  C   UNL     1     -41.005   3.837  79.635  1.00  0.00     0.093 A 
BRANCH   3  13
ATOM     13  C   UNL     1     -35.738   5.482  82.912  1.00  0.00     0.025 A 
ATOM     14  C   UNL     1     -34.669   4.633  83.236  1.00  0.00     0.016 A 
ATOM     15  C   UNL     1     -33.461   5.179  83.697  1.00  0.00     0.051 A 
ATOM     16  C   UNL     1     -33.316   6.566  83.823  1.00  0.00     0.157 A 
ATOM     17  C   UNL     1     -35.637   6.861  83.179  1.00  0.00     0.062 A 
ATOM     18  C   UNL     1     -34.413   7.414  83.598  1.00  0.00     0.158 A 
BRANCH  16  19
ATOM     19  O   UNL     1     -32.075   7.131  84.122  1.00  0.00    -0.504 OA
ATOM     20  H   UNL     1     -31.992   8.123  84.344  1.00  0.00     0.293 HD
ENDBRANCH  16  19
BRANCH  18  21
ATOM     21  O   UNL     1     -34.268   8.798  83.745  1.00  0.00    -0.504 OA
ATOM     22  H   UNL     1     -33.648   9.336  83.143  1.00  0.00     0.293 HD
ENDBRANCH  18  21
ENDBRANCH   3  13
BRANCH  10  23
ATOM     23  O   UNL     1     -39.507   4.148  77.766  1.00  0.00    -0.507 OA
ATOM     24  H   UNL     1     -38.582   4.015  77.373  1.00  0.00     0.293 HD
ENDBRANCH  10  23
BRANCH  11  25
ATOM     25  O   UNL     1     -42.503   3.403  81.495  1.00  0.00    -0.508 OA
ATOM     26  H   UNL     1     -42.688   3.324  82.483  1.00  0.00     0.293 HD
ENDBRANCH  11  25
ENDBRANCH   1   2
BRANCH   1  27
ATOM     27  C   UNL     1     -34.515   6.475  79.904  1.00  0.00     0.339 C 
ATOM     28  C   UNL     1     -33.703   6.352  78.568  1.00  0.00     0.214 C 
ATOM     29  O   UNL     1     -35.599   7.391  79.791  1.00  0.00    -0.332 OA
ATOM     30  C   UNL     1     -34.409   7.082  77.403  1.00  0.00     0.180 C 
ATOM     31  C   UNL     1     -35.135   8.642  79.314  1.00  0.00     0.179 C 
ATOM     32  C   UNL     1     -34.817   8.530  77.798  1.00  0.00     0.177 C 
BRANCH  28  33
ATOM     33  O   UNL     1     -32.412   6.886  78.747  1.00  0.00    -0.384 OA
ATOM     34  H   UNL     1     -32.183   7.367  77.905  1.00  0.00     0.211 HD
ENDBRANCH  28  33
BRANCH  30  35
ATOM     35  O   UNL     1     -35.570   6.369  77.052  1.00  0.00    -0.387 OA
ATOM     36  H   UNL     1     -36.188   6.998  76.604  1.00  0.00     0.211 HD
ENDBRANCH  30  35
BRANCH  31  37
ATOM     37  C   UNL     1     -36.223   9.691  79.574  1.00  0.00     0.191 C 
BRANCH  37  38
ATOM     38  O   UNL     1     -36.759  10.125  78.355  1.00  0.00    -0.394 OA
ATOM     39  H   UNL     1     -37.118  11.028  78.531  1.00  0.00     0.210 HD
ENDBRANCH  37  38
ENDBRANCH  31  37
BRANCH  32  40
ATOM     40  O   UNL     1     -33.825   9.458  77.431  1.00  0.00    -0.387 OA
ATOM     41  H   UNL     1     -33.186   8.988  76.827  1.00  0.00     0.211 HD
ENDBRANCH  32  40
ENDBRANCH   1  27
TORSDOF 12
ENDMDL
MODEL 9
REMARK VINA RESULT:    -5.871      2.492      4.638
REMARK INTER + INTRA:          -9.894
REMARK INTER:                  -9.606
REMARK INTRA:                  -0.288
REMARK UNBOUND:                -1.277
REMARK SMILES O=c1c(O[C@@H]2O[C@H](CO)[C@@H](O)[C@H](O)[C@H]2O)c(-c2ccc(O)c(O)c2)oc2cc(O)cc(O)c12
REMARK SMILES IDX 4 1 3 2 16 3 25 4 2 5 26 6 1 7 33 8 27 9 31 10 28 11 30 12
REMARK SMILES IDX 17 13 18 14 19 15 20 16 24 17 22 18 21 19 23 21 32 23 29 25
REMARK SMILES IDX 5 27 14 28 6 29 12 30 7 31 10 32 15 33 13 35 8 37 9 38 11 40
REMARK H PARENT 21 20 23 22 32 24 29 26 15 34 13 36 9 39 11 41
REMARK Flexibility Score: inf
ROOT
ATOM      1  O   UNL     1     -37.640   4.550  78.735  1.00  0.00    -0.454 OA
ENDROOT
BRANCH   1   2
ATOM      2  C   UNL     1     -36.937   5.451  79.551  1.00  0.00     0.214 A 
ATOM      3  C   UNL     1     -37.293   6.810  79.515  1.00  0.00     0.180 A 
ATOM      4  O   UNL     1     -36.619   7.710  80.223  1.00  0.00    -0.452 OA
ATOM      5  C   UNL     1     -35.917   5.040  80.427  1.00  0.00     0.239 A 
ATOM      6  C   UNL     1     -35.622   7.375  81.045  1.00  0.00     0.146 A 
ATOM      7  O   UNL     1     -35.615   3.817  80.508  1.00  0.00    -0.285 OA
ATOM      8  C   UNL     1     -35.258   6.009  81.213  1.00  0.00     0.111 A 
ATOM      9  C   UNL     1     -34.949   8.370  81.759  1.00  0.00     0.094 A 
ATOM     10  C   UNL     1     -34.290   5.664  82.190  1.00  0.00     0.134 A 
ATOM     11  C   UNL     1     -33.944   8.024  82.674  1.00  0.00     0.123 A 
ATOM     12  C   UNL     1     -33.655   6.677  82.919  1.00  0.00     0.093 A 
BRANCH   3  13
ATOM     13  C   UNL     1     -38.446   7.206  78.682  1.00  0.00     0.025 A 
ATOM     14  C   UNL     1     -39.421   8.053  79.233  1.00  0.00     0.016 A 
ATOM     15  C   UNL     1     -40.197   8.862  78.389  1.00  0.00     0.051 A 
ATOM     16  C   UNL     1     -39.994   8.836  77.003  1.00  0.00     0.157 A 
ATOM     17  C   UNL     1     -38.347   7.075  77.284  1.00  0.00     0.062 A 
ATOM     18  C   UNL     1     -39.092   7.918  76.439  1.00  0.00     0.158 A 
BRANCH  16  19
ATOM     19  O   UNL     1     -40.641   9.749  76.168  1.00  0.00    -0.504 OA
ATOM     20  H   UNL     1     -40.506  10.752  76.288  1.00  0.00     0.293 HD
ENDBRANCH  16  19
BRANCH  18  21
ATOM     21  O   UNL     1     -38.908   7.882  75.053  1.00  0.00    -0.504 OA
ATOM     22  H   UNL     1     -39.651   8.148  74.410  1.00  0.00     0.293 HD
ENDBRANCH  18  21
ENDBRANCH   3  13
BRANCH  10  23
ATOM     23  O   UNL     1     -33.968   4.329  82.443  1.00  0.00    -0.507 OA
ATOM     24  H   UNL     1     -33.678   4.025  83.366  1.00  0.00     0.293 HD
ENDBRANCH  10  23
BRANCH  11  25
ATOM     25  O   UNL     1     -33.236   9.031  83.333  1.00  0.00    -0.508 OA
ATOM     26  H   UNL     1     -32.341   9.353  82.999  1.00  0.00     0.293 HD
ENDBRANCH  11  25
ENDBRANCH   1   2
BRANCH   1  27
ATOM     27  C   UNL     1     -38.616   3.617  79.204  1.00  0.00     0.339 C 
ATOM     28  C   UNL     1     -38.565   3.586  80.771  1.00  0.00     0.214 C 
ATOM     29  O   UNL     1     -39.897   4.000  78.716  1.00  0.00    -0.332 OA
ATOM     30  C   UNL     1     -39.844   4.190  81.395  1.00  0.00     0.180 C 
ATOM     31  C   UNL     1     -40.903   3.178  79.281  1.00  0.00     0.179 C 
ATOM     32  C   UNL     1     -41.130   3.586  80.763  1.00  0.00     0.177 C 
BRANCH  28  33
ATOM     33  O   UNL     1     -38.405   2.259  81.215  1.00  0.00    -0.384 OA
ATOM     34  H   UNL     1     -38.430   1.682  80.402  1.00  0.00     0.211 HD
ENDBRANCH  28  33
BRANCH  30  35
ATOM     35  O   UNL     1     -39.848   5.581  81.175  1.00  0.00    -0.387 OA
ATOM     36  H   UNL     1     -39.424   5.750  80.297  1.00  0.00     0.211 HD
ENDBRANCH  30  35
BRANCH  31  37
ATOM     37  C   UNL     1     -42.185   3.350  78.458  1.00  0.00     0.191 C 
BRANCH  37  38
ATOM     38  O   UNL     1     -43.292   2.972  79.227  1.00  0.00    -0.394 OA
ATOM     39  H   UNL     1     -42.927   2.428  79.966  1.00  0.00     0.210 HD
ENDBRANCH  37  38
ENDBRANCH  31  37
BRANCH  32  40
ATOM     40  O   UNL     1     -41.600   2.490  81.510  1.00  0.00    -0.387 OA
ATOM     41  H   UNL     1     -40.804   1.962  81.796  1.00  0.00     0.211 HD
ENDBRANCH  32  40
ENDBRANCH   1  27
TORSDOF 12
ENDMDL
