MODEL 1
REMARK VINA RESULT:    -4.227      0.000      0.000
REMARK INTER + INTRA:          -6.659
REMARK INTER:                  -6.203
REMARK INTRA:                  -0.456
REMARK UNBOUND:                -0.456
REMARK SMILES O=C([O-])CCCCCCCC(=O)[O-]
REMARK SMILES IDX 7 1 6 2 5 3 4 4 2 5 1 6 3 7 8 8 9 9 10 10 11 11 12 12 13 13
REMARK H PARENT
REMARK Flexibility Score: inf
ROOT
ATOM      1  C   UNL     1      26.245  -0.807  14.815  1.00  0.00     0.000 C 
ENDROOT
BRANCH   1   2
ATOM      2  C   UNL     1      24.780  -0.344  14.810  1.00  0.00     0.000 C 
BRANCH   2   3
ATOM      3  C   UNL     1      24.648   1.052  14.184  1.00  0.00     0.006 C 
BRANCH   3   4
ATOM      4  C   UNL     1      23.736   1.051  12.949  1.00  0.00     0.053 C 
BRANCH   4   5
ATOM      5  C   UNL     1      23.802   2.352  12.210  1.00  0.00     0.041 C 
ATOM      6  O   UNL     1      23.488   3.426  12.788  1.00  0.00    -0.550 OA
ATOM      7  O   UNL     1      24.240   2.383  10.892  1.00  0.00    -0.550 OA
ENDBRANCH   4   5
ENDBRANCH   3   4
ENDBRANCH   2   3
ENDBRANCH   1   2
BRANCH   1   8
ATOM      8  C   UNL     1      26.904  -0.705  13.431  1.00  0.00     0.000 C 
BRANCH   8   9
ATOM      9  C   UNL     1      28.268   0.002  13.475  1.00  0.00     0.006 C 
BRANCH   9  10
ATOM     10  C   UNL     1      28.170   1.419  12.904  1.00  0.00     0.053 C 
BRANCH  10  11
ATOM     11  C   UNL     1      29.511   2.082  12.913  1.00  0.00     0.041 C 
ATOM     12  O   UNL     1      29.653   3.232  12.421  1.00  0.00    -0.550 OA
ATOM     13  O   UNL     1      30.616   1.409  13.420  1.00  0.00    -0.550 OA
ENDBRANCH  10  11
ENDBRANCH   9  10
ENDBRANCH   8   9
ENDBRANCH   1   8
TORSDOF 8
ENDMDL
MODEL 2
REMARK VINA RESULT:    -4.206      3.224      5.103
REMARK INTER + INTRA:          -6.630
REMARK INTER:                  -6.032
REMARK INTRA:                  -0.597
REMARK UNBOUND:                -0.456
REMARK SMILES O=C([O-])CCCCCCCC(=O)[O-]
REMARK SMILES IDX 7 1 6 2 5 3 4 4 2 5 1 6 3 7 8 8 9 9 10 10 11 11 12 12 13 13
REMARK H PARENT
REMARK Flexibility Score: inf
ROOT
ATOM      1  C   UNL     1      27.507   0.116  13.551  1.00  0.00     0.000 C 
ENDROOT
BRANCH   1   2
ATOM      2  C   UNL     1      26.785  -1.165  13.994  1.00  0.00     0.000 C 
BRANCH   2   3
ATOM      3  C   UNL     1      26.298  -1.047  15.445  1.00  0.00     0.006 C 
BRANCH   3   4
ATOM      4  C   UNL     1      24.786  -1.280  15.572  1.00  0.00     0.053 C 
BRANCH   4   5
ATOM      5  C   UNL     1      24.471  -2.351  16.571  1.00  0.00     0.041 C 
ATOM      6  O   UNL     1      25.135  -2.437  17.637  1.00  0.00    -0.550 OA
ATOM      7  O   UNL     1      23.423  -3.233  16.339  1.00  0.00    -0.550 OA
ENDBRANCH   4   5
ENDBRANCH   3   4
ENDBRANCH   2   3
ENDBRANCH   1   2
BRANCH   1   8
ATOM      8  C   UNL     1      26.568   1.116  12.857  1.00  0.00     0.000 C 
BRANCH   8   9
ATOM      9  C   UNL     1      25.377   0.431  12.170  1.00  0.00     0.006 C 
BRANCH   9  10
ATOM     10  C   UNL     1      24.056   1.088  12.582  1.00  0.00     0.053 C 
BRANCH  10  11
ATOM     11  C   UNL     1      24.045   2.532  12.190  1.00  0.00     0.041 C 
ATOM     12  O   UNL     1      24.135   2.860  10.978  1.00  0.00    -0.550 OA
ATOM     13  O   UNL     1      23.984   3.517  13.168  1.00  0.00    -0.550 OA
ENDBRANCH  10  11
ENDBRANCH   9  10
ENDBRANCH   8   9
ENDBRANCH   1   8
TORSDOF 8
ENDMDL
MODEL 3
REMARK VINA RESULT:    -4.196      0.752      5.086
REMARK INTER + INTRA:          -6.614
REMARK INTER:                  -6.114
REMARK INTRA:                  -0.500
REMARK UNBOUND:                -0.456
REMARK SMILES O=C([O-])CCCCCCCC(=O)[O-]
REMARK SMILES IDX 7 1 6 2 5 3 4 4 2 5 1 6 3 7 8 8 9 9 10 10 11 11 12 12 13 13
REMARK H PARENT
REMARK Flexibility Score: inf
ROOT
ATOM      1  C   UNL     1      26.307  -0.515  14.453  1.00  0.00     0.000 C 
ENDROOT
BRANCH   1   2
ATOM      2  C   UNL     1      27.381  -0.680  13.368  1.00  0.00     0.000 C 
BRANCH   2   3
ATOM      3  C   UNL     1      28.558   0.275  13.611  1.00  0.00     0.006 C 
BRANCH   3   4
ATOM      4  C   UNL     1      28.563   1.455  12.630  1.00  0.00     0.053 C 
BRANCH   4   5
ATOM      5  C   UNL     1      29.820   2.262  12.738  1.00  0.00     0.041 C 
ATOM      6  O   UNL     1      29.821   3.479  12.411  1.00  0.00    -0.550 OA
ATOM      7  O   UNL     1      30.982   1.681  13.230  1.00  0.00    -0.550 OA
ENDBRANCH   4   5
ENDBRANCH   3   4
ENDBRANCH   2   3
ENDBRANCH   1   2
BRANCH   1   8
ATOM      8  C   UNL     1      24.959  -0.041  13.887  1.00  0.00     0.000 C 
BRANCH   8   9
ATOM      9  C   UNL     1      24.691   1.447  14.161  1.00  0.00     0.006 C 
BRANCH   9  10
ATOM     10  C   UNL     1      25.114   2.308  12.968  1.00  0.00     0.053 C 
BRANCH  10  11
ATOM     11  C   UNL     1      23.988   2.438  11.990  1.00  0.00     0.041 C 
ATOM     12  O   UNL     1      22.801   2.241  12.362  1.00  0.00    -0.550 OA
ATOM     13  O   UNL     1      24.254   2.728  10.658  1.00  0.00    -0.550 OA
ENDBRANCH  10  11
ENDBRANCH   9  10
ENDBRANCH   8   9
ENDBRANCH   1   8
TORSDOF 8
ENDMDL
MODEL 4
REMARK VINA RESULT:    -4.193      1.696      2.233
REMARK INTER + INTRA:          -6.610
REMARK INTER:                  -6.140
REMARK INTRA:                  -0.470
REMARK UNBOUND:                -0.456
REMARK SMILES O=C([O-])CCCCCCCC(=O)[O-]
REMARK SMILES IDX 7 1 6 2 5 3 4 4 2 5 1 6 3 7 8 8 9 9 10 10 11 11 12 12 13 13
REMARK H PARENT
REMARK Flexibility Score: inf
ROOT
ATOM      1  C   UNL     1      27.625  -0.302  12.797  1.00  0.00     0.000 C 
ENDROOT
BRANCH   1   2
ATOM      2  C   UNL     1      26.244   0.204  12.355  1.00  0.00     0.000 C 
BRANCH   2   3
ATOM      3  C   UNL     1      25.753   1.334  13.271  1.00  0.00     0.006 C 
BRANCH   3   4
ATOM      4  C   UNL     1      25.454   2.624  12.496  1.00  0.00     0.053 C 
BRANCH   4   5
ATOM      5  C   UNL     1      24.175   3.259  12.946  1.00  0.00     0.041 C 
ATOM      6  O   UNL     1      23.079   2.907  12.436  1.00  0.00    -0.550 OA
ATOM      7  O   UNL     1      24.188   4.218  13.951  1.00  0.00    -0.550 OA
ENDBRANCH   4   5
ENDBRANCH   3   4
ENDBRANCH   2   3
ENDBRANCH   1   2
BRANCH   1   8
ATOM      8  C   UNL     1      28.507   0.814  13.378  1.00  0.00     0.000 C 
BRANCH   8   9
ATOM      9  C   UNL     1      29.370   1.504  12.310  1.00  0.00     0.006 C 
BRANCH   9  10
ATOM     10  C   UNL     1      29.877   2.861  12.807  1.00  0.00     0.053 C 
BRANCH  10  11
ATOM     11  C   UNL     1      31.137   2.692  13.596  1.00  0.00     0.041 C 
ATOM     12  O   UNL     1      31.478   3.562  14.439  1.00  0.00    -0.550 OA
ATOM     13  O   UNL     1      31.960   1.596  13.366  1.00  0.00    -0.550 OA
ENDBRANCH  10  11
ENDBRANCH   9  10
ENDBRANCH   8   9
ENDBRANCH   1   8
TORSDOF 8
ENDMDL
MODEL 5
REMARK VINA RESULT:    -4.106      3.020      4.272
REMARK INTER + INTRA:          -6.482
REMARK INTER:                  -6.068
REMARK INTRA:                  -0.415
REMARK UNBOUND:                -0.456
REMARK SMILES O=C([O-])CCCCCCCC(=O)[O-]
REMARK SMILES IDX 7 1 6 2 5 3 4 4 2 5 1 6 3 7 8 8 9 9 10 10 11 11 12 12 13 13
REMARK H PARENT
REMARK Flexibility Score: inf
ROOT
ATOM      1  C   UNL     1      26.776  -0.666  12.920  1.00  0.00     0.000 C 
ENDROOT
BRANCH   1   2
ATOM      2  C   UNL     1      25.662   0.337  12.583  1.00  0.00     0.000 C 
BRANCH   2   3
ATOM      3  C   UNL     1      26.172   1.781  12.692  1.00  0.00     0.006 C 
BRANCH   3   4
ATOM      4  C   UNL     1      25.036   2.780  12.955  1.00  0.00     0.053 C 
BRANCH   4   5
ATOM      5  C   UNL     1      23.937   2.649  11.946  1.00  0.00     0.041 C 
ATOM      6  O   UNL     1      22.763   2.390  12.319  1.00  0.00    -0.550 OA
ATOM      7  O   UNL     1      24.202   2.844  10.596  1.00  0.00    -0.550 OA
ENDBRANCH   4   5
ENDBRANCH   3   4
ENDBRANCH   2   3
ENDBRANCH   1   2
BRANCH   1   8
ATOM      8  C   UNL     1      26.825  -1.017  14.415  1.00  0.00     0.000 C 
BRANCH   8   9
ATOM      9  C   UNL     1      25.477  -0.795  15.120  1.00  0.00     0.006 C 
BRANCH   9  10
ATOM     10  C   UNL     1      25.264  -1.828  16.230  1.00  0.00     0.053 C 
BRANCH  10  11
ATOM     11  C   UNL     1      25.572  -1.231  17.567  1.00  0.00     0.041 C 
ATOM     12  O   UNL     1      26.766  -1.109  17.947  1.00  0.00    -0.550 OA
ATOM     13  O   UNL     1      24.538  -0.855  18.416  1.00  0.00    -0.550 OA
ENDBRANCH  10  11
ENDBRANCH   9  10
ENDBRANCH   8   9
ENDBRANCH   1   8
TORSDOF 8
ENDMDL
MODEL 6
REMARK VINA RESULT:    -4.052      3.298      5.445
REMARK INTER + INTRA:          -6.403
REMARK INTER:                  -6.060
REMARK INTRA:                  -0.343
REMARK UNBOUND:                -0.456
REMARK SMILES O=C([O-])CCCCCCCC(=O)[O-]
REMARK SMILES IDX 7 1 6 2 5 3 4 4 2 5 1 6 3 7 8 8 9 9 10 10 11 11 12 12 13 13
REMARK H PARENT
REMARK Flexibility Score: inf
ROOT
ATOM      1  C   UNL     1      26.346  -0.498  13.625  1.00  0.00     0.000 C 
ENDROOT
BRANCH   1   2
ATOM      2  C   UNL     1      26.330  -1.229  14.976  1.00  0.00     0.000 C 
BRANCH   2   3
ATOM      3  C   UNL     1      24.927  -1.201  15.599  1.00  0.00     0.006 C 
BRANCH   3   4
ATOM      4  C   UNL     1      24.774  -2.222  16.734  1.00  0.00     0.053 C 
BRANCH   4   5
ATOM      5  C   UNL     1      25.267  -1.679  18.040  1.00  0.00     0.041 C 
ATOM      6  O   UNL     1      26.270  -2.193  18.602  1.00  0.00    -0.550 OA
ATOM      7  O   UNL     1      24.638  -0.585  18.622  1.00  0.00    -0.550 OA
ENDBRANCH   4   5
ENDBRANCH   3   4
ENDBRANCH   2   3
ENDBRANCH   1   2
BRANCH   1   8
ATOM      8  C   UNL     1      25.469   0.764  13.623  1.00  0.00     0.000 C 
BRANCH   8   9
ATOM      9  C   UNL     1      26.131   1.944  12.895  1.00  0.00     0.006 C 
BRANCH   9  10
ATOM     10  C   UNL     1      25.135   3.088  12.688  1.00  0.00     0.053 C 
BRANCH  10  11
ATOM     11  C   UNL     1      24.013   2.651  11.799  1.00  0.00     0.041 C 
ATOM     12  O   UNL     1      22.838   2.583  12.249  1.00  0.00    -0.550 OA
ATOM     13  O   UNL     1      24.271   2.272  10.488  1.00  0.00    -0.550 OA
ENDBRANCH  10  11
ENDBRANCH   9  10
ENDBRANCH   8   9
ENDBRANCH   1   8
TORSDOF 8
ENDMDL
MODEL 7
REMARK VINA RESULT:    -4.047      3.387      4.535
REMARK INTER + INTRA:          -6.395
REMARK INTER:                  -5.979
REMARK INTRA:                  -0.415
REMARK UNBOUND:                -0.456
REMARK SMILES O=C([O-])CCCCCCCC(=O)[O-]
REMARK SMILES IDX 7 1 6 2 5 3 4 4 2 5 1 6 3 7 8 8 9 9 10 10 11 11 12 12 13 13
REMARK H PARENT
REMARK Flexibility Score: inf
ROOT
ATOM      1  C   UNL     1      26.280  -1.056  14.906  1.00  0.00     0.000 C 
ENDROOT
BRANCH   1   2
ATOM      2  C   UNL     1      25.899  -0.091  13.774  1.00  0.00     0.000 C 
BRANCH   2   3
ATOM      3  C   UNL     1      24.726   0.808  14.189  1.00  0.00     0.006 C 
BRANCH   3   4
ATOM      4  C   UNL     1      23.604   0.822  13.142  1.00  0.00     0.053 C 
BRANCH   4   5
ATOM      5  C   UNL     1      23.745   1.971  12.192  1.00  0.00     0.041 C 
ATOM      6  O   UNL     1      24.263   1.795  11.058  1.00  0.00    -0.550 OA
ATOM      7  O   UNL     1      23.275   3.230  12.546  1.00  0.00    -0.550 OA
ENDBRANCH   4   5
ENDBRANCH   3   4
ENDBRANCH   2   3
ENDBRANCH   1   2
BRANCH   1   8
ATOM      8  C   UNL     1      25.092  -1.395  15.821  1.00  0.00     0.000 C 
BRANCH   8   9
ATOM      9  C   UNL     1      25.528  -1.757  17.249  1.00  0.00     0.006 C 
BRANCH   9  10
ATOM     10  C   UNL     1      25.196  -0.627  18.226  1.00  0.00     0.053 C 
BRANCH  10  11
ATOM     11  C   UNL     1      26.401  -0.263  19.035  1.00  0.00     0.041 C 
ATOM     12  O   UNL     1      27.481  -0.893  18.884  1.00  0.00    -0.550 OA
ATOM     13  O   UNL     1      26.319   0.742  19.992  1.00  0.00    -0.550 OA
ENDBRANCH  10  11
ENDBRANCH   9  10
ENDBRANCH   8   9
ENDBRANCH   1   8
TORSDOF 8
ENDMDL
MODEL 8
REMARK VINA RESULT:    -4.036      3.719      5.692
REMARK INTER + INTRA:          -6.380
REMARK INTER:                  -5.923
REMARK INTRA:                  -0.456
REMARK UNBOUND:                -0.456
REMARK SMILES O=C([O-])CCCCCCCC(=O)[O-]
REMARK SMILES IDX 7 1 6 2 5 3 4 4 2 5 1 6 3 7 8 8 9 9 10 10 11 11 12 12 13 13
REMARK H PARENT
REMARK Flexibility Score: inf
ROOT
ATOM      1  C   UNL     1      26.225  -0.983  14.738  1.00  0.00     0.000 C 
ENDROOT
BRANCH   1   2
ATOM      2  C   UNL     1      25.462  -0.852  16.065  1.00  0.00     0.000 C 
BRANCH   2   3
ATOM      3  C   UNL     1      25.059  -2.231  16.605  1.00  0.00     0.006 C 
BRANCH   3   4
ATOM      4  C   UNL     1      23.563  -2.518  16.410  1.00  0.00     0.053 C 
BRANCH   4   5
ATOM      5  C   UNL     1      22.862  -2.721  17.718  1.00  0.00     0.041 C 
ATOM      6  O   UNL     1      22.266  -3.805  17.955  1.00  0.00    -0.550 OA
ATOM      7  O   UNL     1      22.892  -1.726  18.687  1.00  0.00    -0.550 OA
ENDBRANCH   4   5
ENDBRANCH   3   4
ENDBRANCH   2   3
ENDBRANCH   1   2
BRANCH   1   8
ATOM      8  C   UNL     1      25.816   0.084  13.711  1.00  0.00     0.000 C 
BRANCH   8   9
ATOM      9  C   UNL     1      24.563   0.865  14.136  1.00  0.00     0.006 C 
BRANCH   9  10
ATOM     10  C   UNL     1      23.529   0.897  13.007  1.00  0.00     0.053 C 
BRANCH  10  11
ATOM     11  C   UNL     1      23.706   2.123  12.168  1.00  0.00     0.041 C 
ATOM     12  O   UNL     1      23.358   3.250  12.612  1.00  0.00    -0.550 OA
ATOM     13  O   UNL     1      24.209   2.017  10.878  1.00  0.00    -0.550 OA
ENDBRANCH  10  11
ENDBRANCH   9  10
ENDBRANCH   8   9
ENDBRANCH   1   8
TORSDOF 8
ENDMDL
MODEL 9
REMARK VINA RESULT:    -4.022      3.366      5.439
REMARK INTER + INTRA:          -6.358
REMARK INTER:                  -5.909
REMARK INTRA:                  -0.449
REMARK UNBOUND:                -0.456
REMARK SMILES O=C([O-])CCCCCCCC(=O)[O-]
REMARK SMILES IDX 7 1 6 2 5 3 4 4 2 5 1 6 3 7 8 8 9 9 10 10 11 11 12 12 13 13
REMARK H PARENT
REMARK Flexibility Score: inf
ROOT
ATOM      1  C   UNL     1      25.930  -0.442  14.322  1.00  0.00     0.000 C 
ENDROOT
BRANCH   1   2
ATOM      2  C   UNL     1      26.113  -1.310  15.576  1.00  0.00     0.000 C 
BRANCH   2   3
ATOM      3  C   UNL     1      24.757  -1.783  16.119  1.00  0.00     0.006 C 
BRANCH   3   4
ATOM      4  C   UNL     1      24.871  -2.374  17.531  1.00  0.00     0.053 C 
BRANCH   4   5
ATOM      5  C   UNL     1      25.624  -1.466  18.454  1.00  0.00     0.041 C 
ATOM      6  O   UNL     1      25.137  -0.352  18.784  1.00  0.00    -0.550 OA
ATOM      7  O   UNL     1      26.849  -1.863  18.976  1.00  0.00    -0.550 OA
ENDBRANCH   4   5
ENDBRANCH   3   4
ENDBRANCH   2   3
ENDBRANCH   1   2
BRANCH   1   8
ATOM      8  C   UNL     1      24.786   0.574  14.466  1.00  0.00     0.000 C 
BRANCH   8   9
ATOM      9  C   UNL     1      23.784   0.507  13.302  1.00  0.00     0.006 C 
BRANCH   9  10
ATOM     10  C   UNL     1      24.329   1.234  12.069  1.00  0.00     0.053 C 
BRANCH  10  11
ATOM     11  C   UNL     1      24.655   2.656  12.400  1.00  0.00     0.041 C 
ATOM     12  O   UNL     1      25.842   3.068  12.326  1.00  0.00    -0.550 OA
ATOM     13  O   UNL     1      23.654   3.515  12.838  1.00  0.00    -0.550 OA
ENDBRANCH  10  11
ENDBRANCH   9  10
ENDBRANCH   8   9
ENDBRANCH   1   8
TORSDOF 8
ENDMDL
