MODEL 1
REMARK VINA RESULT:    -7.714      0.000      0.000
REMARK INTER + INTRA:         -11.920
REMARK INTER:                 -10.419
REMARK INTRA:                  -1.501
REMARK UNBOUND:                -1.501
REMARK SMILES O=c1c(-c2ccc(O)cc2)coc2c([C@H]3O[C@@H](CO)[C@H](O)[C@H](O)[C@H]3O)c(O)ccc12
REMARK SMILES IDX 3 1 11 2 12 3 13 4 30 5 2 6 1 7 29 8 28 9 26 10 14 11 4 12
REMARK SMILES IDX 5 13 6 14 7 15 10 16 9 17 8 18 15 20 24 21 16 22 22 23 17 24
REMARK SMILES IDX 20 25 25 26 23 28 18 30 19 31 21 33 27 35
REMARK H PARENT 8 19 25 27 23 29 19 32 21 34 27 36
REMARK Flexibility Score: inf
ROOT
ATOM      1  C   UNL     1      13.457 -78.760  31.113  1.00  0.00     0.065 A 
ATOM      2  C   UNL     1      14.259 -78.887  32.255  1.00  0.00     0.208 A 
ATOM      3  O   UNL     1      14.020 -78.156  33.338  1.00  0.00    -0.463 OA
ATOM      4  C   UNL     1      13.036 -77.262  33.418  1.00  0.00     0.147 A 
ATOM      5  C   UNL     1      12.185 -77.066  32.304  1.00  0.00     0.066 A 
ATOM      6  C   UNL     1      12.405 -77.827  31.141  1.00  0.00     0.200 A 
ATOM      7  O   UNL     1      11.672 -77.667  30.126  1.00  0.00    -0.288 OA
ATOM      8  C   UNL     1      11.146 -76.131  32.384  1.00  0.00     0.020 A 
ATOM      9  C   UNL     1      10.943 -75.413  33.557  1.00  0.00     0.047 A 
ATOM     10  C   UNL     1      11.765 -75.603  34.675  1.00  0.00     0.125 A 
ATOM     11  C   UNL     1      12.850 -76.526  34.618  1.00  0.00     0.069 A 
ENDROOT
BRANCH   1  12
ATOM     12  C   UNL     1      13.717 -79.616  29.931  1.00  0.00    -0.011 A 
ATOM     13  C   UNL     1      14.734 -79.281  29.019  1.00  0.00     0.013 A 
ATOM     14  C   UNL     1      14.991 -80.098  27.915  1.00  0.00     0.047 A 
ATOM     15  C   UNL     1      14.245 -81.262  27.712  1.00  0.00     0.115 A 
ATOM     16  C   UNL     1      12.971 -80.788  29.721  1.00  0.00     0.013 A 
ATOM     17  C   UNL     1      13.233 -81.606  28.618  1.00  0.00     0.047 A 
BRANCH  15  18
ATOM     18  O   UNL     1      14.518 -82.072  26.610  1.00  0.00    -0.508 OA
ATOM     19  H   UNL     1      13.837 -82.204  25.872  1.00  0.00     0.293 HD
ENDBRANCH  15  18
ENDBRANCH   1  12
BRANCH  11  20
ATOM     20  C   UNL     1      13.820 -76.838  35.772  1.00  0.00     0.188 C 
ATOM     21  C   UNL     1      13.379 -77.873  36.827  1.00  0.00     0.179 C 
ATOM     22  O   UNL     1      14.125 -75.626  36.431  1.00  0.00    -0.362 OA
ATOM     23  C   UNL     1      14.519 -78.162  37.843  1.00  0.00     0.177 C 
ATOM     24  C   UNL     1      15.216 -75.700  37.349  1.00  0.00     0.176 C 
ATOM     25  C   UNL     1      15.680 -77.133  37.782  1.00  0.00     0.177 C 
BRANCH  21  26
ATOM     26  O   UNL     1      12.263 -77.372  37.521  1.00  0.00    -0.387 OA
ATOM     27  H   UNL     1      11.720 -76.863  36.862  1.00  0.00     0.211 HD
ENDBRANCH  21  26
BRANCH  23  28
ATOM     28  O   UNL     1      15.024 -79.462  37.664  1.00  0.00    -0.387 OA
ATOM     29  H   UNL     1      15.276 -79.802  38.562  1.00  0.00     0.211 HD
ENDBRANCH  23  28
BRANCH  24  30
ATOM     30  C   UNL     1      14.828 -74.876  38.588  1.00  0.00     0.191 C 
BRANCH  30  31
ATOM     31  O   UNL     1      13.447 -74.969  38.809  1.00  0.00    -0.394 OA
ATOM     32  H   UNL     1      13.088 -74.051  38.692  1.00  0.00     0.210 HD
ENDBRANCH  30  31
ENDBRANCH  24  30
BRANCH  25  33
ATOM     33  O   UNL     1      16.772 -77.566  36.996  1.00  0.00    -0.388 OA
ATOM     34  H   UNL     1      16.765 -77.095  36.130  1.00  0.00     0.211 HD
ENDBRANCH  25  33
ENDBRANCH  11  20
BRANCH  10  35
ATOM     35  O   UNL     1      11.473 -74.875  35.827  1.00  0.00    -0.507 OA
ATOM     36  H   UNL     1      11.189 -75.323  36.691  1.00  0.00     0.293 HD
ENDBRANCH  10  35
TORSDOF 9
ENDMDL
MODEL 2
REMARK VINA RESULT:    -6.411      1.052      1.652
REMARK INTER + INTRA:         -10.161
REMARK INTER:                  -9.752
REMARK INTRA:                  -0.409
REMARK UNBOUND:                -1.501
REMARK SMILES O=c1c(-c2ccc(O)cc2)coc2c([C@H]3O[C@@H](CO)[C@H](O)[C@H](O)[C@H]3O)c(O)ccc12
REMARK SMILES IDX 3 1 11 2 12 3 13 4 30 5 2 6 1 7 29 8 28 9 26 10 14 11 4 12
REMARK SMILES IDX 5 13 6 14 7 15 10 16 9 17 8 18 15 20 24 21 16 22 22 23 17 24
REMARK SMILES IDX 20 25 25 26 23 28 18 30 19 31 21 33 27 35
REMARK H PARENT 8 19 25 27 23 29 19 32 21 34 27 36
REMARK Flexibility Score: inf
ROOT
ATOM      1  C   UNL     1      13.463 -78.636  30.857  1.00  0.00     0.065 A 
ATOM      2  C   UNL     1      14.247 -78.596  32.018  1.00  0.00     0.208 A 
ATOM      3  O   UNL     1      13.878 -77.861  33.061  1.00  0.00    -0.463 OA
ATOM      4  C   UNL     1      12.774 -77.116  33.081  1.00  0.00     0.147 A 
ATOM      5  C   UNL     1      11.933 -77.093  31.943  1.00  0.00     0.066 A 
ATOM      6  C   UNL     1      12.288 -77.864  30.822  1.00  0.00     0.200 A 
ATOM      7  O   UNL     1      11.566 -77.856  29.787  1.00  0.00    -0.288 OA
ATOM      8  C   UNL     1      10.769 -76.315  31.960  1.00  0.00     0.020 A 
ATOM      9  C   UNL     1      10.435 -75.583  33.094  1.00  0.00     0.047 A 
ATOM     10  C   UNL     1      11.248 -75.605  34.235  1.00  0.00     0.125 A 
ATOM     11  C   UNL     1      12.455 -76.363  34.242  1.00  0.00     0.069 A 
ENDROOT
BRANCH   1  12
ATOM     12  C   UNL     1      13.873 -79.496  29.721  1.00  0.00    -0.011 A 
ATOM     13  C   UNL     1      13.275 -80.755  29.530  1.00  0.00     0.013 A 
ATOM     14  C   UNL     1      13.649 -81.558  28.448  1.00  0.00     0.047 A 
ATOM     15  C   UNL     1      14.615 -81.112  27.541  1.00  0.00     0.115 A 
ATOM     16  C   UNL     1      14.843 -79.054  28.804  1.00  0.00     0.013 A 
ATOM     17  C   UNL     1      15.212 -79.858  27.721  1.00  0.00     0.047 A 
BRANCH  15  18
ATOM     18  O   UNL     1      14.972 -81.920  26.463  1.00  0.00    -0.508 OA
ATOM     19  H   UNL     1      15.735 -82.583  26.531  1.00  0.00     0.293 HD
ENDBRANCH  15  18
ENDBRANCH   1  12
BRANCH  11  20
ATOM     20  C   UNL     1      13.430 -76.481  35.427  1.00  0.00     0.188 C 
ATOM     21  C   UNL     1      14.298 -77.753  35.525  1.00  0.00     0.179 C 
ATOM     22  O   UNL     1      12.688 -76.350  36.623  1.00  0.00    -0.362 OA
ATOM     23  C   UNL     1      15.310 -77.654  36.700  1.00  0.00     0.177 C 
ATOM     24  C   UNL     1      13.476 -76.165  37.799  1.00  0.00     0.176 C 
ATOM     25  C   UNL     1      15.003 -76.496  37.688  1.00  0.00     0.177 C 
BRANCH  21  26
ATOM     26  O   UNL     1      13.459 -78.863  35.734  1.00  0.00    -0.387 OA
ATOM     27  H   UNL     1      13.528 -79.432  34.923  1.00  0.00     0.211 HD
ENDBRANCH  21  26
BRANCH  23  28
ATOM     28  O   UNL     1      16.623 -77.530  36.212  1.00  0.00    -0.387 OA
ATOM     29  H   UNL     1      16.679 -76.655  35.748  1.00  0.00     0.211 HD
ENDBRANCH  23  28
BRANCH  24  30
ATOM     30  C   UNL     1      12.835 -77.008  38.915  1.00  0.00     0.191 C 
BRANCH  30  31
ATOM     31  O   UNL     1      12.294 -78.182  38.374  1.00  0.00    -0.394 OA
ATOM     32  H   UNL     1      12.514 -78.907  39.015  1.00  0.00     0.210 HD
ENDBRANCH  30  31
ENDBRANCH  24  30
BRANCH  25  33
ATOM     33  O   UNL     1      15.753 -75.326  37.430  1.00  0.00    -0.388 OA
ATOM     34  H   UNL     1      15.851 -74.804  38.261  1.00  0.00     0.211 HD
ENDBRANCH  25  33
ENDBRANCH  11  20
BRANCH  10  35
ATOM     35  O   UNL     1      10.826 -74.877  35.346  1.00  0.00    -0.507 OA
ATOM     36  H   UNL     1      11.418 -74.188  35.797  1.00  0.00     0.293 HD
ENDBRANCH  10  35
TORSDOF 9
ENDMDL
MODEL 3
REMARK VINA RESULT:    -5.498      1.169      2.467
REMARK INTER + INTRA:          -8.927
REMARK INTER:                  -8.705
REMARK INTRA:                  -0.222
REMARK UNBOUND:                -1.501
REMARK SMILES O=c1c(-c2ccc(O)cc2)coc2c([C@H]3O[C@@H](CO)[C@H](O)[C@H](O)[C@H]3O)c(O)ccc12
REMARK SMILES IDX 3 1 11 2 12 3 13 4 30 5 2 6 1 7 29 8 28 9 26 10 14 11 4 12
REMARK SMILES IDX 5 13 6 14 7 15 10 16 9 17 8 18 15 20 24 21 16 22 22 23 17 24
REMARK SMILES IDX 20 25 25 26 23 28 18 30 19 31 21 33 27 35
REMARK H PARENT 8 19 25 27 23 29 19 32 21 34 27 36
REMARK Flexibility Score: inf
ROOT
ATOM      1  C   UNL     1      13.366 -78.860  30.672  1.00  0.00     0.065 A 
ATOM      2  C   UNL     1      14.037 -78.967  31.898  1.00  0.00     0.208 A 
ATOM      3  O   UNL     1      13.684 -78.215  32.934  1.00  0.00    -0.463 OA
ATOM      4  C   UNL     1      12.702 -77.316  32.887  1.00  0.00     0.147 A 
ATOM      5  C   UNL     1      11.981 -77.138  31.682  1.00  0.00     0.066 A 
ATOM      6  C   UNL     1      12.323 -77.923  30.566  1.00  0.00     0.200 A 
ATOM      7  O   UNL     1      11.708 -77.781  29.473  1.00  0.00    -0.288 OA
ATOM      8  C   UNL     1      10.945 -76.198  31.629  1.00  0.00     0.020 A 
ATOM      9  C   UNL     1      10.617 -75.456  32.758  1.00  0.00     0.047 A 
ATOM     10  C   UNL     1      11.310 -75.627  33.964  1.00  0.00     0.125 A 
ATOM     11  C   UNL     1      12.389 -76.556  34.045  1.00  0.00     0.069 A 
ENDROOT
BRANCH   1  12
ATOM     12  C   UNL     1      13.750 -79.741  29.543  1.00  0.00    -0.011 A 
ATOM     13  C   UNL     1      13.103 -80.974  29.350  1.00  0.00     0.013 A 
ATOM     14  C   UNL     1      13.452 -81.796  28.275  1.00  0.00     0.047 A 
ATOM     15  C   UNL     1      14.444 -81.394  27.375  1.00  0.00     0.115 A 
ATOM     16  C   UNL     1      14.746 -79.342  28.634  1.00  0.00     0.013 A 
ATOM     17  C   UNL     1      15.090 -80.164  27.557  1.00  0.00     0.047 A 
BRANCH  15  18
ATOM     18  O   UNL     1      14.777 -82.220  26.303  1.00  0.00    -0.508 OA
ATOM     19  H   UNL     1      15.558 -82.005  25.694  1.00  0.00     0.293 HD
ENDBRANCH  15  18
ENDBRANCH   1  12
BRANCH  11  20
ATOM     20  C   UNL     1      13.224 -76.848  35.305  1.00  0.00     0.188 C 
ATOM     21  C   UNL     1      14.703 -76.410  35.310  1.00  0.00     0.179 C 
ATOM     22  O   UNL     1      13.165 -78.236  35.560  1.00  0.00    -0.362 OA
ATOM     23  C   UNL     1      15.361 -76.663  36.695  1.00  0.00     0.177 C 
ATOM     24  C   UNL     1      13.659 -78.632  36.840  1.00  0.00     0.176 C 
ATOM     25  C   UNL     1      14.519 -77.582  37.623  1.00  0.00     0.177 C 
BRANCH  21  26
ATOM     26  O   UNL     1      15.399 -77.141  34.331  1.00  0.00    -0.387 OA
ATOM     27  H   UNL     1      15.935 -77.826  34.811  1.00  0.00     0.211 HD
ENDBRANCH  21  26
BRANCH  23  28
ATOM     28  O   UNL     1      15.629 -75.445  37.345  1.00  0.00    -0.387 OA
ATOM     29  H   UNL     1      15.106 -75.445  38.188  1.00  0.00     0.211 HD
ENDBRANCH  23  28
BRANCH  24  30
ATOM     30  C   UNL     1      14.466 -79.926  36.639  1.00  0.00     0.191 C 
BRANCH  30  31
ATOM     31  O   UNL     1      14.540 -80.234  35.273  1.00  0.00    -0.394 OA
ATOM     32  H   UNL     1      15.473 -80.528  35.107  1.00  0.00     0.210 HD
ENDBRANCH  30  31
ENDBRANCH  24  30
BRANCH  25  33
ATOM     33  O   UNL     1      13.722 -76.866  38.544  1.00  0.00    -0.388 OA
ATOM     34  H   UNL     1      13.112 -76.263  38.058  1.00  0.00     0.211 HD
ENDBRANCH  25  33
ENDBRANCH  11  20
BRANCH  10  35
ATOM     35  O   UNL     1      10.897 -74.875  35.062  1.00  0.00    -0.507 OA
ATOM     36  H   UNL     1      10.698 -73.883  34.992  1.00  0.00     0.293 HD
ENDBRANCH  10  35
TORSDOF 9
ENDMDL
MODEL 4
REMARK VINA RESULT:    -4.769      1.379      1.848
REMARK INTER + INTRA:          -7.942
REMARK INTER:                  -7.721
REMARK INTRA:                  -0.222
REMARK UNBOUND:                -1.501
REMARK SMILES O=c1c(-c2ccc(O)cc2)coc2c([C@H]3O[C@@H](CO)[C@H](O)[C@H](O)[C@H]3O)c(O)ccc12
REMARK SMILES IDX 3 1 11 2 12 3 13 4 30 5 2 6 1 7 29 8 28 9 26 10 14 11 4 12
REMARK SMILES IDX 5 13 6 14 7 15 10 16 9 17 8 18 15 20 24 21 16 22 22 23 17 24
REMARK SMILES IDX 20 25 25 26 23 28 18 30 19 31 21 33 27 35
REMARK H PARENT 8 19 25 27 23 29 19 32 21 34 27 36
REMARK Flexibility Score: inf
ROOT
ATOM      1  C   UNL     1      13.399 -79.010  30.205  1.00  0.00     0.065 A 
ATOM      2  C   UNL     1      14.198 -78.811  31.339  1.00  0.00     0.208 A 
ATOM      3  O   UNL     1      13.817 -77.979  32.301  1.00  0.00    -0.463 OA
ATOM      4  C   UNL     1      12.684 -77.279  32.259  1.00  0.00     0.147 A 
ATOM      5  C   UNL     1      11.825 -77.414  31.143  1.00  0.00     0.066 A 
ATOM      6  C   UNL     1      12.194 -78.292  30.107  1.00  0.00     0.200 A 
ATOM      7  O   UNL     1      11.457 -78.427  29.092  1.00  0.00    -0.288 OA
ATOM      8  C   UNL     1      10.632 -76.684  31.096  1.00  0.00     0.020 A 
ATOM      9  C   UNL     1      10.287 -75.843  32.148  1.00  0.00     0.047 A 
ATOM     10  C   UNL     1      11.117 -75.706  33.268  1.00  0.00     0.125 A 
ATOM     11  C   UNL     1      12.353 -76.413  33.336  1.00  0.00     0.069 A 
ENDROOT
BRANCH   1  12
ATOM     12  C   UNL     1      13.826 -79.976  29.164  1.00  0.00    -0.011 A 
ATOM     13  C   UNL     1      13.199 -81.231  29.058  1.00  0.00     0.013 A 
ATOM     14  C   UNL     1      13.589 -82.134  28.065  1.00  0.00     0.047 A 
ATOM     15  C   UNL     1      14.601 -81.793  27.161  1.00  0.00     0.115 A 
ATOM     16  C   UNL     1      14.841 -79.640  28.252  1.00  0.00     0.013 A 
ATOM     17  C   UNL     1      15.226 -80.543  27.257  1.00  0.00     0.047 A 
BRANCH  15  18
ATOM     18  O   UNL     1      14.973 -82.701  26.171  1.00  0.00    -0.508 OA
ATOM     19  H   UNL     1      15.270 -82.388  25.255  1.00  0.00     0.293 HD
ENDBRANCH  15  18
ENDBRANCH   1  12
BRANCH  11  20
ATOM     20  C   UNL     1      13.350 -76.361  34.507  1.00  0.00     0.188 C 
ATOM     21  C   UNL     1      14.108 -77.655  34.869  1.00  0.00     0.179 C 
ATOM     22  O   UNL     1      12.659 -75.910  35.654  1.00  0.00    -0.362 OA
ATOM     23  C   UNL     1      15.160 -77.397  35.984  1.00  0.00     0.177 C 
ATOM     24  C   UNL     1      13.494 -75.548  36.754  1.00  0.00     0.176 C 
ATOM     25  C   UNL     1      14.984 -76.031  36.701  1.00  0.00     0.177 C 
BRANCH  21  26
ATOM     26  O   UNL     1      13.185 -78.614  35.323  1.00  0.00    -0.387 OA
ATOM     27  H   UNL     1      12.657 -78.901  34.532  1.00  0.00     0.211 HD
ENDBRANCH  21  26
BRANCH  23  28
ATOM     28  O   UNL     1      16.464 -77.500  35.466  1.00  0.00    -0.387 OA
ATOM     29  H   UNL     1      16.387 -77.457  34.477  1.00  0.00     0.211 HD
ENDBRANCH  23  28
BRANCH  24  30
ATOM     30  C   UNL     1      12.818 -76.071  38.033  1.00  0.00     0.191 C 
BRANCH  30  31
ATOM     31  O   UNL     1      13.706 -75.979  39.113  1.00  0.00    -0.394 OA
ATOM     32  H   UNL     1      13.306 -76.518  39.845  1.00  0.00     0.210 HD
ENDBRANCH  30  31
ENDBRANCH  24  30
BRANCH  25  33
ATOM     33  O   UNL     1      15.823 -75.017  36.187  1.00  0.00    -0.388 OA
ATOM     34  H   UNL     1      15.517 -74.759  35.285  1.00  0.00     0.211 HD
ENDBRANCH  25  33
ENDBRANCH  11  20
BRANCH  10  35
ATOM     35  O   UNL     1      10.683 -74.875  34.299  1.00  0.00    -0.507 OA
ATOM     36  H   UNL     1      11.331 -74.366  34.891  1.00  0.00     0.293 HD
ENDBRANCH  10  35
TORSDOF 9
ENDMDL
