MODEL 1
REMARK VINA RESULT:     7.936      0.000      0.000
REMARK INTER + INTRA:          20.966
REMARK INTER:                  20.927
REMARK INTRA:                   0.039
REMARK UNBOUND:                 0.039
REMARK SMILES CCCCCCCCCCCCCCCCCCCCCCCCCCCCCC(=O)[O-]
REMARK SMILES IDX 16 1 17 2 18 3 19 4 20 5 21 6 22 7 23 8 24 9 25 10 26 11
REMARK SMILES IDX 27 12 28 13 29 14 30 15 31 16 32 17 15 18 14 19 13 20 12 21
REMARK SMILES IDX 11 22 10 23 9 24 8 25 7 26 6 27 5 28 4 29 3 30 2 31 1 32
REMARK H PARENT
REMARK Flexibility Score: inf
ROOT
ATOM      1  C   UNL     1     -28.347 -20.086 -19.368  1.00  0.00     0.000 C 
ENDROOT
BRANCH   1   2
ATOM      2  C   UNL     1     -29.567 -20.957 -19.735  1.00  0.00     0.000 C 
BRANCH   2   3
ATOM      3  C   UNL     1     -29.601 -21.452 -21.194  1.00  0.00     0.000 C 
BRANCH   3   4
ATOM      4  C   UNL     1     -28.902 -22.806 -21.381  1.00  0.00     0.000 C 
BRANCH   4   5
ATOM      5  C   UNL     1     -27.735 -22.692 -22.371  1.00  0.00     0.000 C 
BRANCH   5   6
ATOM      6  C   UNL     1     -27.920 -21.480 -23.296  1.00  0.00     0.000 C 
BRANCH   6   7
ATOM      7  C   UNL     1     -28.886 -21.759 -24.458  1.00  0.00     0.000 C 
BRANCH   7   8
ATOM      8  C   UNL     1     -29.594 -20.487 -24.957  1.00  0.00     0.000 C 
BRANCH   8   9
ATOM      9  C   UNL     1     -30.021 -20.587 -26.432  1.00  0.00     0.000 C 
BRANCH   9  10
ATOM     10  C   UNL     1     -30.973 -21.754 -26.760  1.00  0.00     0.000 C 
BRANCH  10  11
ATOM     11  C   UNL     1     -31.996 -22.055 -25.645  1.00  0.00     0.000 C 
BRANCH  11  12
ATOM     12  C   UNL     1     -32.171 -20.871 -24.674  1.00  0.00     0.000 C 
BRANCH  12  13
ATOM     13  C   UNL     1     -32.511 -21.321 -23.246  1.00  0.00     0.006 C 
BRANCH  13  14
ATOM     14  C   UNL     1     -31.791 -20.488 -22.179  1.00  0.00     0.053 C 
BRANCH  14  15
ATOM     15  C   UNL     1     -32.590 -19.269 -21.844  1.00  0.00     0.041 C 
ATOM     16  O   UNL     1     -32.707 -18.893 -20.649  1.00  0.00    -0.550 OA
ATOM     17  O   UNL     1     -33.172 -18.523 -22.861  1.00  0.00    -0.550 OA
ENDBRANCH  14  15
ENDBRANCH  13  14
ENDBRANCH  12  13
ENDBRANCH  11  12
ENDBRANCH  10  11
ENDBRANCH   9  10
ENDBRANCH   8   9
ENDBRANCH   7   8
ENDBRANCH   6   7
ENDBRANCH   5   6
ENDBRANCH   4   5
ENDBRANCH   3   4
ENDBRANCH   2   3
ENDBRANCH   1   2
BRANCH   1  18
ATOM     18  C   UNL     1     -27.158 -20.849 -18.751  1.00  0.00     0.000 C 
BRANCH  18  19
ATOM     19  C   UNL     1     -27.475 -22.291 -18.302  1.00  0.00     0.000 C 
BRANCH  19  20
ATOM     20  C   UNL     1     -27.056 -22.623 -16.859  1.00  0.00     0.000 C 
BRANCH  20  21
ATOM     21  C   UNL     1     -28.235 -23.103 -15.997  1.00  0.00     0.000 C 
BRANCH  21  22
ATOM     22  C   UNL     1     -29.540 -23.123 -16.806  1.00  0.00     0.000 C 
BRANCH  22  23
ATOM     23  C   UNL     1     -30.764 -22.766 -15.946  1.00  0.00     0.000 C 
BRANCH  23  24
ATOM     24  C   UNL     1     -30.398 -21.888 -14.740  1.00  0.00    -0.000 C 
BRANCH  24  25
ATOM     25  C   UNL     1     -31.514 -20.877 -14.438  1.00  0.00    -0.000 C 
BRANCH  25  26
ATOM     26  C   UNL     1     -31.270 -20.106 -13.126  1.00  0.00    -0.000 C 
BRANCH  26  27
ATOM     27  C   UNL     1     -29.934 -19.342 -13.104  1.00  0.00    -0.000 C 
BRANCH  27  28
ATOM     28  C   UNL     1     -29.612 -18.774 -11.710  1.00  0.00    -0.000 C 
BRANCH  28  29
ATOM     29  C   UNL     1     -29.541 -17.237 -11.714  1.00  0.00    -0.000 C 
BRANCH  29  30
ATOM     30  C   UNL     1     -30.575 -16.584 -12.661  1.00  0.00    -0.000 C 
BRANCH  30  31
ATOM     31  C   UNL     1     -30.811 -15.090 -12.383  1.00  0.00    -0.003 C 
ATOM     32  C   UNL     1     -31.643 -14.840 -11.127  1.00  0.00     0.004 C 
ENDBRANCH  30  31
ENDBRANCH  29  30
ENDBRANCH  28  29
ENDBRANCH  27  28
ENDBRANCH  26  27
ENDBRANCH  25  26
ENDBRANCH  24  25
ENDBRANCH  23  24
ENDBRANCH  22  23
ENDBRANCH  21  22
ENDBRANCH  20  21
ENDBRANCH  19  20
ENDBRANCH  18  19
ENDBRANCH   1  18
TORSDOF 28
ENDMDL
MODEL 2
REMARK VINA RESULT:     8.360      2.710      9.907
REMARK INTER + INTRA:          22.082
REMARK INTER:                  22.054
REMARK INTRA:                   0.029
REMARK UNBOUND:                 0.039
REMARK SMILES CCCCCCCCCCCCCCCCCCCCCCCCCCCCCC(=O)[O-]
REMARK SMILES IDX 16 1 17 2 18 3 19 4 20 5 21 6 22 7 23 8 24 9 25 10 26 11
REMARK SMILES IDX 27 12 28 13 29 14 30 15 31 16 32 17 15 18 14 19 13 20 12 21
REMARK SMILES IDX 11 22 10 23 9 24 8 25 7 26 6 27 5 28 4 29 3 30 2 31 1 32
REMARK H PARENT
REMARK Flexibility Score: inf
ROOT
ATOM      1  C   UNL     1     -29.164 -19.731 -19.277  1.00  0.00     0.000 C 
ENDROOT
BRANCH   1   2
ATOM      2  C   UNL     1     -27.710 -20.242 -19.368  1.00  0.00     0.000 C 
BRANCH   2   3
ATOM      3  C   UNL     1     -27.257 -21.135 -18.197  1.00  0.00     0.000 C 
BRANCH   3   4
ATOM      4  C   UNL     1     -27.893 -22.533 -18.231  1.00  0.00     0.000 C 
BRANCH   4   5
ATOM      5  C   UNL     1     -28.166 -23.049 -16.813  1.00  0.00     0.000 C 
BRANCH   5   6
ATOM      6  C   UNL     1     -29.676 -23.124 -16.540  1.00  0.00     0.000 C 
BRANCH   6   7
ATOM      7  C   UNL     1     -30.056 -22.608 -15.144  1.00  0.00     0.000 C 
BRANCH   7   8
ATOM      8  C   UNL     1     -31.573 -22.413 -14.978  1.00  0.00     0.000 C 
BRANCH   8   9
ATOM      9  C   UNL     1     -31.927 -21.092 -14.271  1.00  0.00     0.000 C 
BRANCH   9  10
ATOM     10  C   UNL     1     -30.770 -20.079 -14.163  1.00  0.00     0.000 C 
BRANCH  10  11
ATOM     11  C   UNL     1     -30.682 -19.378 -12.792  1.00  0.00     0.000 C 
BRANCH  11  12
ATOM     12  C   UNL     1     -29.240 -19.327 -12.252  1.00  0.00     0.000 C 
BRANCH  12  13
ATOM     13  C   UNL     1     -29.059 -18.281 -11.141  1.00  0.00     0.006 C 
BRANCH  13  14
ATOM     14  C   UNL     1     -28.362 -17.009 -11.638  1.00  0.00     0.053 C 
BRANCH  14  15
ATOM     15  C   UNL     1     -29.370 -15.941 -11.920  1.00  0.00     0.041 C 
ATOM     16  O   UNL     1     -30.518 -16.244 -12.341  1.00  0.00    -0.550 OA
ATOM     17  O   UNL     1     -29.056 -14.610 -11.676  1.00  0.00    -0.550 OA
ENDBRANCH  14  15
ENDBRANCH  13  14
ENDBRANCH  12  13
ENDBRANCH  11  12
ENDBRANCH  10  11
ENDBRANCH   9  10
ENDBRANCH   8   9
ENDBRANCH   7   8
ENDBRANCH   6   7
ENDBRANCH   5   6
ENDBRANCH   4   5
ENDBRANCH   3   4
ENDBRANCH   2   3
ENDBRANCH   1   2
BRANCH   1  18
ATOM     18  C   UNL     1     -30.171 -20.456 -20.191  1.00  0.00     0.000 C 
BRANCH  18  19
ATOM     19  C   UNL     1     -30.122 -21.997 -20.117  1.00  0.00     0.000 C 
BRANCH  19  20
ATOM     20  C   UNL     1     -29.785 -22.694 -21.447  1.00  0.00     0.000 C 
BRANCH  20  21
ATOM     21  C   UNL     1     -28.312 -23.125 -21.532  1.00  0.00     0.000 C 
BRANCH  21  22
ATOM     22  C   UNL     1     -27.622 -22.502 -22.753  1.00  0.00     0.000 C 
BRANCH  22  23
ATOM     23  C   UNL     1     -28.357 -21.252 -23.265  1.00  0.00     0.000 C 
BRANCH  23  24
ATOM     24  C   UNL     1     -29.348 -21.576 -24.393  1.00  0.00    -0.000 C 
BRANCH  24  25
ATOM     25  C   UNL     1     -29.445 -20.412 -25.391  1.00  0.00    -0.000 C 
BRANCH  25  26
ATOM     26  C   UNL     1     -30.159 -20.813 -26.696  1.00  0.00    -0.000 C 
BRANCH  26  27
ATOM     27  C   UNL     1     -31.402 -21.692 -26.468  1.00  0.00    -0.000 C 
BRANCH  27  28
ATOM     28  C   UNL     1     -31.832 -21.718 -24.990  1.00  0.00    -0.000 C 
BRANCH  28  29
ATOM     29  C   UNL     1     -32.718 -20.514 -24.624  1.00  0.00    -0.000 C 
BRANCH  29  30
ATOM     30  C   UNL     1     -32.156 -19.682 -23.447  1.00  0.00    -0.000 C 
BRANCH  30  31
ATOM     31  C   UNL     1     -32.677 -20.130 -22.070  1.00  0.00    -0.003 C 
ATOM     32  C   UNL     1     -32.653 -19.012 -21.030  1.00  0.00     0.004 C 
ENDBRANCH  30  31
ENDBRANCH  29  30
ENDBRANCH  28  29
ENDBRANCH  27  28
ENDBRANCH  26  27
ENDBRANCH  25  26
ENDBRANCH  24  25
ENDBRANCH  23  24
ENDBRANCH  22  23
ENDBRANCH  21  22
ENDBRANCH  20  21
ENDBRANCH  19  20
ENDBRANCH  18  19
ENDBRANCH   1  18
TORSDOF 28
ENDMDL
MODEL 3
REMARK VINA RESULT:     8.961      3.070      9.615
REMARK INTER + INTRA:          23.668
REMARK INTER:                  20.093
REMARK INTRA:                   3.574
REMARK UNBOUND:                 0.039
REMARK SMILES CCCCCCCCCCCCCCCCCCCCCCCCCCCCCC(=O)[O-]
REMARK SMILES IDX 16 1 17 2 18 3 19 4 20 5 21 6 22 7 23 8 24 9 25 10 26 11
REMARK SMILES IDX 27 12 28 13 29 14 30 15 31 16 32 17 15 18 14 19 13 20 12 21
REMARK SMILES IDX 11 22 10 23 9 24 8 25 7 26 6 27 5 28 4 29 3 30 2 31 1 32
REMARK H PARENT
REMARK Flexibility Score: inf
ROOT
ATOM      1  C   UNL     1     -29.825 -21.356 -20.063  1.00  0.00     0.000 C 
ENDROOT
BRANCH   1   2
ATOM      2  C   UNL     1     -29.806 -22.811 -19.549  1.00  0.00     0.000 C 
BRANCH   2   3
ATOM      3  C   UNL     1     -28.708 -23.124 -18.514  1.00  0.00     0.000 C 
BRANCH   3   4
ATOM      4  C   UNL     1     -27.293 -22.842 -19.040  1.00  0.00     0.000 C 
BRANCH   4   5
ATOM      5  C   UNL     1     -26.488 -22.008 -18.034  1.00  0.00     0.000 C 
BRANCH   5   6
ATOM      6  C   UNL     1     -27.087 -22.124 -16.625  1.00  0.00     0.000 C 
BRANCH   6   7
ATOM      7  C   UNL     1     -28.250 -23.125 -16.551  1.00  0.00     0.000 C 
BRANCH   7   8
ATOM      8  C   UNL     1     -29.089 -22.965 -15.271  1.00  0.00     0.000 C 
BRANCH   8   9
ATOM      9  C   UNL     1     -30.587 -22.775 -15.564  1.00  0.00     0.000 C 
BRANCH   9  10
ATOM     10  C   UNL     1     -31.474 -22.557 -14.322  1.00  0.00     0.000 C 
BRANCH  10  11
ATOM     11  C   UNL     1     -32.349 -21.288 -14.395  1.00  0.00     0.000 C 
BRANCH  11  12
ATOM     12  C   UNL     1     -31.548 -20.006 -14.101  1.00  0.00     0.000 C 
BRANCH  12  13
ATOM     13  C   UNL     1     -30.308 -20.267 -13.233  1.00  0.00     0.006 C 
BRANCH  13  14
ATOM     14  C   UNL     1     -29.477 -19.001 -12.997  1.00  0.00     0.053 C 
BRANCH  14  15
ATOM     15  C   UNL     1     -29.593 -18.562 -11.572  1.00  0.00     0.041 C 
ATOM     16  O   UNL     1     -28.802 -19.010 -10.701  1.00  0.00    -0.550 OA
ATOM     17  O   UNL     1     -30.551 -17.622 -11.213  1.00  0.00    -0.550 OA
ENDBRANCH  14  15
ENDBRANCH  13  14
ENDBRANCH  12  13
ENDBRANCH  11  12
ENDBRANCH  10  11
ENDBRANCH   9  10
ENDBRANCH   8   9
ENDBRANCH   7   8
ENDBRANCH   6   7
ENDBRANCH   5   6
ENDBRANCH   4   5
ENDBRANCH   3   4
ENDBRANCH   2   3
ENDBRANCH   1   2
BRANCH   1  18
ATOM     18  C   UNL     1     -29.391 -21.174 -21.532  1.00  0.00     0.000 C 
BRANCH  18  19
ATOM     19  C   UNL     1     -28.859 -22.452 -22.214  1.00  0.00     0.000 C 
BRANCH  19  20
ATOM     20  C   UNL     1     -27.628 -22.236 -23.114  1.00  0.00     0.000 C 
BRANCH  20  21
ATOM     21  C   UNL     1     -27.731 -20.956 -23.958  1.00  0.00     0.000 C 
BRANCH  21  22
ATOM     22  C   UNL     1     -28.905 -21.034 -24.943  1.00  0.00     0.000 C 
BRANCH  22  23
ATOM     23  C   UNL     1     -29.671 -19.705 -25.044  1.00  0.00     0.000 C 
BRANCH  23  24
ATOM     24  C   UNL     1     -30.887 -19.798 -25.978  1.00  0.00    -0.000 C 
BRANCH  24  25
ATOM     25  C   UNL     1     -30.687 -20.895 -27.034  1.00  0.00    -0.000 C 
BRANCH  25  26
ATOM     26  C   UNL     1     -31.321 -22.236 -26.617  1.00  0.00    -0.000 C 
BRANCH  26  27
ATOM     27  C   UNL     1     -32.211 -22.130 -25.366  1.00  0.00    -0.000 C 
BRANCH  27  28
ATOM     28  C   UNL     1     -31.465 -21.502 -24.175  1.00  0.00    -0.000 C 
BRANCH  28  29
ATOM     29  C   UNL     1     -32.343 -21.440 -22.911  1.00  0.00    -0.000 C 
BRANCH  29  30
ATOM     30  C   UNL     1     -33.291 -20.218 -22.891  1.00  0.00    -0.000 C 
BRANCH  30  31
ATOM     31  C   UNL     1     -32.698 -18.988 -22.181  1.00  0.00    -0.003 C 
ATOM     32  C   UNL     1     -32.524 -19.193 -20.678  1.00  0.00     0.004 C 
ENDBRANCH  30  31
ENDBRANCH  29  30
ENDBRANCH  28  29
ENDBRANCH  27  28
ENDBRANCH  26  27
ENDBRANCH  25  26
ENDBRANCH  24  25
ENDBRANCH  23  24
ENDBRANCH  22  23
ENDBRANCH  21  22
ENDBRANCH  20  21
ENDBRANCH  19  20
ENDBRANCH  18  19
ENDBRANCH   1  18
TORSDOF 28
ENDMDL
MODEL 4
REMARK VINA RESULT:     8.986      1.860      2.953
REMARK INTER + INTRA:          23.734
REMARK INTER:                  23.945
REMARK INTRA:                  -0.211
REMARK UNBOUND:                 0.039
REMARK SMILES CCCCCCCCCCCCCCCCCCCCCCCCCCCCCC(=O)[O-]
REMARK SMILES IDX 16 1 17 2 18 3 19 4 20 5 21 6 22 7 23 8 24 9 25 10 26 11
REMARK SMILES IDX 27 12 28 13 29 14 30 15 31 16 32 17 15 18 14 19 13 20 12 21
REMARK SMILES IDX 11 22 10 23 9 24 8 25 7 26 6 27 5 28 4 29 3 30 2 31 1 32
REMARK H PARENT
REMARK Flexibility Score: inf
ROOT
ATOM      1  C   UNL     1     -28.621 -19.252 -19.425  1.00  0.00     0.000 C 
ENDROOT
BRANCH   1   2
ATOM      2  C   UNL     1     -29.920 -19.908 -19.940  1.00  0.00     0.000 C 
BRANCH   2   3
ATOM      3  C   UNL     1     -29.720 -21.192 -20.768  1.00  0.00     0.000 C 
BRANCH   3   4
ATOM      4  C   UNL     1     -30.684 -22.318 -20.367  1.00  0.00     0.000 C 
BRANCH   4   5
ATOM      5  C   UNL     1     -31.193 -23.074 -21.602  1.00  0.00     0.000 C 
BRANCH   5   6
ATOM      6  C   UNL     1     -31.887 -22.115 -22.580  1.00  0.00     0.000 C 
BRANCH   6   7
ATOM      7  C   UNL     1     -32.968 -21.255 -21.908  1.00  0.00     0.000 C 
BRANCH   7   8
ATOM      8  C   UNL     1     -32.560 -19.776 -21.790  1.00  0.00     0.000 C 
BRANCH   8   9
ATOM      9  C   UNL     1     -33.105 -18.917 -22.945  1.00  0.00     0.000 C 
BRANCH   9  10
ATOM     10  C   UNL     1     -32.711 -19.395 -24.357  1.00  0.00     0.000 C 
BRANCH  10  11
ATOM     11  C   UNL     1     -31.193 -19.348 -24.630  1.00  0.00     0.000 C 
BRANCH  11  12
ATOM     12  C   UNL     1     -30.812 -20.058 -25.943  1.00  0.00     0.000 C 
BRANCH  12  13
ATOM     13  C   UNL     1     -30.003 -21.343 -25.709  1.00  0.00     0.006 C 
BRANCH  13  14
ATOM     14  C   UNL     1     -29.836 -21.671 -24.221  1.00  0.00     0.053 C 
BRANCH  14  15
ATOM     15  C   UNL     1     -28.415 -21.469 -23.801  1.00  0.00     0.041 C 
ATOM     16  O   UNL     1     -27.893 -20.324 -23.851  1.00  0.00    -0.550 OA
ATOM     17  O   UNL     1     -27.679 -22.540 -23.312  1.00  0.00    -0.550 OA
ENDBRANCH  14  15
ENDBRANCH  13  14
ENDBRANCH  12  13
ENDBRANCH  11  12
ENDBRANCH  10  11
ENDBRANCH   9  10
ENDBRANCH   8   9
ENDBRANCH   7   8
ENDBRANCH   6   7
ENDBRANCH   5   6
ENDBRANCH   4   5
ENDBRANCH   3   4
ENDBRANCH   2   3
ENDBRANCH   1   2
BRANCH   1  18
ATOM     18  C   UNL     1     -27.421 -20.207 -19.270  1.00  0.00     0.000 C 
BRANCH  18  19
ATOM     19  C   UNL     1     -27.759 -21.578 -18.649  1.00  0.00     0.000 C 
BRANCH  19  20
ATOM     20  C   UNL     1     -26.850 -21.998 -17.480  1.00  0.00     0.000 C 
BRANCH  20  21
ATOM     21  C   UNL     1     -27.460 -23.124 -16.632  1.00  0.00     0.000 C 
BRANCH  21  22
ATOM     22  C   UNL     1     -28.992 -23.123 -16.730  1.00  0.00     0.000 C 
BRANCH  22  23
ATOM     23  C   UNL     1     -29.656 -22.511 -15.485  1.00  0.00     0.000 C 
BRANCH  23  24
ATOM     24  C   UNL     1     -31.164 -22.797 -15.424  1.00  0.00    -0.000 C 
BRANCH  24  25
ATOM     25  C   UNL     1     -31.870 -21.824 -14.468  1.00  0.00    -0.000 C 
BRANCH  25  26
ATOM     26  C   UNL     1     -31.201 -20.436 -14.439  1.00  0.00    -0.000 C 
BRANCH  26  27
ATOM     27  C   UNL     1     -30.869 -19.946 -13.019  1.00  0.00    -0.000 C 
BRANCH  27  28
ATOM     28  C   UNL     1     -29.645 -19.012 -12.999  1.00  0.00    -0.000 C 
BRANCH  28  29
ATOM     29  C   UNL     1     -29.456 -18.337 -11.628  1.00  0.00    -0.000 C 
BRANCH  29  30
ATOM     30  C   UNL     1     -29.498 -16.792 -11.702  1.00  0.00    -0.000 C 
BRANCH  30  31
ATOM     31  C   UNL     1     -30.784 -16.239 -12.341  1.00  0.00    -0.003 C 
ATOM     32  C   UNL     1     -31.115 -14.820 -11.884  1.00  0.00     0.004 C 
ENDBRANCH  30  31
ENDBRANCH  29  30
ENDBRANCH  28  29
ENDBRANCH  27  28
ENDBRANCH  26  27
ENDBRANCH  25  26
ENDBRANCH  24  25
ENDBRANCH  23  24
ENDBRANCH  22  23
ENDBRANCH  21  22
ENDBRANCH  20  21
ENDBRANCH  19  20
ENDBRANCH  18  19
ENDBRANCH   1  18
TORSDOF 28
ENDMDL
MODEL 5
REMARK VINA RESULT:     9.228      1.852      3.194
REMARK INTER + INTRA:          24.373
REMARK INTER:                  24.315
REMARK INTRA:                   0.057
REMARK UNBOUND:                 0.039
REMARK SMILES CCCCCCCCCCCCCCCCCCCCCCCCCCCCCC(=O)[O-]
REMARK SMILES IDX 16 1 17 2 18 3 19 4 20 5 21 6 22 7 23 8 24 9 25 10 26 11
REMARK SMILES IDX 27 12 28 13 29 14 30 15 31 16 32 17 15 18 14 19 13 20 12 21
REMARK SMILES IDX 11 22 10 23 9 24 8 25 7 26 6 27 5 28 4 29 3 30 2 31 1 32
REMARK H PARENT
REMARK Flexibility Score: inf
ROOT
ATOM      1  C   UNL     1     -28.793 -20.900 -19.201  1.00  0.00     0.000 C 
ENDROOT
BRANCH   1   2
ATOM      2  C   UNL     1     -27.746 -21.273 -20.272  1.00  0.00     0.000 C 
BRANCH   2   3
ATOM      3  C   UNL     1     -27.819 -22.726 -20.779  1.00  0.00     0.000 C 
BRANCH   3   4
ATOM      4  C   UNL     1     -27.060 -22.938 -22.097  1.00  0.00     0.000 C 
BRANCH   4   5
ATOM      5  C   UNL     1     -27.668 -22.096 -23.226  1.00  0.00     0.000 C 
BRANCH   5   6
ATOM      6  C   UNL     1     -29.201 -22.193 -23.215  1.00  0.00     0.000 C 
BRANCH   6   7
ATOM      7  C   UNL     1     -29.739 -22.999 -22.023  1.00  0.00     0.000 C 
BRANCH   7   8
ATOM      8  C   UNL     1     -31.274 -23.107 -22.026  1.00  0.00     0.000 C 
BRANCH   8   9
ATOM      9  C   UNL     1     -31.949 -21.969 -21.241  1.00  0.00     0.000 C 
BRANCH   9  10
ATOM     10  C   UNL     1     -31.566 -20.546 -21.693  1.00  0.00     0.000 C 
BRANCH  10  11
ATOM     11  C   UNL     1     -32.770 -19.681 -22.120  1.00  0.00     0.000 C 
BRANCH  11  12
ATOM     12  C   UNL     1     -32.786 -19.405 -23.635  1.00  0.00     0.000 C 
BRANCH  12  13
ATOM     13  C   UNL     1     -31.501 -19.871 -24.336  1.00  0.00     0.006 C 
BRANCH  13  14
ATOM     14  C   UNL     1     -31.707 -20.131 -25.833  1.00  0.00     0.053 C 
BRANCH  14  15
ATOM     15  C   UNL     1     -31.274 -21.519 -26.183  1.00  0.00     0.041 C 
ATOM     16  O   UNL     1     -32.127 -22.397 -26.479  1.00  0.00    -0.550 OA
ATOM     17  O   UNL     1     -29.922 -21.832 -26.226  1.00  0.00    -0.550 OA
ENDBRANCH  14  15
ENDBRANCH  13  14
ENDBRANCH  12  13
ENDBRANCH  11  12
ENDBRANCH  10  11
ENDBRANCH   9  10
ENDBRANCH   8   9
ENDBRANCH   7   8
ENDBRANCH   6   7
ENDBRANCH   5   6
ENDBRANCH   4   5
ENDBRANCH   3   4
ENDBRANCH   2   3
ENDBRANCH   1   2
BRANCH   1  18
ATOM     18  C   UNL     1     -29.302 -22.077 -18.344  1.00  0.00     0.000 C 
BRANCH  18  19
ATOM     19  C   UNL     1     -28.284 -22.623 -17.321  1.00  0.00     0.000 C 
BRANCH  19  20
ATOM     20  C   UNL     1     -28.899 -23.099 -15.992  1.00  0.00     0.000 C 
BRANCH  20  21
ATOM     21  C   UNL     1     -30.396 -22.772 -15.884  1.00  0.00     0.000 C 
BRANCH  21  22
ATOM     22  C   UNL     1     -30.752 -22.262 -14.480  1.00  0.00     0.000 C 
BRANCH  22  23
ATOM     23  C   UNL     1     -31.527 -20.935 -14.521  1.00  0.00     0.000 C 
BRANCH  23  24
ATOM     24  C   UNL     1     -31.231 -20.045 -13.305  1.00  0.00    -0.000 C 
BRANCH  24  25
ATOM     25  C   UNL     1     -29.781 -19.538 -13.334  1.00  0.00    -0.000 C 
BRANCH  25  26
ATOM     26  C   UNL     1     -29.236 -19.232 -11.925  1.00  0.00    -0.000 C 
BRANCH  26  27
ATOM     27  C   UNL     1     -29.362 -17.750 -11.529  1.00  0.00    -0.000 C 
BRANCH  27  28
ATOM     28  C   UNL     1     -30.714 -17.149 -11.954  1.00  0.00    -0.000 C 
BRANCH  28  29
ATOM     29  C   UNL     1     -30.596 -15.658 -12.316  1.00  0.00    -0.000 C 
BRANCH  29  30
ATOM     30  C   UNL     1     -31.611 -14.767 -11.562  1.00  0.00    -0.000 C 
BRANCH  30  31
ATOM     31  C   UNL     1     -31.115 -13.331 -11.324  1.00  0.00    -0.003 C 
ATOM     32  C   UNL     1     -30.286 -13.189 -10.049  1.00  0.00     0.004 C 
ENDBRANCH  30  31
ENDBRANCH  29  30
ENDBRANCH  28  29
ENDBRANCH  27  28
ENDBRANCH  26  27
ENDBRANCH  25  26
ENDBRANCH  24  25
ENDBRANCH  23  24
ENDBRANCH  22  23
ENDBRANCH  21  22
ENDBRANCH  20  21
ENDBRANCH  19  20
ENDBRANCH  18  19
ENDBRANCH   1  18
TORSDOF 28
ENDMDL
MODEL 6
REMARK VINA RESULT:     9.773      1.402      2.044
REMARK INTER + INTRA:          25.808
REMARK INTER:                  26.097
REMARK INTRA:                  -0.288
REMARK UNBOUND:                 0.039
REMARK SMILES CCCCCCCCCCCCCCCCCCCCCCCCCCCCCC(=O)[O-]
REMARK SMILES IDX 16 1 17 2 18 3 19 4 20 5 21 6 22 7 23 8 24 9 25 10 26 11
REMARK SMILES IDX 27 12 28 13 29 14 30 15 31 16 32 17 15 18 14 19 13 20 12 21
REMARK SMILES IDX 11 22 10 23 9 24 8 25 7 26 6 27 5 28 4 29 3 30 2 31 1 32
REMARK H PARENT
REMARK Flexibility Score: inf
ROOT
ATOM      1  C   UNL     1     -29.260 -23.100 -19.158  1.00  0.00     0.000 C 
ENDROOT
BRANCH   1   2
ATOM      2  C   UNL     1     -29.541 -23.125 -20.675  1.00  0.00     0.000 C 
BRANCH   2   3
ATOM      3  C   UNL     1     -28.289 -23.073 -21.572  1.00  0.00     0.000 C 
BRANCH   3   4
ATOM      4  C   UNL     1     -27.997 -21.664 -22.110  1.00  0.00     0.000 C 
BRANCH   4   5
ATOM      5  C   UNL     1     -27.908 -21.666 -23.641  1.00  0.00     0.000 C 
BRANCH   5   6
ATOM      6  C   UNL     1     -29.244 -21.242 -24.267  1.00  0.00     0.000 C 
BRANCH   6   7
ATOM      7  C   UNL     1     -29.623 -22.087 -25.494  1.00  0.00     0.000 C 
BRANCH   7   8
ATOM      8  C   UNL     1     -30.969 -21.665 -26.110  1.00  0.00     0.000 C 
BRANCH   8   9
ATOM      9  C   UNL     1     -30.938 -20.235 -26.678  1.00  0.00     0.000 C 
BRANCH   9  10
ATOM     10  C   UNL     1     -31.505 -19.148 -25.743  1.00  0.00     0.000 C 
BRANCH  10  11
ATOM     11  C   UNL     1     -32.743 -19.600 -24.941  1.00  0.00     0.000 C 
BRANCH  11  12
ATOM     12  C   UNL     1     -32.395 -19.978 -23.488  1.00  0.00     0.000 C 
BRANCH  12  13
ATOM     13  C   UNL     1     -32.950 -18.975 -22.466  1.00  0.00     0.006 C 
BRANCH  13  14
ATOM     14  C   UNL     1     -32.528 -19.304 -21.029  1.00  0.00     0.053 C 
BRANCH  14  15
ATOM     15  C   UNL     1     -31.606 -20.482 -21.016  1.00  0.00     0.041 C 
ATOM     16  O   UNL     1     -30.385 -20.332 -20.747  1.00  0.00    -0.550 OA
ATOM     17  O   UNL     1     -32.106 -21.755 -21.259  1.00  0.00    -0.550 OA
ENDBRANCH  14  15
ENDBRANCH  13  14
ENDBRANCH  12  13
ENDBRANCH  11  12
ENDBRANCH  10  11
ENDBRANCH   9  10
ENDBRANCH   8   9
ENDBRANCH   7   8
ENDBRANCH   6   7
ENDBRANCH   5   6
ENDBRANCH   4   5
ENDBRANCH   3   4
ENDBRANCH   2   3
ENDBRANCH   1   2
BRANCH   1  18
ATOM     18  C   UNL     1     -28.597 -21.811 -18.635  1.00  0.00     0.000 C 
BRANCH  18  19
ATOM     19  C   UNL     1     -27.911 -21.946 -17.259  1.00  0.00     0.000 C 
BRANCH  19  20
ATOM     20  C   UNL     1     -28.412 -23.122 -16.402  1.00  0.00     0.000 C 
BRANCH  20  21
ATOM     21  C   UNL     1     -29.298 -22.666 -15.232  1.00  0.00     0.000 C 
BRANCH  21  22
ATOM     22  C   UNL     1     -30.783 -22.917 -15.530  1.00  0.00     0.000 C 
BRANCH  22  23
ATOM     23  C   UNL     1     -31.708 -22.181 -14.547  1.00  0.00     0.000 C 
BRANCH  23  24
ATOM     24  C   UNL     1     -31.449 -20.668 -14.518  1.00  0.00    -0.000 C 
BRANCH  24  25
ATOM     25  C   UNL     1     -31.180 -20.182 -13.086  1.00  0.00    -0.000 C 
BRANCH  25  26
ATOM     26  C   UNL     1     -29.799 -19.514 -12.940  1.00  0.00    -0.000 C 
BRANCH  26  27
ATOM     27  C   UNL     1     -29.696 -18.583 -11.719  1.00  0.00    -0.000 C 
BRANCH  27  28
ATOM     28  C   UNL     1     -28.680 -17.447 -11.939  1.00  0.00    -0.000 C 
BRANCH  28  29
ATOM     29  C   UNL     1     -29.370 -16.085 -12.133  1.00  0.00    -0.000 C 
BRANCH  29  30
ATOM     30  C   UNL     1     -28.784 -14.974 -11.231  1.00  0.00    -0.000 C 
BRANCH  30  31
ATOM     31  C   UNL     1     -29.395 -13.585 -11.486  1.00  0.00    -0.003 C 
ATOM     32  C   UNL     1     -30.529 -13.245 -10.521  1.00  0.00     0.004 C 
ENDBRANCH  30  31
ENDBRANCH  29  30
ENDBRANCH  28  29
ENDBRANCH  27  28
ENDBRANCH  26  27
ENDBRANCH  25  26
ENDBRANCH  24  25
ENDBRANCH  23  24
ENDBRANCH  22  23
ENDBRANCH  21  22
ENDBRANCH  20  21
ENDBRANCH  19  20
ENDBRANCH  18  19
ENDBRANCH   1  18
TORSDOF 28
ENDMDL
MODEL 7
REMARK VINA RESULT:     9.895      1.563      2.550
REMARK INTER + INTRA:          26.132
REMARK INTER:                  25.558
REMARK INTRA:                   0.574
REMARK UNBOUND:                 0.039
REMARK SMILES CCCCCCCCCCCCCCCCCCCCCCCCCCCCCC(=O)[O-]
REMARK SMILES IDX 16 1 17 2 18 3 19 4 20 5 21 6 22 7 23 8 24 9 25 10 26 11
REMARK SMILES IDX 27 12 28 13 29 14 30 15 31 16 32 17 15 18 14 19 13 20 12 21
REMARK SMILES IDX 11 22 10 23 9 24 8 25 7 26 6 27 5 28 4 29 3 30 2 31 1 32
REMARK H PARENT
REMARK Flexibility Score: inf
ROOT
ATOM      1  C   UNL     1     -27.802 -22.887 -20.466  1.00  0.00     0.000 C 
ENDROOT
BRANCH   1   2
ATOM      2  C   UNL     1     -27.755 -23.125 -21.991  1.00  0.00     0.000 C 
BRANCH   2   3
ATOM      3  C   UNL     1     -27.201 -21.949 -22.818  1.00  0.00     0.000 C 
BRANCH   3   4
ATOM      4  C   UNL     1     -28.238 -20.840 -23.050  1.00  0.00     0.000 C 
BRANCH   4   5
ATOM      5  C   UNL     1     -28.701 -20.815 -24.513  1.00  0.00     0.000 C 
BRANCH   5   6
ATOM      6  C   UNL     1     -29.937 -21.704 -24.711  1.00  0.00     0.000 C 
BRANCH   6   7
ATOM      7  C   UNL     1     -30.481 -21.658 -26.147  1.00  0.00     0.000 C 
BRANCH   7   8
ATOM      8  C   UNL     1     -31.382 -20.436 -26.400  1.00  0.00     0.000 C 
BRANCH   8   9
ATOM      9  C   UNL     1     -30.984 -19.220 -25.546  1.00  0.00     0.000 C 
BRANCH   9  10
ATOM     10  C   UNL     1     -31.735 -19.089 -24.206  1.00  0.00     0.000 C 
BRANCH  10  11
ATOM     11  C   UNL     1     -32.608 -20.313 -23.859  1.00  0.00     0.000 C 
BRANCH  11  12
ATOM     12  C   UNL     1     -33.382 -20.125 -22.540  1.00  0.00     0.000 C 
BRANCH  12  13
ATOM     13  C   UNL     1     -32.478 -20.221 -21.303  1.00  0.00     0.006 C 
BRANCH  13  14
ATOM     14  C   UNL     1     -31.139 -20.906 -21.604  1.00  0.00     0.053 C 
BRANCH  14  15
ATOM     15  C   UNL     1     -31.265 -22.387 -21.438  1.00  0.00     0.041 C 
ATOM     16  O   UNL     1     -31.808 -23.084 -22.335  1.00  0.00    -0.550 OA
ATOM     17  O   UNL     1     -30.742 -23.004 -20.308  1.00  0.00    -0.550 OA
ENDBRANCH  14  15
ENDBRANCH  13  14
ENDBRANCH  12  13
ENDBRANCH  11  12
ENDBRANCH  10  11
ENDBRANCH   9  10
ENDBRANCH   8   9
ENDBRANCH   7   8
ENDBRANCH   6   7
ENDBRANCH   5   6
ENDBRANCH   4   5
ENDBRANCH   3   4
ENDBRANCH   2   3
ENDBRANCH   1   2
BRANCH   1  18
ATOM     18  C   UNL     1     -28.222 -21.467 -20.037  1.00  0.00     0.000 C 
BRANCH  18  19
ATOM     19  C   UNL     1     -27.677 -21.016 -18.665  1.00  0.00     0.000 C 
BRANCH  19  20
ATOM     20  C   UNL     1     -26.745 -22.030 -17.977  1.00  0.00     0.000 C 
BRANCH  20  21
ATOM     21  C   UNL     1     -27.516 -23.105 -17.195  1.00  0.00     0.000 C 
BRANCH  21  22
ATOM     22  C   UNL     1     -28.498 -22.469 -16.201  1.00  0.00     0.000 C 
BRANCH  22  23
ATOM     23  C   UNL     1     -29.950 -22.914 -16.449  1.00  0.00     0.000 C 
BRANCH  23  24
ATOM     24  C   UNL     1     -30.760 -23.021 -15.149  1.00  0.00    -0.000 C 
BRANCH  24  25
ATOM     25  C   UNL     1     -32.001 -22.117 -15.198  1.00  0.00    -0.000 C 
BRANCH  25  26
ATOM     26  C   UNL     1     -31.751 -20.740 -14.552  1.00  0.00    -0.000 C 
BRANCH  26  27
ATOM     27  C   UNL     1     -31.869 -20.753 -13.018  1.00  0.00    -0.000 C 
BRANCH  27  28
ATOM     28  C   UNL     1     -30.609 -20.190 -12.334  1.00  0.00    -0.000 C 
BRANCH  28  29
ATOM     29  C   UNL     1     -29.960 -19.063 -13.157  1.00  0.00    -0.000 C 
BRANCH  29  30
ATOM     30  C   UNL     1     -29.586 -17.828 -12.304  1.00  0.00    -0.000 C 
BRANCH  30  31
ATOM     31  C   UNL     1     -30.373 -16.559 -12.676  1.00  0.00    -0.003 C 
ATOM     32  C   UNL     1     -29.890 -15.317 -11.931  1.00  0.00     0.004 C 
ENDBRANCH  30  31
ENDBRANCH  29  30
ENDBRANCH  28  29
ENDBRANCH  27  28
ENDBRANCH  26  27
ENDBRANCH  25  26
ENDBRANCH  24  25
ENDBRANCH  23  24
ENDBRANCH  22  23
ENDBRANCH  21  22
ENDBRANCH  20  21
ENDBRANCH  19  20
ENDBRANCH  18  19
ENDBRANCH   1  18
TORSDOF 28
ENDMDL
MODEL 8
REMARK VINA RESULT:    10.730      4.080      5.217
REMARK INTER + INTRA:          28.332
REMARK INTER:                  20.046
REMARK INTRA:                   8.286
REMARK UNBOUND:                 0.039
REMARK SMILES CCCCCCCCCCCCCCCCCCCCCCCCCCCCCC(=O)[O-]
REMARK SMILES IDX 16 1 17 2 18 3 19 4 20 5 21 6 22 7 23 8 24 9 25 10 26 11
REMARK SMILES IDX 27 12 28 13 29 14 30 15 31 16 32 17 15 18 14 19 13 20 12 21
REMARK SMILES IDX 11 22 10 23 9 24 8 25 7 26 6 27 5 28 4 29 3 30 2 31 1 32
REMARK H PARENT
REMARK Flexibility Score: inf
ROOT
ATOM      1  C   UNL     1     -27.675 -22.755 -18.437  1.00  0.00     0.000 C 
ENDROOT
BRANCH   1   2
ATOM      2  C   UNL     1     -27.640 -22.921 -19.972  1.00  0.00     0.000 C 
BRANCH   2   3
ATOM      3  C   UNL     1     -28.498 -21.910 -20.757  1.00  0.00     0.000 C 
BRANCH   3   4
ATOM      4  C   UNL     1     -28.812 -22.376 -22.186  1.00  0.00     0.000 C 
BRANCH   4   5
ATOM      5  C   UNL     1     -28.175 -21.442 -23.223  1.00  0.00     0.000 C 
BRANCH   5   6
ATOM      6  C   UNL     1     -28.765 -21.693 -24.619  1.00  0.00     0.000 C 
BRANCH   6   7
ATOM      7  C   UNL     1     -30.292 -21.531 -24.659  1.00  0.00     0.000 C 
BRANCH   7   8
ATOM      8  C   UNL     1     -30.904 -22.019 -25.984  1.00  0.00     0.000 C 
BRANCH   8   9
ATOM      9  C   UNL     1     -30.989 -20.906 -27.043  1.00  0.00     0.000 C 
BRANCH   9  10
ATOM     10  C   UNL     1     -30.936 -19.469 -26.487  1.00  0.00     0.000 C 
BRANCH  10  11
ATOM     11  C   UNL     1     -31.000 -19.395 -24.947  1.00  0.00     0.000 C 
BRANCH  11  12
ATOM     12  C   UNL     1     -32.439 -19.531 -24.413  1.00  0.00     0.000 C 
BRANCH  12  13
ATOM     13  C   UNL     1     -32.551 -19.193 -22.919  1.00  0.00     0.006 C 
BRANCH  13  14
ATOM     14  C   UNL     1     -33.112 -20.357 -22.092  1.00  0.00     0.053 C 
BRANCH  14  15
ATOM     15  C   UNL     1     -31.998 -21.130 -21.461  1.00  0.00     0.041 C 
ATOM     16  O   UNL     1     -31.776 -22.321 -21.803  1.00  0.00    -0.550 OA
ATOM     17  O   UNL     1     -31.175 -20.518 -20.525  1.00  0.00    -0.550 OA
ENDBRANCH  14  15
ENDBRANCH  13  14
ENDBRANCH  12  13
ENDBRANCH  11  12
ENDBRANCH  10  11
ENDBRANCH   9  10
ENDBRANCH   8   9
ENDBRANCH   7   8
ENDBRANCH   6   7
ENDBRANCH   5   6
ENDBRANCH   4   5
ENDBRANCH   3   4
ENDBRANCH   2   3
ENDBRANCH   1   2
BRANCH   1  18
ATOM     18  C   UNL     1     -29.039 -23.038 -17.778  1.00  0.00     0.000 C 
BRANCH  18  19
ATOM     19  C   UNL     1     -29.056 -22.910 -16.240  1.00  0.00     0.000 C 
BRANCH  19  20
ATOM     20  C   UNL     1     -27.674 -22.695 -15.597  1.00  0.00     0.000 C 
BRANCH  20  21
ATOM     21  C   UNL     1     -26.521 -23.125 -16.516  1.00  0.00     0.000 C 
BRANCH  21  22
ATOM     22  C   UNL     1     -25.264 -22.283 -16.260  1.00  0.00     0.000 C 
BRANCH  22  23
ATOM     23  C   UNL     1     -25.164 -21.813 -14.798  1.00  0.00     0.000 C 
BRANCH  23  24
ATOM     24  C   UNL     1     -24.131 -22.616 -13.994  1.00  0.00    -0.000 C 
BRANCH  24  25
ATOM     25  C   UNL     1     -23.345 -21.703 -13.041  1.00  0.00    -0.000 C 
BRANCH  25  26
ATOM     26  C   UNL     1     -22.085 -21.110 -13.699  1.00  0.00    -0.000 C 
BRANCH  26  27
ATOM     27  C   UNL     1     -21.260 -20.221 -12.751  1.00  0.00    -0.000 C 
BRANCH  27  28
ATOM     28  C   UNL     1     -22.120 -19.619 -11.624  1.00  0.00    -0.000 C 
BRANCH  28  29
ATOM     29  C   UNL     1     -21.259 -19.017 -10.499  1.00  0.00    -0.000 C 
BRANCH  29  30
ATOM     30  C   UNL     1     -20.884 -17.537 -10.748  1.00  0.00    -0.000 C 
BRANCH  30  31
ATOM     31  C   UNL     1     -20.962 -17.121 -12.227  1.00  0.00    -0.003 C 
ATOM     32  C   UNL     1     -21.861 -18.034 -13.058  1.00  0.00     0.004 C 
ENDBRANCH  30  31
ENDBRANCH  29  30
ENDBRANCH  28  29
ENDBRANCH  27  28
ENDBRANCH  26  27
ENDBRANCH  25  26
ENDBRANCH  24  25
ENDBRANCH  23  24
ENDBRANCH  22  23
ENDBRANCH  21  22
ENDBRANCH  20  21
ENDBRANCH  19  20
ENDBRANCH  18  19
ENDBRANCH   1  18
TORSDOF 28
ENDMDL
