MODEL 1
REMARK VINA RESULT:    -3.551      0.000      0.000
REMARK INTER + INTRA:          -5.170
REMARK INTER:                  -4.901
REMARK INTRA:                  -0.269
REMARK UNBOUND:                -0.269
REMARK SMILES CCCCCCCCO
REMARK SMILES IDX 5 1 4 2 3 3 2 4 1 5 6 6 7 7 8 8 9 9
REMARK H PARENT 9 10
REMARK Flexibility Score: inf
ROOT
ATOM      1  C   UNL     1       0.085  23.047  24.657  1.00  0.00     0.000 C 
ENDROOT
BRANCH   1   2
ATOM      2  C   UNL     1      -0.418  22.626  26.047  1.00  0.00    -0.000 C 
BRANCH   2   3
ATOM      3  C   UNL     1      -1.034  21.215  26.052  1.00  0.00    -0.000 C 
BRANCH   3   4
ATOM      4  C   UNL     1      -1.843  20.932  27.326  1.00  0.00    -0.003 C 
ATOM      5  C   UNL     1      -2.977  21.936  27.541  1.00  0.00     0.004 C 
ENDBRANCH   3   4
ENDBRANCH   2   3
ENDBRANCH   1   2
BRANCH   1   6
ATOM      6  C   UNL     1      -0.487  22.173  23.531  1.00  0.00     0.002 C 
BRANCH   6   7
ATOM      7  C   UNL     1      -0.349  22.870  22.172  1.00  0.00     0.028 C 
BRANCH   7   8
ATOM      8  C   UNL     1       0.137  24.316  22.320  1.00  0.00     0.156 C 
BRANCH   8   9
ATOM      9  O   UNL     1       1.334  24.517  21.617  1.00  0.00    -0.396 OA
ATOM     10  H   UNL     1       1.806  23.643  21.606  1.00  0.00     0.210 HD
ENDBRANCH   8   9
ENDBRANCH   7   8
ENDBRANCH   6   7
ENDBRANCH   1   6
TORSDOF 7
ENDMDL
MODEL 2
REMARK VINA RESULT:    -3.549      3.363      5.437
REMARK INTER + INTRA:          -5.167
REMARK INTER:                  -4.959
REMARK INTRA:                  -0.208
REMARK UNBOUND:                -0.269
REMARK SMILES CCCCCCCCO
REMARK SMILES IDX 5 1 4 2 3 3 2 4 1 5 6 6 7 7 8 8 9 9
REMARK H PARENT 9 10
REMARK Flexibility Score: inf
ROOT
ATOM      1  C   UNL     1       0.285  25.929  19.998  1.00  0.00     0.000 C 
ENDROOT
BRANCH   1   2
ATOM      2  C   UNL     1       0.475  24.758  20.976  1.00  0.00    -0.000 C 
BRANCH   2   3
ATOM      3  C   UNL     1      -0.727  23.797  20.990  1.00  0.00    -0.000 C 
BRANCH   3   4
ATOM      4  C   UNL     1      -0.671  22.803  22.160  1.00  0.00    -0.003 C 
ATOM      5  C   UNL     1       0.076  23.361  23.372  1.00  0.00     0.004 C 
ENDBRANCH   3   4
ENDBRANCH   2   3
ENDBRANCH   1   2
BRANCH   1   6
ATOM      6  C   UNL     1       1.617  26.565  19.571  1.00  0.00     0.002 C 
BRANCH   6   7
ATOM      7  C   UNL     1       2.775  25.572  19.735  1.00  0.00     0.028 C 
BRANCH   7   8
ATOM      8  C   UNL     1       3.668  25.529  18.490  1.00  0.00     0.156 C 
BRANCH   8   9
ATOM      9  O   UNL     1       4.947  25.048  18.807  1.00  0.00    -0.396 OA
ATOM     10  H   UNL     1       4.914  24.062  18.692  1.00  0.00     0.210 HD
ENDBRANCH   8   9
ENDBRANCH   7   8
ENDBRANCH   6   7
ENDBRANCH   1   6
TORSDOF 7
ENDMDL
MODEL 3
REMARK VINA RESULT:    -3.461      0.672      1.449
REMARK INTER + INTRA:          -5.045
REMARK INTER:                  -4.735
REMARK INTRA:                  -0.310
REMARK UNBOUND:                -0.269
REMARK SMILES CCCCCCCCO
REMARK SMILES IDX 5 1 4 2 3 3 2 4 1 5 6 6 7 7 8 8 9 9
REMARK H PARENT 9 10
REMARK Flexibility Score: inf
ROOT
ATOM      1  C   UNL     1      -0.300  22.629  26.156  1.00  0.00     0.000 C 
ENDROOT
BRANCH   1   2
ATOM      2  C   UNL     1      -0.972  21.248  26.071  1.00  0.00    -0.000 C 
BRANCH   2   3
ATOM      3  C   UNL     1      -1.855  20.944  27.295  1.00  0.00    -0.000 C 
BRANCH   3   4
ATOM      4  C   UNL     1      -3.313  21.380  27.090  1.00  0.00    -0.003 C 
ATOM      5  C   UNL     1      -3.685  22.608  27.922  1.00  0.00     0.004 C 
ENDBRANCH   3   4
ENDBRANCH   2   3
ENDBRANCH   1   2
BRANCH   1   6
ATOM      6  C   UNL     1      -0.434  23.432  24.853  1.00  0.00     0.002 C 
BRANCH   6   7
ATOM      7  C   UNL     1      -0.540  22.497  23.641  1.00  0.00     0.028 C 
BRANCH   7   8
ATOM      8  C   UNL     1      -0.124  23.198  22.344  1.00  0.00     0.156 C 
BRANCH   8   9
ATOM      9  O   UNL     1       0.816  24.208  22.598  1.00  0.00    -0.396 OA
ATOM     10  H   UNL     1       1.694  23.862  22.289  1.00  0.00     0.210 HD
ENDBRANCH   8   9
ENDBRANCH   7   8
ENDBRANCH   6   7
ENDBRANCH   1   6
TORSDOF 7
ENDMDL
MODEL 4
REMARK VINA RESULT:    -3.452      2.594      4.252
REMARK INTER + INTRA:          -5.033
REMARK INTER:                  -4.869
REMARK INTRA:                  -0.164
REMARK UNBOUND:                -0.269
REMARK SMILES CCCCCCCCO
REMARK SMILES IDX 5 1 4 2 3 3 2 4 1 5 6 6 7 7 8 8 9 9
REMARK H PARENT 9 10
REMARK Flexibility Score: inf
ROOT
ATOM      1  C   UNL     1       0.494  24.577  21.443  1.00  0.00     0.000 C 
ENDROOT
BRANCH   1   2
ATOM      2  C   UNL     1      -0.090  23.156  21.495  1.00  0.00    -0.000 C 
BRANCH   2   3
ATOM      3  C   UNL     1      -0.535  22.749  22.911  1.00  0.00    -0.000 C 
BRANCH   3   4
ATOM      4  C   UNL     1       0.516  23.091  23.977  1.00  0.00    -0.003 C 
ATOM      5  C   UNL     1      -0.025  22.958  25.402  1.00  0.00     0.004 C 
ENDBRANCH   3   4
ENDBRANCH   2   3
ENDBRANCH   1   2
BRANCH   1   6
ATOM      6  C   UNL     1       1.037  24.943  20.054  1.00  0.00     0.002 C 
BRANCH   6   7
ATOM      7  C   UNL     1       2.433  25.570  20.159  1.00  0.00     0.028 C 
BRANCH   7   8
ATOM      8  C   UNL     1       3.233  25.399  18.863  1.00  0.00     0.156 C 
BRANCH   8   9
ATOM      9  O   UNL     1       4.537  24.958  19.133  1.00  0.00    -0.396 OA
ATOM     10  H   UNL     1       4.457  24.029  19.473  1.00  0.00     0.210 HD
ENDBRANCH   8   9
ENDBRANCH   7   8
ENDBRANCH   6   7
ENDBRANCH   1   6
TORSDOF 7
ENDMDL
MODEL 5
REMARK VINA RESULT:    -3.424      2.287      2.705
REMARK INTER + INTRA:          -4.994
REMARK INTER:                  -4.519
REMARK INTRA:                  -0.475
REMARK UNBOUND:                -0.269
REMARK SMILES CCCCCCCCO
REMARK SMILES IDX 5 1 4 2 3 3 2 4 1 5 6 6 7 7 8 8 9 9
REMARK H PARENT 9 10
REMARK Flexibility Score: inf
ROOT
ATOM      1  C   UNL     1      -0.339  22.560  26.053  1.00  0.00     0.000 C 
ENDROOT
BRANCH   1   2
ATOM      2  C   UNL     1      -1.794  22.676  26.534  1.00  0.00    -0.000 C 
BRANCH   2   3
ATOM      3  C   UNL     1      -2.136  21.659  27.638  1.00  0.00    -0.000 C 
BRANCH   3   4
ATOM      4  C   UNL     1      -1.895  20.208  27.195  1.00  0.00    -0.003 C 
ATOM      5  C   UNL     1      -3.066  19.633  26.397  1.00  0.00     0.004 C 
ENDBRANCH   3   4
ENDBRANCH   2   3
ENDBRANCH   1   2
BRANCH   1   6
ATOM      6  C   UNL     1      -0.209  22.679  24.527  1.00  0.00     0.002 C 
BRANCH   6   7
ATOM      7  C   UNL     1      -1.527  22.310  23.835  1.00  0.00     0.028 C 
BRANCH   7   8
ATOM      8  C   UNL     1      -1.448  20.940  23.153  1.00  0.00     0.156 C 
BRANCH   8   9
ATOM      9  O   UNL     1      -0.737  20.026  23.944  1.00  0.00    -0.396 OA
ATOM     10  H   UNL     1      -0.424  20.527  24.743  1.00  0.00     0.210 HD
ENDBRANCH   8   9
ENDBRANCH   7   8
ENDBRANCH   6   7
ENDBRANCH   1   6
TORSDOF 7
ENDMDL
MODEL 6
REMARK VINA RESULT:    -3.414      2.091      3.393
REMARK INTER + INTRA:          -4.981
REMARK INTER:                  -4.696
REMARK INTRA:                  -0.285
REMARK UNBOUND:                -0.269
REMARK SMILES CCCCCCCCO
REMARK SMILES IDX 5 1 4 2 3 3 2 4 1 5 6 6 7 7 8 8 9 9
REMARK H PARENT 9 10
REMARK Flexibility Score: inf
ROOT
ATOM      1  C   UNL     1      -2.012  21.283  27.358  1.00  0.00     0.000 C 
ENDROOT
BRANCH   1   2
ATOM      2  C   UNL     1      -3.513  21.329  27.028  1.00  0.00    -0.000 C 
BRANCH   2   3
ATOM      3  C   UNL     1      -4.010  20.039  26.353  1.00  0.00    -0.000 C 
BRANCH   3   4
ATOM      4  C   UNL     1      -2.938  18.940  26.324  1.00  0.00    -0.003 C 
ATOM      5  C   UNL     1      -3.536  17.534  26.265  1.00  0.00     0.004 C 
ENDBRANCH   3   4
ENDBRANCH   2   3
ENDBRANCH   1   2
BRANCH   1   6
ATOM      6  C   UNL     1      -1.232  22.447  26.729  1.00  0.00     0.002 C 
BRANCH   6   7
ATOM      7  C   UNL     1      -0.327  21.950  25.594  1.00  0.00     0.028 C 
BRANCH   7   8
ATOM      8  C   UNL     1      -0.045  23.053  24.567  1.00  0.00     0.156 C 
BRANCH   8   9
ATOM      9  O   UNL     1       1.292  23.015  24.146  1.00  0.00    -0.396 OA
ATOM     10  H   UNL     1       1.652  23.933  24.263  1.00  0.00     0.210 HD
ENDBRANCH   8   9
ENDBRANCH   7   8
ENDBRANCH   6   7
ENDBRANCH   1   6
TORSDOF 7
ENDMDL
MODEL 7
REMARK VINA RESULT:    -3.399      3.491      5.328
REMARK INTER + INTRA:          -4.959
REMARK INTER:                  -4.570
REMARK INTRA:                  -0.389
REMARK UNBOUND:                -0.269
REMARK SMILES CCCCCCCCO
REMARK SMILES IDX 5 1 4 2 3 3 2 4 1 5 6 6 7 7 8 8 9 9
REMARK H PARENT 9 10
REMARK Flexibility Score: inf
ROOT
ATOM      1  C   UNL     1      -2.210  21.631  27.486  1.00  0.00     0.000 C 
ENDROOT
BRANCH   1   2
ATOM      2  C   UNL     1      -1.826  22.650  26.400  1.00  0.00    -0.000 C 
BRANCH   2   3
ATOM      3  C   UNL     1      -0.312  22.682  26.127  1.00  0.00    -0.000 C 
BRANCH   3   4
ATOM      4  C   UNL     1       0.013  22.861  24.637  1.00  0.00    -0.003 C 
ATOM      5  C   UNL     1      -0.710  21.846  23.749  1.00  0.00     0.004 C 
ENDBRANCH   3   4
ENDBRANCH   2   3
ENDBRANCH   1   2
BRANCH   1   6
ATOM      6  C   UNL     1      -2.103  20.179  26.998  1.00  0.00     0.002 C 
BRANCH   6   7
ATOM      7  C   UNL     1      -3.254  19.835  26.044  1.00  0.00     0.028 C 
BRANCH   7   8
ATOM      8  C   UNL     1      -3.382  18.323  25.829  1.00  0.00     0.156 C 
BRANCH   8   9
ATOM      9  O   UNL     1      -2.611  17.616  26.763  1.00  0.00    -0.396 OA
ATOM     10  H   UNL     1      -2.301  18.279  27.434  1.00  0.00     0.210 HD
ENDBRANCH   8   9
ENDBRANCH   7   8
ENDBRANCH   6   7
ENDBRANCH   1   6
TORSDOF 7
ENDMDL
MODEL 8
REMARK VINA RESULT:    -3.395      1.576      2.145
REMARK INTER + INTRA:          -4.954
REMARK INTER:                  -4.568
REMARK INTRA:                  -0.386
REMARK UNBOUND:                -0.269
REMARK SMILES CCCCCCCCO
REMARK SMILES IDX 5 1 4 2 3 3 2 4 1 5 6 6 7 7 8 8 9 9
REMARK H PARENT 9 10
REMARK Flexibility Score: inf
ROOT
ATOM      1  C   UNL     1      -2.106  22.944  25.281  1.00  0.00     0.000 C 
ENDROOT
BRANCH   1   2
ATOM      2  C   UNL     1      -3.197  22.459  26.250  1.00  0.00    -0.000 C 
BRANCH   2   3
ATOM      3  C   UNL     1      -2.617  21.790  27.509  1.00  0.00    -0.000 C 
BRANCH   3   4
ATOM      4  C   UNL     1      -1.850  20.498  27.187  1.00  0.00    -0.003 C 
ATOM      5  C   UNL     1      -2.731  19.441  26.520  1.00  0.00     0.004 C 
ENDBRANCH   3   4
ENDBRANCH   2   3
ENDBRANCH   1   2
BRANCH   1   6
ATOM      6  C   UNL     1      -2.145  22.210  23.933  1.00  0.00     0.002 C 
BRANCH   6   7
ATOM      7  C   UNL     1      -0.729  22.005  23.380  1.00  0.00     0.028 C 
BRANCH   7   8
ATOM      8  C   UNL     1       0.105  23.289  23.458  1.00  0.00     0.156 C 
BRANCH   8   9
ATOM      9  O   UNL     1       1.331  23.052  24.097  1.00  0.00    -0.396 OA
ATOM     10  H   UNL     1       1.132  22.961  25.066  1.00  0.00     0.210 HD
ENDBRANCH   8   9
ENDBRANCH   7   8
ENDBRANCH   6   7
ENDBRANCH   1   6
TORSDOF 7
ENDMDL
MODEL 9
REMARK VINA RESULT:    -3.386      0.960      1.698
REMARK INTER + INTRA:          -4.941
REMARK INTER:                  -4.676
REMARK INTRA:                  -0.266
REMARK UNBOUND:                -0.269
REMARK SMILES CCCCCCCCO
REMARK SMILES IDX 5 1 4 2 3 3 2 4 1 5 6 6 7 7 8 8 9 9
REMARK H PARENT 9 10
REMARK Flexibility Score: inf
ROOT
ATOM      1  C   UNL     1      -0.486  22.301  23.386  1.00  0.00     0.000 C 
ENDROOT
BRANCH   1   2
ATOM      2  C   UNL     1      -0.043  23.337  24.432  1.00  0.00    -0.000 C 
BRANCH   2   3
ATOM      3  C   UNL     1      -0.026  22.766  25.861  1.00  0.00    -0.000 C 
BRANCH   3   4
ATOM      4  C   UNL     1      -0.887  21.501  25.999  1.00  0.00    -0.003 C 
ATOM      5  C   UNL     1      -1.910  21.604  27.131  1.00  0.00     0.004 C 
ENDBRANCH   3   4
ENDBRANCH   2   3
ENDBRANCH   1   2
BRANCH   1   6
ATOM      6  C   UNL     1      -0.403  22.838  21.950  1.00  0.00     0.002 C 
BRANCH   6   7
ATOM      7  C   UNL     1       0.074  24.296  21.937  1.00  0.00     0.028 C 
BRANCH   7   8
ATOM      8  C   UNL     1       0.953  24.597  20.718  1.00  0.00     0.156 C 
BRANCH   8   9
ATOM      9  O   UNL     1       1.252  23.421  20.013  1.00  0.00    -0.396 OA
ATOM     10  H   UNL     1       0.617  22.729  20.334  1.00  0.00     0.210 HD
ENDBRANCH   8   9
ENDBRANCH   7   8
ENDBRANCH   6   7
ENDBRANCH   1   6
TORSDOF 7
ENDMDL
