MODEL 1
REMARK VINA RESULT:    -3.605      0.000      0.000
REMARK INTER + INTRA:          -8.081
REMARK INTER:                  -6.345
REMARK INTRA:                  -1.736
REMARK UNBOUND:                -1.736
REMARK SMILES CCCCCCC=CCCCCCCCC(=O)[O-]
REMARK SMILES IDX 10 1 11 2 12 3 13 4 14 5 15 6 16 7 17 8 18 9 9 10 8 11 7 12
REMARK SMILES IDX 6 13 5 14 4 15 3 16 2 17 1 18
REMARK H PARENT
REMARK Flexibility Score: inf
ROOT
ATOM      1  C   UNL     1      16.341   3.439  40.595  1.00  0.00     0.004 C 
ENDROOT
BRANCH   1   2
ATOM      2  C   UNL     1      15.998   2.169  39.801  1.00  0.00     0.000 C 
BRANCH   2   3
ATOM      3  C   UNL     1      14.986   2.476  38.688  1.00  0.00     0.000 C 
BRANCH   3   4
ATOM      4  C   UNL     1      14.356   1.205  38.096  1.00  0.00     0.000 C 
BRANCH   4   5
ATOM      5  C   UNL     1      15.330   0.425  37.194  1.00  0.00     0.006 C 
BRANCH   5   6
ATOM      6  C   UNL     1      15.870   1.287  36.046  1.00  0.00     0.053 C 
BRANCH   6   7
ATOM      7  C   UNL     1      15.463   0.749  34.710  1.00  0.00     0.041 C 
ATOM      8  O   UNL     1      14.683  -0.237  34.633  1.00  0.00    -0.550 OA
ATOM      9  O   UNL     1      15.915   1.360  33.547  1.00  0.00    -0.550 OA
ENDBRANCH   6   7
ENDBRANCH   5   6
ENDBRANCH   4   5
ENDBRANCH   3   4
ENDBRANCH   2   3
ENDBRANCH   1   2
BRANCH   1  10
ATOM     10  C   UNL     1      16.970   3.119  41.958  1.00  0.00     0.027 C 
BRANCH  10  11
ATOM     11  C   UNL     1      16.530   1.771  42.477  1.00  0.00    -0.031 C 
ATOM     12  C   UNL     1      17.090   1.130  43.520  1.00  0.00    -0.031 C 
BRANCH  12  13
ATOM     13  C   UNL     1      18.182   1.704  44.390  1.00  0.00     0.027 C 
BRANCH  13  14
ATOM     14  C   UNL     1      19.574   1.151  44.028  1.00  0.00     0.004 C 
BRANCH  14  15
ATOM     15  C   UNL     1      20.367   2.043  43.054  1.00  0.00     0.000 C 
BRANCH  15  16
ATOM     16  C   UNL     1      20.397   1.556  41.592  1.00  0.00    -0.000 C 
BRANCH  16  17
ATOM     17  C   UNL     1      19.942   0.101  41.382  1.00  0.00    -0.003 C 
ATOM     18  C   UNL     1      18.961  -0.056  40.221  1.00  0.00     0.004 C 
ENDBRANCH  16  17
ENDBRANCH  15  16
ENDBRANCH  14  15
ENDBRANCH  13  14
ENDBRANCH  12  13
ENDBRANCH  10  11
ENDBRANCH   1  10
TORSDOF 13
ENDMDL
MODEL 2
REMARK VINA RESULT:    -3.600      1.622      3.494
REMARK INTER + INTRA:          -8.071
REMARK INTER:                  -6.021
REMARK INTRA:                  -2.050
REMARK UNBOUND:                -1.736
REMARK SMILES CCCCCCC=CCCCCCCCC(=O)[O-]
REMARK SMILES IDX 10 1 11 2 12 3 13 4 14 5 15 6 16 7 17 8 18 9 9 10 8 11 7 12
REMARK SMILES IDX 6 13 5 14 4 15 3 16 2 17 1 18
REMARK H PARENT
REMARK Flexibility Score: inf
ROOT
ATOM      1  C   UNL     1      18.863   2.559  40.907  1.00  0.00     0.004 C 
ENDROOT
BRANCH   1   2
ATOM      2  C   UNL     1      17.896   1.841  39.954  1.00  0.00     0.000 C 
BRANCH   2   3
ATOM      3  C   UNL     1      16.437   2.157  40.312  1.00  0.00     0.000 C 
BRANCH   3   4
ATOM      4  C   UNL     1      15.888   3.367  39.540  1.00  0.00     0.000 C 
BRANCH   4   5
ATOM      5  C   UNL     1      14.742   2.991  38.585  1.00  0.00     0.006 C 
BRANCH   5   6
ATOM      6  C   UNL     1      15.242   2.218  37.358  1.00  0.00     0.053 C 
BRANCH   6   7
ATOM      7  C   UNL     1      14.551   0.897  37.215  1.00  0.00     0.041 C 
ATOM      8  O   UNL     1      13.699   0.531  38.066  1.00  0.00    -0.550 OA
ATOM      9  O   UNL     1      14.823   0.086  36.120  1.00  0.00    -0.550 OA
ENDBRANCH   6   7
ENDBRANCH   5   6
ENDBRANCH   4   5
ENDBRANCH   3   4
ENDBRANCH   2   3
ENDBRANCH   1   2
BRANCH   1  10
ATOM     10  C   UNL     1      19.977   1.631  41.412  1.00  0.00     0.027 C 
BRANCH  10  11
ATOM     11  C   UNL     1      20.233   1.814  42.889  1.00  0.00    -0.031 C 
ATOM     12  C   UNL     1      19.545   1.198  43.868  1.00  0.00    -0.031 C 
BRANCH  12  13
ATOM     13  C   UNL     1      18.475   0.159  43.639  1.00  0.00     0.027 C 
BRANCH  13  14
ATOM     14  C   UNL     1      17.057   0.762  43.651  1.00  0.00     0.004 C 
BRANCH  14  15
ATOM     15  C   UNL     1      16.749   1.609  44.901  1.00  0.00     0.000 C 
BRANCH  15  16
ATOM     16  C   UNL     1      16.190   3.018  44.618  1.00  0.00    -0.000 C 
BRANCH  16  17
ATOM     17  C   UNL     1      17.169   3.977  43.917  1.00  0.00    -0.003 C 
ATOM     18  C   UNL     1      16.498   4.841  42.852  1.00  0.00     0.004 C 
ENDBRANCH  16  17
ENDBRANCH  15  16
ENDBRANCH  14  15
ENDBRANCH  13  14
ENDBRANCH  12  13
ENDBRANCH  10  11
ENDBRANCH   1  10
TORSDOF 13
ENDMDL
MODEL 3
REMARK VINA RESULT:    -3.593      1.515      2.848
REMARK INTER + INTRA:          -8.059
REMARK INTER:                  -5.870
REMARK INTRA:                  -2.190
REMARK UNBOUND:                -1.736
REMARK SMILES CCCCCCC=CCCCCCCCC(=O)[O-]
REMARK SMILES IDX 10 1 11 2 12 3 13 4 14 5 15 6 16 7 17 8 18 9 9 10 8 11 7 12
REMARK SMILES IDX 6 13 5 14 4 15 3 16 2 17 1 18
REMARK H PARENT
REMARK Flexibility Score: inf
ROOT
ATOM      1  C   UNL     1      16.131   1.955  40.195  1.00  0.00     0.004 C 
ENDROOT
BRANCH   1   2
ATOM      2  C   UNL     1      15.628   3.251  39.543  1.00  0.00     0.000 C 
BRANCH   2   3
ATOM      3  C   UNL     1      16.447   3.586  38.288  1.00  0.00     0.000 C 
BRANCH   3   4
ATOM      4  C   UNL     1      17.352   2.426  37.846  1.00  0.00     0.000 C 
BRANCH   4   5
ATOM      5  C   UNL     1      17.129   2.026  36.377  1.00  0.00     0.006 C 
BRANCH   5   6
ATOM      6  C   UNL     1      15.640   1.894  36.033  1.00  0.00     0.053 C 
BRANCH   6   7
ATOM      7  C   UNL     1      15.076   0.590  36.502  1.00  0.00     0.041 C 
ATOM      8  O   UNL     1      14.282   0.555  37.479  1.00  0.00    -0.550 OA
ATOM      9  O   UNL     1      15.398  -0.587  35.838  1.00  0.00    -0.550 OA
ENDBRANCH   6   7
ENDBRANCH   5   6
ENDBRANCH   4   5
ENDBRANCH   3   4
ENDBRANCH   2   3
ENDBRANCH   1   2
BRANCH   1  10
ATOM     10  C   UNL     1      16.591   2.174  41.644  1.00  0.00     0.027 C 
BRANCH  10  11
ATOM     11  C   UNL     1      17.413   3.433  41.787  1.00  0.00    -0.031 C 
ATOM     12  C   UNL     1      18.740   3.510  41.581  1.00  0.00    -0.031 C 
BRANCH  12  13
ATOM     13  C   UNL     1      19.596   2.370  41.084  1.00  0.00     0.027 C 
BRANCH  13  14
ATOM     14  C   UNL     1      20.470   1.762  42.198  1.00  0.00     0.004 C 
BRANCH  14  15
ATOM     15  C   UNL     1      19.845   0.531  42.882  1.00  0.00     0.000 C 
BRANCH  15  16
ATOM     16  C   UNL     1      19.143   0.812  44.225  1.00  0.00    -0.000 C 
BRANCH  16  17
ATOM     17  C   UNL     1      19.605   2.092  44.945  1.00  0.00    -0.003 C 
ATOM     18  C   UNL     1      18.443   2.991  45.366  1.00  0.00     0.004 C 
ENDBRANCH  16  17
ENDBRANCH  15  16
ENDBRANCH  14  15
ENDBRANCH  13  14
ENDBRANCH  12  13
ENDBRANCH  10  11
ENDBRANCH   1  10
TORSDOF 13
ENDMDL
MODEL 4
REMARK VINA RESULT:    -3.589      2.027      3.619
REMARK INTER + INTRA:          -8.052
REMARK INTER:                  -6.179
REMARK INTRA:                  -1.873
REMARK UNBOUND:                -1.736
REMARK SMILES CCCCCCC=CCCCCCCCC(=O)[O-]
REMARK SMILES IDX 10 1 11 2 12 3 13 4 14 5 15 6 16 7 17 8 18 9 9 10 8 11 7 12
REMARK SMILES IDX 6 13 5 14 4 15 3 16 2 17 1 18
REMARK H PARENT
REMARK Flexibility Score: inf
ROOT
ATOM      1  C   UNL     1      18.988   2.753  42.264  1.00  0.00     0.004 C 
ENDROOT
BRANCH   1   2
ATOM      2  C   UNL     1      17.533   2.544  42.711  1.00  0.00     0.000 C 
BRANCH   2   3
ATOM      3  C   UNL     1      16.626   2.252  41.506  1.00  0.00     0.000 C 
BRANCH   3   4
ATOM      4  C   UNL     1      17.264   2.671  40.172  1.00  0.00     0.000 C 
BRANCH   4   5
ATOM      5  C   UNL     1      16.313   2.487  38.976  1.00  0.00     0.006 C 
BRANCH   5   6
ATOM      6  C   UNL     1      15.492   1.196  39.084  1.00  0.00     0.053 C 
BRANCH   6   7
ATOM      7  C   UNL     1      14.519   1.062  37.955  1.00  0.00     0.041 C 
ATOM      8  O   UNL     1      14.918   1.119  36.762  1.00  0.00    -0.550 OA
ATOM      9  O   UNL     1      13.173   0.837  38.219  1.00  0.00    -0.550 OA
ENDBRANCH   6   7
ENDBRANCH   5   6
ENDBRANCH   4   5
ENDBRANCH   3   4
ENDBRANCH   2   3
ENDBRANCH   1   2
BRANCH   1  10
ATOM     10  C   UNL     1      19.975   1.916  43.089  1.00  0.00     0.027 C 
BRANCH  10  11
ATOM     11  C   UNL     1      19.325   0.674  43.651  1.00  0.00    -0.031 C 
ATOM     12  C   UNL     1      19.331  -0.532  43.054  1.00  0.00    -0.031 C 
BRANCH  12  13
ATOM     13  C   UNL     1      20.071  -0.851  41.777  1.00  0.00     0.027 C 
BRANCH  13  14
ATOM     14  C   UNL     1      19.265  -0.469  40.521  1.00  0.00     0.004 C 
BRANCH  14  15
ATOM     15  C   UNL     1      20.099   0.234  39.433  1.00  0.00     0.000 C 
BRANCH  15  16
ATOM     16  C   UNL     1      21.439   0.826  39.914  1.00  0.00    -0.000 C 
BRANCH  16  17
ATOM     17  C   UNL     1      22.586   0.755  38.890  1.00  0.00    -0.003 C 
ATOM     18  C   UNL     1      23.734   1.711  39.212  1.00  0.00     0.004 C 
ENDBRANCH  16  17
ENDBRANCH  15  16
ENDBRANCH  14  15
ENDBRANCH  13  14
ENDBRANCH  12  13
ENDBRANCH  10  11
ENDBRANCH   1  10
TORSDOF 13
ENDMDL
MODEL 5
REMARK VINA RESULT:    -3.559      0.925      2.544
REMARK INTER + INTRA:          -8.000
REMARK INTER:                  -6.396
REMARK INTRA:                  -1.604
REMARK UNBOUND:                -1.736
REMARK SMILES CCCCCCC=CCCCCCCCC(=O)[O-]
REMARK SMILES IDX 10 1 11 2 12 3 13 4 14 5 15 6 16 7 17 8 18 9 9 10 8 11 7 12
REMARK SMILES IDX 6 13 5 14 4 15 3 16 2 17 1 18
REMARK H PARENT
REMARK Flexibility Score: inf
ROOT
ATOM      1  C   UNL     1      15.948   2.297  39.992  1.00  0.00     0.004 C 
ENDROOT
BRANCH   1   2
ATOM      2  C   UNL     1      15.485   2.796  38.615  1.00  0.00     0.000 C 
BRANCH   2   3
ATOM      3  C   UNL     1      14.166   2.124  38.204  1.00  0.00     0.000 C 
BRANCH   3   4
ATOM      4  C   UNL     1      14.376   0.716  37.625  1.00  0.00     0.000 C 
BRANCH   4   5
ATOM      5  C   UNL     1      15.520   0.662  36.597  1.00  0.00     0.006 C 
BRANCH   5   6
ATOM      6  C   UNL     1      15.280  -0.403  35.520  1.00  0.00     0.053 C 
BRANCH   6   7
ATOM      7  C   UNL     1      15.078   0.209  34.169  1.00  0.00     0.041 C 
ATOM      8  O   UNL     1      15.848   1.120  33.764  1.00  0.00    -0.550 OA
ATOM      9  O   UNL     1      14.062  -0.250  33.341  1.00  0.00    -0.550 OA
ENDBRANCH   6   7
ENDBRANCH   5   6
ENDBRANCH   4   5
ENDBRANCH   3   4
ENDBRANCH   2   3
ENDBRANCH   1   2
BRANCH   1  10
ATOM     10  C   UNL     1      17.477   2.214  40.096  1.00  0.00     0.027 C 
BRANCH  10  11
ATOM     11  C   UNL     1      18.034   1.074  39.276  1.00  0.00    -0.031 C 
ATOM     12  C   UNL     1      18.919   0.166  39.727  1.00  0.00    -0.031 C 
BRANCH  12  13
ATOM     13  C   UNL     1      19.420   0.091  41.149  1.00  0.00     0.027 C 
BRANCH  13  14
ATOM     14  C   UNL     1      20.611   1.035  41.403  1.00  0.00     0.004 C 
BRANCH  14  15
ATOM     15  C   UNL     1      20.377   2.045  42.542  1.00  0.00     0.000 C 
BRANCH  15  16
ATOM     16  C   UNL     1      19.455   1.555  43.676  1.00  0.00    -0.000 C 
BRANCH  16  17
ATOM     17  C   UNL     1      18.121   2.313  43.803  1.00  0.00    -0.003 C 
ATOM     18  C   UNL     1      16.902   1.406  43.639  1.00  0.00     0.004 C 
ENDBRANCH  16  17
ENDBRANCH  15  16
ENDBRANCH  14  15
ENDBRANCH  13  14
ENDBRANCH  12  13
ENDBRANCH  10  11
ENDBRANCH   1  10
TORSDOF 13
ENDMDL
MODEL 6
REMARK VINA RESULT:    -3.546      2.176      4.229
REMARK INTER + INTRA:          -7.976
REMARK INTER:                  -5.755
REMARK INTRA:                  -2.222
REMARK UNBOUND:                -1.736
REMARK SMILES CCCCCCC=CCCCCCCCC(=O)[O-]
REMARK SMILES IDX 10 1 11 2 12 3 13 4 14 5 15 6 16 7 17 8 18 9 9 10 8 11 7 12
REMARK SMILES IDX 6 13 5 14 4 15 3 16 2 17 1 18
REMARK H PARENT
REMARK Flexibility Score: inf
ROOT
ATOM      1  C   UNL     1      18.632   2.163  43.518  1.00  0.00     0.004 C 
ENDROOT
BRANCH   1   2
ATOM      2  C   UNL     1      17.483   1.150  43.405  1.00  0.00     0.000 C 
BRANCH   2   3
ATOM      3  C   UNL     1      16.469   1.589  42.338  1.00  0.00     0.000 C 
BRANCH   3   4
ATOM      4  C   UNL     1      16.835   2.935  41.693  1.00  0.00     0.000 C 
BRANCH   4   5
ATOM      5  C   UNL     1      16.615   2.942  40.170  1.00  0.00     0.006 C 
BRANCH   5   6
ATOM      6  C   UNL     1      16.611   1.526  39.580  1.00  0.00     0.053 C 
BRANCH   6   7
ATOM      7  C   UNL     1      15.574   1.374  38.511  1.00  0.00     0.041 C 
ATOM      8  O   UNL     1      15.628   0.406  37.708  1.00  0.00    -0.550 OA
ATOM      9  O   UNL     1      14.526   2.282  38.425  1.00  0.00    -0.550 OA
ENDBRANCH   6   7
ENDBRANCH   5   6
ENDBRANCH   4   5
ENDBRANCH   3   4
ENDBRANCH   2   3
ENDBRANCH   1   2
BRANCH   1  10
ATOM     10  C   UNL     1      20.003   1.514  43.284  1.00  0.00     0.027 C 
BRANCH  10  11
ATOM     11  C   UNL     1      20.601   1.928  41.960  1.00  0.00    -0.031 C 
ATOM     12  C   UNL     1      20.518   1.211  40.824  1.00  0.00    -0.031 C 
BRANCH  12  13
ATOM     13  C   UNL     1      19.736  -0.072  40.677  1.00  0.00     0.027 C 
BRANCH  13  14
ATOM     14  C   UNL     1      20.648  -1.312  40.602  1.00  0.00     0.004 C 
BRANCH  14  15
ATOM     15  C   UNL     1      20.238  -2.448  41.558  1.00  0.00     0.000 C 
BRANCH  15  16
ATOM     16  C   UNL     1      19.227  -2.053  42.652  1.00  0.00    -0.000 C 
BRANCH  16  17
ATOM     17  C   UNL     1      19.801  -1.998  44.080  1.00  0.00    -0.003 C 
ATOM     18  C   UNL     1      19.704  -3.335  44.813  1.00  0.00     0.004 C 
ENDBRANCH  16  17
ENDBRANCH  15  16
ENDBRANCH  14  15
ENDBRANCH  13  14
ENDBRANCH  12  13
ENDBRANCH  10  11
ENDBRANCH   1  10
TORSDOF 13
ENDMDL
MODEL 7
REMARK VINA RESULT:    -3.526      5.560      8.168
REMARK INTER + INTRA:          -7.942
REMARK INTER:                  -5.240
REMARK INTRA:                  -2.702
REMARK UNBOUND:                -1.736
REMARK SMILES CCCCCCC=CCCCCCCCC(=O)[O-]
REMARK SMILES IDX 10 1 11 2 12 3 13 4 14 5 15 6 16 7 17 8 18 9 9 10 8 11 7 12
REMARK SMILES IDX 6 13 5 14 4 15 3 16 2 17 1 18
REMARK H PARENT
REMARK Flexibility Score: inf
ROOT
ATOM      1  C   UNL     1      19.086  -5.444  43.410  1.00  0.00     0.004 C 
ENDROOT
BRANCH   1   2
ATOM      2  C   UNL     1      18.535  -4.155  44.039  1.00  0.00     0.000 C 
BRANCH   2   3
ATOM      3  C   UNL     1      19.630  -3.418  44.826  1.00  0.00     0.000 C 
BRANCH   3   4
ATOM      4  C   UNL     1      20.235  -2.245  44.039  1.00  0.00     0.000 C 
BRANCH   4   5
ATOM      5  C   UNL     1      19.190  -1.178  43.669  1.00  0.00     0.006 C 
BRANCH   5   6
ATOM      6  C   UNL     1      19.733  -0.165  42.652  1.00  0.00     0.053 C 
BRANCH   6   7
ATOM      7  C   UNL     1      19.832   1.209  43.236  1.00  0.00     0.041 C 
ATOM      8  O   UNL     1      20.179   2.182  42.516  1.00  0.00    -0.550 OA
ATOM      9  O   UNL     1      19.504   1.423  44.569  1.00  0.00    -0.550 OA
ENDBRANCH   6   7
ENDBRANCH   5   6
ENDBRANCH   4   5
ENDBRANCH   3   4
ENDBRANCH   2   3
ENDBRANCH   1   2
BRANCH   1  10
ATOM     10  C   UNL     1      19.023  -5.414  41.876  1.00  0.00     0.027 C 
BRANCH  10  11
ATOM     11  C   UNL     1      18.371  -4.150  41.366  1.00  0.00    -0.031 C 
ATOM     12  C   UNL     1      18.939  -3.292  40.499  1.00  0.00    -0.031 C 
BRANCH  12  13
ATOM     13  C   UNL     1      20.275  -3.508  39.831  1.00  0.00     0.027 C 
BRANCH  13  14
ATOM     14  C   UNL     1      21.441  -2.911  40.642  1.00  0.00     0.004 C 
BRANCH  14  15
ATOM     15  C   UNL     1      22.530  -3.935  41.016  1.00  0.00     0.000 C 
BRANCH  15  16
ATOM     16  C   UNL     1      22.797  -4.087  42.527  1.00  0.00    -0.000 C 
BRANCH  16  17
ATOM     17  C   UNL     1      22.773  -5.535  43.049  1.00  0.00    -0.003 C 
ATOM     18  C   UNL     1      22.682  -5.618  44.572  1.00  0.00     0.004 C 
ENDBRANCH  16  17
ENDBRANCH  15  16
ENDBRANCH  14  15
ENDBRANCH  13  14
ENDBRANCH  12  13
ENDBRANCH  10  11
ENDBRANCH   1  10
TORSDOF 13
ENDMDL
MODEL 8
REMARK VINA RESULT:    -3.518      6.559      7.953
REMARK INTER + INTRA:          -7.929
REMARK INTER:                  -7.122
REMARK INTRA:                  -0.806
REMARK UNBOUND:                -1.736
REMARK SMILES CCCCCCC=CCCCCCCCC(=O)[O-]
REMARK SMILES IDX 10 1 11 2 12 3 13 4 14 5 15 6 16 7 17 8 18 9 9 10 8 11 7 12
REMARK SMILES IDX 6 13 5 14 4 15 3 16 2 17 1 18
REMARK H PARENT
REMARK Flexibility Score: inf
ROOT
ATOM      1  C   UNL     1      13.215  -0.700  44.163  1.00  0.00     0.004 C 
ENDROOT
BRANCH   1   2
ATOM      2  C   UNL     1      12.309  -0.470  45.383  1.00  0.00     0.000 C 
BRANCH   2   3
ATOM      3  C   UNL     1      10.848  -0.276  44.950  1.00  0.00     0.000 C 
BRANCH   3   4
ATOM      4  C   UNL     1      10.045   0.576  45.946  1.00  0.00     0.000 C 
BRANCH   4   5
ATOM      5  C   UNL     1       8.524   0.441  45.751  1.00  0.00     0.006 C 
BRANCH   5   6
ATOM      6  C   UNL     1       7.874   1.769  45.342  1.00  0.00     0.053 C 
BRANCH   6   7
ATOM      7  C   UNL     1       6.637   1.553  44.528  1.00  0.00     0.041 C 
ATOM      8  O   UNL     1       6.077   0.426  44.511  1.00  0.00    -0.550 OA
ATOM      9  O   UNL     1       6.080   2.608  43.816  1.00  0.00    -0.550 OA
ENDBRANCH   6   7
ENDBRANCH   5   6
ENDBRANCH   4   5
ENDBRANCH   3   4
ENDBRANCH   2   3
ENDBRANCH   1   2
BRANCH   1  10
ATOM     10  C   UNL     1      14.704  -0.682  44.535  1.00  0.00     0.027 C 
BRANCH  10  11
ATOM     11  C   UNL     1      15.088   0.591  45.251  1.00  0.00    -0.031 C 
ATOM     12  C   UNL     1      15.875   1.553  44.735  1.00  0.00    -0.031 C 
BRANCH  12  13
ATOM     13  C   UNL     1      16.417   1.552  43.326  1.00  0.00     0.027 C 
BRANCH  13  14
ATOM     14  C   UNL     1      16.974   2.927  42.909  1.00  0.00     0.004 C 
BRANCH  14  15
ATOM     15  C   UNL     1      18.444   2.893  42.451  1.00  0.00     0.000 C 
BRANCH  15  16
ATOM     16  C   UNL     1      19.422   2.212  43.430  1.00  0.00    -0.000 C 
BRANCH  16  17
ATOM     17  C   UNL     1      20.017   0.882  42.936  1.00  0.00    -0.003 C 
ATOM     18  C   UNL     1      19.575  -0.317  43.773  1.00  0.00     0.004 C 
ENDBRANCH  16  17
ENDBRANCH  15  16
ENDBRANCH  14  15
ENDBRANCH  13  14
ENDBRANCH  12  13
ENDBRANCH  10  11
ENDBRANCH   1  10
TORSDOF 13
ENDMDL
MODEL 9
REMARK VINA RESULT:    -3.472      1.793      3.083
REMARK INTER + INTRA:          -7.847
REMARK INTER:                  -5.680
REMARK INTRA:                  -2.167
REMARK UNBOUND:                -1.736
REMARK SMILES CCCCCCC=CCCCCCCCC(=O)[O-]
REMARK SMILES IDX 10 1 11 2 12 3 13 4 14 5 15 6 16 7 17 8 18 9 9 10 8 11 7 12
REMARK SMILES IDX 6 13 5 14 4 15 3 16 2 17 1 18
REMARK H PARENT
REMARK Flexibility Score: inf
ROOT
ATOM      1  C   UNL     1      16.315   5.374  43.288  1.00  0.00     0.004 C 
ENDROOT
BRANCH   1   2
ATOM      2  C   UNL     1      15.861   4.779  41.946  1.00  0.00     0.000 C 
BRANCH   2   3
ATOM      3  C   UNL     1      16.884   3.760  41.424  1.00  0.00     0.000 C 
BRANCH   3   4
ATOM      4  C   UNL     1      16.249   2.400  41.094  1.00  0.00     0.000 C 
BRANCH   4   5
ATOM      5  C   UNL     1      16.436   2.001  39.620  1.00  0.00     0.006 C 
BRANCH   5   6
ATOM      6  C   UNL     1      15.360   2.612  38.714  1.00  0.00     0.053 C 
BRANCH   6   7
ATOM      7  C   UNL     1      14.939   1.664  37.635  1.00  0.00     0.041 C 
ATOM      8  O   UNL     1      15.213   1.910  36.430  1.00  0.00    -0.550 OA
ATOM      9  O   UNL     1      14.275   0.488  37.962  1.00  0.00    -0.550 OA
ENDBRANCH   6   7
ENDBRANCH   5   6
ENDBRANCH   4   5
ENDBRANCH   3   4
ENDBRANCH   2   3
ENDBRANCH   1   2
BRANCH   1  10
ATOM     10  C   UNL     1      15.980   4.457  44.473  1.00  0.00     0.027 C 
BRANCH  10  11
ATOM     11  C   UNL     1      17.206   3.748  44.998  1.00  0.00    -0.031 C 
ATOM     12  C   UNL     1      17.335   2.412  45.096  1.00  0.00    -0.031 C 
BRANCH  12  13
ATOM     13  C   UNL     1      16.311   1.414  44.611  1.00  0.00     0.027 C 
BRANCH  13  14
ATOM     14  C   UNL     1      16.958   0.178  43.957  1.00  0.00     0.004 C 
BRANCH  14  15
ATOM     15  C   UNL     1      18.478   0.311  43.738  1.00  0.00     0.000 C 
BRANCH  15  16
ATOM     16  C   UNL     1      18.948   0.144  42.279  1.00  0.00    -0.000 C 
BRANCH  16  17
ATOM     17  C   UNL     1      19.795   1.307  41.732  1.00  0.00    -0.003 C 
ATOM     18  C   UNL     1      20.367   2.198  42.834  1.00  0.00     0.004 C 
ENDBRANCH  16  17
ENDBRANCH  15  16
ENDBRANCH  14  15
ENDBRANCH  13  14
ENDBRANCH  12  13
ENDBRANCH  10  11
ENDBRANCH   1  10
TORSDOF 13
ENDMDL
