MODEL 1
REMARK VINA RESULT:    -3.691      0.000      0.000
REMARK INTER + INTRA:          -4.479
REMARK INTER:                  -4.339
REMARK INTRA:                  -0.141
REMARK UNBOUND:                -0.141
REMARK SMILES O=C([O-])CCC(=O)[O-]
REMARK SMILES IDX 4 1 2 2 1 3 3 4 5 5 6 6 7 7 8 8
REMARK H PARENT
REMARK Flexibility Score: inf
ROOT
ATOM      1  C   UNL     1      82.181 186.370 188.827  1.00  0.00     0.059 C 
ENDROOT
BRANCH   1   2
ATOM      2  C   UNL     1      83.187 186.533 189.923  1.00  0.00     0.042 C 
ATOM      3  O   UNL     1      84.364 186.114 189.770  1.00  0.00    -0.550 OA
ATOM      4  O   UNL     1      82.837 187.193 191.095  1.00  0.00    -0.550 OA
ENDBRANCH   1   2
BRANCH   1   5
ATOM      5  C   UNL     1      81.896 184.888 188.580  1.00  0.00     0.059 C 
BRANCH   5   6
ATOM      6  C   UNL     1      81.136 184.303 189.729  1.00  0.00     0.042 C 
ATOM      7  O   UNL     1      81.355 183.117 190.094  1.00  0.00    -0.550 OA
ATOM      8  O   UNL     1      80.152 185.049 190.365  1.00  0.00    -0.550 OA
ENDBRANCH   5   6
ENDBRANCH   1   5
TORSDOF 3
ENDMDL
MODEL 2
REMARK VINA RESULT:    -3.659      1.569      1.809
REMARK INTER + INTRA:          -4.442
REMARK INTER:                  -4.321
REMARK INTRA:                  -0.121
REMARK UNBOUND:                -0.141
REMARK SMILES O=C([O-])CCC(=O)[O-]
REMARK SMILES IDX 4 1 2 2 1 3 3 4 5 5 6 6 7 7 8 8
REMARK H PARENT
REMARK Flexibility Score: inf
ROOT
ATOM      1  C   UNL     1      82.146 186.297 188.862  1.00  0.00     0.059 C 
ENDROOT
BRANCH   1   2
ATOM      2  C   UNL     1      83.166 186.483 189.941  1.00  0.00     0.042 C 
ATOM      3  O   UNL     1      84.345 186.074 189.776  1.00  0.00    -0.550 OA
ATOM      4  O   UNL     1      82.826 187.153 191.110  1.00  0.00    -0.550 OA
ENDBRANCH   1   2
BRANCH   1   5
ATOM      5  C   UNL     1      81.128 185.230 189.266  1.00  0.00     0.059 C 
BRANCH   5   6
ATOM      6  C   UNL     1      79.774 185.841 189.447  1.00  0.00     0.042 C 
ATOM      7  O   UNL     1      79.505 186.486 190.494  1.00  0.00    -0.550 OA
ATOM      8  O   UNL     1      78.793 185.653 188.481  1.00  0.00    -0.550 OA
ENDBRANCH   5   6
ENDBRANCH   1   5
TORSDOF 3
ENDMDL
MODEL 3
REMARK VINA RESULT:    -3.654      0.179      3.372
REMARK INTER + INTRA:          -4.436
REMARK INTER:                  -4.269
REMARK INTRA:                  -0.167
REMARK UNBOUND:                -0.141
REMARK SMILES O=C([O-])CCC(=O)[O-]
REMARK SMILES IDX 4 1 2 2 1 3 3 4 5 5 6 6 7 7 8 8
REMARK H PARENT
REMARK Flexibility Score: inf
ROOT
ATOM      1  C   UNL     1      81.871 184.912 188.480  1.00  0.00     0.059 C 
ENDROOT
BRANCH   1   2
ATOM      2  C   UNL     1      81.231 184.223 189.643  1.00  0.00     0.042 C 
ATOM      3  O   UNL     1      81.681 183.121 190.052  1.00  0.00    -0.550 OA
ATOM      4  O   UNL     1      80.168 184.822 190.307  1.00  0.00    -0.550 OA
ENDBRANCH   1   2
BRANCH   1   5
ATOM      5  C   UNL     1      82.139 186.381 188.810  1.00  0.00     0.059 C 
BRANCH   5   6
ATOM      6  C   UNL     1      83.152 186.495 189.906  1.00  0.00     0.042 C 
ATOM      7  O   UNL     1      82.872 187.118 190.963  1.00  0.00    -0.550 OA
ATOM      8  O   UNL     1      84.422 185.956 189.738  1.00  0.00    -0.550 OA
ENDBRANCH   5   6
ENDBRANCH   1   5
TORSDOF 3
ENDMDL
MODEL 4
REMARK VINA RESULT:    -3.606      1.194      3.531
REMARK INTER + INTRA:          -4.379
REMARK INTER:                  -4.273
REMARK INTRA:                  -0.107
REMARK UNBOUND:                -0.141
REMARK SMILES O=C([O-])CCC(=O)[O-]
REMARK SMILES IDX 4 1 2 2 1 3 3 4 5 5 6 6 7 7 8 8
REMARK H PARENT
REMARK Flexibility Score: inf
ROOT
ATOM      1  C   UNL     1      81.221 184.839 189.748  1.00  0.00     0.059 C 
ENDROOT
BRANCH   1   2
ATOM      2  C   UNL     1      80.052 185.244 190.589  1.00  0.00     0.042 C 
ATOM      3  O   UNL     1      79.537 186.384 190.451  1.00  0.00    -0.550 OA
ATOM      4  O   UNL     1      79.499 184.343 191.491  1.00  0.00    -0.550 OA
ENDBRANCH   1   2
BRANCH   1   5
ATOM      5  C   UNL     1      81.904 186.071 189.154  1.00  0.00     0.059 C 
BRANCH   5   6
ATOM      6  C   UNL     1      83.060 186.491 190.008  1.00  0.00     0.042 C 
ATOM      7  O   UNL     1      84.230 186.134 189.710  1.00  0.00    -0.550 OA
ATOM      8  O   UNL     1      82.839 187.236 191.159  1.00  0.00    -0.550 OA
ENDBRANCH   5   6
ENDBRANCH   1   5
TORSDOF 3
ENDMDL
MODEL 5
REMARK VINA RESULT:    -3.602      0.370      1.656
REMARK INTER + INTRA:          -4.374
REMARK INTER:                  -4.236
REMARK INTRA:                  -0.139
REMARK UNBOUND:                -0.141
REMARK SMILES O=C([O-])CCC(=O)[O-]
REMARK SMILES IDX 4 1 2 2 1 3 3 4 5 5 6 6 7 7 8 8
REMARK H PARENT
REMARK Flexibility Score: inf
ROOT
ATOM      1  C   UNL     1      82.109 186.176 188.851  1.00  0.00     0.059 C 
ENDROOT
BRANCH   1   2
ATOM      2  C   UNL     1      83.135 186.490 189.894  1.00  0.00     0.042 C 
ATOM      3  O   UNL     1      82.810 187.128 190.930  1.00  0.00    -0.550 OA
ATOM      4  O   UNL     1      84.439 186.036 189.746  1.00  0.00    -0.550 OA
ENDBRANCH   1   2
BRANCH   1   5
ATOM      5  C   UNL     1      82.081 184.675 188.564  1.00  0.00     0.059 C 
BRANCH   5   6
ATOM      6  C   UNL     1      81.338 183.950 189.643  1.00  0.00     0.042 C 
ATOM      7  O   UNL     1      80.327 184.476 190.178  1.00  0.00    -0.550 OA
ATOM      8  O   UNL     1      81.793 182.716 190.091  1.00  0.00    -0.550 OA
ENDBRANCH   5   6
ENDBRANCH   1   5
TORSDOF 3
ENDMDL
MODEL 6
REMARK VINA RESULT:    -3.590     11.462     12.634
REMARK INTER + INTRA:          -4.361
REMARK INTER:                  -4.248
REMARK INTRA:                  -0.112
REMARK UNBOUND:                -0.141
REMARK SMILES O=C([O-])CCC(=O)[O-]
REMARK SMILES IDX 4 1 2 2 1 3 3 4 5 5 6 6 7 7 8 8
REMARK H PARENT
REMARK Flexibility Score: inf
ROOT
ATOM      1  C   UNL     1      85.645 175.799 196.821  1.00  0.00     0.059 C 
ENDROOT
BRANCH   1   2
ATOM      2  C   UNL     1      85.134 175.720 198.226  1.00  0.00     0.042 C 
ATOM      3  O   UNL     1      83.978 175.278 198.456  1.00  0.00    -0.550 OA
ATOM      4  O   UNL     1      85.954 176.089 199.285  1.00  0.00    -0.550 OA
ENDBRANCH   1   2
BRANCH   1   5
ATOM      5  C   UNL     1      85.726 177.255 196.364  1.00  0.00     0.059 C 
BRANCH   5   6
ATOM      6  C   UNL     1      87.154 177.684 196.234  1.00  0.00     0.042 C 
ATOM      7  O   UNL     1      87.826 177.349 195.223  1.00  0.00    -0.550 OA
ATOM      8  O   UNL     1      87.757 178.412 197.252  1.00  0.00    -0.550 OA
ENDBRANCH   5   6
ENDBRANCH   1   5
TORSDOF 3
ENDMDL
MODEL 7
REMARK VINA RESULT:    -3.571     11.493     12.703
REMARK INTER + INTRA:          -4.338
REMARK INTER:                  -4.225
REMARK INTRA:                  -0.113
REMARK UNBOUND:                -0.141
REMARK SMILES O=C([O-])CCC(=O)[O-]
REMARK SMILES IDX 4 1 2 2 1 3 3 4 5 5 6 6 7 7 8 8
REMARK H PARENT
REMARK Flexibility Score: inf
ROOT
ATOM      1  C   UNL     1      85.819 175.619 196.761  1.00  0.00     0.059 C 
ENDROOT
BRANCH   1   2
ATOM      2  C   UNL     1      85.181 175.550 198.113  1.00  0.00     0.042 C 
ATOM      3  O   UNL     1      84.067 174.983 198.259  1.00  0.00    -0.550 OA
ATOM      4  O   UNL     1      85.839 176.071 199.220  1.00  0.00    -0.550 OA
ENDBRANCH   1   2
BRANCH   1   5
ATOM      5  C   UNL     1      85.803 177.054 196.234  1.00  0.00     0.059 C 
BRANCH   5   6
ATOM      6  C   UNL     1      87.192 177.609 196.184  1.00  0.00     0.042 C 
ATOM      7  O   UNL     1      87.611 178.349 197.112  1.00  0.00    -0.550 OA
ATOM      8  O   UNL     1      88.005 177.349 195.087  1.00  0.00    -0.550 OA
ENDBRANCH   5   6
ENDBRANCH   1   5
TORSDOF 3
ENDMDL
MODEL 8
REMARK VINA RESULT:    -3.537     11.659     12.481
REMARK INTER + INTRA:          -4.298
REMARK INTER:                  -4.181
REMARK INTRA:                  -0.117
REMARK UNBOUND:                -0.141
REMARK SMILES O=C([O-])CCC(=O)[O-]
REMARK SMILES IDX 4 1 2 2 1 3 3 4 5 5 6 6 7 7 8 8
REMARK H PARENT
REMARK Flexibility Score: inf
ROOT
ATOM      1  C   UNL     1      85.687 176.856 196.387  1.00  0.00     0.059 C 
ENDROOT
BRANCH   1   2
ATOM      2  C   UNL     1      87.071 177.410 196.254  1.00  0.00     0.042 C 
ATOM      3  O   UNL     1      87.758 177.160 195.230  1.00  0.00    -0.550 OA
ATOM      4  O   UNL     1      87.583 178.244 197.240  1.00  0.00    -0.550 OA
ENDBRANCH   1   2
BRANCH   1   5
ATOM      5  C   UNL     1      85.727 175.464 197.016  1.00  0.00     0.059 C 
BRANCH   5   6
ATOM      6  C   UNL     1      85.178 175.503 198.408  1.00  0.00     0.042 C 
ATOM      7  O   UNL     1      85.848 176.024 199.338  1.00  0.00    -0.550 OA
ATOM      8  O   UNL     1      83.949 174.918 198.687  1.00  0.00    -0.550 OA
ENDBRANCH   5   6
ENDBRANCH   1   5
TORSDOF 3
ENDMDL
MODEL 9
REMARK VINA RESULT:    -3.385     13.518     14.743
REMARK INTER + INTRA:          -4.120
REMARK INTER:                  -3.949
REMARK INTRA:                  -0.171
REMARK UNBOUND:                -0.141
REMARK SMILES O=C([O-])CCC(=O)[O-]
REMARK SMILES IDX 4 1 2 2 1 3 3 4 5 5 6 6 7 7 8 8
REMARK H PARENT
REMARK Flexibility Score: inf
ROOT
ATOM      1  C   UNL     1      84.470 174.322 199.504  1.00  0.00     0.059 C 
ENDROOT
BRANCH   1   2
ATOM      2  C   UNL     1      85.777 174.036 200.174  1.00  0.00     0.042 C 
ATOM      3  O   UNL     1      86.198 174.790 201.089  1.00  0.00    -0.550 OA
ATOM      4  O   UNL     1      86.507 172.908 199.820  1.00  0.00    -0.550 OA
ENDBRANCH   1   2
BRANCH   1   5
ATOM      5  C   UNL     1      84.528 175.662 198.770  1.00  0.00     0.059 C 
BRANCH   5   6
ATOM      6  C   UNL     1      85.464 175.581 197.605  1.00  0.00     0.042 C 
ATOM      7  O   UNL     1      86.288 176.509 197.390  1.00  0.00    -0.550 OA
ATOM      8  O   UNL     1      85.392 174.506 196.728  1.00  0.00    -0.550 OA
ENDBRANCH   5   6
ENDBRANCH   1   5
TORSDOF 3
ENDMDL
