MODEL 1
REMARK VINA RESULT:    -6.187      0.000      0.000
REMARK INTER + INTRA:          -7.408
REMARK INTER:                  -7.091
REMARK INTRA:                  -0.317
REMARK UNBOUND:                -0.317
REMARK SMILES O=C1C[C@@H](c2ccc(O)cc2)Oc2cc(O)cc(O)c21
REMARK SMILES IDX 3 1 4 2 12 3 13 4 14 5 15 6 17 7 18 8 20 9 2 10 1 11 5 12
REMARK SMILES IDX 6 13 11 14 7 15 10 16 8 17 9 18 19 20 16 22
REMARK H PARENT 9 19 19 21 16 23
REMARK Flexibility Score: inf
ROOT
ATOM      1  C   UNL     1     -35.030   1.734  17.206  1.00  0.00     0.131 C 
ATOM      2  C   UNL     1     -34.000   2.454  16.321  1.00  0.00     0.211 C 
ATOM      3  O   UNL     1     -34.286   3.853  16.259  1.00  0.00    -0.484 OA
ATOM      4  C   UNL     1     -34.675   4.586  17.388  1.00  0.00     0.138 A 
ATOM      5  C   UNL     1     -34.656   5.981  17.342  1.00  0.00     0.093 A 
ATOM      6  C   UNL     1     -35.040   6.730  18.461  1.00  0.00     0.123 A 
ATOM      7  C   UNL     1     -35.425   6.077  19.635  1.00  0.00     0.093 A 
ATOM      8  C   UNL     1     -35.453   4.676  19.696  1.00  0.00     0.133 A 
ATOM      9  C   UNL     1     -35.085   3.921  18.562  1.00  0.00     0.102 A 
ATOM     10  C   UNL     1     -35.152   2.441  18.526  1.00  0.00     0.174 C 
ATOM     11  O   UNL     1     -35.354   1.771  19.575  1.00  0.00    -0.294 OA
ENDROOT
BRANCH   2  12
ATOM     12  C   UNL     1     -33.986   1.866  14.932  1.00  0.00    -0.007 A 
ATOM     13  C   UNL     1     -33.704   2.676  13.819  1.00  0.00     0.011 A 
ATOM     14  C   UNL     1     -34.297   0.511  14.730  1.00  0.00     0.011 A 
ATOM     15  C   UNL     1     -33.714   2.134  12.532  1.00  0.00     0.046 A 
ATOM     16  C   UNL     1     -34.302  -0.029  13.441  1.00  0.00     0.046 A 
ATOM     17  C   UNL     1     -34.014   0.779  12.339  1.00  0.00     0.115 A 
BRANCH  17  18
ATOM     18  O   UNL     1     -34.023   0.230  11.058  1.00  0.00    -0.508 OA
ATOM     19  H   UNL     1     -34.881  -0.116  10.644  1.00  0.00     0.293 HD
ENDBRANCH  17  18
ENDBRANCH   2  12
BRANCH   8  20
ATOM     20  O   UNL     1     -35.870   4.045  20.864  1.00  0.00    -0.507 OA
ATOM     21  H   UNL     1     -35.224   3.527  21.451  1.00  0.00     0.293 HD
ENDBRANCH   8  20
BRANCH   6  22
ATOM     22  O   UNL     1     -35.041   8.121  18.418  1.00  0.00    -0.508 OA
ATOM     23  H   UNL     1     -35.853   8.642  18.108  1.00  0.00     0.293 HD
ENDBRANCH   6  22
TORSDOF 4
ENDMDL
MODEL 2
REMARK VINA RESULT:    -6.100      1.826      2.942
REMARK INTER + INTRA:          -7.308
REMARK INTER:                  -7.004
REMARK INTRA:                  -0.304
REMARK UNBOUND:                -0.317
REMARK SMILES O=C1C[C@@H](c2ccc(O)cc2)Oc2cc(O)cc(O)c21
REMARK SMILES IDX 3 1 4 2 12 3 13 4 14 5 15 6 17 7 18 8 20 9 2 10 1 11 5 12
REMARK SMILES IDX 6 13 11 14 7 15 10 16 8 17 9 18 19 20 16 22
REMARK H PARENT 9 19 19 21 16 23
REMARK Flexibility Score: inf
ROOT
ATOM      1  C   UNL     1     -32.137   3.655  15.543  1.00  0.00     0.131 C 
ATOM      2  C   UNL     1     -33.608   3.610  15.099  1.00  0.00     0.211 C 
ATOM      3  O   UNL     1     -34.474   3.654  16.235  1.00  0.00    -0.484 OA
ATOM      4  C   UNL     1     -34.236   4.504  17.322  1.00  0.00     0.138 A 
ATOM      5  C   UNL     1     -35.249   4.724  18.257  1.00  0.00     0.093 A 
ATOM      6  C   UNL     1     -35.029   5.572  19.350  1.00  0.00     0.123 A 
ATOM      7  C   UNL     1     -33.797   6.215  19.493  1.00  0.00     0.093 A 
ATOM      8  C   UNL     1     -32.768   6.000  18.565  1.00  0.00     0.133 A 
ATOM      9  C   UNL     1     -32.982   5.131  17.475  1.00  0.00     0.102 A 
ATOM     10  C   UNL     1     -31.925   4.801  16.490  1.00  0.00     0.174 C 
ATOM     11  O   UNL     1     -30.836   5.437  16.464  1.00  0.00    -0.294 OA
ENDROOT
BRANCH   2  12
ATOM     12  C   UNL     1     -33.882   2.370  14.285  1.00  0.00    -0.007 A 
ATOM     13  C   UNL     1     -34.367   1.205  14.904  1.00  0.00     0.011 A 
ATOM     14  C   UNL     1     -33.616   2.351  12.906  1.00  0.00     0.011 A 
ATOM     15  C   UNL     1     -34.599   0.051  14.152  1.00  0.00     0.046 A 
ATOM     16  C   UNL     1     -33.853   1.196  12.156  1.00  0.00     0.046 A 
ATOM     17  C   UNL     1     -34.341   0.043  12.775  1.00  0.00     0.115 A 
BRANCH  17  18
ATOM     18  O   UNL     1     -34.572  -1.104  12.017  1.00  0.00    -0.508 OA
ATOM     19  H   UNL     1     -33.897  -1.859  11.993  1.00  0.00     0.293 HD
ENDBRANCH  17  18
ENDBRANCH   2  12
BRANCH   8  20
ATOM     20  O   UNL     1     -31.537   6.624  18.744  1.00  0.00    -0.507 OA
ATOM     21  H   UNL     1     -30.933   6.399  19.529  1.00  0.00     0.293 HD
ENDBRANCH   8  20
BRANCH   6  22
ATOM     22  O   UNL     1     -36.028   5.783  20.296  1.00  0.00    -0.508 OA
ATOM     23  H   UNL     1     -36.030   5.294  21.184  1.00  0.00     0.293 HD
ENDBRANCH   6  22
TORSDOF 4
ENDMDL
MODEL 3
REMARK VINA RESULT:    -6.059      1.920      7.340
REMARK INTER + INTRA:          -7.261
REMARK INTER:                  -6.954
REMARK INTRA:                  -0.307
REMARK UNBOUND:                -0.317
REMARK SMILES O=C1C[C@@H](c2ccc(O)cc2)Oc2cc(O)cc(O)c21
REMARK SMILES IDX 3 1 4 2 12 3 13 4 14 5 15 6 17 7 18 8 20 9 2 10 1 11 5 12
REMARK SMILES IDX 6 13 11 14 7 15 10 16 8 17 9 18 19 20 16 22
REMARK H PARENT 9 19 19 21 16 23
REMARK Flexibility Score: inf
ROOT
ATOM      1  C   UNL     1     -33.522   3.303  14.131  1.00  0.00     0.131 C 
ATOM      2  C   UNL     1     -33.147   2.628  15.460  1.00  0.00     0.211 C 
ATOM      3  O   UNL     1     -33.943   1.459  15.668  1.00  0.00    -0.484 OA
ATOM      4  C   UNL     1     -34.228   0.557  14.635  1.00  0.00     0.138 A 
ATOM      5  C   UNL     1     -34.750  -0.700  14.945  1.00  0.00     0.093 A 
ATOM      6  C   UNL     1     -35.040  -1.615  13.926  1.00  0.00     0.123 A 
ATOM      7  C   UNL     1     -34.788  -1.274  12.594  1.00  0.00     0.093 A 
ATOM      8  C   UNL     1     -34.268  -0.013  12.267  1.00  0.00     0.133 A 
ATOM      9  C   UNL     1     -33.994   0.916  13.292  1.00  0.00     0.102 A 
ATOM     10  C   UNL     1     -33.508   2.289  13.023  1.00  0.00     0.174 C 
ATOM     11  O   UNL     1     -33.124   2.632  11.871  1.00  0.00    -0.294 OA
ENDROOT
BRANCH   2  12
ATOM     12  C   UNL     1     -33.321   3.585  16.613  1.00  0.00    -0.007 A 
ATOM     13  C   UNL     1     -33.332   3.112  17.937  1.00  0.00     0.011 A 
ATOM     14  C   UNL     1     -33.518   4.955  16.376  1.00  0.00     0.011 A 
ATOM     15  C   UNL     1     -33.516   3.998  19.001  1.00  0.00     0.046 A 
ATOM     16  C   UNL     1     -33.698   5.839  17.443  1.00  0.00     0.046 A 
ATOM     17  C   UNL     1     -33.701   5.364  18.756  1.00  0.00     0.115 A 
BRANCH  17  18
ATOM     18  O   UNL     1     -33.883   6.255  19.813  1.00  0.00    -0.508 OA
ATOM     19  H   UNL     1     -33.104   6.776  20.199  1.00  0.00     0.293 HD
ENDBRANCH  17  18
ENDBRANCH   2  12
BRANCH   8  20
ATOM     20  O   UNL     1     -34.055   0.319  10.932  1.00  0.00    -0.507 OA
ATOM     21  H   UNL     1     -34.536   1.097  10.492  1.00  0.00     0.293 HD
ENDBRANCH   8  20
BRANCH   6  22
ATOM     22  O   UNL     1     -35.578  -2.864  14.224  1.00  0.00    -0.508 OA
ATOM     23  H   UNL     1     -35.122  -3.496  14.872  1.00  0.00     0.293 HD
ENDBRANCH   6  22
TORSDOF 4
ENDMDL
MODEL 4
REMARK VINA RESULT:    -5.993      2.608      3.811
REMARK INTER + INTRA:          -7.186
REMARK INTER:                  -6.866
REMARK INTRA:                  -0.319
REMARK UNBOUND:                -0.317
REMARK SMILES O=C1C[C@@H](c2ccc(O)cc2)Oc2cc(O)cc(O)c21
REMARK SMILES IDX 3 1 4 2 12 3 13 4 14 5 15 6 17 7 18 8 20 9 2 10 1 11 5 12
REMARK SMILES IDX 6 13 11 14 7 15 10 16 8 17 9 18 19 20 16 22
REMARK H PARENT 9 19 19 21 16 23
REMARK Flexibility Score: inf
ROOT
ATOM      1  C   UNL     1     -31.731   3.984  14.733  1.00  0.00     0.131 C 
ATOM      2  C   UNL     1     -33.195   3.620  15.030  1.00  0.00     0.211 C 
ATOM      3  O   UNL     1     -33.369   3.347  16.422  1.00  0.00    -0.484 OA
ATOM      4  C   UNL     1     -32.766   4.128  17.417  1.00  0.00     0.138 A 
ATOM      5  C   UNL     1     -33.195   4.006  18.740  1.00  0.00     0.093 A 
ATOM      6  C   UNL     1     -32.605   4.779  19.746  1.00  0.00     0.123 A 
ATOM      7  C   UNL     1     -31.595   5.690  19.422  1.00  0.00     0.093 A 
ATOM      8  C   UNL     1     -31.151   5.819  18.099  1.00  0.00     0.133 A 
ATOM      9  C   UNL     1     -31.731   5.027  17.086  1.00  0.00     0.102 A 
ATOM     10  C   UNL     1     -31.271   5.057  15.679  1.00  0.00     0.174 C 
ATOM     11  O   UNL     1     -30.467   5.941  15.274  1.00  0.00    -0.294 OA
ENDROOT
BRANCH   2  12
ATOM     12  C   UNL     1     -33.625   2.429  14.210  1.00  0.00    -0.007 A 
ATOM     13  C   UNL     1     -34.209   1.311  14.830  1.00  0.00     0.011 A 
ATOM     14  C   UNL     1     -33.409   2.405  12.823  1.00  0.00     0.011 A 
ATOM     15  C   UNL     1     -34.586   0.201  14.071  1.00  0.00     0.046 A 
ATOM     16  C   UNL     1     -33.790   1.294  12.066  1.00  0.00     0.046 A 
ATOM     17  C   UNL     1     -34.376   0.189  12.687  1.00  0.00     0.115 A 
BRANCH  17  18
ATOM     18  O   UNL     1     -34.752  -0.914  11.922  1.00  0.00    -0.508 OA
ATOM     19  H   UNL     1     -35.708  -1.251  11.923  1.00  0.00     0.293 HD
ENDBRANCH  17  18
ENDBRANCH   2  12
BRANCH   8  20
ATOM     20  O   UNL     1     -30.121   6.708  17.802  1.00  0.00    -0.507 OA
ATOM     21  H   UNL     1     -29.566   6.618  16.956  1.00  0.00     0.293 HD
ENDBRANCH   8  20
BRANCH   6  22
ATOM     22  O   UNL     1     -33.015   4.652  21.071  1.00  0.00    -0.508 OA
ATOM     23  H   UNL     1     -33.807   4.076  21.328  1.00  0.00     0.293 HD
ENDBRANCH   6  22
TORSDOF 4
ENDMDL
MODEL 5
REMARK VINA RESULT:    -5.986     15.816     16.850
REMARK INTER + INTRA:          -7.177
REMARK INTER:                  -6.894
REMARK INTRA:                  -0.283
REMARK UNBOUND:                -0.317
REMARK SMILES O=C1C[C@@H](c2ccc(O)cc2)Oc2cc(O)cc(O)c21
REMARK SMILES IDX 3 1 4 2 12 3 13 4 14 5 15 6 17 7 18 8 20 9 2 10 1 11 5 12
REMARK SMILES IDX 6 13 11 14 7 15 10 16 8 17 9 18 19 20 16 22
REMARK H PARENT 9 19 19 21 16 23
REMARK Flexibility Score: inf
ROOT
ATOM      1  C   UNL     1     -27.908   1.896   1.382  1.00  0.00     0.131 C 
ATOM      2  C   UNL     1     -27.408   1.270   2.694  1.00  0.00     0.211 C 
ATOM      3  O   UNL     1     -26.098   1.748   3.008  1.00  0.00    -0.484 OA
ATOM      4  C   UNL     1     -25.735   3.091   2.847  1.00  0.00     0.138 A 
ATOM      5  C   UNL     1     -24.559   3.560   3.435  1.00  0.00     0.093 A 
ATOM      6  C   UNL     1     -24.181   4.900   3.285  1.00  0.00     0.123 A 
ATOM      7  C   UNL     1     -24.995   5.775   2.560  1.00  0.00     0.093 A 
ATOM      8  C   UNL     1     -26.176   5.317   1.960  1.00  0.00     0.133 A 
ATOM      9  C   UNL     1     -26.548   3.963   2.094  1.00  0.00     0.102 A 
ATOM     10  C   UNL     1     -27.744   3.389   1.435  1.00  0.00     0.174 C 
ATOM     11  O   UNL     1     -28.603   4.129   0.881  1.00  0.00    -0.294 OA
ENDROOT
BRANCH   2  12
ATOM     12  C   UNL     1     -27.402  -0.235   2.599  1.00  0.00    -0.007 A 
ATOM     13  C   UNL     1     -27.941  -1.017   3.635  1.00  0.00     0.011 A 
ATOM     14  C   UNL     1     -26.818  -0.875   1.493  1.00  0.00     0.011 A 
ATOM     15  C   UNL     1     -27.913  -2.411   3.554  1.00  0.00     0.046 A 
ATOM     16  C   UNL     1     -26.795  -2.270   1.413  1.00  0.00     0.046 A 
ATOM     17  C   UNL     1     -27.339  -3.042   2.443  1.00  0.00     0.115 A 
BRANCH  17  18
ATOM     18  O   UNL     1     -27.309  -4.432   2.354  1.00  0.00    -0.508 OA
ATOM     19  H   UNL     1     -28.127  -4.989   2.575  1.00  0.00     0.293 HD
ENDBRANCH  17  18
ENDBRANCH   2  12
BRANCH   8  20
ATOM     20  O   UNL     1     -26.956   6.197   1.214  1.00  0.00    -0.507 OA
ATOM     21  H   UNL     1     -27.826   6.576   1.575  1.00  0.00     0.293 HD
ENDBRANCH   8  20
BRANCH   6  22
ATOM     22  O   UNL     1     -23.001   5.372   3.853  1.00  0.00    -0.508 OA
ATOM     23  H   UNL     1     -22.120   5.337   3.354  1.00  0.00     0.293 HD
ENDBRANCH   6  22
TORSDOF 4
ENDMDL
MODEL 6
REMARK VINA RESULT:    -5.970      3.085      6.631
REMARK INTER + INTRA:          -7.159
REMARK INTER:                  -6.847
REMARK INTRA:                  -0.312
REMARK UNBOUND:                -0.317
REMARK SMILES O=C1C[C@@H](c2ccc(O)cc2)Oc2cc(O)cc(O)c21
REMARK SMILES IDX 3 1 4 2 12 3 13 4 14 5 15 6 17 7 18 8 20 9 2 10 1 11 5 12
REMARK SMILES IDX 6 13 11 14 7 15 10 16 8 17 9 18 19 20 16 22
REMARK H PARENT 9 19 19 21 16 23
REMARK Flexibility Score: inf
ROOT
ATOM      1  C   UNL     1     -32.686   1.548  16.694  1.00  0.00     0.131 C 
ATOM      2  C   UNL     1     -33.075   2.859  15.992  1.00  0.00     0.211 C 
ATOM      3  O   UNL     1     -33.094   2.679  14.574  1.00  0.00    -0.484 OA
ATOM      4  C   UNL     1     -33.633   1.534  13.974  1.00  0.00     0.138 A 
ATOM      5  C   UNL     1     -33.894   1.535  12.603  1.00  0.00     0.093 A 
ATOM      6  C   UNL     1     -34.433   0.399  11.987  1.00  0.00     0.123 A 
ATOM      7  C   UNL     1     -34.728  -0.733  12.751  1.00  0.00     0.093 A 
ATOM      8  C   UNL     1     -34.467  -0.750  14.129  1.00  0.00     0.133 A 
ATOM      9  C   UNL     1     -33.906   0.387  14.748  1.00  0.00     0.102 A 
ATOM     10  C   UNL     1     -33.540   0.422  16.183  1.00  0.00     0.174 C 
ATOM     11  O   UNL     1     -33.895  -0.497  16.970  1.00  0.00    -0.294 OA
ENDROOT
BRANCH   2  12
ATOM     12  C   UNL     1     -32.120   3.966  16.361  1.00  0.00    -0.007 A 
ATOM     13  C   UNL     1     -31.267   4.524  15.393  1.00  0.00     0.011 A 
ATOM     14  C   UNL     1     -32.040   4.423  17.687  1.00  0.00     0.011 A 
ATOM     15  C   UNL     1     -30.368   5.534  15.743  1.00  0.00     0.046 A 
ATOM     16  C   UNL     1     -31.141   5.436  18.033  1.00  0.00     0.046 A 
ATOM     17  C   UNL     1     -30.302   5.992  17.065  1.00  0.00     0.115 A 
BRANCH  17  18
ATOM     18  O   UNL     1     -29.408   7.001  17.422  1.00  0.00    -0.508 OA
ATOM     19  H   UNL     1     -29.547   7.549  18.262  1.00  0.00     0.293 HD
ENDBRANCH  17  18
ENDBRANCH   2  12
BRANCH   8  20
ATOM     20  O   UNL     1     -34.738  -1.899  14.867  1.00  0.00    -0.507 OA
ATOM     21  H   UNL     1     -34.596  -1.934  15.872  1.00  0.00     0.293 HD
ENDBRANCH   8  20
BRANCH   6  22
ATOM     22  O   UNL     1     -34.681   0.385  10.616  1.00  0.00    -0.508 OA
ATOM     23  H   UNL     1     -35.622   0.448  10.247  1.00  0.00     0.293 HD
ENDBRANCH   6  22
TORSDOF 4
ENDMDL
MODEL 7
REMARK VINA RESULT:    -5.962      4.498      6.750
REMARK INTER + INTRA:          -7.150
REMARK INTER:                  -6.835
REMARK INTRA:                  -0.315
REMARK UNBOUND:                -0.317
REMARK SMILES O=C1C[C@@H](c2ccc(O)cc2)Oc2cc(O)cc(O)c21
REMARK SMILES IDX 3 1 4 2 12 3 13 4 14 5 15 6 17 7 18 8 20 9 2 10 1 11 5 12
REMARK SMILES IDX 6 13 11 14 7 15 10 16 8 17 9 18 19 20 16 22
REMARK H PARENT 9 19 19 21 16 23
REMARK Flexibility Score: inf
ROOT
ATOM      1  C   UNL     1     -31.917   1.282  18.205  1.00  0.00     0.131 C 
ATOM      2  C   UNL     1     -31.319   0.146  17.359  1.00  0.00     0.211 C 
ATOM      3  O   UNL     1     -32.352  -0.552  16.659  1.00  0.00    -0.484 OA
ATOM      4  C   UNL     1     -33.417   0.115  16.041  1.00  0.00     0.138 A 
ATOM      5  C   UNL     1     -34.225  -0.574  15.135  1.00  0.00     0.093 A 
ATOM      6  C   UNL     1     -35.293   0.077  14.506  1.00  0.00     0.123 A 
ATOM      7  C   UNL     1     -35.539   1.427  14.773  1.00  0.00     0.093 A 
ATOM      8  C   UNL     1     -34.739   2.130  15.684  1.00  0.00     0.133 A 
ATOM      9  C   UNL     1     -33.674   1.470  16.333  1.00  0.00     0.102 A 
ATOM     10  C   UNL     1     -32.827   2.125  17.356  1.00  0.00     0.174 C 
ATOM     11  O   UNL     1     -32.888   3.369  17.556  1.00  0.00    -0.294 OA
ENDROOT
BRANCH   2  12
ATOM     12  C   UNL     1     -30.541  -0.812  18.226  1.00  0.00    -0.007 A 
ATOM     13  C   UNL     1     -30.405  -2.160  17.853  1.00  0.00     0.011 A 
ATOM     14  C   UNL     1     -29.978  -0.378  19.438  1.00  0.00     0.011 A 
ATOM     15  C   UNL     1     -29.703  -3.050  18.669  1.00  0.00     0.046 A 
ATOM     16  C   UNL     1     -29.273  -1.270  20.250  1.00  0.00     0.046 A 
ATOM     17  C   UNL     1     -29.136  -2.607  19.871  1.00  0.00     0.115 A 
BRANCH  17  18
ATOM     18  O   UNL     1     -28.432  -3.489  20.690  1.00  0.00    -0.508 OA
ATOM     19  H   UNL     1     -28.911  -4.208  21.219  1.00  0.00     0.293 HD
ENDBRANCH  17  18
ENDBRANCH   2  12
BRANCH   8  20
ATOM     20  O   UNL     1     -35.020   3.465  15.961  1.00  0.00    -0.507 OA
ATOM     21  H   UNL     1     -35.948   3.854  15.825  1.00  0.00     0.293 HD
ENDBRANCH   8  20
BRANCH   6  22
ATOM     22  O   UNL     1     -36.116  -0.607  13.614  1.00  0.00    -0.508 OA
ATOM     23  H   UNL     1     -37.049  -0.279  13.395  1.00  0.00     0.293 HD
ENDBRANCH   6  22
TORSDOF 4
ENDMDL
MODEL 8
REMARK VINA RESULT:    -5.856      4.054      5.510
REMARK INTER + INTRA:          -7.029
REMARK INTER:                  -6.746
REMARK INTRA:                  -0.283
REMARK UNBOUND:                -0.317
REMARK SMILES O=C1C[C@@H](c2ccc(O)cc2)Oc2cc(O)cc(O)c21
REMARK SMILES IDX 3 1 4 2 12 3 13 4 14 5 15 6 17 7 18 8 20 9 2 10 1 11 5 12
REMARK SMILES IDX 6 13 11 14 7 15 10 16 8 17 9 18 19 20 16 22
REMARK H PARENT 9 19 19 21 16 23
REMARK Flexibility Score: inf
ROOT
ATOM      1  C   UNL     1     -33.163  -0.130  16.262  1.00  0.00     0.131 C 
ATOM      2  C   UNL     1     -32.812   0.155  17.731  1.00  0.00     0.211 C 
ATOM      3  O   UNL     1     -32.274   1.472  17.870  1.00  0.00    -0.484 OA
ATOM      4  C   UNL     1     -32.812   2.573  17.191  1.00  0.00     0.138 A 
ATOM      5  C   UNL     1     -32.447   3.864  17.579  1.00  0.00     0.093 A 
ATOM      6  C   UNL     1     -32.976   4.976  16.913  1.00  0.00     0.123 A 
ATOM      7  C   UNL     1     -33.886   4.793  15.869  1.00  0.00     0.093 A 
ATOM      8  C   UNL     1     -34.258   3.503  15.466  1.00  0.00     0.133 A 
ATOM      9  C   UNL     1     -33.712   2.381  16.123  1.00  0.00     0.102 A 
ATOM     10  C   UNL     1     -34.003   0.988  15.712  1.00  0.00     0.174 C 
ATOM     11  O   UNL     1     -34.913   0.730  14.877  1.00  0.00    -0.294 OA
ENDROOT
BRANCH   2  12
ATOM     12  C   UNL     1     -31.830  -0.864  18.253  1.00  0.00    -0.007 A 
ATOM     13  C   UNL     1     -31.675  -1.061  19.636  1.00  0.00     0.011 A 
ATOM     14  C   UNL     1     -31.027  -1.598  17.364  1.00  0.00     0.011 A 
ATOM     15  C   UNL     1     -30.749  -1.989  20.116  1.00  0.00     0.046 A 
ATOM     16  C   UNL     1     -30.104  -2.528  17.848  1.00  0.00     0.046 A 
ATOM     17  C   UNL     1     -29.959  -2.725  19.223  1.00  0.00     0.115 A 
BRANCH  17  18
ATOM     18  O   UNL     1     -29.034  -3.654  19.695  1.00  0.00    -0.508 OA
ATOM     19  H   UNL     1     -28.182  -3.851  19.183  1.00  0.00     0.293 HD
ENDBRANCH  17  18
ENDBRANCH   2  12
BRANCH   8  20
ATOM     20  O   UNL     1     -35.142   3.342  14.402  1.00  0.00    -0.507 OA
ATOM     21  H   UNL     1     -35.838   4.045  14.174  1.00  0.00     0.293 HD
ENDBRANCH   8  20
BRANCH   6  22
ATOM     22  O   UNL     1     -32.604   6.267  17.282  1.00  0.00    -0.508 OA
ATOM     23  H   UNL     1     -33.028   7.083  16.856  1.00  0.00     0.293 HD
ENDBRANCH   6  22
TORSDOF 4
ENDMDL
MODEL 9
REMARK VINA RESULT:    -5.836      3.473      6.448
REMARK INTER + INTRA:          -7.005
REMARK INTER:                  -6.689
REMARK INTRA:                  -0.316
REMARK UNBOUND:                -0.317
REMARK SMILES O=C1C[C@@H](c2ccc(O)cc2)Oc2cc(O)cc(O)c21
REMARK SMILES IDX 3 1 4 2 12 3 13 4 14 5 15 6 17 7 18 8 20 9 2 10 1 11 5 12
REMARK SMILES IDX 6 13 11 14 7 15 10 16 8 17 9 18 19 20 16 22
REMARK H PARENT 9 19 19 21 16 23
REMARK Flexibility Score: inf
ROOT
ATOM      1  C   UNL     1     -32.983   3.836  16.995  1.00  0.00     0.131 C 
ATOM      2  C   UNL     1     -32.483   4.694  15.821  1.00  0.00     0.211 C 
ATOM      3  O   UNL     1     -32.304   3.887  14.655  1.00  0.00    -0.484 OA
ATOM      4  C   UNL     1     -33.223   2.898  14.283  1.00  0.00     0.138 A 
ATOM      5  C   UNL     1     -33.160   2.348  13.001  1.00  0.00     0.093 A 
ATOM      6  C   UNL     1     -34.071   1.360  12.612  1.00  0.00     0.123 A 
ATOM      7  C   UNL     1     -35.060   0.935  13.504  1.00  0.00     0.093 A 
ATOM      8  C   UNL     1     -35.133   1.474  14.796  1.00  0.00     0.133 A 
ATOM      9  C   UNL     1     -34.203   2.457  15.196  1.00  0.00     0.102 A 
ATOM     10  C   UNL     1     -34.172   3.025  16.564  1.00  0.00     0.174 C 
ATOM     11  O   UNL     1     -35.105   2.804  17.384  1.00  0.00    -0.294 OA
ENDROOT
BRANCH   2  12
ATOM     12  C   UNL     1     -31.191   5.385  16.177  1.00  0.00    -0.007 A 
ATOM     13  C   UNL     1     -30.225   5.644  15.189  1.00  0.00     0.011 A 
ATOM     14  C   UNL     1     -30.917   5.739  17.509  1.00  0.00     0.011 A 
ATOM     15  C   UNL     1     -29.020   6.263  15.527  1.00  0.00     0.046 A 
ATOM     16  C   UNL     1     -29.712   6.362  17.842  1.00  0.00     0.046 A 
ATOM     17  C   UNL     1     -28.759   6.623  16.855  1.00  0.00     0.115 A 
BRANCH  17  18
ATOM     18  O   UNL     1     -27.560   7.244  17.198  1.00  0.00    -0.508 OA
ATOM     19  H   UNL     1     -26.715   7.086  16.661  1.00  0.00     0.293 HD
ENDBRANCH  17  18
ENDBRANCH   2  12
BRANCH   8  20
ATOM     20  O   UNL     1     -36.104   1.014  15.681  1.00  0.00    -0.507 OA
ATOM     21  H   UNL     1     -36.260   1.459  16.581  1.00  0.00     0.293 HD
ENDBRANCH   8  20
BRANCH   6  22
ATOM     22  O   UNL     1     -34.005   0.794  11.341  1.00  0.00    -0.508 OA
ATOM     23  H   UNL     1     -33.123   0.682  10.855  1.00  0.00     0.293 HD
ENDBRANCH   6  22
TORSDOF 4
ENDMDL
