MODEL 1
REMARK VINA RESULT:     2.778      0.000      0.000
REMARK INTER + INTRA:           3.031
REMARK INTER:                   3.022
REMARK INTRA:                   0.009
REMARK UNBOUND:                 0.009
REMARK SMILES CC(=O)[C@@H]1CC[C@@H]2[C@H]3CC=C4C[C@@H](O)CC[C@]4(C)[C@@H]3CC[C@@]21C
REMARK SMILES IDX 4 1 5 2 6 3 7 4 22 5 21 6 20 7 19 8 8 9 9 10 10 11 11 12
REMARK SMILES IDX 17 13 16 14 15 15 13 16 12 17 18 18 23 19 2 20 1 21 3 22
REMARK SMILES IDX 14 23
REMARK H PARENT 14 24
REMARK Flexibility Score: inf
ROOT
ATOM      1  C   UNL     1      27.026  24.061  26.043  1.00  0.00     0.062 C 
ATOM      2  C   UNL     1      25.506  23.875  26.061  1.00  0.00     0.012 C 
ATOM      3  C   UNL     1      25.039  24.382  27.428  1.00  0.00     0.005 C 
ATOM      4  C   UNL     1      26.292  24.889  28.169  1.00  0.00    -0.001 C 
ATOM      5  C   UNL     1      27.309  25.212  27.045  1.00  0.00    -0.020 C 
ATOM      6  C   UNL     1      27.060  26.629  26.400  1.00  0.00     0.008 C 
ATOM      7  C   UNL     1      26.246  27.619  27.253  1.00  0.00     0.005 C 
ATOM      8  C   UNL     1      26.506  27.422  28.753  1.00  0.00     0.003 C 
ATOM      9  C   UNL     1      25.973  26.039  29.184  1.00  0.00     0.000 C 
ATOM     10  C   UNL     1      26.529  25.747  30.582  1.00  0.00     0.031 C 
ATOM     11  C   UNL     1      26.124  26.831  31.542  1.00  0.00    -0.027 C 
ATOM     12  C   UNL     1      25.877  28.106  31.158  1.00  0.00    -0.065 C 
ATOM     13  C   UNL     1      25.962  28.573  29.690  1.00  0.00    -0.008 C 
ATOM     14  C   UNL     1      24.535  29.040  29.258  1.00  0.00     0.014 C 
ATOM     15  C   UNL     1      23.874  30.014  30.254  1.00  0.00     0.033 C 
ATOM     16  C   UNL     1      23.851  29.447  31.686  1.00  0.00     0.118 C 
ATOM     17  C   UNL     1      25.261  29.060  32.160  1.00  0.00     0.063 C 
ATOM     18  C   UNL     1      26.952  29.765  29.606  1.00  0.00     0.016 C 
ATOM     19  C   UNL     1      28.766  25.094  27.561  1.00  0.00     0.012 C 
ENDROOT
BRANCH   1  20
ATOM     20  C   UNL     1      27.623  24.226  24.654  1.00  0.00     0.133 C 
ATOM     21  C   UNL     1      29.110  24.213  24.452  1.00  0.00     0.088 C 
ATOM     22  O   UNL     1      26.902  24.362  23.676  1.00  0.00    -0.300 OA
ENDBRANCH   1  20
BRANCH  16  23
ATOM     23  O   UNL     1      23.263  30.363  32.573  1.00  0.00    -0.393 OA
ATOM     24  H   UNL     1      22.869  29.844  33.324  1.00  0.00     0.210 HD
ENDBRANCH  16  23
TORSDOF 2
ENDMDL
MODEL 2
REMARK VINA RESULT:     3.983      1.109      6.926
REMARK INTER + INTRA:           4.341
REMARK INTER:                   3.516
REMARK INTRA:                   0.825
REMARK UNBOUND:                 0.009
REMARK SMILES CC(=O)[C@@H]1CC[C@@H]2[C@H]3CC=C4C[C@@H](O)CC[C@]4(C)[C@@H]3CC[C@@]21C
REMARK SMILES IDX 4 1 5 2 6 3 7 4 22 5 21 6 20 7 19 8 8 9 9 10 10 11 11 12
REMARK SMILES IDX 17 13 16 14 15 15 13 16 12 17 18 18 23 19 2 20 1 21 3 22
REMARK SMILES IDX 14 23
REMARK H PARENT 14 24
REMARK Flexibility Score: inf
ROOT
ATOM      1  C   UNL     1      24.274  29.603  30.428  1.00  0.00     0.062 C 
ATOM      2  C   UNL     1      23.196  29.041  29.497  1.00  0.00     0.012 C 
ATOM      3  C   UNL     1      23.913  28.687  28.192  1.00  0.00     0.005 C 
ATOM      4  C   UNL     1      25.405  29.014  28.399  1.00  0.00    -0.001 C 
ATOM      5  C   UNL     1      25.606  28.977  29.936  1.00  0.00    -0.020 C 
ATOM      6  C   UNL     1      25.805  27.510  30.479  1.00  0.00     0.008 C 
ATOM      7  C   UNL     1      26.253  26.466  29.440  1.00  0.00     0.005 C 
ATOM      8  C   UNL     1      27.162  27.086  28.368  1.00  0.00     0.003 C 
ATOM      9  C   UNL     1      26.350  28.105  27.541  1.00  0.00     0.000 C 
ATOM     10  C   UNL     1      27.347  28.925  26.714  1.00  0.00     0.031 C 
ATOM     11  C   UNL     1      28.172  28.019  25.842  1.00  0.00    -0.027 C 
ATOM     12  C   UNL     1      28.444  26.731  26.160  1.00  0.00    -0.065 C 
ATOM     13  C   UNL     1      27.917  26.053  27.442  1.00  0.00    -0.008 C 
ATOM     14  C   UNL     1      26.980  24.881  27.006  1.00  0.00     0.014 C 
ATOM     15  C   UNL     1      27.601  23.955  25.940  1.00  0.00     0.033 C 
ATOM     16  C   UNL     1      28.098  24.741  24.712  1.00  0.00     0.118 C 
ATOM     17  C   UNL     1      29.088  25.845  25.114  1.00  0.00     0.063 C 
ATOM     18  C   UNL     1      29.125  25.490  28.237  1.00  0.00     0.016 C 
ATOM     19  C   UNL     1      26.788  29.884  30.365  1.00  0.00     0.012 C 
ENDROOT
BRANCH   1  20
ATOM     20  C   UNL     1      23.972  29.442  31.910  1.00  0.00     0.133 C 
ATOM     21  C   UNL     1      24.946  28.755  32.821  1.00  0.00     0.088 C 
ATOM     22  O   UNL     1      22.934  29.879  32.387  1.00  0.00    -0.300 OA
ENDBRANCH   1  20
BRANCH  16  23
ATOM     23  O   UNL     1      28.676  23.875  23.769  1.00  0.00    -0.393 OA
ATOM     24  H   UNL     1      28.755  22.979  24.193  1.00  0.00     0.210 HD
ENDBRANCH  16  23
TORSDOF 2
ENDMDL
MODEL 3
REMARK VINA RESULT:     4.394      3.657      5.751
REMARK INTER + INTRA:           4.788
REMARK INTER:                   4.407
REMARK INTRA:                   0.382
REMARK UNBOUND:                 0.009
REMARK SMILES CC(=O)[C@@H]1CC[C@@H]2[C@H]3CC=C4C[C@@H](O)CC[C@]4(C)[C@@H]3CC[C@@]21C
REMARK SMILES IDX 4 1 5 2 6 3 7 4 22 5 21 6 20 7 19 8 8 9 9 10 10 11 11 12
REMARK SMILES IDX 17 13 16 14 15 15 13 16 12 17 18 18 23 19 2 20 1 21 3 22
REMARK SMILES IDX 14 23
REMARK H PARENT 14 24
REMARK Flexibility Score: inf
ROOT
ATOM      1  C   UNL     1      26.455  26.094  29.872  1.00  0.00     0.062 C 
ATOM      2  C   UNL     1      25.190  26.955  29.807  1.00  0.00     0.012 C 
ATOM      3  C   UNL     1      25.631  28.300  29.224  1.00  0.00     0.005 C 
ATOM      4  C   UNL     1      27.138  28.186  28.923  1.00  0.00    -0.001 C 
ATOM      5  C   UNL     1      27.395  26.664  28.777  1.00  0.00    -0.020 C 
ATOM      6  C   UNL     1      27.021  26.129  27.341  1.00  0.00     0.008 C 
ATOM      7  C   UNL     1      26.955  27.189  26.227  1.00  0.00     0.005 C 
ATOM      8  C   UNL     1      27.974  28.316  26.456  1.00  0.00     0.003 C 
ATOM      9  C   UNL     1      27.590  29.096  27.731  1.00  0.00     0.000 C 
ATOM     10  C   UNL     1      28.783  29.985  28.102  1.00  0.00     0.031 C 
ATOM     11  C   UNL     1      29.125  30.903  26.961  1.00  0.00    -0.027 C 
ATOM     12  C   UNL     1      28.878  30.597  25.665  1.00  0.00    -0.065 C 
ATOM     13  C   UNL     1      28.198  29.284  25.227  1.00  0.00    -0.008 C 
ATOM     14  C   UNL     1      26.847  29.657  24.536  1.00  0.00     0.014 C 
ATOM     15  C   UNL     1      26.984  30.755  23.461  1.00  0.00     0.033 C 
ATOM     16  C   UNL     1      27.683  32.014  24.009  1.00  0.00     0.118 C 
ATOM     17  C   UNL     1      29.053  31.677  24.618  1.00  0.00     0.063 C 
ATOM     18  C   UNL     1      29.124  28.561  24.212  1.00  0.00     0.016 C 
ATOM     19  C   UNL     1      28.863  26.311  29.128  1.00  0.00     0.012 C 
ENDROOT
BRANCH   1  20
ATOM     20  C   UNL     1      26.198  24.595  29.814  1.00  0.00     0.133 C 
ATOM     21  C   UNL     1      25.596  23.968  28.591  1.00  0.00     0.088 C 
ATOM     22  O   UNL     1      26.488  23.875  30.758  1.00  0.00    -0.300 OA
ENDBRANCH   1  20
BRANCH  16  23
ATOM     23  O   UNL     1      27.812  32.987  23.005  1.00  0.00    -0.393 OA
ATOM     24  H   UNL     1      28.774  33.230  22.943  1.00  0.00     0.210 HD
ENDBRANCH  16  23
TORSDOF 2
ENDMDL
