MODEL 1
REMARK VINA RESULT:     9.112      0.000      0.000
REMARK INTER + INTRA:          17.716
REMARK INTER:                  13.907
REMARK INTRA:                   3.810
REMARK UNBOUND:                 3.810
REMARK SMILES OC[C@@H]1O[C@H](O[C@@]2(CO)O[C@H](CO)[C@@H](O)[C@H]2O)[C@H](O)[C@H](O)[C@@H]1O
REMARK SMILES IDX 6 1 5 2 3 3 22 4 4 5 20 6 18 7 2 8 1 9 23 11 21 13 19 15
REMARK SMILES IDX 7 17 16 18 10 19 14 20 11 21 8 22 9 23 17 25 15 27 12 29
REMARK SMILES IDX 13 30
REMARK H PARENT 1 10 23 12 21 14 19 16 9 24 17 26 15 28 13 31
REMARK Flexibility Score: inf
ROOT
ATOM      1  O   UNL     1      10.421  -9.086 -12.538  1.00  0.00    -0.313 OA
ENDROOT
BRANCH   1   2
ATOM      2  C   UNL     1      10.726 -10.320 -13.173  1.00  0.00     0.285 C 
ATOM      3  C   UNL     1      12.344 -11.993 -13.311  1.00  0.00     0.178 C 
ATOM      4  C   UNL     1      11.259 -12.880 -14.026  1.00  0.00     0.177 C 
ATOM      5  O   UNL     1      11.778 -10.973 -12.497  1.00  0.00    -0.341 OA
ATOM      6  C   UNL     1       9.847 -12.722 -13.400  1.00  0.00     0.179 C 
ATOM      7  C   UNL     1       9.482 -11.233 -13.118  1.00  0.00     0.202 C 
BRANCH   3   8
ATOM      8  C   UNL     1      13.332 -12.811 -12.459  1.00  0.00     0.191 C 
BRANCH   8   9
ATOM      9  O   UNL     1      14.283 -11.977 -11.852  1.00  0.00    -0.394 OA
ATOM     10  H   UNL     1      14.904 -11.678 -12.567  1.00  0.00     0.210 HD
ENDBRANCH   8   9
ENDBRANCH   3   8
BRANCH   4  11
ATOM     11  O   UNL     1      11.615 -14.239 -14.058  1.00  0.00    -0.387 OA
ATOM     12  H   UNL     1      11.000 -14.682 -14.700  1.00  0.00     0.211 HD
ENDBRANCH   4  11
BRANCH   6  13
ATOM     13  O   UNL     1       9.703 -13.526 -12.251  1.00  0.00    -0.387 OA
ATOM     14  H   UNL     1       9.045 -14.238 -12.461  1.00  0.00     0.211 HD
ENDBRANCH   6  13
BRANCH   7  15
ATOM     15  O   UNL     1       8.788 -11.093 -11.899  1.00  0.00    -0.385 OA
ATOM     16  H   UNL     1       9.025 -10.210 -11.508  1.00  0.00     0.211 HD
ENDBRANCH   7  15
ENDBRANCH   1   2
BRANCH   1  17
ATOM     17  C   UNL     1      10.617  -7.916 -13.344  1.00  0.00     0.224 C 
ATOM     18  C   UNL     1      10.579  -8.323 -14.826  1.00  0.00     0.208 C 
ATOM     19  O   UNL     1      11.890  -7.334 -13.139  1.00  0.00    -0.337 OA
ATOM     20  C   UNL     1      12.018  -8.703 -15.125  1.00  0.00     0.180 C 
ATOM     21  C   UNL     1      12.800  -7.951 -14.034  1.00  0.00     0.179 C 
BRANCH  17  22
ATOM     22  C   UNL     1       9.512  -6.877 -13.036  1.00  0.00     0.225 C 
BRANCH  22  23
ATOM     23  O   UNL     1       8.391  -7.049 -13.866  1.00  0.00    -0.391 OA
ATOM     24  H   UNL     1       7.607  -7.213 -13.273  1.00  0.00     0.210 HD
ENDBRANCH  22  23
ENDBRANCH  17  22
BRANCH  18  25
ATOM     25  O   UNL     1       9.636  -9.329 -15.125  1.00  0.00    -0.385 OA
ATOM     26  H   UNL     1       8.899  -8.930 -15.659  1.00  0.00     0.211 HD
ENDBRANCH  18  25
BRANCH  20  27
ATOM     27  O   UNL     1      12.237 -10.084 -14.996  1.00  0.00    -0.387 OA
ATOM     28  H   UNL     1      12.827 -10.355 -15.747  1.00  0.00     0.211 HD
ENDBRANCH  20  27
BRANCH  21  29
ATOM     29  C   UNL     1      13.718  -6.876 -14.623  1.00  0.00     0.191 C 
BRANCH  29  30
ATOM     30  O   UNL     1      14.994  -7.404 -14.874  1.00  0.00    -0.394 OA
ATOM     31  H   UNL     1      15.647  -6.758 -14.503  1.00  0.00     0.210 HD
ENDBRANCH  29  30
ENDBRANCH  21  29
ENDBRANCH   1  17
TORSDOF 13
ENDMDL
