MODEL 1
REMARK VINA RESULT:    -3.381      0.000      0.000
REMARK INTER + INTRA:          -5.047
REMARK INTER:                  -4.567
REMARK INTRA:                  -0.480
REMARK UNBOUND:                -0.480
REMARK SMILES CCCCCCCC(=O)[O-]
REMARK SMILES IDX 5 1 6 2 7 3 8 4 9 5 10 6 4 7 3 8 2 9 1 10
REMARK H PARENT
REMARK Flexibility Score: inf
ROOT
ATOM      1  C   UNL     1     187.026 188.421 169.864  1.00  0.00     0.000 C 
ENDROOT
BRANCH   1   2
ATOM      2  C   UNL     1     188.188 187.767 170.627  1.00  0.00     0.006 C 
BRANCH   2   3
ATOM      3  C   UNL     1     187.765 186.470 171.330  1.00  0.00     0.053 C 
BRANCH   3   4
ATOM      4  C   UNL     1     188.711 186.103 172.433  1.00  0.00     0.041 C 
ATOM      5  O   UNL     1     189.881 186.565 172.445  1.00  0.00    -0.550 OA
ATOM      6  O   UNL     1     188.286 185.276 173.465  1.00  0.00    -0.550 OA
ENDBRANCH   3   4
ENDBRANCH   2   3
ENDBRANCH   1   2
BRANCH   1   7
ATOM      7  C   UNL     1     185.731 187.616 170.040  1.00  0.00     0.000 C 
BRANCH   7   8
ATOM      8  C   UNL     1     185.158 187.102 168.707  1.00  0.00    -0.000 C 
BRANCH   8   9
ATOM      9  C   UNL     1     186.189 186.453 167.767  1.00  0.00    -0.003 C 
ATOM     10  C   UNL     1     186.477 184.992 168.112  1.00  0.00     0.004 C 
ENDBRANCH   8   9
ENDBRANCH   7   8
ENDBRANCH   1   7
TORSDOF 6
ENDMDL
MODEL 2
REMARK VINA RESULT:    -3.351      3.471      4.994
REMARK INTER + INTRA:          -5.007
REMARK INTER:                  -4.587
REMARK INTRA:                  -0.419
REMARK UNBOUND:                -0.480
REMARK SMILES CCCCCCCC(=O)[O-]
REMARK SMILES IDX 5 1 6 2 7 3 8 4 9 5 10 6 4 7 3 8 2 9 1 10
REMARK H PARENT
REMARK Flexibility Score: inf
ROOT
ATOM      1  C   UNL     1     185.529 186.868 168.417  1.00  0.00     0.000 C 
ENDROOT
BRANCH   1   2
ATOM      2  C   UNL     1     184.863 187.954 169.278  1.00  0.00     0.006 C 
BRANCH   2   3
ATOM      3  C   UNL     1     183.351 188.045 169.032  1.00  0.00     0.053 C 
BRANCH   3   4
ATOM      4  C   UNL     1     182.571 187.824 170.292  1.00  0.00     0.041 C 
ATOM      5  O   UNL     1     181.522 188.484 170.512  1.00  0.00    -0.550 OA
ATOM      6  O   UNL     1     182.986 186.865 171.207  1.00  0.00    -0.550 OA
ENDBRANCH   3   4
ENDBRANCH   2   3
ENDBRANCH   1   2
BRANCH   1   7
ATOM      7  C   UNL     1     186.488 186.013 169.257  1.00  0.00     0.000 C 
BRANCH   7   8
ATOM      8  C   UNL     1     186.587 186.485 170.719  1.00  0.00    -0.000 C 
BRANCH   8   9
ATOM      9  C   UNL     1     188.019 186.737 171.222  1.00  0.00    -0.003 C 
ATOM     10  C   UNL     1     188.738 187.843 170.449  1.00  0.00     0.004 C 
ENDBRANCH   8   9
ENDBRANCH   7   8
ENDBRANCH   1   7
TORSDOF 6
ENDMDL
MODEL 3
REMARK VINA RESULT:    -3.341      0.328      1.045
REMARK INTER + INTRA:          -4.993
REMARK INTER:                  -4.520
REMARK INTRA:                  -0.473
REMARK UNBOUND:                -0.480
REMARK SMILES CCCCCCCC(=O)[O-]
REMARK SMILES IDX 5 1 6 2 7 3 8 4 9 5 10 6 4 7 3 8 2 9 1 10
REMARK H PARENT
REMARK Flexibility Score: inf
ROOT
ATOM      1  C   UNL     1     187.111 188.346 170.142  1.00  0.00     0.000 C 
ENDROOT
BRANCH   1   2
ATOM      2  C   UNL     1     188.234 187.580 170.858  1.00  0.00     0.006 C 
BRANCH   2   3
ATOM      3  C   UNL     1     187.726 186.297 171.530  1.00  0.00     0.053 C 
BRANCH   3   4
ATOM      4  C   UNL     1     188.666 185.818 172.594  1.00  0.00     0.041 C 
ATOM      5  O   UNL     1     188.218 185.332 173.664  1.00  0.00    -0.550 OA
ATOM      6  O   UNL     1     190.039 185.882 172.387  1.00  0.00    -0.550 OA
ENDBRANCH   3   4
ENDBRANCH   2   3
ENDBRANCH   1   2
BRANCH   1   7
ATOM      7  C   UNL     1     185.792 187.564 170.196  1.00  0.00     0.000 C 
BRANCH   7   8
ATOM      8  C   UNL     1     185.260 187.189 168.801  1.00  0.00    -0.000 C 
BRANCH   8   9
ATOM      9  C   UNL     1     186.240 186.382 167.931  1.00  0.00    -0.003 C 
ATOM     10  C   UNL     1     186.355 184.919 168.360  1.00  0.00     0.004 C 
ENDBRANCH   8   9
ENDBRANCH   7   8
ENDBRANCH   1   7
TORSDOF 6
ENDMDL
MODEL 4
REMARK VINA RESULT:    -3.326      2.891      4.533
REMARK INTER + INTRA:          -4.974
REMARK INTER:                  -4.307
REMARK INTRA:                  -0.667
REMARK UNBOUND:                -0.480
REMARK SMILES CCCCCCCC(=O)[O-]
REMARK SMILES IDX 5 1 6 2 7 3 8 4 9 5 10 6 4 7 3 8 2 9 1 10
REMARK H PARENT
REMARK Flexibility Score: inf
ROOT
ATOM      1  C   UNL     1     187.902 185.853 168.790  1.00  0.00     0.000 C 
ENDROOT
BRANCH   1   2
ATOM      2  C   UNL     1     186.386 185.604 168.754  1.00  0.00     0.006 C 
BRANCH   2   3
ATOM      3  C   UNL     1     185.611 186.813 168.215  1.00  0.00     0.053 C 
BRANCH   3   4
ATOM      4  C   UNL     1     184.657 187.359 169.234  1.00  0.00     0.041 C 
ATOM      5  O   UNL     1     183.650 188.019 168.871  1.00  0.00    -0.550 OA
ATOM      6  O   UNL     1     184.868 187.111 170.585  1.00  0.00    -0.550 OA
ENDBRANCH   3   4
ENDBRANCH   2   3
ENDBRANCH   1   2
BRANCH   1   7
ATOM      7  C   UNL     1     188.430 185.821 170.231  1.00  0.00     0.000 C 
BRANCH   7   8
ATOM      8  C   UNL     1     188.381 187.198 170.918  1.00  0.00    -0.000 C 
BRANCH   8   9
ATOM      9  C   UNL     1     188.582 188.398 169.977  1.00  0.00    -0.003 C 
ATOM     10  C   UNL     1     187.528 189.489 170.165  1.00  0.00     0.004 C 
ENDBRANCH   8   9
ENDBRANCH   7   8
ENDBRANCH   1   7
TORSDOF 6
ENDMDL
MODEL 5
REMARK VINA RESULT:    -3.314      3.471      5.052
REMARK INTER + INTRA:          -4.957
REMARK INTER:                  -4.672
REMARK INTRA:                  -0.284
REMARK UNBOUND:                -0.480
REMARK SMILES CCCCCCCC(=O)[O-]
REMARK SMILES IDX 5 1 6 2 7 3 8 4 9 5 10 6 4 7 3 8 2 9 1 10
REMARK H PARENT
REMARK Flexibility Score: inf
ROOT
ATOM      1  C   UNL     1     185.655 186.674 168.680  1.00  0.00     0.000 C 
ENDROOT
BRANCH   1   2
ATOM      2  C   UNL     1     184.990 187.893 169.339  1.00  0.00     0.006 C 
BRANCH   2   3
ATOM      3  C   UNL     1     183.483 187.956 169.057  1.00  0.00     0.053 C 
BRANCH   3   4
ATOM      4  C   UNL     1     182.678 187.819 170.314  1.00  0.00     0.041 C 
ATOM      5  O   UNL     1     183.008 186.979 171.190  1.00  0.00    -0.550 OA
ATOM      6  O   UNL     1     181.580 188.643 170.528  1.00  0.00    -0.550 OA
ENDBRANCH   3   4
ENDBRANCH   2   3
ENDBRANCH   1   2
BRANCH   1   7
ATOM      7  C   UNL     1     186.707 186.053 169.610  1.00  0.00     0.000 C 
BRANCH   7   8
ATOM      8  C   UNL     1     186.923 186.866 170.899  1.00  0.00    -0.000 C 
BRANCH   8   9
ATOM      9  C   UNL     1     188.390 186.994 171.344  1.00  0.00    -0.003 C 
ATOM     10  C   UNL     1     188.817 185.898 172.320  1.00  0.00     0.004 C 
ENDBRANCH   8   9
ENDBRANCH   7   8
ENDBRANCH   1   7
TORSDOF 6
ENDMDL
MODEL 6
REMARK VINA RESULT:    -3.235      2.692      4.496
REMARK INTER + INTRA:          -4.851
REMARK INTER:                  -4.464
REMARK INTRA:                  -0.386
REMARK UNBOUND:                -0.480
REMARK SMILES CCCCCCCC(=O)[O-]
REMARK SMILES IDX 5 1 6 2 7 3 8 4 9 5 10 6 4 7 3 8 2 9 1 10
REMARK H PARENT
REMARK Flexibility Score: inf
ROOT
ATOM      1  C   UNL     1     187.184 188.395 169.922  1.00  0.00     0.000 C 
ENDROOT
BRANCH   1   2
ATOM      2  C   UNL     1     185.900 187.596 170.197  1.00  0.00     0.006 C 
BRANCH   2   3
ATOM      3  C   UNL     1     185.178 187.193 168.904  1.00  0.00     0.053 C 
BRANCH   3   4
ATOM      4  C   UNL     1     185.975 186.204 168.109  1.00  0.00     0.041 C 
ATOM      5  O   UNL     1     186.340 186.478 166.937  1.00  0.00    -0.550 OA
ATOM      6  O   UNL     1     186.340 184.990 168.678  1.00  0.00    -0.550 OA
ENDBRANCH   3   4
ENDBRANCH   2   3
ENDBRANCH   1   2
BRANCH   1   7
ATOM      7  C   UNL     1     188.392 187.747 170.613  1.00  0.00     0.000 C 
BRANCH   7   8
ATOM      8  C   UNL     1     188.010 186.525 171.467  1.00  0.00    -0.000 C 
BRANCH   8   9
ATOM      9  C   UNL     1     189.131 185.998 172.380  1.00  0.00    -0.003 C 
ATOM     10  C   UNL     1     188.609 185.151 173.540  1.00  0.00     0.004 C 
ENDBRANCH   8   9
ENDBRANCH   7   8
ENDBRANCH   1   7
TORSDOF 6
ENDMDL
MODEL 7
REMARK VINA RESULT:    -3.232      2.144      3.853
REMARK INTER + INTRA:          -4.846
REMARK INTER:                  -4.317
REMARK INTRA:                  -0.529
REMARK UNBOUND:                -0.480
REMARK SMILES CCCCCCCC(=O)[O-]
REMARK SMILES IDX 5 1 6 2 7 3 8 4 9 5 10 6 4 7 3 8 2 9 1 10
REMARK H PARENT
REMARK Flexibility Score: inf
ROOT
ATOM      1  C   UNL     1     185.634 186.800 168.385  1.00  0.00     0.000 C 
ENDROOT
BRANCH   1   2
ATOM      2  C   UNL     1     186.035 185.334 168.608  1.00  0.00     0.006 C 
BRANCH   2   3
ATOM      3  C   UNL     1     187.208 184.910 167.713  1.00  0.00     0.053 C 
BRANCH   3   4
ATOM      4  C   UNL     1     188.527 185.303 168.305  1.00  0.00     0.041 C 
ATOM      5  O   UNL     1     188.963 184.716 169.328  1.00  0.00    -0.550 OA
ATOM      6  O   UNL     1     189.288 186.298 167.704  1.00  0.00    -0.550 OA
ENDBRANCH   3   4
ENDBRANCH   2   3
ENDBRANCH   1   2
BRANCH   1   7
ATOM      7  C   UNL     1     185.405 187.516 169.724  1.00  0.00     0.000 C 
BRANCH   7   8
ATOM      8  C   UNL     1     186.497 187.207 170.763  1.00  0.00    -0.000 C 
BRANCH   8   9
ATOM      9  C   UNL     1     187.788 188.031 170.610  1.00  0.00    -0.003 C 
ATOM     10  C   UNL     1     187.535 189.449 170.099  1.00  0.00     0.004 C 
ENDBRANCH   8   9
ENDBRANCH   7   8
ENDBRANCH   1   7
TORSDOF 6
ENDMDL
MODEL 8
REMARK VINA RESULT:    -3.226      3.066      4.921
REMARK INTER + INTRA:          -4.838
REMARK INTER:                  -4.634
REMARK INTRA:                  -0.204
REMARK UNBOUND:                -0.480
REMARK SMILES CCCCCCCC(=O)[O-]
REMARK SMILES IDX 5 1 6 2 7 3 8 4 9 5 10 6 4 7 3 8 2 9 1 10
REMARK H PARENT
REMARK Flexibility Score: inf
ROOT
ATOM      1  C   UNL     1     187.607 187.976 170.557  1.00  0.00     0.000 C 
ENDROOT
BRANCH   1   2
ATOM      2  C   UNL     1     186.472 188.246 169.557  1.00  0.00     0.006 C 
BRANCH   2   3
ATOM      3  C   UNL     1     185.480 187.078 169.475  1.00  0.00     0.053 C 
BRANCH   3   4
ATOM      4  C   UNL     1     184.109 187.483 169.925  1.00  0.00     0.041 C 
ATOM      5  O   UNL     1     183.658 187.079 171.028  1.00  0.00    -0.550 OA
ATOM      6  O   UNL     1     183.342 188.332 169.136  1.00  0.00    -0.550 OA
ENDBRANCH   3   4
ENDBRANCH   2   3
ENDBRANCH   1   2
BRANCH   1   7
ATOM      7  C   UNL     1     187.459 186.589 171.196  1.00  0.00     0.000 C 
BRANCH   7   8
ATOM      8  C   UNL     1     188.738 186.117 171.910  1.00  0.00    -0.000 C 
BRANCH   8   9
ATOM      9  C   UNL     1     188.503 185.397 173.250  1.00  0.00    -0.003 C 
ATOM     10  C   UNL     1     189.521 184.290 173.521  1.00  0.00     0.004 C 
ENDBRANCH   8   9
ENDBRANCH   7   8
ENDBRANCH   1   7
TORSDOF 6
ENDMDL
MODEL 9
REMARK VINA RESULT:    -3.126      1.317      2.058
REMARK INTER + INTRA:          -4.703
REMARK INTER:                  -4.112
REMARK INTRA:                  -0.590
REMARK UNBOUND:                -0.480
REMARK SMILES CCCCCCCC(=O)[O-]
REMARK SMILES IDX 5 1 6 2 7 3 8 4 9 5 10 6 4 7 3 8 2 9 1 10
REMARK H PARENT
REMARK Flexibility Score: inf
ROOT
ATOM      1  C   UNL     1     185.251 186.903 169.630  1.00  0.00     0.000 C 
ENDROOT
BRANCH   1   2
ATOM      2  C   UNL     1     186.385 187.545 170.445  1.00  0.00     0.006 C 
BRANCH   2   3
ATOM      3  C   UNL     1     187.101 186.529 171.345  1.00  0.00     0.053 C 
BRANCH   3   4
ATOM      4  C   UNL     1     188.584 186.546 171.129  1.00  0.00     0.041 C 
ATOM      5  O   UNL     1     189.172 187.624 170.859  1.00  0.00    -0.550 OA
ATOM      6  O   UNL     1     189.318 185.373 171.259  1.00  0.00    -0.550 OA
ENDBRANCH   3   4
ENDBRANCH   2   3
ENDBRANCH   1   2
BRANCH   1   7
ATOM      7  C   UNL     1     185.736 186.513 168.227  1.00  0.00     0.000 C 
BRANCH   7   8
ATOM      8  C   UNL     1     186.344 185.100 168.174  1.00  0.00    -0.000 C 
BRANCH   8   9
ATOM      9  C   UNL     1     187.823 185.047 167.755  1.00  0.00    -0.003 C 
ATOM     10  C   UNL     1     188.402 186.423 167.429  1.00  0.00     0.004 C 
ENDBRANCH   8   9
ENDBRANCH   7   8
ENDBRANCH   1   7
TORSDOF 6
ENDMDL
