MODEL 1
REMARK VINA RESULT:    -3.668      0.000      0.000
REMARK INTER + INTRA:          -5.852
REMARK INTER:                  -5.062
REMARK INTRA:                  -0.790
REMARK UNBOUND:                -0.790
REMARK SMILES OC[C@@H](O)C(O)[C@H](O)CO
REMARK SMILES IDX 5 1 7 2 9 3 10 4 8 6 3 8 2 9 1 10 4 12 6 14
REMARK H PARENT 10 5 8 7 1 11 4 13 6 15
REMARK Flexibility Score: inf
ROOT
ATOM      1  C   UNL     1      63.365  15.415  -0.713  1.00  0.00     0.176 C 
ENDROOT
BRANCH   1   2
ATOM      2  C   UNL     1      63.087  14.390  -1.840  1.00  0.00     0.171 C 
BRANCH   2   3
ATOM      3  C   UNL     1      62.929  15.079  -3.206  1.00  0.00     0.190 C 
BRANCH   3   4
ATOM      4  O   UNL     1      64.184  15.424  -3.724  1.00  0.00    -0.394 OA
ATOM      5  H   UNL     1      64.250  16.411  -3.652  1.00  0.00     0.210 HD
ENDBRANCH   3   4
ENDBRANCH   2   3
BRANCH   2   6
ATOM      6  O   UNL     1      64.138  13.460  -1.910  1.00  0.00    -0.388 OA
ATOM      7  H   UNL     1      64.071  13.014  -2.795  1.00  0.00     0.211 HD
ENDBRANCH   2   6
ENDBRANCH   1   2
BRANCH   1   8
ATOM      8  C   UNL     1      64.872  15.588  -0.370  1.00  0.00     0.171 C 
BRANCH   8   9
ATOM      9  C   UNL     1      65.425  16.986  -0.714  1.00  0.00     0.190 C 
BRANCH   9  10
ATOM     10  O   UNL     1      65.642  17.132  -2.093  1.00  0.00    -0.394 OA
ATOM     11  H   UNL     1      66.625  17.185  -2.226  1.00  0.00     0.210 HD
ENDBRANCH   9  10
ENDBRANCH   8   9
BRANCH   8  12
ATOM     12  O   UNL     1      65.128  15.291   0.980  1.00  0.00    -0.388 OA
ATOM     13  H   UNL     1      66.089  15.477   1.142  1.00  0.00     0.211 HD
ENDBRANCH   8  12
ENDBRANCH   1   8
BRANCH   1  14
ATOM     14  O   UNL     1      62.826  16.662  -1.077  1.00  0.00    -0.388 OA
ATOM     15  H   UNL     1      62.213  16.500  -1.842  1.00  0.00     0.211 HD
ENDBRANCH   1  14
TORSDOF 9
ENDMDL
MODEL 2
REMARK VINA RESULT:    -3.537      1.481      1.626
REMARK INTER + INTRA:          -5.671
REMARK INTER:                  -4.799
REMARK INTRA:                  -0.872
REMARK UNBOUND:                -0.790
REMARK SMILES OC[C@@H](O)C(O)[C@H](O)CO
REMARK SMILES IDX 5 1 7 2 9 3 10 4 8 6 3 8 2 9 1 10 4 12 6 14
REMARK H PARENT 10 5 8 7 1 11 4 13 6 15
REMARK Flexibility Score: inf
ROOT
ATOM      1  C   UNL     1      62.268  15.012  -1.248  1.00  0.00     0.176 C 
ENDROOT
BRANCH   1   2
ATOM      2  C   UNL     1      62.992  14.345  -2.444  1.00  0.00     0.171 C 
BRANCH   2   3
ATOM      3  C   UNL     1      63.385  15.376  -3.516  1.00  0.00     0.190 C 
BRANCH   3   4
ATOM      4  O   UNL     1      64.514  16.097  -3.104  1.00  0.00    -0.394 OA
ATOM      5  H   UNL     1      64.643  16.814  -3.777  1.00  0.00     0.210 HD
ENDBRANCH   3   4
ENDBRANCH   2   3
BRANCH   2   6
ATOM      6  O   UNL     1      64.147  13.682  -1.994  1.00  0.00    -0.388 OA
ATOM      7  H   UNL     1      64.923  14.140  -2.411  1.00  0.00     0.211 HD
ENDBRANCH   2   6
ENDBRANCH   1   2
BRANCH   1   8
ATOM      8  C   UNL     1      63.095  15.021   0.069  1.00  0.00     0.171 C 
BRANCH   8   9
ATOM      9  C   UNL     1      63.523  16.433   0.516  1.00  0.00     0.190 C 
BRANCH   9  10
ATOM     10  O   UNL     1      64.283  17.080  -0.471  1.00  0.00    -0.394 OA
ATOM     11  H   UNL     1      64.473  17.995  -0.135  1.00  0.00     0.210 HD
ENDBRANCH   9  10
ENDBRANCH   8   9
BRANCH   8  12
ATOM     12  O   UNL     1      62.406  14.378   1.111  1.00  0.00    -0.388 OA
ATOM     13  H   UNL     1      62.566  13.404   1.008  1.00  0.00     0.211 HD
ENDBRANCH   8  12
ENDBRANCH   1   8
BRANCH   1  14
ATOM     14  O   UNL     1      61.926  16.332  -1.592  1.00  0.00    -0.388 OA
ATOM     15  H   UNL     1      61.195  16.278  -2.262  1.00  0.00     0.211 HD
ENDBRANCH   1  14
TORSDOF 9
ENDMDL
MODEL 3
REMARK VINA RESULT:    -3.357      1.295      3.607
REMARK INTER + INTRA:          -5.423
REMARK INTER:                  -4.947
REMARK INTRA:                  -0.476
REMARK UNBOUND:                -0.790
REMARK SMILES OC[C@@H](O)C(O)[C@H](O)CO
REMARK SMILES IDX 5 1 7 2 9 3 10 4 8 6 3 8 2 9 1 10 4 12 6 14
REMARK H PARENT 10 5 8 7 1 11 4 13 6 15
REMARK Flexibility Score: inf
ROOT
ATOM      1  C   UNL     1      64.441  15.686  -0.786  1.00  0.00     0.176 C 
ENDROOT
BRANCH   1   2
ATOM      2  C   UNL     1      63.881  16.030   0.617  1.00  0.00     0.171 C 
BRANCH   2   3
ATOM      3  C   UNL     1      65.002  16.432   1.591  1.00  0.00     0.190 C 
BRANCH   3   4
ATOM      4  O   UNL     1      65.808  17.425   1.019  1.00  0.00    -0.394 OA
ATOM      5  H   UNL     1      65.474  18.289   1.373  1.00  0.00     0.210 HD
ENDBRANCH   3   4
ENDBRANCH   2   3
BRANCH   2   6
ATOM      6  O   UNL     1      62.955  17.081   0.518  1.00  0.00    -0.388 OA
ATOM      7  H   UNL     1      63.451  17.922   0.698  1.00  0.00     0.211 HD
ENDBRANCH   2   6
ENDBRANCH   1   2
BRANCH   1   8
ATOM      8  C   UNL     1      63.522  14.751  -1.624  1.00  0.00     0.171 C 
BRANCH   8   9
ATOM      9  C   UNL     1      63.125  15.343  -2.990  1.00  0.00     0.190 C 
BRANCH   9  10
ATOM     10  O   UNL     1      64.230  15.453  -3.849  1.00  0.00    -0.394 OA
ATOM     11  H   UNL     1      64.077  16.253  -4.416  1.00  0.00     0.210 HD
ENDBRANCH   9  10
ENDBRANCH   8   9
BRANCH   8  12
ATOM     12  O   UNL     1      64.106  13.485  -1.802  1.00  0.00    -0.388 OA
ATOM     13  H   UNL     1      63.367  12.845  -1.972  1.00  0.00     0.211 HD
ENDBRANCH   8  12
ENDBRANCH   1   8
BRANCH   1  14
ATOM     14  O   UNL     1      64.666  16.877  -1.499  1.00  0.00    -0.388 OA
ATOM     15  H   UNL     1      65.199  16.638  -2.302  1.00  0.00     0.211 HD
ENDBRANCH   1  14
TORSDOF 9
ENDMDL
MODEL 4
REMARK VINA RESULT:    -3.353      1.388      2.434
REMARK INTER + INTRA:          -5.416
REMARK INTER:                  -4.687
REMARK INTRA:                  -0.729
REMARK UNBOUND:                -0.790
REMARK SMILES OC[C@@H](O)C(O)[C@H](O)CO
REMARK SMILES IDX 5 1 7 2 9 3 10 4 8 6 3 8 2 9 1 10 4 12 6 14
REMARK H PARENT 10 5 8 7 1 11 4 13 6 15
REMARK Flexibility Score: inf
ROOT
ATOM      1  C   UNL     1      63.831  15.721  -0.938  1.00  0.00     0.176 C 
ENDROOT
BRANCH   1   2
ATOM      2  C   UNL     1      63.265  14.717  -1.973  1.00  0.00     0.171 C 
BRANCH   2   3
ATOM      3  C   UNL     1      63.402  15.247  -3.410  1.00  0.00     0.190 C 
BRANCH   3   4
ATOM      4  O   UNL     1      64.522  16.082  -3.514  1.00  0.00    -0.394 OA
ATOM      5  H   UNL     1      65.093  15.690  -4.224  1.00  0.00     0.210 HD
ENDBRANCH   3   4
ENDBRANCH   2   3
BRANCH   2   6
ATOM      6  O   UNL     1      63.940  13.489  -1.866  1.00  0.00    -0.388 OA
ATOM      7  H   UNL     1      63.878  13.047  -2.753  1.00  0.00     0.211 HD
ENDBRANCH   2   6
ENDBRANCH   1   2
BRANCH   1   8
ATOM      8  C   UNL     1      63.086  15.712   0.428  1.00  0.00     0.171 C 
BRANCH   8   9
ATOM      9  C   UNL     1      63.837  14.943   1.532  1.00  0.00     0.190 C 
BRANCH   9  10
ATOM     10  O   UNL     1      63.943  13.576   1.232  1.00  0.00    -0.394 OA
ATOM     11  H   UNL     1      63.071  13.296   0.848  1.00  0.00     0.210 HD
ENDBRANCH   9  10
ENDBRANCH   8   9
BRANCH   8  12
ATOM     12  O   UNL     1      62.799  17.017   0.863  1.00  0.00    -0.388 OA
ATOM     13  H   UNL     1      63.448  17.233   1.582  1.00  0.00     0.211 HD
ENDBRANCH   8  12
ENDBRANCH   1   8
BRANCH   1  14
ATOM     14  O   UNL     1      65.194  15.450  -0.726  1.00  0.00    -0.388 OA
ATOM     15  H   UNL     1      65.556  16.194  -0.177  1.00  0.00     0.211 HD
ENDBRANCH   1  14
TORSDOF 9
ENDMDL
MODEL 5
REMARK VINA RESULT:    -3.309      1.406      3.305
REMARK INTER + INTRA:          -5.356
REMARK INTER:                  -4.631
REMARK INTRA:                  -0.725
REMARK UNBOUND:                -0.790
REMARK SMILES OC[C@@H](O)C(O)[C@H](O)CO
REMARK SMILES IDX 5 1 7 2 9 3 10 4 8 6 3 8 2 9 1 10 4 12 6 14
REMARK H PARENT 10 5 8 7 1 11 4 13 6 15
REMARK Flexibility Score: inf
ROOT
ATOM      1  C   UNL     1      64.354  15.668  -0.631  1.00  0.00     0.176 C 
ENDROOT
BRANCH   1   2
ATOM      2  C   UNL     1      64.084  15.420   0.874  1.00  0.00     0.171 C 
BRANCH   2   3
ATOM      3  C   UNL     1      62.676  15.886   1.280  1.00  0.00     0.190 C 
BRANCH   3   4
ATOM      4  O   UNL     1      62.677  17.262   1.546  1.00  0.00    -0.394 OA
ATOM      5  H   UNL     1      62.291  17.698   0.743  1.00  0.00     0.210 HD
ENDBRANCH   3   4
ENDBRANCH   2   3
BRANCH   2   6
ATOM      6  O   UNL     1      64.222  14.053   1.166  1.00  0.00    -0.388 OA
ATOM      7  H   UNL     1      64.645  13.630   0.373  1.00  0.00     0.211 HD
ENDBRANCH   2   6
ENDBRANCH   1   2
BRANCH   1   8
ATOM      8  C   UNL     1      63.504  14.778  -1.583  1.00  0.00     0.171 C 
BRANCH   8   9
ATOM      9  C   UNL     1      63.247  15.421  -2.960  1.00  0.00     0.190 C 
BRANCH   9  10
ATOM     10  O   UNL     1      64.425  15.943  -3.515  1.00  0.00    -0.394 OA
ATOM     11  H   UNL     1      64.965  15.170  -3.826  1.00  0.00     0.210 HD
ENDBRANCH   9  10
ENDBRANCH   8   9
BRANCH   8  12
ATOM     12  O   UNL     1      64.081  13.507  -1.748  1.00  0.00    -0.388 OA
ATOM     13  H   UNL     1      64.936  13.637  -2.234  1.00  0.00     0.211 HD
ENDBRANCH   8  12
ENDBRANCH   1   8
BRANCH   1  14
ATOM     14  O   UNL     1      64.119  17.022  -0.928  1.00  0.00    -0.388 OA
ATOM     15  H   UNL     1      63.600  17.048  -1.774  1.00  0.00     0.211 HD
ENDBRANCH   1  14
TORSDOF 9
ENDMDL
MODEL 6
REMARK VINA RESULT:    -3.302      3.720      5.312
REMARK INTER + INTRA:          -5.346
REMARK INTER:                  -4.787
REMARK INTRA:                  -0.559
REMARK UNBOUND:                -0.790
REMARK SMILES OC[C@@H](O)C(O)[C@H](O)CO
REMARK SMILES IDX 5 1 7 2 9 3 10 4 8 6 3 8 2 9 1 10 4 12 6 14
REMARK H PARENT 10 5 8 7 1 11 4 13 6 15
REMARK Flexibility Score: inf
ROOT
ATOM      1  C   UNL     1      60.807  17.787   0.582  1.00  0.00     0.176 C 
ENDROOT
BRANCH   1   2
ATOM      2  C   UNL     1      60.375  19.204   0.129  1.00  0.00     0.171 C 
BRANCH   2   3
ATOM      3  C   UNL     1      60.177  20.145   1.329  1.00  0.00     0.190 C 
BRANCH   3   4
ATOM      4  O   UNL     1      61.366  20.834   1.607  1.00  0.00    -0.394 OA
ATOM      5  H   UNL     1      61.215  21.771   1.318  1.00  0.00     0.210 HD
ENDBRANCH   3   4
ENDBRANCH   2   3
BRANCH   2   6
ATOM      6  O   UNL     1      61.344  19.747  -0.730  1.00  0.00    -0.388 OA
ATOM      7  H   UNL     1      62.225  19.626  -0.286  1.00  0.00     0.211 HD
ENDBRANCH   2   6
ENDBRANCH   1   2
BRANCH   1   8
ATOM      8  C   UNL     1      61.269  16.862  -0.581  1.00  0.00     0.171 C 
BRANCH   8   9
ATOM      9  C   UNL     1      62.631  16.187  -0.325  1.00  0.00     0.190 C 
BRANCH   9  10
ATOM     10  O   UNL     1      63.699  17.066  -0.563  1.00  0.00    -0.394 OA
ATOM     11  H   UNL     1      63.732  17.223  -1.542  1.00  0.00     0.210 HD
ENDBRANCH   9  10
ENDBRANCH   8   9
BRANCH   8  12
ATOM     12  O   UNL     1      60.300  15.889  -0.878  1.00  0.00    -0.388 OA
ATOM     13  H   UNL     1      60.299  15.771  -1.863  1.00  0.00     0.211 HD
ENDBRANCH   8  12
ENDBRANCH   1   8
BRANCH   1  14
ATOM     14  O   UNL     1      61.843  17.898   1.527  1.00  0.00    -0.388 OA
ATOM     15  H   UNL     1      61.419  18.104   2.400  1.00  0.00     0.211 HD
ENDBRANCH   1  14
TORSDOF 9
ENDMDL
MODEL 7
REMARK VINA RESULT:    -3.281      1.452      3.519
REMARK INTER + INTRA:          -5.317
REMARK INTER:                  -4.596
REMARK INTRA:                  -0.721
REMARK UNBOUND:                -0.790
REMARK SMILES OC[C@@H](O)C(O)[C@H](O)CO
REMARK SMILES IDX 5 1 7 2 9 3 10 4 8 6 3 8 2 9 1 10 4 12 6 14
REMARK H PARENT 10 5 8 7 1 11 4 13 6 15
REMARK Flexibility Score: inf
ROOT
ATOM      1  C   UNL     1      63.675  15.190  -1.615  1.00  0.00     0.176 C 
ENDROOT
BRANCH   1   2
ATOM      2  C   UNL     1      64.132  16.239  -0.570  1.00  0.00     0.171 C 
BRANCH   2   3
ATOM      3  C   UNL     1      65.394  16.987  -1.034  1.00  0.00     0.190 C 
BRANCH   3   4
ATOM      4  O   UNL     1      65.487  16.961  -2.432  1.00  0.00    -0.394 OA
ATOM      5  H   UNL     1      65.768  17.872  -2.707  1.00  0.00     0.210 HD
ENDBRANCH   3   4
ENDBRANCH   2   3
BRANCH   2   6
ATOM      6  O   UNL     1      63.102  17.167  -0.342  1.00  0.00    -0.388 OA
ATOM      7  H   UNL     1      63.142  17.830  -1.081  1.00  0.00     0.211 HD
ENDBRANCH   2   6
ENDBRANCH   1   2
BRANCH   1   8
ATOM      8  C   UNL     1      63.013  13.926  -0.995  1.00  0.00     0.171 C 
BRANCH   8   9
ATOM      9  C   UNL     1      61.482  13.888  -1.165  1.00  0.00     0.190 C 
BRANCH   9  10
ATOM     10  O   UNL     1      60.869  15.015  -0.593  1.00  0.00    -0.394 OA
ATOM     11  H   UNL     1      60.713  14.804   0.364  1.00  0.00     0.210 HD
ENDBRANCH   9  10
ENDBRANCH   8   9
BRANCH   8  12
ATOM     12  O   UNL     1      63.581  12.747  -1.508  1.00  0.00    -0.388 OA
ATOM     13  H   UNL     1      64.360  12.526  -0.935  1.00  0.00     0.211 HD
ENDBRANCH   8  12
ENDBRANCH   1   8
BRANCH   1  14
ATOM     14  O   UNL     1      62.776  15.792  -2.513  1.00  0.00    -0.388 OA
ATOM     15  H   UNL     1      63.154  15.674  -3.424  1.00  0.00     0.211 HD
ENDBRANCH   1  14
TORSDOF 9
ENDMDL
MODEL 8
REMARK VINA RESULT:    -3.215      2.086      3.053
REMARK INTER + INTRA:          -5.226
REMARK INTER:                  -4.447
REMARK INTRA:                  -0.779
REMARK UNBOUND:                -0.790
REMARK SMILES OC[C@@H](O)C(O)[C@H](O)CO
REMARK SMILES IDX 5 1 7 2 9 3 10 4 8 6 3 8 2 9 1 10 4 12 6 14
REMARK H PARENT 10 5 8 7 1 11 4 13 6 15
REMARK Flexibility Score: inf
ROOT
ATOM      1  C   UNL     1      62.509  16.032   0.742  1.00  0.00     0.176 C 
ENDROOT
BRANCH   1   2
ATOM      2  C   UNL     1      61.367  16.391  -0.241  1.00  0.00     0.171 C 
BRANCH   2   3
ATOM      3  C   UNL     1      60.717  17.739   0.115  1.00  0.00     0.190 C 
BRANCH   3   4
ATOM      4  O   UNL     1      61.382  18.786  -0.537  1.00  0.00    -0.394 OA
ATOM      5  H   UNL     1      62.343  18.682  -0.315  1.00  0.00     0.210 HD
ENDBRANCH   3   4
ENDBRANCH   2   3
BRANCH   2   6
ATOM      6  O   UNL     1      61.866  16.450  -1.553  1.00  0.00    -0.388 OA
ATOM      7  H   UNL     1      62.276  17.348  -1.666  1.00  0.00     0.211 HD
ENDBRANCH   2   6
ENDBRANCH   1   2
BRANCH   1   8
ATOM      8  C   UNL     1      63.713  15.306   0.076  1.00  0.00     0.171 C 
BRANCH   8   9
ATOM      9  C   UNL     1      64.964  16.196  -0.068  1.00  0.00     0.190 C 
BRANCH   9  10
ATOM     10  O   UNL     1      64.737  17.270  -0.943  1.00  0.00    -0.394 OA
ATOM     11  H   UNL     1      65.404  17.192  -1.675  1.00  0.00     0.210 HD
ENDBRANCH   9  10
ENDBRANCH   8   9
BRANCH   8  12
ATOM     12  O   UNL     1      64.043  14.125   0.764  1.00  0.00    -0.388 OA
ATOM     13  H   UNL     1      64.823  14.332   1.341  1.00  0.00     0.211 HD
ENDBRANCH   8  12
ENDBRANCH   1   8
BRANCH   1  14
ATOM     14  O   UNL     1      62.964  17.204   1.372  1.00  0.00    -0.388 OA
ATOM     15  H   UNL     1      62.179  17.616   1.820  1.00  0.00     0.211 HD
ENDBRANCH   1  14
TORSDOF 9
ENDMDL
MODEL 9
REMARK VINA RESULT:    -3.135      1.582      2.605
REMARK INTER + INTRA:          -5.116
REMARK INTER:                  -4.381
REMARK INTRA:                  -0.735
REMARK UNBOUND:                -0.790
REMARK SMILES OC[C@@H](O)C(O)[C@H](O)CO
REMARK SMILES IDX 5 1 7 2 9 3 10 4 8 6 3 8 2 9 1 10 4 12 6 14
REMARK H PARENT 10 5 8 7 1 11 4 13 6 15
REMARK Flexibility Score: inf
ROOT
ATOM      1  C   UNL     1      64.185  16.166  -0.697  1.00  0.00     0.176 C 
ENDROOT
BRANCH   1   2
ATOM      2  C   UNL     1      63.168  15.521  -1.671  1.00  0.00     0.171 C 
BRANCH   2   3
ATOM      3  C   UNL     1      62.896  14.049  -1.313  1.00  0.00     0.190 C 
BRANCH   3   4
ATOM      4  O   UNL     1      63.962  13.243  -1.734  1.00  0.00    -0.394 OA
ATOM      5  H   UNL     1      63.683  12.849  -2.601  1.00  0.00     0.210 HD
ENDBRANCH   3   4
ENDBRANCH   2   3
BRANCH   2   6
ATOM      6  O   UNL     1      61.958  16.235  -1.642  1.00  0.00    -0.388 OA
ATOM      7  H   UNL     1      61.359  15.763  -1.006  1.00  0.00     0.211 HD
ENDBRANCH   2   6
ENDBRANCH   1   2
BRANCH   1   8
ATOM      8  C   UNL     1      63.693  16.239   0.777  1.00  0.00     0.171 C 
BRANCH   8   9
ATOM      9  C   UNL     1      64.822  16.510   1.789  1.00  0.00     0.190 C 
BRANCH   9  10
ATOM     10  O   UNL     1      65.746  17.445   1.296  1.00  0.00    -0.394 OA
ATOM     11  H   UNL     1      65.439  17.704   0.389  1.00  0.00     0.210 HD
ENDBRANCH   9  10
ENDBRANCH   8   9
BRANCH   8  12
ATOM     12  O   UNL     1      62.673  17.193   0.930  1.00  0.00    -0.388 OA
ATOM     13  H   UNL     1      63.107  18.086   0.927  1.00  0.00     0.211 HD
ENDBRANCH   8  12
ENDBRANCH   1   8
BRANCH   1  14
ATOM     14  O   UNL     1      65.394  15.450  -0.748  1.00  0.00    -0.388 OA
ATOM     15  H   UNL     1      65.180  14.544  -1.094  1.00  0.00     0.211 HD
ENDBRANCH   1  14
TORSDOF 9
ENDMDL
