MODEL 1
REMARK VINA RESULT:    -3.406      0.000      0.000
REMARK INTER + INTRA:          -5.780
REMARK INTER:                  -5.198
REMARK INTRA:                  -0.582
REMARK UNBOUND:                -0.582
REMARK SMILES O=C([O-])CCCCCCCCC(=O)[O-]
REMARK SMILES IDX 7 1 6 2 5 3 4 4 2 5 1 6 3 7 8 8 9 9 10 10 11 11 12 12 13 13
REMARK SMILES IDX 14 14
REMARK H PARENT
REMARK Flexibility Score: inf
ROOT
ATOM      1  C   UNL     1       4.973  25.039   8.181  1.00  0.00     0.000 C 
ENDROOT
BRANCH   1   2
ATOM      2  C   UNL     1       4.482  24.996   6.727  1.00  0.00     0.000 C 
BRANCH   2   3
ATOM      3  C   UNL     1       3.015  24.550   6.655  1.00  0.00     0.006 C 
BRANCH   3   4
ATOM      4  C   UNL     1       2.076  25.700   6.267  1.00  0.00     0.053 C 
BRANCH   4   5
ATOM      5  C   UNL     1       1.076  25.991   7.344  1.00  0.00     0.041 C 
ATOM      6  O   UNL     1       1.385  25.827   8.554  1.00  0.00    -0.550 OA
ATOM      7  O   UNL     1      -0.184  26.474   7.014  1.00  0.00    -0.550 OA
ENDBRANCH   4   5
ENDBRANCH   3   4
ENDBRANCH   2   3
ENDBRANCH   1   2
BRANCH   1   8
ATOM      8  C   UNL     1       4.346  23.938   9.050  1.00  0.00     0.000 C 
BRANCH   8   9
ATOM      9  C   UNL     1       4.579  24.166  10.555  1.00  0.00     0.000 C 
BRANCH   9  10
ATOM     10  C   UNL     1       3.270  24.372  11.331  1.00  0.00     0.006 C 
BRANCH  10  11
ATOM     11  C   UNL     1       3.162  25.775  11.943  1.00  0.00     0.053 C 
BRANCH  11  12
ATOM     12  C   UNL     1       3.573  25.750  13.382  1.00  0.00     0.041 C 
ATOM     13  O   UNL     1       4.745  25.417  13.700  1.00  0.00    -0.550 OA
ATOM     14  O   UNL     1       2.647  26.045  14.374  1.00  0.00    -0.550 OA
ENDBRANCH  11  12
ENDBRANCH  10  11
ENDBRANCH   9  10
ENDBRANCH   8   9
ENDBRANCH   1   8
TORSDOF 9
ENDMDL
MODEL 2
REMARK VINA RESULT:    -3.347      0.670      5.707
REMARK INTER + INTRA:          -5.690
REMARK INTER:                  -5.165
REMARK INTRA:                  -0.524
REMARK UNBOUND:                -0.582
REMARK SMILES O=C([O-])CCCCCCCCC(=O)[O-]
REMARK SMILES IDX 7 1 6 2 5 3 4 4 2 5 1 6 3 7 8 8 9 9 10 10 11 11 12 12 13 13
REMARK SMILES IDX 14 14
REMARK H PARENT
REMARK Flexibility Score: inf
ROOT
ATOM      1  C   UNL     1       4.307  24.035   8.968  1.00  0.00     0.000 C 
ENDROOT
BRANCH   1   2
ATOM      2  C   UNL     1       4.657  24.185  10.457  1.00  0.00     0.000 C 
BRANCH   2   3
ATOM      3  C   UNL     1       3.444  24.682  11.258  1.00  0.00     0.006 C 
BRANCH   3   4
ATOM      4  C   UNL     1       3.624  24.480  12.768  1.00  0.00     0.053 C 
BRANCH   4   5
ATOM      5  C   UNL     1       3.313  25.727  13.538  1.00  0.00     0.041 C 
ATOM      6  O   UNL     1       3.718  26.845  13.121  1.00  0.00    -0.550 OA
ATOM      7  O   UNL     1       2.548  25.659  14.695  1.00  0.00    -0.550 OA
ENDBRANCH   4   5
ENDBRANCH   3   4
ENDBRANCH   2   3
ENDBRANCH   1   2
BRANCH   1   8
ATOM      8  C   UNL     1       5.026  25.067   8.085  1.00  0.00     0.000 C 
BRANCH   8   9
ATOM      9  C   UNL     1       4.498  25.079   6.639  1.00  0.00     0.000 C 
BRANCH   9  10
ATOM     10  C   UNL     1       3.043  24.595   6.539  1.00  0.00     0.006 C 
BRANCH  10  11
ATOM     11  C   UNL     1       2.096  25.681   6.012  1.00  0.00     0.053 C 
BRANCH  11  12
ATOM     12  C   UNL     1       1.070  26.025   7.045  1.00  0.00     0.041 C 
ATOM     13  O   UNL     1       1.346  25.925   8.270  1.00  0.00    -0.550 OA
ATOM     14  O   UNL     1      -0.207  26.407   6.657  1.00  0.00    -0.550 OA
ENDBRANCH  11  12
ENDBRANCH  10  11
ENDBRANCH   9  10
ENDBRANCH   8   9
ENDBRANCH   1   8
TORSDOF 9
ENDMDL
MODEL 3
REMARK VINA RESULT:    -3.332      0.936      1.152
REMARK INTER + INTRA:          -5.667
REMARK INTER:                  -5.162
REMARK INTRA:                  -0.506
REMARK UNBOUND:                -0.582
REMARK SMILES O=C([O-])CCCCCCCCC(=O)[O-]
REMARK SMILES IDX 7 1 6 2 5 3 4 4 2 5 1 6 3 7 8 8 9 9 10 10 11 11 12 12 13 13
REMARK SMILES IDX 14 14
REMARK H PARENT
REMARK Flexibility Score: inf
ROOT
ATOM      1  C   UNL     1       4.975  25.033   8.377  1.00  0.00     0.000 C 
ENDROOT
BRANCH   1   2
ATOM      2  C   UNL     1       4.616  25.091   6.885  1.00  0.00     0.000 C 
BRANCH   2   3
ATOM      3  C   UNL     1       3.203  24.543   6.639  1.00  0.00     0.006 C 
BRANCH   3   4
ATOM      4  C   UNL     1       2.316  25.542   5.882  1.00  0.00     0.053 C 
BRANCH   4   5
ATOM      5  C   UNL     1       1.065  25.862   6.641  1.00  0.00     0.041 C 
ATOM      6  O   UNL     1       1.119  26.106   7.876  1.00  0.00    -0.550 OA
ATOM      7  O   UNL     1      -0.155  25.924   5.980  1.00  0.00    -0.550 OA
ENDBRANCH   4   5
ENDBRANCH   3   4
ENDBRANCH   2   3
ENDBRANCH   1   2
BRANCH   1   8
ATOM      8  C   UNL     1       3.955  24.232   9.201  1.00  0.00     0.000 C 
BRANCH   8   9
ATOM      9  C   UNL     1       3.319  25.066  10.328  1.00  0.00     0.000 C 
BRANCH   9  10
ATOM     10  C   UNL     1       3.700  24.556  11.726  1.00  0.00     0.006 C 
BRANCH  10  11
ATOM     11  C   UNL     1       2.554  24.697  12.737  1.00  0.00     0.053 C 
BRANCH  11  12
ATOM     12  C   UNL     1       2.846  25.798  13.707  1.00  0.00     0.041 C 
ATOM     13  O   UNL     1       2.379  25.752  14.876  1.00  0.00    -0.550 OA
ATOM     14  O   UNL     1       3.590  26.900  13.305  1.00  0.00    -0.550 OA
ENDBRANCH  11  12
ENDBRANCH  10  11
ENDBRANCH   9  10
ENDBRANCH   8   9
ENDBRANCH   1   8
TORSDOF 9
ENDMDL
MODEL 4
REMARK VINA RESULT:    -3.294      1.262      5.869
REMARK INTER + INTRA:          -5.608
REMARK INTER:                  -5.035
REMARK INTRA:                  -0.573
REMARK UNBOUND:                -0.582
REMARK SMILES O=C([O-])CCCCCCCCC(=O)[O-]
REMARK SMILES IDX 7 1 6 2 5 3 4 4 2 5 1 6 3 7 8 8 9 9 10 10 11 11 12 12 13 13
REMARK SMILES IDX 14 14
REMARK H PARENT
REMARK Flexibility Score: inf
ROOT
ATOM      1  C   UNL     1       3.754  24.593  10.611  1.00  0.00     0.000 C 
ENDROOT
BRANCH   1   2
ATOM      2  C   UNL     1       4.163  23.935  11.938  1.00  0.00     0.000 C 
BRANCH   2   3
ATOM      3  C   UNL     1       4.288  24.982  13.054  1.00  0.00     0.006 C 
BRANCH   3   4
ATOM      4  C   UNL     1       3.175  26.037  12.989  1.00  0.00     0.053 C 
BRANCH   4   5
ATOM      5  C   UNL     1       1.982  25.639  13.803  1.00  0.00     0.041 C 
ATOM      6  O   UNL     1       0.907  25.313  13.233  1.00  0.00    -0.550 OA
ATOM      7  O   UNL     1       2.067  25.595  15.189  1.00  0.00    -0.550 OA
ENDBRANCH   4   5
ENDBRANCH   3   4
ENDBRANCH   2   3
ENDBRANCH   1   2
BRANCH   1   8
ATOM      8  C   UNL     1       4.559  24.062   9.414  1.00  0.00     0.000 C 
BRANCH   8   9
ATOM      9  C   UNL     1       5.049  25.188   8.485  1.00  0.00     0.000 C 
BRANCH   9  10
ATOM     10  C   UNL     1       4.736  24.910   7.007  1.00  0.00     0.006 C 
BRANCH  10  11
ATOM     11  C   UNL     1       3.348  24.289   6.805  1.00  0.00     0.053 C 
BRANCH  11  12
ATOM     12  C   UNL     1       2.308  25.359   6.695  1.00  0.00     0.041 C 
ATOM     13  O   UNL     1       2.049  25.879   5.576  1.00  0.00    -0.550 OA
ATOM     14  O   UNL     1       1.660  25.820   7.834  1.00  0.00    -0.550 OA
ENDBRANCH  11  12
ENDBRANCH  10  11
ENDBRANCH   9  10
ENDBRANCH   8   9
ENDBRANCH   1   8
TORSDOF 9
ENDMDL
MODEL 5
REMARK VINA RESULT:    -3.214      1.216      5.746
REMARK INTER + INTRA:          -5.487
REMARK INTER:                  -4.714
REMARK INTRA:                  -0.774
REMARK UNBOUND:                -0.582
REMARK SMILES O=C([O-])CCCCCCCCC(=O)[O-]
REMARK SMILES IDX 7 1 6 2 5 3 4 4 2 5 1 6 3 7 8 8 9 9 10 10 11 11 12 12 13 13
REMARK SMILES IDX 14 14
REMARK H PARENT
REMARK Flexibility Score: inf
ROOT
ATOM      1  C   UNL     1       4.655  24.940   8.866  1.00  0.00     0.000 C 
ENDROOT
BRANCH   1   2
ATOM      2  C   UNL     1       3.642  23.875   9.312  1.00  0.00     0.000 C 
BRANCH   2   3
ATOM      3  C   UNL     1       2.557  24.491  10.208  1.00  0.00     0.006 C 
BRANCH   3   4
ATOM      4  C   UNL     1       3.050  25.749  10.935  1.00  0.00     0.053 C 
BRANCH   4   5
ATOM      5  C   UNL     1       3.149  25.535  12.415  1.00  0.00     0.041 C 
ATOM      6  O   UNL     1       4.262  25.268  12.942  1.00  0.00    -0.550 OA
ATOM      7  O   UNL     1       2.021  25.664  13.215  1.00  0.00    -0.550 OA
ENDBRANCH   4   5
ENDBRANCH   3   4
ENDBRANCH   2   3
ENDBRANCH   1   2
BRANCH   1   8
ATOM      8  C   UNL     1       4.717  25.095   7.338  1.00  0.00     0.000 C 
BRANCH   8   9
ATOM      9  C   UNL     1       3.534  24.415   6.626  1.00  0.00     0.000 C 
BRANCH   9  10
ATOM     10  C   UNL     1       2.552  25.427   6.016  1.00  0.00     0.006 C 
BRANCH  10  11
ATOM     11  C   UNL     1       1.436  25.827   6.990  1.00  0.00     0.053 C 
BRANCH  11  12
ATOM     12  C   UNL     1       0.150  26.033   6.255  1.00  0.00     0.041 C 
ATOM     13  O   UNL     1      -0.645  26.943   6.612  1.00  0.00    -0.550 OA
ATOM     14  O   UNL     1      -0.197  25.188   5.209  1.00  0.00    -0.550 OA
ENDBRANCH  11  12
ENDBRANCH  10  11
ENDBRANCH   9  10
ENDBRANCH   8   9
ENDBRANCH   1   8
TORSDOF 9
ENDMDL
MODEL 6
REMARK VINA RESULT:    -3.170      1.435      2.054
REMARK INTER + INTRA:          -5.420
REMARK INTER:                  -4.863
REMARK INTRA:                  -0.557
REMARK UNBOUND:                -0.582
REMARK SMILES O=C([O-])CCCCCCCCC(=O)[O-]
REMARK SMILES IDX 7 1 6 2 5 3 4 4 2 5 1 6 3 7 8 8 9 9 10 10 11 11 12 12 13 13
REMARK SMILES IDX 14 14
REMARK H PARENT
REMARK Flexibility Score: inf
ROOT
ATOM      1  C   UNL     1       4.859  24.324   9.861  1.00  0.00     0.000 C 
ENDROOT
BRANCH   1   2
ATOM      2  C   UNL     1       5.008  25.004   8.491  1.00  0.00     0.000 C 
BRANCH   2   3
ATOM      3  C   UNL     1       4.248  24.226   7.407  1.00  0.00     0.006 C 
BRANCH   3   4
ATOM      4  C   UNL     1       3.819  25.125   6.240  1.00  0.00     0.053 C 
BRANCH   4   5
ATOM      5  C   UNL     1       2.346  25.399   6.259  1.00  0.00     0.041 C 
ATOM      6  O   UNL     1       1.790  25.789   7.320  1.00  0.00    -0.550 OA
ATOM      7  O   UNL     1       1.595  25.256   5.100  1.00  0.00    -0.550 OA
ENDBRANCH   4   5
ENDBRANCH   3   4
ENDBRANCH   2   3
ENDBRANCH   1   2
BRANCH   1   8
ATOM      8  C   UNL     1       3.394  24.214  10.311  1.00  0.00     0.000 C 
BRANCH   8   9
ATOM      9  C   UNL     1       2.798  25.572  10.723  1.00  0.00     0.000 C 
BRANCH   9  10
ATOM     10  C   UNL     1       3.091  25.925  12.189  1.00  0.00     0.006 C 
BRANCH  10  11
ATOM     11  C   UNL     1       2.638  24.827  13.161  1.00  0.00     0.053 C 
BRANCH  11  12
ATOM     12  C   UNL     1       1.682  25.382  14.168  1.00  0.00     0.041 C 
ATOM     13  O   UNL     1       2.062  25.602  15.349  1.00  0.00    -0.550 OA
ATOM     14  O   UNL     1       0.357  25.609  13.818  1.00  0.00    -0.550 OA
ENDBRANCH  11  12
ENDBRANCH  10  11
ENDBRANCH   9  10
ENDBRANCH   8   9
ENDBRANCH   1   8
TORSDOF 9
ENDMDL
MODEL 7
REMARK VINA RESULT:    -2.858      2.272      6.505
REMARK INTER + INTRA:          -4.944
REMARK INTER:                  -4.360
REMARK INTRA:                  -0.584
REMARK UNBOUND:                -0.582
REMARK SMILES O=C([O-])CCCCCCCCC(=O)[O-]
REMARK SMILES IDX 7 1 6 2 5 3 4 4 2 5 1 6 3 7 8 8 9 9 10 10 11 11 12 12 13 13
REMARK SMILES IDX 14 14
REMARK H PARENT
REMARK Flexibility Score: inf
ROOT
ATOM      1  C   UNL     1       2.986  25.867  11.724  1.00  0.00     0.000 C 
ENDROOT
BRANCH   1   2
ATOM      2  C   UNL     1       3.245  26.124  13.216  1.00  0.00     0.000 C 
BRANCH   2   3
ATOM      3  C   UNL     1       2.797  24.926  14.066  1.00  0.00     0.006 C 
BRANCH   3   4
ATOM      4  C   UNL     1       1.889  25.347  15.230  1.00  0.00     0.053 C 
BRANCH   4   5
ATOM      5  C   UNL     1       0.492  24.834  15.060  1.00  0.00     0.041 C 
ATOM      6  O   UNL     1      -0.069  24.204  15.996  1.00  0.00    -0.550 OA
ATOM      7  O   UNL     1      -0.202  25.081  13.883  1.00  0.00    -0.550 OA
ENDBRANCH   4   5
ENDBRANCH   3   4
ENDBRANCH   2   3
ENDBRANCH   1   2
BRANCH   1   8
ATOM      8  C   UNL     1       2.309  24.512  11.466  1.00  0.00     0.000 C 
BRANCH   8   9
ATOM      9  C   UNL     1       1.227  24.590  10.374  1.00  0.00     0.000 C 
BRANCH   9  10
ATOM     10  C   UNL     1       1.495  25.709   9.356  1.00  0.00     0.006 C 
BRANCH  10  11
ATOM     11  C   UNL     1       2.169  25.193   8.078  1.00  0.00     0.053 C 
BRANCH  11  12
ATOM     12  C   UNL     1       1.512  25.779   6.868  1.00  0.00     0.041 C 
ATOM     13  O   UNL     1       2.096  25.749   5.753  1.00  0.00    -0.550 OA
ATOM     14  O   UNL     1       0.277  26.404   6.982  1.00  0.00    -0.550 OA
ENDBRANCH  11  12
ENDBRANCH  10  11
ENDBRANCH   9  10
ENDBRANCH   8   9
ENDBRANCH   1   8
TORSDOF 9
ENDMDL
MODEL 8
REMARK VINA RESULT:    -2.849      2.445      3.908
REMARK INTER + INTRA:          -4.930
REMARK INTER:                  -4.264
REMARK INTRA:                  -0.665
REMARK UNBOUND:                -0.582
REMARK SMILES O=C([O-])CCCCCCCCC(=O)[O-]
REMARK SMILES IDX 7 1 6 2 5 3 4 4 2 5 1 6 3 7 8 8 9 9 10 10 11 11 12 12 13 13
REMARK SMILES IDX 14 14
REMARK H PARENT
REMARK Flexibility Score: inf
ROOT
ATOM      1  C   UNL     1       0.983  24.118  11.576  1.00  0.00     0.000 C 
ENDROOT
BRANCH   1   2
ATOM      2  C   UNL     1       1.239  24.982  10.332  1.00  0.00     0.000 C 
BRANCH   2   3
ATOM      3  C   UNL     1       2.729  24.978   9.958  1.00  0.00     0.006 C 
BRANCH   3   4
ATOM      4  C   UNL     1       2.985  24.305   8.602  1.00  0.00     0.053 C 
BRANCH   4   5
ATOM      5  C   UNL     1       4.189  24.877   7.917  1.00  0.00     0.041 C 
ATOM      6  O   UNL     1       5.240  25.108   8.572  1.00  0.00    -0.550 OA
ATOM      7  O   UNL     1       4.162  25.121   6.550  1.00  0.00    -0.550 OA
ENDBRANCH   4   5
ENDBRANCH   3   4
ENDBRANCH   2   3
ENDBRANCH   1   2
BRANCH   1   8
ATOM      8  C   UNL     1      -0.247  24.578  12.373  1.00  0.00     0.000 C 
BRANCH   8   9
ATOM      9  C   UNL     1       0.129  25.254  13.704  1.00  0.00     0.000 C 
BRANCH   9  10
ATOM     10  C   UNL     1       1.349  24.602  14.373  1.00  0.00     0.006 C 
BRANCH  10  11
ATOM     11  C   UNL     1       2.411  25.628  14.789  1.00  0.00     0.053 C 
BRANCH  11  12
ATOM     12  C   UNL     1       3.415  25.813  13.696  1.00  0.00     0.041 C 
ATOM     13  O   UNL     1       3.348  26.815  12.937  1.00  0.00    -0.550 OA
ATOM     14  O   UNL     1       4.396  24.853  13.483  1.00  0.00    -0.550 OA
ENDBRANCH  11  12
ENDBRANCH  10  11
ENDBRANCH   9  10
ENDBRANCH   8   9
ENDBRANCH   1   8
TORSDOF 9
ENDMDL
MODEL 9
REMARK VINA RESULT:    -1.663      2.149      5.402
REMARK INTER + INTRA:          -3.119
REMARK INTER:                  -2.451
REMARK INTRA:                  -0.669
REMARK UNBOUND:                -0.582
REMARK SMILES O=C([O-])CCCCCCCCC(=O)[O-]
REMARK SMILES IDX 7 1 6 2 5 3 4 4 2 5 1 6 3 7 8 8 9 9 10 10 11 11 12 12 13 13
REMARK SMILES IDX 14 14
REMARK H PARENT
REMARK Flexibility Score: inf
ROOT
ATOM      1  C   UNL     1       0.895  24.507   8.558  1.00  0.00     0.000 C 
ENDROOT
BRANCH   1   2
ATOM      2  C   UNL     1       0.791  24.935  10.029  1.00  0.00     0.000 C 
BRANCH   2   3
ATOM      3  C   UNL     1       2.149  25.417  10.558  1.00  0.00     0.006 C 
BRANCH   3   4
ATOM      4  C   UNL     1       2.579  24.667  11.826  1.00  0.00     0.053 C 
BRANCH   4   5
ATOM      5  C   UNL     1       2.461  25.526  13.048  1.00  0.00     0.041 C 
ATOM      6  O   UNL     1       3.234  26.507  13.209  1.00  0.00    -0.550 OA
ATOM      7  O   UNL     1       1.476  25.263  13.992  1.00  0.00    -0.550 OA
ENDBRANCH   4   5
ENDBRANCH   3   4
ENDBRANCH   2   3
ENDBRANCH   1   2
BRANCH   1   8
ATOM      8  C   UNL     1       0.743  25.687   7.586  1.00  0.00     0.000 C 
BRANCH   8   9
ATOM      9  C   UNL     1       1.876  25.745   6.545  1.00  0.00     0.000 C 
BRANCH   9  10
ATOM     10  C   UNL     1       2.748  24.480   6.550  1.00  0.00     0.006 C 
BRANCH  10  11
ATOM     11  C   UNL     1       4.246  24.797   6.456  1.00  0.00     0.053 C 
BRANCH  11  12
ATOM     12  C   UNL     1       4.856  24.848   7.821  1.00  0.00     0.041 C 
ATOM     13  O   UNL     1       5.691  25.746   8.108  1.00  0.00    -0.550 OA
ATOM     14  O   UNL     1       4.541  23.875   8.760  1.00  0.00    -0.550 OA
ENDBRANCH  11  12
ENDBRANCH  10  11
ENDBRANCH   9  10
ENDBRANCH   8   9
ENDBRANCH   1   8
TORSDOF 9
ENDMDL
