MODEL 1
REMARK VINA RESULT:    -5.026      0.000      0.000
REMARK INTER + INTRA:         -10.333
REMARK INTER:                  -9.139
REMARK INTRA:                  -1.194
REMARK UNBOUND:                -1.194
REMARK SMILES CCCCCC=CCC=CCCCCCCCC(=O)[O-]
REMARK SMILES IDX 11 1 12 2 13 3 14 4 15 5 16 6 17 7 18 8 19 9 20 10 10 11
REMARK SMILES IDX 9 12 8 13 7 14 6 15 5 16 4 17 3 18 2 19 1 20
REMARK H PARENT
REMARK Flexibility Score: inf
ROOT
ATOM      1  C   UNL     1      13.963  -1.293 -19.243  1.00  0.00     0.027 C 
ENDROOT
BRANCH   1   2
ATOM      2  C   UNL     1      12.752  -1.840 -18.475  1.00  0.00     0.004 C 
BRANCH   2   3
ATOM      3  C   UNL     1      11.996  -0.734 -17.724  1.00  0.00     0.000 C 
BRANCH   3   4
ATOM      4  C   UNL     1      10.633  -0.461 -18.371  1.00  0.00     0.000 C 
BRANCH   4   5
ATOM      5  C   UNL     1      10.064  -1.737 -19.008  1.00  0.00     0.000 C 
BRANCH   5   6
ATOM      6  C   UNL     1      10.021  -1.665 -20.542  1.00  0.00     0.006 C 
BRANCH   6   7
ATOM      7  C   UNL     1       9.841  -3.043 -21.195  1.00  0.00     0.053 C 
BRANCH   7   8
ATOM      8  C   UNL     1      10.026  -2.946 -22.677  1.00  0.00     0.041 C 
ATOM      9  O   UNL     1      10.494  -1.894 -23.190  1.00  0.00    -0.550 OA
ATOM     10  O   UNL     1       9.736  -4.036 -23.486  1.00  0.00    -0.550 OA
ENDBRANCH   7   8
ENDBRANCH   6   7
ENDBRANCH   5   6
ENDBRANCH   4   5
ENDBRANCH   3   4
ENDBRANCH   2   3
ENDBRANCH   1   2
BRANCH   1  11
ATOM     11  C   UNL     1      13.593  -0.908 -20.656  1.00  0.00    -0.031 C 
ATOM     12  C   UNL     1      13.132   0.302 -21.026  1.00  0.00    -0.027 C 
BRANCH  12  13
ATOM     13  C   UNL     1      12.900   1.439 -20.061  1.00  0.00     0.054 C 
BRANCH  13  14
ATOM     14  C   UNL     1      13.247   2.758 -20.690  1.00  0.00    -0.027 C 
ATOM     15  C   UNL     1      13.169   3.903 -19.995  1.00  0.00    -0.031 C 
BRANCH  15  16
ATOM     16  C   UNL     1      13.497   5.234 -20.619  1.00  0.00     0.027 C 
BRANCH  16  17
ATOM     17  C   UNL     1      14.991   5.556 -20.496  1.00  0.00     0.004 C 
BRANCH  17  18
ATOM     18  C   UNL     1      15.583   6.065 -21.822  1.00  0.00     0.000 C 
BRANCH  18  19
ATOM     19  C   UNL     1      16.764   5.212 -22.308  1.00  0.00    -0.003 C 
ATOM     20  C   UNL     1      16.594   4.732 -23.751  1.00  0.00     0.004 C 
ENDBRANCH  18  19
ENDBRANCH  17  18
ENDBRANCH  16  17
ENDBRANCH  15  16
ENDBRANCH  13  14
ENDBRANCH  12  13
ENDBRANCH   1  11
TORSDOF 14
ENDMDL
MODEL 2
REMARK VINA RESULT:    -4.577      1.339      2.398
REMARK INTER + INTRA:          -9.518
REMARK INTER:                  -8.075
REMARK INTRA:                  -1.443
REMARK UNBOUND:                -1.194
REMARK SMILES CCCCCC=CCC=CCCCCCCCC(=O)[O-]
REMARK SMILES IDX 11 1 12 2 13 3 14 4 15 5 16 6 17 7 18 8 19 9 20 10 10 11
REMARK SMILES IDX 9 12 8 13 7 14 6 15 5 16 4 17 3 18 2 19 1 20
REMARK H PARENT
REMARK Flexibility Score: inf
ROOT
ATOM      1  C   UNL     1      11.702  -0.014 -17.365  1.00  0.00     0.027 C 
ENDROOT
BRANCH   1   2
ATOM      2  C   UNL     1      12.557  -1.289 -17.363  1.00  0.00     0.004 C 
BRANCH   2   3
ATOM      3  C   UNL     1      12.661  -1.917 -18.760  1.00  0.00     0.000 C 
BRANCH   3   4
ATOM      4  C   UNL     1      13.873  -1.370 -19.522  1.00  0.00     0.000 C 
BRANCH   4   5
ATOM      5  C   UNL     1      13.474  -0.914 -20.933  1.00  0.00     0.000 C 
BRANCH   5   6
ATOM      6  C   UNL     1      11.954  -0.761 -21.098  1.00  0.00     0.006 C 
BRANCH   6   7
ATOM      7  C   UNL     1      11.366  -1.747 -22.117  1.00  0.00     0.053 C 
BRANCH   7   8
ATOM      8  C   UNL     1      10.210  -2.487 -21.520  1.00  0.00     0.041 C 
ATOM      9  O   UNL     1       9.719  -3.483 -22.116  1.00  0.00    -0.550 OA
ATOM     10  O   UNL     1       9.713  -2.113 -20.279  1.00  0.00    -0.550 OA
ENDBRANCH   7   8
ENDBRANCH   6   7
ENDBRANCH   5   6
ENDBRANCH   4   5
ENDBRANCH   3   4
ENDBRANCH   2   3
ENDBRANCH   1   2
BRANCH   1  11
ATOM     11  C   UNL     1      12.492   1.181 -16.885  1.00  0.00    -0.031 C 
ATOM     12  C   UNL     1      12.965   2.157 -17.682  1.00  0.00    -0.027 C 
BRANCH  12  13
ATOM     13  C   UNL     1      12.787   2.174 -19.180  1.00  0.00     0.054 C 
BRANCH  13  14
ATOM     14  C   UNL     1      12.853   3.576 -19.714  1.00  0.00    -0.027 C 
ATOM     15  C   UNL     1      14.017   4.119 -20.103  1.00  0.00    -0.031 C 
BRANCH  15  16
ATOM     16  C   UNL     1      14.100   5.530 -20.624  1.00  0.00     0.027 C 
BRANCH  16  17
ATOM     17  C   UNL     1      15.542   5.912 -20.979  1.00  0.00     0.004 C 
BRANCH  17  18
ATOM     18  C   UNL     1      15.727   6.125 -22.492  1.00  0.00     0.000 C 
BRANCH  18  19
ATOM     19  C   UNL     1      16.261   4.873 -23.204  1.00  0.00    -0.003 C 
ATOM     20  C   UNL     1      17.101   5.206 -24.438  1.00  0.00     0.004 C 
ENDBRANCH  18  19
ENDBRANCH  17  18
ENDBRANCH  16  17
ENDBRANCH  15  16
ENDBRANCH  13  14
ENDBRANCH  12  13
ENDBRANCH   1  11
TORSDOF 14
ENDMDL
MODEL 3
REMARK VINA RESULT:    -3.974      3.867      7.822
REMARK INTER + INTRA:          -8.420
REMARK INTER:                  -6.871
REMARK INTRA:                  -1.549
REMARK UNBOUND:                -1.194
REMARK SMILES CCCCCC=CCC=CCCCCCCCC(=O)[O-]
REMARK SMILES IDX 11 1 12 2 13 3 14 4 15 5 16 6 17 7 18 8 19 9 20 10 10 11
REMARK SMILES IDX 9 12 8 13 7 14 6 15 5 16 4 17 3 18 2 19 1 20
REMARK H PARENT
REMARK Flexibility Score: inf
ROOT
ATOM      1  C   UNL     1      12.517   2.531 -19.004  1.00  0.00     0.027 C 
ENDROOT
BRANCH   1   2
ATOM      2  C   UNL     1      13.385   3.495 -19.825  1.00  0.00     0.004 C 
BRANCH   2   3
ATOM      3  C   UNL     1      12.620   4.766 -20.221  1.00  0.00     0.000 C 
BRANCH   3   4
ATOM      4  C   UNL     1      13.585   5.902 -20.578  1.00  0.00     0.000 C 
BRANCH   4   5
ATOM      5  C   UNL     1      15.034   5.397 -20.619  1.00  0.00     0.000 C 
BRANCH   5   6
ATOM      6  C   UNL     1      15.860   6.055 -21.735  1.00  0.00     0.006 C 
BRANCH   6   7
ATOM      7  C   UNL     1      16.434   5.036 -22.728  1.00  0.00     0.053 C 
BRANCH   7   8
ATOM      8  C   UNL     1      17.779   5.478 -23.212  1.00  0.00     0.041 C 
ATOM      9  O   UNL     1      18.666   5.827 -22.387  1.00  0.00    -0.550 OA
ATOM     10  O   UNL     1      18.073   5.451 -24.568  1.00  0.00    -0.550 OA
ENDBRANCH   7   8
ENDBRANCH   6   7
ENDBRANCH   5   6
ENDBRANCH   4   5
ENDBRANCH   3   4
ENDBRANCH   2   3
ENDBRANCH   1   2
BRANCH   1  11
ATOM     11  C   UNL     1      13.265   2.000 -17.803  1.00  0.00    -0.031 C 
ATOM     12  C   UNL     1      12.772   1.104 -16.928  1.00  0.00    -0.027 C 
BRANCH  12  13
ATOM     13  C   UNL     1      11.384   0.521 -17.020  1.00  0.00     0.054 C 
BRANCH  13  14
ATOM     14  C   UNL     1      11.309  -0.526 -18.095  1.00  0.00    -0.027 C 
ATOM     15  C   UNL     1      10.239  -0.623 -18.899  1.00  0.00    -0.031 C 
BRANCH  15  16
ATOM     16  C   UNL     1      10.143  -1.679 -19.968  1.00  0.00     0.027 C 
BRANCH  16  17
ATOM     17  C   UNL     1      11.500  -1.920 -20.640  1.00  0.00     0.004 C 
BRANCH  17  18
ATOM     18  C   UNL     1      11.933  -0.728 -21.511  1.00  0.00     0.000 C 
BRANCH  18  19
ATOM     19  C   UNL     1      13.375  -0.282 -21.227  1.00  0.00    -0.003 C 
ATOM     20  C   UNL     1      14.046  -1.108 -20.128  1.00  0.00     0.004 C 
ENDBRANCH  18  19
ENDBRANCH  17  18
ENDBRANCH  16  17
ENDBRANCH  15  16
ENDBRANCH  13  14
ENDBRANCH  12  13
ENDBRANCH   1  11
TORSDOF 14
ENDMDL
MODEL 4
REMARK VINA RESULT:    -3.827      2.782      3.626
REMARK INTER + INTRA:          -8.152
REMARK INTER:                  -6.903
REMARK INTRA:                  -1.249
REMARK UNBOUND:                -1.194
REMARK SMILES CCCCCC=CCC=CCCCCCCCC(=O)[O-]
REMARK SMILES IDX 11 1 12 2 13 3 14 4 15 5 16 6 17 7 18 8 19 9 20 10 10 11
REMARK SMILES IDX 9 12 8 13 7 14 6 15 5 16 4 17 3 18 2 19 1 20
REMARK H PARENT
REMARK Flexibility Score: inf
ROOT
ATOM      1  C   UNL     1      13.763  -0.438 -20.083  1.00  0.00     0.027 C 
ENDROOT
BRANCH   1   2
ATOM      2  C   UNL     1      12.876  -1.676 -19.895  1.00  0.00     0.004 C 
BRANCH   2   3
ATOM      3  C   UNL     1      11.559  -1.568 -20.677  1.00  0.00     0.000 C 
BRANCH   3   4
ATOM      4  C   UNL     1      10.351  -1.762 -19.754  1.00  0.00     0.000 C 
BRANCH   4   5
ATOM      5  C   UNL     1       9.915  -0.427 -19.133  1.00  0.00     0.000 C 
BRANCH   5   6
ATOM      6  C   UNL     1      10.389  -0.266 -17.681  1.00  0.00     0.006 C 
BRANCH   6   7
ATOM      7  C   UNL     1      11.470   0.812 -17.525  1.00  0.00     0.053 C 
BRANCH   7   8
ATOM      8  C   UNL     1      12.600   0.302 -16.688  1.00  0.00     0.041 C 
ATOM      9  O   UNL     1      13.617   1.019 -16.490  1.00  0.00    -0.550 OA
ATOM     10  O   UNL     1      12.506  -0.942 -16.079  1.00  0.00    -0.550 OA
ENDBRANCH   7   8
ENDBRANCH   6   7
ENDBRANCH   5   6
ENDBRANCH   4   5
ENDBRANCH   3   4
ENDBRANCH   2   3
ENDBRANCH   1   2
BRANCH   1  11
ATOM     11  C   UNL     1      13.240   0.453 -21.186  1.00  0.00    -0.031 C 
ATOM     12  C   UNL     1      12.882   1.740 -21.026  1.00  0.00    -0.027 C 
BRANCH  12  13
ATOM     13  C   UNL     1      12.934   2.465 -19.704  1.00  0.00     0.054 C 
BRANCH  13  14
ATOM     14  C   UNL     1      13.215   3.927 -19.902  1.00  0.00    -0.027 C 
ATOM     15  C   UNL     1      14.307   4.343 -20.561  1.00  0.00    -0.031 C 
BRANCH  15  16
ATOM     16  C   UNL     1      14.610   5.806 -20.751  1.00  0.00     0.027 C 
BRANCH  16  17
ATOM     17  C   UNL     1      16.070   6.125 -20.404  1.00  0.00     0.004 C 
BRANCH  17  18
ATOM     18  C   UNL     1      16.973   6.125 -21.649  1.00  0.00     0.000 C 
BRANCH  18  19
ATOM     19  C   UNL     1      16.773   4.878 -22.524  1.00  0.00    -0.003 C 
ATOM     20  C   UNL     1      16.622   5.214 -24.009  1.00  0.00     0.004 C 
ENDBRANCH  18  19
ENDBRANCH  17  18
ENDBRANCH  16  17
ENDBRANCH  15  16
ENDBRANCH  13  14
ENDBRANCH  12  13
ENDBRANCH   1  11
TORSDOF 14
ENDMDL
MODEL 5
REMARK VINA RESULT:    -3.755      1.879      2.903
REMARK INTER + INTRA:          -8.022
REMARK INTER:                  -7.278
REMARK INTRA:                  -0.744
REMARK UNBOUND:                -1.194
REMARK SMILES CCCCCC=CCC=CCCCCCCCC(=O)[O-]
REMARK SMILES IDX 11 1 12 2 13 3 14 4 15 5 16 6 17 7 18 8 19 9 20 10 10 11
REMARK SMILES IDX 9 12 8 13 7 14 6 15 5 16 4 17 3 18 2 19 1 20
REMARK H PARENT
REMARK Flexibility Score: inf
ROOT
ATOM      1  C   UNL     1      12.059  -0.443 -17.371  1.00  0.00     0.027 C 
ENDROOT
BRANCH   1   2
ATOM      2  C   UNL     1      10.538  -0.380 -17.564  1.00  0.00     0.004 C 
BRANCH   2   3
ATOM      3  C   UNL     1      10.140  -0.462 -19.045  1.00  0.00     0.000 C 
BRANCH   3   4
ATOM      4  C   UNL     1       9.550  -1.837 -19.382  1.00  0.00     0.000 C 
BRANCH   4   5
ATOM      5  C   UNL     1      10.111  -2.363 -20.711  1.00  0.00     0.000 C 
BRANCH   5   6
ATOM      6  C   UNL     1      11.320  -1.554 -21.205  1.00  0.00     0.006 C 
BRANCH   6   7
ATOM      7  C   UNL     1      12.579  -1.794 -20.360  1.00  0.00     0.053 C 
BRANCH   7   8
ATOM      8  C   UNL     1      13.639  -0.797 -20.709  1.00  0.00     0.041 C 
ATOM      9  O   UNL     1      13.370   0.176 -21.463  1.00  0.00    -0.550 OA
ATOM     10  O   UNL     1      14.907  -0.909 -20.155  1.00  0.00    -0.550 OA
ENDBRANCH   7   8
ENDBRANCH   6   7
ENDBRANCH   5   6
ENDBRANCH   4   5
ENDBRANCH   3   4
ENDBRANCH   2   3
ENDBRANCH   1   2
BRANCH   1  11
ATOM     11  C   UNL     1      12.576   0.783 -16.656  1.00  0.00    -0.031 C 
ATOM     12  C   UNL     1      12.869   1.953 -17.254  1.00  0.00    -0.027 C 
BRANCH  12  13
ATOM     13  C   UNL     1      12.738   2.189 -18.738  1.00  0.00     0.054 C 
BRANCH  13  14
ATOM     14  C   UNL     1      13.256   3.547 -19.116  1.00  0.00    -0.027 C 
ATOM     15  C   UNL     1      12.986   4.087 -20.314  1.00  0.00    -0.031 C 
BRANCH  15  16
ATOM     16  C   UNL     1      13.515   5.440 -20.712  1.00  0.00     0.027 C 
BRANCH  16  17
ATOM     17  C   UNL     1      15.046   5.487 -20.637  1.00  0.00     0.004 C 
BRANCH  17  18
ATOM     18  C   UNL     1      15.674   5.989 -21.949  1.00  0.00     0.000 C 
BRANCH  18  19
ATOM     19  C   UNL     1      16.454   4.891 -22.688  1.00  0.00    -0.003 C 
ATOM     20  C   UNL     1      16.975   5.351 -24.051  1.00  0.00     0.004 C 
ENDBRANCH  18  19
ENDBRANCH  17  18
ENDBRANCH  16  17
ENDBRANCH  15  16
ENDBRANCH  13  14
ENDBRANCH  12  13
ENDBRANCH   1  11
TORSDOF 14
ENDMDL
MODEL 6
REMARK VINA RESULT:    -3.680      1.340      2.629
REMARK INTER + INTRA:          -7.886
REMARK INTER:                  -6.612
REMARK INTRA:                  -1.275
REMARK UNBOUND:                -1.194
REMARK SMILES CCCCCC=CCC=CCCCCCCCC(=O)[O-]
REMARK SMILES IDX 11 1 12 2 13 3 14 4 15 5 16 6 17 7 18 8 19 9 20 10 10 11
REMARK SMILES IDX 9 12 8 13 7 14 6 15 5 16 4 17 3 18 2 19 1 20
REMARK H PARENT
REMARK Flexibility Score: inf
ROOT
ATOM      1  C   UNL     1      12.325   2.123 -18.290  1.00  0.00     0.027 C 
ENDROOT
BRANCH   1   2
ATOM      2  C   UNL     1      13.007   1.250 -17.228  1.00  0.00     0.004 C 
BRANCH   2   3
ATOM      3  C   UNL     1      12.138   0.051 -16.821  1.00  0.00     0.000 C 
BRANCH   3   4
ATOM      4  C   UNL     1      12.814  -1.273 -17.195  1.00  0.00     0.000 C 
BRANCH   4   5
ATOM      5  C   UNL     1      13.067  -1.351 -18.708  1.00  0.00     0.000 C 
BRANCH   5   6
ATOM      6  C   UNL     1      11.809  -1.741 -19.499  1.00  0.00     0.006 C 
BRANCH   6   7
ATOM      7  C   UNL     1      11.843  -1.241 -20.950  1.00  0.00     0.053 C 
BRANCH   7   8
ATOM      8  C   UNL     1      10.686  -1.796 -21.720  1.00  0.00     0.041 C 
ATOM      9  O   UNL     1      10.639  -1.670 -22.973  1.00  0.00    -0.550 OA
ATOM     10  O   UNL     1       9.689  -2.503 -21.062  1.00  0.00    -0.550 OA
ENDBRANCH   7   8
ENDBRANCH   6   7
ENDBRANCH   5   6
ENDBRANCH   4   5
ENDBRANCH   3   4
ENDBRANCH   2   3
ENDBRANCH   1   2
BRANCH   1  11
ATOM     11  C   UNL     1      12.998   1.983 -19.636  1.00  0.00    -0.031 C 
ATOM     12  C   UNL     1      13.254   3.003 -20.475  1.00  0.00    -0.027 C 
BRANCH  12  13
ATOM     13  C   UNL     1      12.877   4.436 -20.189  1.00  0.00     0.054 C 
BRANCH  13  14
ATOM     14  C   UNL     1      14.096   5.312 -20.134  1.00  0.00    -0.027 C 
ATOM     15  C   UNL     1      15.110   5.149 -20.998  1.00  0.00    -0.031 C 
BRANCH  15  16
ATOM     16  C   UNL     1      16.345   6.009 -20.942  1.00  0.00     0.027 C 
BRANCH  16  17
ATOM     17  C   UNL     1      17.191   5.857 -22.213  1.00  0.00     0.004 C 
BRANCH  17  18
ATOM     18  C   UNL     1      16.696   4.704 -23.102  1.00  0.00     0.000 C 
BRANCH  18  19
ATOM     19  C   UNL     1      16.792   5.029 -24.600  1.00  0.00    -0.003 C 
ATOM     20  C   UNL     1      17.820   6.121 -24.904  1.00  0.00     0.004 C 
ENDBRANCH  18  19
ENDBRANCH  17  18
ENDBRANCH  16  17
ENDBRANCH  15  16
ENDBRANCH  13  14
ENDBRANCH  12  13
ENDBRANCH   1  11
TORSDOF 14
ENDMDL
MODEL 7
REMARK VINA RESULT:    -3.621      3.343      6.868
REMARK INTER + INTRA:          -7.779
REMARK INTER:                  -6.042
REMARK INTRA:                  -1.737
REMARK UNBOUND:                -1.194
REMARK SMILES CCCCCC=CCC=CCCCCCCCC(=O)[O-]
REMARK SMILES IDX 11 1 12 2 13 3 14 4 15 5 16 6 17 7 18 8 19 9 20 10 10 11
REMARK SMILES IDX 9 12 8 13 7 14 6 15 5 16 4 17 3 18 2 19 1 20
REMARK H PARENT
REMARK Flexibility Score: inf
ROOT
ATOM      1  C   UNL     1      12.805  -1.726 -17.242  1.00  0.00     0.027 C 
ENDROOT
BRANCH   1   2
ATOM      2  C   UNL     1      13.480  -2.121 -18.563  1.00  0.00     0.004 C 
BRANCH   2   3
ATOM      3  C   UNL     1      14.265  -0.955 -19.181  1.00  0.00     0.000 C 
BRANCH   3   4
ATOM      4  C   UNL     1      14.262  -1.038 -20.712  1.00  0.00     0.000 C 
BRANCH   4   5
ATOM      5  C   UNL     1      13.282  -0.021 -21.313  1.00  0.00     0.000 C 
BRANCH   5   6
ATOM      6  C   UNL     1      12.894   1.087 -20.322  1.00  0.00     0.006 C 
BRANCH   6   7
ATOM      7  C   UNL     1      13.074   2.495 -20.906  1.00  0.00     0.053 C 
BRANCH   7   8
ATOM      8  C   UNL     1      13.297   3.490 -19.811  1.00  0.00     0.041 C 
ATOM      9  O   UNL     1      13.460   4.709 -20.086  1.00  0.00    -0.550 OA
ATOM     10  O   UNL     1      13.268   3.080 -18.485  1.00  0.00    -0.550 OA
ENDBRANCH   7   8
ENDBRANCH   6   7
ENDBRANCH   5   6
ENDBRANCH   4   5
ENDBRANCH   3   4
ENDBRANCH   2   3
ENDBRANCH   1   2
BRANCH   1  11
ATOM     11  C   UNL     1      12.853  -0.232 -17.022  1.00  0.00    -0.031 C 
ATOM     12  C   UNL     1      11.779   0.579 -17.033  1.00  0.00    -0.027 C 
BRANCH  12  13
ATOM     13  C   UNL     1      10.371   0.099 -17.291  1.00  0.00     0.054 C 
BRANCH  13  14
ATOM     14  C   UNL     1      10.247  -0.490 -18.667  1.00  0.00    -0.027 C 
ATOM     15  C   UNL     1       9.631  -1.666 -18.867  1.00  0.00    -0.031 C 
BRANCH  15  16
ATOM     16  C   UNL     1       9.516  -2.277 -20.239  1.00  0.00     0.027 C 
BRANCH  16  17
ATOM     17  C   UNL     1      10.799  -2.071 -21.053  1.00  0.00     0.004 C 
BRANCH  17  18
ATOM     18  C   UNL     1      10.631  -2.511 -22.518  1.00  0.00     0.000 C 
BRANCH  18  19
ATOM     19  C   UNL     1       9.868  -3.838 -22.652  1.00  0.00    -0.003 C 
ATOM     20  C   UNL     1       9.080  -3.938 -23.960  1.00  0.00     0.004 C 
ENDBRANCH  18  19
ENDBRANCH  17  18
ENDBRANCH  16  17
ENDBRANCH  15  16
ENDBRANCH  13  14
ENDBRANCH  12  13
ENDBRANCH   1  11
TORSDOF 14
ENDMDL
MODEL 8
REMARK VINA RESULT:    -3.576      0.833      2.066
REMARK INTER + INTRA:          -7.697
REMARK INTER:                  -7.049
REMARK INTRA:                  -0.649
REMARK UNBOUND:                -1.194
REMARK SMILES CCCCCC=CCC=CCCCCCCCC(=O)[O-]
REMARK SMILES IDX 11 1 12 2 13 3 14 4 15 5 16 6 17 7 18 8 19 9 20 10 10 11
REMARK SMILES IDX 9 12 8 13 7 14 6 15 5 16 4 17 3 18 2 19 1 20
REMARK H PARENT
REMARK Flexibility Score: inf
ROOT
ATOM      1  C   UNL     1      13.237   0.251 -17.618  1.00  0.00     0.027 C 
ENDROOT
BRANCH   1   2
ATOM      2  C   UNL     1      11.958   0.633 -16.861  1.00  0.00     0.004 C 
BRANCH   2   3
ATOM      3  C   UNL     1      10.822  -0.372 -17.102  1.00  0.00     0.000 C 
BRANCH   3   4
ATOM      4  C   UNL     1      10.224  -0.203 -18.504  1.00  0.00     0.000 C 
BRANCH   4   5
ATOM      5  C   UNL     1       9.879  -1.567 -19.119  1.00  0.00     0.000 C 
BRANCH   5   6
ATOM      6  C   UNL     1      10.325  -1.686 -20.585  1.00  0.00     0.006 C 
BRANCH   6   7
ATOM      7  C   UNL     1       9.864  -2.995 -21.240  1.00  0.00     0.053 C 
BRANCH   7   8
ATOM      8  C   UNL     1      10.018  -2.917 -22.726  1.00  0.00     0.041 C 
ATOM      9  O   UNL     1      10.439  -1.859 -23.265  1.00  0.00    -0.550 OA
ATOM     10  O   UNL     1       9.752  -4.031 -23.511  1.00  0.00    -0.550 OA
ENDBRANCH   7   8
ENDBRANCH   6   7
ENDBRANCH   5   6
ENDBRANCH   4   5
ENDBRANCH   3   4
ENDBRANCH   2   3
ENDBRANCH   1   2
BRANCH   1  11
ATOM     11  C   UNL     1      13.276  -1.228 -17.925  1.00  0.00    -0.031 C 
ATOM     12  C   UNL     1      13.568  -1.753 -19.129  1.00  0.00    -0.027 C 
BRANCH  12  13
ATOM     13  C   UNL     1      13.875  -0.924 -20.351  1.00  0.00     0.054 C 
BRANCH  13  14
ATOM     14  C   UNL     1      13.108   0.367 -20.333  1.00  0.00    -0.027 C 
ATOM     15  C   UNL     1      13.556   1.452 -20.983  1.00  0.00    -0.031 C 
BRANCH  15  16
ATOM     16  C   UNL     1      12.806   2.758 -20.958  1.00  0.00     0.027 C 
BRANCH  16  17
ATOM     17  C   UNL     1      13.424   3.739 -19.954  1.00  0.00     0.004 C 
BRANCH  17  18
ATOM     18  C   UNL     1      13.472   5.175 -20.504  1.00  0.00     0.000 C 
BRANCH  18  19
ATOM     19  C   UNL     1      14.878   5.789 -20.433  1.00  0.00    -0.003 C 
ATOM     20  C   UNL     1      15.775   5.350 -21.591  1.00  0.00     0.004 C 
ENDBRANCH  18  19
ENDBRANCH  17  18
ENDBRANCH  16  17
ENDBRANCH  15  16
ENDBRANCH  13  14
ENDBRANCH  12  13
ENDBRANCH   1  11
TORSDOF 14
ENDMDL
