MODEL 1
REMARK VINA RESULT:    -3.654      0.000      0.000
REMARK INTER + INTRA:          -3.991
REMARK INTER:                  -3.867
REMARK INTRA:                  -0.124
REMARK UNBOUND:                -0.124
REMARK SMILES C=C(C)[C@H]1CC=C(C)CC1
REMARK SMILES IDX 8 1 7 2 6 3 5 4 4 5 10 6 9 7 2 8 1 9 3 10
REMARK H PARENT
REMARK Flexibility Score: inf
ROOT
ATOM      1  C   UNL     1       3.250   4.878  12.010  1.00  0.00     0.039 C 
ATOM      2  C   UNL     1       4.493   5.643  12.376  1.00  0.00    -0.077 C 
ATOM      3  C   UNL     1       4.448   6.993  12.400  1.00  0.00    -0.027 C 
ATOM      4  C   UNL     1       5.653   7.849  12.701  1.00  0.00     0.035 C 
ATOM      5  C   UNL     1       6.726   7.085  13.498  1.00  0.00     0.018 C 
ATOM      6  C   UNL     1       6.994   5.724  12.838  1.00  0.00     0.013 C 
ATOM      7  C   UNL     1       5.717   4.875  12.837  1.00  0.00     0.031 C 
ENDROOT
BRANCH   5   8
ATOM      8  C   UNL     1       8.003   7.902  13.645  1.00  0.00    -0.077 C 
ATOM      9  C   UNL     1       9.021   7.772  12.778  1.00  0.00     0.008 C 
ATOM     10  C   UNL     1       8.147   8.879  14.784  1.00  0.00     0.039 C 
ENDBRANCH   5   8
TORSDOF 1
ENDMDL
MODEL 2
REMARK VINA RESULT:    -2.400      0.995      4.409
REMARK INTER + INTRA:          -2.665
REMARK INTER:                  -2.538
REMARK INTRA:                  -0.127
REMARK UNBOUND:                -0.124
REMARK SMILES C=C(C)[C@H]1CC=C(C)CC1
REMARK SMILES IDX 8 1 7 2 6 3 5 4 4 5 10 6 9 7 2 8 1 9 3 10
REMARK H PARENT
REMARK Flexibility Score: inf
ROOT
ATOM      1  C   UNL     1       9.957   8.265  13.526  1.00  0.00     0.039 C 
ATOM      2  C   UNL     1       8.549   7.751  13.395  1.00  0.00    -0.077 C 
ATOM      3  C   UNL     1       7.601   8.218  14.236  1.00  0.00    -0.027 C 
ATOM      4  C   UNL     1       6.175   7.726  14.220  1.00  0.00     0.035 C 
ATOM      5  C   UNL     1       5.788   7.109  12.864  1.00  0.00     0.018 C 
ATOM      6  C   UNL     1       6.867   6.111  12.417  1.00  0.00     0.013 C 
ATOM      7  C   UNL     1       8.210   6.830  12.239  1.00  0.00     0.031 C 
ENDROOT
BRANCH   5   8
ATOM      8  C   UNL     1       4.409   6.463  12.915  1.00  0.00    -0.077 C 
ATOM      9  C   UNL     1       3.345   7.124  13.405  1.00  0.00     0.008 C 
ATOM     10  C   UNL     1       4.216   5.055  12.415  1.00  0.00     0.039 C 
ENDBRANCH   5   8
TORSDOF 1
ENDMDL
