MODEL 1
REMARK VINA RESULT:    -2.790      0.000      0.000
REMARK INTER + INTRA:          -3.035
REMARK INTER:                  -3.035
REMARK INTRA:                   0.000
REMARK UNBOUND:                 0.000
REMARK SMILES [NH3+]CC(=O)[O-]
REMARK SMILES IDX 2 1 1 2 3 6 4 7 5 8
REMARK H PARENT 1 3 1 4 1 5
REMARK Flexibility Score: inf
ROOT
ATOM      1  C   UNL     1     101.887 118.645 111.408  1.00  0.00     0.312 C 
ENDROOT
BRANCH   1   2
ATOM      2  N   UNL     1     101.550 117.482 110.589  1.00  0.00    -0.353 N 
ATOM      3  H   UNL     1     101.510 117.771 109.585  1.00  0.00     0.344 HD
ATOM      4  H   UNL     1     102.282 116.741 110.700  1.00  0.00     0.344 HD
ATOM      5  H   UNL     1     100.617 117.103 110.872  1.00  0.00     0.344 HD
ENDBRANCH   1   2
BRANCH   1   6
ATOM      6  C   UNL     1     102.013 118.259 112.850  1.00  0.00     0.096 C 
ATOM      7  O   UNL     1     102.963 117.526 113.229  1.00  0.00    -0.544 OA
ATOM      8  O   UNL     1     101.049 118.666 113.764  1.00  0.00    -0.544 OA
ENDBRANCH   1   6
TORSDOF 2
ENDMDL
MODEL 2
REMARK VINA RESULT:    -2.470      2.325      2.528
REMARK INTER + INTRA:          -2.687
REMARK INTER:                  -2.687
REMARK INTRA:                   0.000
REMARK UNBOUND:                 0.000
REMARK SMILES [NH3+]CC(=O)[O-]
REMARK SMILES IDX 2 1 1 2 3 6 4 7 5 8
REMARK H PARENT 1 3 1 4 1 5
REMARK Flexibility Score: inf
ROOT
ATOM      1  C   UNL     1     102.721 117.654 113.559  1.00  0.00     0.312 C 
ENDROOT
BRANCH   1   2
ATOM      2  N   UNL     1     102.993 118.729 114.510  1.00  0.00    -0.353 N 
ATOM      3  H   UNL     1     102.130 119.309 114.627  1.00  0.00     0.344 HD
ATOM      4  H   UNL     1     103.260 118.329 115.439  1.00  0.00     0.344 HD
ATOM      5  H   UNL     1     103.764 119.338 114.152  1.00  0.00     0.344 HD
ENDBRANCH   1   2
BRANCH   1   6
ATOM      6  C   UNL     1     102.018 118.183 112.347  1.00  0.00     0.096 C 
ATOM      7  O   UNL     1     102.380 117.822 111.197  1.00  0.00    -0.544 OA
ATOM      8  O   UNL     1     100.999 119.116 112.488  1.00  0.00    -0.544 OA
ENDBRANCH   1   6
TORSDOF 2
ENDMDL
MODEL 3
REMARK VINA RESULT:    -2.049     13.052     13.519
REMARK INTER + INTRA:          -2.229
REMARK INTER:                  -2.229
REMARK INTRA:                   0.000
REMARK UNBOUND:                 0.000
REMARK SMILES [NH3+]CC(=O)[O-]
REMARK SMILES IDX 2 1 1 2 3 6 4 7 5 8
REMARK H PARENT 1 3 1 4 1 5
REMARK Flexibility Score: inf
ROOT
ATOM      1  C   UNL     1     111.242 115.013 104.861  1.00  0.00     0.312 C 
ENDROOT
BRANCH   1   2
ATOM      2  N   UNL     1     111.627 113.615 105.042  1.00  0.00    -0.353 N 
ATOM      3  H   UNL     1     112.311 113.350 104.297  1.00  0.00     0.344 HD
ATOM      4  H   UNL     1     112.077 113.485 105.978  1.00  0.00     0.344 HD
ATOM      5  H   UNL     1     110.785 112.998 104.965  1.00  0.00     0.344 HD
ENDBRANCH   1   2
BRANCH   1   6
ATOM      6  C   UNL     1     111.947 115.608 103.682  1.00  0.00     0.096 C 
ATOM      7  O   UNL     1     112.691 114.893 102.961  1.00  0.00    -0.544 OA
ATOM      8  O   UNL     1     111.823 116.965 103.410  1.00  0.00    -0.544 OA
ENDBRANCH   1   6
TORSDOF 2
ENDMDL
MODEL 4
REMARK VINA RESULT:    -2.047     12.977     13.316
REMARK INTER + INTRA:          -2.226
REMARK INTER:                  -2.226
REMARK INTRA:                   0.000
REMARK UNBOUND:                 0.000
REMARK SMILES [NH3+]CC(=O)[O-]
REMARK SMILES IDX 2 1 1 2 3 6 4 7 5 8
REMARK H PARENT 1 3 1 4 1 5
REMARK Flexibility Score: inf
ROOT
ATOM      1  C   UNL     1     101.784 107.772 104.937  1.00  0.00     0.312 C 
ENDROOT
BRANCH   1   2
ATOM      2  N   UNL     1     102.871 108.749 104.973  1.00  0.00    -0.353 N 
ATOM      3  H   UNL     1     103.433 108.603 105.842  1.00  0.00     0.344 HD
ATOM      4  H   UNL     1     103.494 108.623 104.141  1.00  0.00     0.344 HD
ATOM      5  H   UNL     1     102.480 109.719 104.980  1.00  0.00     0.344 HD
ENDBRANCH   1   2
BRANCH   1   6
ATOM      6  C   UNL     1     100.952 107.952 103.705  1.00  0.00     0.096 C 
ATOM      7  O   UNL     1     101.127 108.953 102.963  1.00  0.00    -0.544 OA
ATOM      8  O   UNL     1      99.949 107.039 103.406  1.00  0.00    -0.544 OA
ENDBRANCH   1   6
TORSDOF 2
ENDMDL
MODEL 5
REMARK VINA RESULT:    -2.043     13.060     13.615
REMARK INTER + INTRA:          -2.222
REMARK INTER:                  -2.222
REMARK INTRA:                   0.000
REMARK UNBOUND:                 0.000
REMARK SMILES [NH3+]CC(=O)[O-]
REMARK SMILES IDX 2 1 1 2 3 6 4 7 5 8
REMARK H PARENT 1 3 1 4 1 5
REMARK Flexibility Score: inf
ROOT
ATOM      1  C   UNL     1     111.248 115.031 104.853  1.00  0.00     0.312 C 
ENDROOT
BRANCH   1   2
ATOM      2  N   UNL     1     111.638 113.635 105.035  1.00  0.00    -0.353 N 
ATOM      3  H   UNL     1     110.882 113.017 104.662  1.00  0.00     0.344 HD
ATOM      4  H   UNL     1     112.524 113.438 104.512  1.00  0.00     0.344 HD
ATOM      5  H   UNL     1     111.774 113.430 106.052  1.00  0.00     0.344 HD
ENDBRANCH   1   2
BRANCH   1   6
ATOM      6  C   UNL     1     111.988 115.642 103.703  1.00  0.00     0.096 C 
ATOM      7  O   UNL     1     111.897 116.876 103.475  1.00  0.00    -0.544 OA
ATOM      8  O   UNL     1     112.737 114.838 102.854  1.00  0.00    -0.544 OA
ENDBRANCH   1   6
TORSDOF 2
ENDMDL
MODEL 6
REMARK VINA RESULT:    -2.040     20.425     20.856
REMARK INTER + INTRA:          -2.219
REMARK INTER:                  -2.219
REMARK INTRA:                   0.000
REMARK UNBOUND:                 0.000
REMARK SMILES [NH3+]CC(=O)[O-]
REMARK SMILES IDX 2 1 1 2 3 6 4 7 5 8
REMARK H PARENT 1 3 1 4 1 5
REMARK Flexibility Score: inf
ROOT
ATOM      1  C   UNL     1     112.775 103.014 104.978  1.00  0.00     0.312 C 
ENDROOT
BRANCH   1   2
ATOM      2  N   UNL     1     111.389 103.470 105.064  1.00  0.00    -0.353 N 
ATOM      3  H   UNL     1     111.024 103.639 104.099  1.00  0.00     0.344 HD
ATOM      4  H   UNL     1     110.799 102.740 105.527  1.00  0.00     0.344 HD
ATOM      5  H   UNL     1     111.339 104.363 105.607  1.00  0.00     0.344 HD
ENDBRANCH   1   2
BRANCH   1   6
ATOM      6  C   UNL     1     112.983 102.183 103.749  1.00  0.00     0.096 C 
ATOM      7  O   UNL     1     114.137 101.789 103.438  1.00  0.00    -0.544 OA
ATOM      8  O   UNL     1     111.908 101.890 102.919  1.00  0.00    -0.544 OA
ENDBRANCH   1   6
TORSDOF 2
ENDMDL
MODEL 7
REMARK VINA RESULT:    -2.027     13.096     13.332
REMARK INTER + INTRA:          -2.205
REMARK INTER:                  -2.205
REMARK INTRA:                   0.000
REMARK UNBOUND:                 0.000
REMARK SMILES [NH3+]CC(=O)[O-]
REMARK SMILES IDX 2 1 1 2 3 6 4 7 5 8
REMARK H PARENT 1 3 1 4 1 5
REMARK Flexibility Score: inf
ROOT
ATOM      1  C   UNL     1     101.806 107.529 104.662  1.00  0.00     0.312 C 
ENDROOT
BRANCH   1   2
ATOM      2  N   UNL     1     102.692 108.618 105.069  1.00  0.00    -0.353 N 
ATOM      3  H   UNL     1     102.955 108.487 106.072  1.00  0.00     0.344 HD
ATOM      4  H   UNL     1     103.561 108.610 104.486  1.00  0.00     0.344 HD
ATOM      5  H   UNL     1     102.203 109.537 104.963  1.00  0.00     0.344 HD
ENDBRANCH   1   2
BRANCH   1   6
ATOM      6  C   UNL     1     100.801 108.011 103.661  1.00  0.00     0.096 C 
ATOM      7  O   UNL     1      99.686 107.438 103.556  1.00  0.00    -0.544 OA
ATOM      8  O   UNL     1     101.119 109.061 102.808  1.00  0.00    -0.544 OA
ENDBRANCH   1   6
TORSDOF 2
ENDMDL
MODEL 8
REMARK VINA RESULT:    -1.924     18.484     18.981
REMARK INTER + INTRA:          -2.093
REMARK INTER:                  -2.093
REMARK INTRA:                   0.000
REMARK UNBOUND:                 0.000
REMARK SMILES [NH3+]CC(=O)[O-]
REMARK SMILES IDX 2 1 1 2 3 6 4 7 5 8
REMARK H PARENT 1 3 1 4 1 5
REMARK Flexibility Score: inf
ROOT
ATOM      1  C   UNL     1     114.354 113.460  99.024  1.00  0.00     0.312 C 
ENDROOT
BRANCH   1   2
ATOM      2  N   UNL     1     113.788 114.768  99.342  1.00  0.00    -0.353 N 
ATOM      3  H   UNL     1     114.498 115.332  99.861  1.00  0.00     0.344 HD
ATOM      4  H   UNL     1     113.533 115.273  98.461  1.00  0.00     0.344 HD
ATOM      5  H   UNL     1     112.939 114.655  99.943  1.00  0.00     0.344 HD
ENDBRANCH   1   2
BRANCH   1   6
ATOM      6  C   UNL     1     115.594 113.211  99.827  1.00  0.00     0.096 C 
ATOM      7  O   UNL     1     116.719 113.182  99.263  1.00  0.00    -0.544 OA
ATOM      8  O   UNL     1     115.500 112.959 101.190  1.00  0.00    -0.544 OA
ENDBRANCH   1   6
TORSDOF 2
ENDMDL
MODEL 9
REMARK VINA RESULT:    -1.869     21.101     21.540
REMARK INTER + INTRA:          -2.033
REMARK INTER:                  -2.033
REMARK INTRA:                   0.000
REMARK UNBOUND:                 0.000
REMARK SMILES [NH3+]CC(=O)[O-]
REMARK SMILES IDX 2 1 1 2 3 6 4 7 5 8
REMARK H PARENT 1 3 1 4 1 5
REMARK Flexibility Score: inf
ROOT
ATOM      1  C   UNL     1     112.752 102.713 102.488  1.00  0.00     0.312 C 
ENDROOT
BRANCH   1   2
ATOM      2  N   UNL     1     113.226 101.838 101.418  1.00  0.00    -0.353 N 
ATOM      3  H   UNL     1     113.932 102.352 100.843  1.00  0.00     0.344 HD
ATOM      4  H   UNL     1     113.676 100.985 101.825  1.00  0.00     0.344 HD
ATOM      5  H   UNL     1     112.427 101.558 100.804  1.00  0.00     0.344 HD
ENDBRANCH   1   2
BRANCH   1   6
ATOM      6  C   UNL     1     113.164 102.182 103.827  1.00  0.00     0.096 C 
ATOM      7  O   UNL     1     113.865 101.141 103.907  1.00  0.00    -0.544 OA
ATOM      8  O   UNL     1     112.727 102.810 104.987  1.00  0.00    -0.544 OA
ENDBRANCH   1   6
TORSDOF 2
ENDMDL
