MODEL 1
REMARK VINA RESULT:    -3.788      0.000      0.000
REMARK INTER + INTRA:          -9.634
REMARK INTER:                  -7.331
REMARK INTRA:                  -2.303
REMARK UNBOUND:                -2.303
REMARK SMILES CCCCCCCCCCCCCCCCCC(=O)[O-]
REMARK SMILES IDX 10 1 11 2 12 3 13 4 14 5 15 6 16 7 17 8 18 9 19 10 20 11
REMARK SMILES IDX 9 12 8 13 7 14 6 15 5 16 4 17 3 18 2 19 1 20
REMARK H PARENT
REMARK Flexibility Score: inf
ROOT
ATOM      1  C   UNL     1       1.149   6.434  10.250  1.00  0.00     0.000 C 
ENDROOT
BRANCH   1   2
ATOM      2  C   UNL     1       1.991   6.804   9.012  1.00  0.00     0.000 C 
BRANCH   2   3
ATOM      3  C   UNL     1       1.587   8.117   8.319  1.00  0.00     0.000 C 
BRANCH   3   4
ATOM      4  C   UNL     1       0.547   8.918   9.121  1.00  0.00     0.000 C 
BRANCH   4   5
ATOM      5  C   UNL     1       1.173  10.080   9.912  1.00  0.00     0.000 C 
BRANCH   5   6
ATOM      6  C   UNL     1       2.402  10.733   9.247  1.00  0.00     0.000 C 
BRANCH   6   7
ATOM      7  C   UNL     1       3.702  10.677  10.074  1.00  0.00     0.006 C 
BRANCH   7   8
ATOM      8  C   UNL     1       4.987  10.610   9.234  1.00  0.00     0.053 C 
BRANCH   8   9
ATOM      9  C   UNL     1       5.047   9.365   8.405  1.00  0.00     0.041 C 
ATOM     10  O   UNL     1       4.743   9.400   7.184  1.00  0.00    -0.550 OA
ATOM     11  O   UNL     1       5.471   8.170   8.974  1.00  0.00    -0.550 OA
ENDBRANCH   8   9
ENDBRANCH   7   8
ENDBRANCH   6   7
ENDBRANCH   5   6
ENDBRANCH   4   5
ENDBRANCH   3   4
ENDBRANCH   2   3
ENDBRANCH   1   2
BRANCH   1  12
ATOM     12  C   UNL     1       1.882   6.549  11.598  1.00  0.00     0.000 C 
BRANCH  12  13
ATOM     13  C   UNL     1       3.392   6.777  11.441  1.00  0.00    -0.000 C 
BRANCH  13  14
ATOM     14  C   UNL     1       4.188   5.608  12.032  1.00  0.00    -0.000 C 
BRANCH  14  15
ATOM     15  C   UNL     1       4.407   4.507  10.988  1.00  0.00    -0.000 C 
BRANCH  15  16
ATOM     16  C   UNL     1       3.565   3.266  11.311  1.00  0.00    -0.000 C 
BRANCH  16  17
ATOM     17  C   UNL     1       2.499   3.029  10.230  1.00  0.00    -0.000 C 
BRANCH  17  18
ATOM     18  C   UNL     1       1.354   2.125  10.716  1.00  0.00    -0.000 C 
BRANCH  18  19
ATOM     19  C   UNL     1       0.824   2.535  12.098  1.00  0.00    -0.003 C 
ATOM     20  C   UNL     1      -0.461   1.784  12.436  1.00  0.00     0.004 C 
ENDBRANCH  18  19
ENDBRANCH  17  18
ENDBRANCH  16  17
ENDBRANCH  15  16
ENDBRANCH  14  15
ENDBRANCH  13  14
ENDBRANCH  12  13
ENDBRANCH   1  12
TORSDOF 16
ENDMDL
MODEL 2
REMARK VINA RESULT:    -3.715      1.535      2.607
REMARK INTER + INTRA:          -9.492
REMARK INTER:                  -7.349
REMARK INTRA:                  -2.143
REMARK UNBOUND:                -2.303
REMARK SMILES CCCCCCCCCCCCCCCCCC(=O)[O-]
REMARK SMILES IDX 10 1 11 2 12 3 13 4 14 5 15 6 16 7 17 8 18 9 19 10 20 11
REMARK SMILES IDX 9 12 8 13 7 14 6 15 5 16 4 17 3 18 2 19 1 20
REMARK H PARENT
REMARK Flexibility Score: inf
ROOT
ATOM      1  C   UNL     1       2.974   5.589   9.442  1.00  0.00     0.000 C 
ENDROOT
BRANCH   1   2
ATOM      2  C   UNL     1       1.618   5.313  10.124  1.00  0.00     0.000 C 
BRANCH   2   3
ATOM      3  C   UNL     1       1.573   5.625  11.630  1.00  0.00     0.000 C 
BRANCH   3   4
ATOM      4  C   UNL     1       1.594   7.134  11.926  1.00  0.00     0.000 C 
BRANCH   4   5
ATOM      5  C   UNL     1       0.450   7.893  11.230  1.00  0.00     0.000 C 
BRANCH   5   6
ATOM      6  C   UNL     1       0.625   9.425  11.174  1.00  0.00     0.000 C 
BRANCH   6   7
ATOM      7  C   UNL     1       0.875  10.005   9.768  1.00  0.00     0.006 C 
BRANCH   7   8
ATOM      8  C   UNL     1       1.454   9.002   8.759  1.00  0.00     0.053 C 
BRANCH   8   9
ATOM      9  C   UNL     1       2.785   9.445   8.233  1.00  0.00     0.041 C 
ATOM     10  O   UNL     1       2.911  10.580   7.701  1.00  0.00    -0.550 OA
ATOM     11  O   UNL     1       3.894   8.618   8.361  1.00  0.00    -0.550 OA
ENDBRANCH   8   9
ENDBRANCH   7   8
ENDBRANCH   6   7
ENDBRANCH   5   6
ENDBRANCH   4   5
ENDBRANCH   3   4
ENDBRANCH   2   3
ENDBRANCH   1   2
BRANCH   1  12
ATOM     12  C   UNL     1       4.035   4.492   9.628  1.00  0.00     0.000 C 
BRANCH  12  13
ATOM     13  C   UNL     1       5.088   4.849  10.687  1.00  0.00    -0.000 C 
BRANCH  13  14
ATOM     14  C   UNL     1       4.677   4.323  12.067  1.00  0.00    -0.000 C 
BRANCH  14  15
ATOM     15  C   UNL     1       5.519   3.105  12.465  1.00  0.00    -0.000 C 
BRANCH  15  16
ATOM     16  C   UNL     1       4.626   1.907  12.810  1.00  0.00    -0.000 C 
BRANCH  16  17
ATOM     17  C   UNL     1       3.166   2.178  12.419  1.00  0.00    -0.000 C 
BRANCH  17  18
ATOM     18  C   UNL     1       2.683   1.280  11.269  1.00  0.00    -0.000 C 
BRANCH  18  19
ATOM     19  C   UNL     1       1.400   1.804  10.608  1.00  0.00    -0.003 C 
ATOM     20  C   UNL     1       0.331   2.111  11.653  1.00  0.00     0.004 C 
ENDBRANCH  18  19
ENDBRANCH  17  18
ENDBRANCH  16  17
ENDBRANCH  15  16
ENDBRANCH  14  15
ENDBRANCH  13  14
ENDBRANCH  12  13
ENDBRANCH   1  12
TORSDOF 16
ENDMDL
MODEL 3
REMARK VINA RESULT:    -3.700      9.778     12.655
REMARK INTER + INTRA:          -9.464
REMARK INTER:                  -8.273
REMARK INTRA:                  -1.191
REMARK UNBOUND:                -2.303
REMARK SMILES CCCCCCCCCCCCCCCCCC(=O)[O-]
REMARK SMILES IDX 10 1 11 2 12 3 13 4 14 5 15 6 16 7 17 8 18 9 19 10 20 11
REMARK SMILES IDX 9 12 8 13 7 14 6 15 5 16 4 17 3 18 2 19 1 20
REMARK H PARENT
REMARK Flexibility Score: inf
ROOT
ATOM      1  C   UNL     1       7.484   6.470   0.656  1.00  0.00     0.000 C 
ENDROOT
BRANCH   1   2
ATOM      2  C   UNL     1       8.651   5.560   1.091  1.00  0.00     0.000 C 
BRANCH   2   3
ATOM      3  C   UNL     1       8.359   4.051   1.023  1.00  0.00     0.000 C 
BRANCH   3   4
ATOM      4  C   UNL     1       6.880   3.743   0.736  1.00  0.00     0.000 C 
BRANCH   4   5
ATOM      5  C   UNL     1       6.689   2.827  -0.486  1.00  0.00     0.000 C 
BRANCH   5   6
ATOM      6  C   UNL     1       6.281   1.377  -0.155  1.00  0.00     0.000 C 
BRANCH   6   7
ATOM      7  C   UNL     1       7.114   0.285  -0.855  1.00  0.00     0.006 C 
BRANCH   7   8
ATOM      8  C   UNL     1       7.913   0.776  -2.072  1.00  0.00     0.053 C 
BRANCH   8   9
ATOM      9  C   UNL     1       7.173   0.550  -3.354  1.00  0.00     0.041 C 
ATOM     10  O   UNL     1       6.327   1.391  -3.756  1.00  0.00    -0.550 OA
ATOM     11  O   UNL     1       7.442  -0.576  -4.122  1.00  0.00    -0.550 OA
ENDBRANCH   8   9
ENDBRANCH   7   8
ENDBRANCH   6   7
ENDBRANCH   5   6
ENDBRANCH   4   5
ENDBRANCH   3   4
ENDBRANCH   2   3
ENDBRANCH   1   2
BRANCH   1  12
ATOM     12  C   UNL     1       7.898   7.848   0.110  1.00  0.00     0.000 C 
BRANCH  12  13
ATOM     13  C   UNL     1       9.060   8.478   0.893  1.00  0.00    -0.000 C 
BRANCH  13  14
ATOM     14  C   UNL     1       8.726   9.916   1.306  1.00  0.00    -0.000 C 
BRANCH  14  15
ATOM     15  C   UNL     1       8.869  10.101   2.821  1.00  0.00    -0.000 C 
BRANCH  15  16
ATOM     16  C   UNL     1       7.969   9.120   3.583  1.00  0.00    -0.000 C 
BRANCH  16  17
ATOM     17  C   UNL     1       6.557   9.697   3.766  1.00  0.00    -0.000 C 
BRANCH  17  18
ATOM     18  C   UNL     1       6.137   9.777   5.243  1.00  0.00    -0.000 C 
BRANCH  18  19
ATOM     19  C   UNL     1       7.304  10.149   6.170  1.00  0.00    -0.003 C 
ATOM     20  C   UNL     1       7.603   9.023   7.154  1.00  0.00     0.004 C 
ENDBRANCH  18  19
ENDBRANCH  17  18
ENDBRANCH  16  17
ENDBRANCH  15  16
ENDBRANCH  14  15
ENDBRANCH  13  14
ENDBRANCH  12  13
ENDBRANCH   1  12
TORSDOF 16
ENDMDL
MODEL 4
REMARK VINA RESULT:    -3.655      9.419     11.189
REMARK INTER + INTRA:          -9.376
REMARK INTER:                  -8.130
REMARK INTRA:                  -1.246
REMARK UNBOUND:                -2.303
REMARK SMILES CCCCCCCCCCCCCCCCCC(=O)[O-]
REMARK SMILES IDX 10 1 11 2 12 3 13 4 14 5 15 6 16 7 17 8 18 9 19 10 20 11
REMARK SMILES IDX 9 12 8 13 7 14 6 15 5 16 4 17 3 18 2 19 1 20
REMARK H PARENT
REMARK Flexibility Score: inf
ROOT
ATOM      1  C   UNL     1       8.258   5.735   1.876  1.00  0.00     0.000 C 
ENDROOT
BRANCH   1   2
ATOM      2  C   UNL     1       7.813   6.706   0.764  1.00  0.00     0.000 C 
BRANCH   2   3
ATOM      3  C   UNL     1       8.940   7.562   0.159  1.00  0.00     0.000 C 
BRANCH   3   4
ATOM      4  C   UNL     1       8.737   9.068   0.398  1.00  0.00     0.000 C 
BRANCH   4   5
ATOM      5  C   UNL     1       9.045   9.487   1.847  1.00  0.00     0.000 C 
BRANCH   5   6
ATOM      6  C   UNL     1       8.083  10.537   2.439  1.00  0.00     0.000 C 
BRANCH   6   7
ATOM      7  C   UNL     1       7.046   9.988   3.438  1.00  0.00     0.006 C 
BRANCH   7   8
ATOM      8  C   UNL     1       7.350  10.306   4.910  1.00  0.00     0.053 C 
BRANCH   8   9
ATOM      9  C   UNL     1       6.170  10.042   5.793  1.00  0.00     0.041 C 
ATOM     10  O   UNL     1       6.211   9.118   6.648  1.00  0.00    -0.550 OA
ATOM     11  O   UNL     1       5.035  10.838   5.694  1.00  0.00    -0.550 OA
ENDBRANCH   8   9
ENDBRANCH   7   8
ENDBRANCH   6   7
ENDBRANCH   5   6
ENDBRANCH   4   5
ENDBRANCH   3   4
ENDBRANCH   2   3
ENDBRANCH   1   2
BRANCH   1  12
ATOM     12  C   UNL     1       9.028   4.494   1.392  1.00  0.00     0.000 C 
BRANCH  12  13
ATOM     13  C   UNL     1       8.293   3.730   0.281  1.00  0.00    -0.000 C 
BRANCH  13  14
ATOM     14  C   UNL     1       6.866   3.374   0.711  1.00  0.00    -0.000 C 
BRANCH  14  15
ATOM     15  C   UNL     1       6.112   2.659  -0.417  1.00  0.00    -0.000 C 
BRANCH  15  16
ATOM     16  C   UNL     1       6.037   1.149  -0.159  1.00  0.00    -0.000 C 
BRANCH  16  17
ATOM     17  C   UNL     1       6.233   0.358  -1.461  1.00  0.00    -0.000 C 
BRANCH  17  18
ATOM     18  C   UNL     1       6.482   1.268  -2.675  1.00  0.00    -0.000 C 
BRANCH  18  19
ATOM     19  C   UNL     1       7.817   0.968  -3.373  1.00  0.00    -0.003 C 
ATOM     20  C   UNL     1       8.990   1.145  -2.414  1.00  0.00     0.004 C 
ENDBRANCH  18  19
ENDBRANCH  17  18
ENDBRANCH  16  17
ENDBRANCH  15  16
ENDBRANCH  14  15
ENDBRANCH  13  14
ENDBRANCH  12  13
ENDBRANCH   1  12
TORSDOF 16
ENDMDL
MODEL 5
REMARK VINA RESULT:    -3.609      1.839      3.330
REMARK INTER + INTRA:          -9.288
REMARK INTER:                  -6.839
REMARK INTRA:                  -2.449
REMARK UNBOUND:                -2.303
REMARK SMILES CCCCCCCCCCCCCCCCCC(=O)[O-]
REMARK SMILES IDX 10 1 11 2 12 3 13 4 14 5 15 6 16 7 17 8 18 9 19 10 20 11
REMARK SMILES IDX 9 12 8 13 7 14 6 15 5 16 4 17 3 18 2 19 1 20
REMARK H PARENT
REMARK Flexibility Score: inf
ROOT
ATOM      1  C   UNL     1       0.805   8.823   9.108  1.00  0.00     0.000 C 
ENDROOT
BRANCH   1   2
ATOM      2  C   UNL     1       1.672   9.811   9.914  1.00  0.00     0.000 C 
BRANCH   2   3
ATOM      3  C   UNL     1       1.729   9.541  11.428  1.00  0.00     0.000 C 
BRANCH   3   4
ATOM      4  C   UNL     1       3.104   9.028  11.889  1.00  0.00     0.000 C 
BRANCH   4   5
ATOM      5  C   UNL     1       4.218   9.305  10.863  1.00  0.00     0.000 C 
BRANCH   5   6
ATOM      6  C   UNL     1       5.368   8.277  10.859  1.00  0.00     0.000 C 
BRANCH   6   7
ATOM      7  C   UNL     1       4.985   6.861  11.329  1.00  0.00     0.006 C 
BRANCH   7   8
ATOM      8  C   UNL     1       6.080   5.804  11.122  1.00  0.00     0.053 C 
BRANCH   8   9
ATOM      9  C   UNL     1       6.100   5.290   9.715  1.00  0.00     0.041 C 
ATOM     10  O   UNL     1       7.132   5.423   9.005  1.00  0.00    -0.550 OA
ATOM     11  O   UNL     1       4.990   4.632   9.199  1.00  0.00    -0.550 OA
ENDBRANCH   8   9
ENDBRANCH   7   8
ENDBRANCH   6   7
ENDBRANCH   5   6
ENDBRANCH   4   5
ENDBRANCH   3   4
ENDBRANCH   2   3
ENDBRANCH   1   2
BRANCH   1  12
ATOM     12  C   UNL     1       1.588   7.822   8.241  1.00  0.00     0.000 C 
BRANCH  12  13
ATOM     13  C   UNL     1       2.235   6.697   9.062  1.00  0.00    -0.000 C 
BRANCH  13  14
ATOM     14  C   UNL     1       1.176   5.901   9.832  1.00  0.00    -0.000 C 
BRANCH  14  15
ATOM     15  C   UNL     1       1.613   5.664  11.283  1.00  0.00    -0.000 C 
BRANCH  15  16
ATOM     16  C   UNL     1       2.362   4.333  11.422  1.00  0.00    -0.000 C 
BRANCH  16  17
ATOM     17  C   UNL     1       1.770   3.267  10.487  1.00  0.00    -0.000 C 
BRANCH  17  18
ATOM     18  C   UNL     1       1.826   1.854  11.089  1.00  0.00    -0.000 C 
BRANCH  18  19
ATOM     19  C   UNL     1       1.213   1.787  12.496  1.00  0.00    -0.003 C 
ATOM     20  C   UNL     1      -0.309   1.860  12.435  1.00  0.00     0.004 C 
ENDBRANCH  18  19
ENDBRANCH  17  18
ENDBRANCH  16  17
ENDBRANCH  15  16
ENDBRANCH  14  15
ENDBRANCH  13  14
ENDBRANCH  12  13
ENDBRANCH   1  12
TORSDOF 16
ENDMDL
MODEL 6
REMARK VINA RESULT:    -3.594      1.592      3.791
REMARK INTER + INTRA:          -9.259
REMARK INTER:                  -7.175
REMARK INTRA:                  -2.084
REMARK UNBOUND:                -2.303
REMARK SMILES CCCCCCCCCCCCCCCCCC(=O)[O-]
REMARK SMILES IDX 10 1 11 2 12 3 13 4 14 5 15 6 16 7 17 8 18 9 19 10 20 11
REMARK SMILES IDX 9 12 8 13 7 14 6 15 5 16 4 17 3 18 2 19 1 20
REMARK H PARENT
REMARK Flexibility Score: inf
ROOT
ATOM      1  C   UNL     1       1.323   3.242  10.489  1.00  0.00     0.000 C 
ENDROOT
BRANCH   1   2
ATOM      2  C   UNL     1       1.505   4.527  11.322  1.00  0.00     0.000 C 
BRANCH   2   3
ATOM      3  C   UNL     1       1.236   5.838  10.563  1.00  0.00     0.000 C 
BRANCH   3   4
ATOM      4  C   UNL     1       1.372   7.082  11.458  1.00  0.00     0.000 C 
BRANCH   4   5
ATOM      5  C   UNL     1       0.168   8.034  11.340  1.00  0.00     0.000 C 
BRANCH   5   6
ATOM      6  C   UNL     1       0.451   9.350  10.587  1.00  0.00     0.000 C 
BRANCH   6   7
ATOM      7  C   UNL     1       0.893   9.185   9.120  1.00  0.00     0.006 C 
BRANCH   7   8
ATOM      8  C   UNL     1       2.275   9.776   8.801  1.00  0.00     0.053 C 
BRANCH   8   9
ATOM      9  C   UNL     1       3.151   8.794   8.087  1.00  0.00     0.041 C 
ATOM     10  O   UNL     1       4.157   9.191   7.443  1.00  0.00    -0.550 OA
ATOM     11  O   UNL     1       2.875   7.434   8.163  1.00  0.00    -0.550 OA
ENDBRANCH   8   9
ENDBRANCH   7   8
ENDBRANCH   6   7
ENDBRANCH   5   6
ENDBRANCH   4   5
ENDBRANCH   3   4
ENDBRANCH   2   3
ENDBRANCH   1   2
BRANCH   1  12
ATOM     12  C   UNL     1       0.782   2.029  11.267  1.00  0.00     0.000 C 
BRANCH  12  13
ATOM     13  C   UNL     1       1.710   1.587  12.408  1.00  0.00    -0.000 C 
BRANCH  13  14
ATOM     14  C   UNL     1       2.966   0.900  11.859  1.00  0.00    -0.000 C 
BRANCH  14  15
ATOM     15  C   UNL     1       4.203   1.273  12.684  1.00  0.00    -0.000 C 
BRANCH  15  16
ATOM     16  C   UNL     1       4.192   2.761  13.053  1.00  0.00    -0.000 C 
BRANCH  16  17
ATOM     17  C   UNL     1       5.166   3.554  12.169  1.00  0.00    -0.000 C 
BRANCH  17  18
ATOM     18  C   UNL     1       4.876   5.064  12.174  1.00  0.00    -0.000 C 
BRANCH  18  19
ATOM     19  C   UNL     1       5.043   5.702  10.787  1.00  0.00    -0.003 C 
ATOM     20  C   UNL     1       4.732   4.699   9.680  1.00  0.00     0.004 C 
ENDBRANCH  18  19
ENDBRANCH  17  18
ENDBRANCH  16  17
ENDBRANCH  15  16
ENDBRANCH  14  15
ENDBRANCH  13  14
ENDBRANCH  12  13
ENDBRANCH   1  12
TORSDOF 16
ENDMDL
MODEL 7
REMARK VINA RESULT:    -3.571      2.025      6.176
REMARK INTER + INTRA:          -9.213
REMARK INTER:                  -6.982
REMARK INTRA:                  -2.231
REMARK UNBOUND:                -2.303
REMARK SMILES CCCCCCCCCCCCCCCCCC(=O)[O-]
REMARK SMILES IDX 10 1 11 2 12 3 13 4 14 5 15 6 16 7 17 8 18 9 19 10 20 11
REMARK SMILES IDX 9 12 8 13 7 14 6 15 5 16 4 17 3 18 2 19 1 20
REMARK H PARENT
REMARK Flexibility Score: inf
ROOT
ATOM      1  C   UNL     1       1.390   3.572  10.468  1.00  0.00     0.000 C 
ENDROOT
BRANCH   1   2
ATOM      2  C   UNL     1       1.083   2.114  10.870  1.00  0.00     0.000 C 
BRANCH   2   3
ATOM      3  C   UNL     1       1.745   1.647  12.178  1.00  0.00     0.000 C 
BRANCH   3   4
ATOM      4  C   UNL     1       3.124   1.007  11.952  1.00  0.00     0.000 C 
BRANCH   4   5
ATOM      5  C   UNL     1       4.189   1.525  12.935  1.00  0.00     0.000 C 
BRANCH   5   6
ATOM      6  C   UNL     1       4.456   3.043  12.864  1.00  0.00     0.000 C 
BRANCH   6   7
ATOM      7  C   UNL     1       5.461   3.482  11.782  1.00  0.00     0.006 C 
BRANCH   7   8
ATOM      8  C   UNL     1       5.378   4.969  11.403  1.00  0.00     0.053 C 
BRANCH   8   9
ATOM      9  C   UNL     1       5.454   5.171   9.921  1.00  0.00     0.041 C 
ATOM     10  O   UNL     1       6.288   5.978   9.432  1.00  0.00    -0.550 OA
ATOM     11  O   UNL     1       4.625   4.443   9.077  1.00  0.00    -0.550 OA
ENDBRANCH   8   9
ENDBRANCH   7   8
ENDBRANCH   6   7
ENDBRANCH   5   6
ENDBRANCH   4   5
ENDBRANCH   3   4
ENDBRANCH   2   3
ENDBRANCH   1   2
BRANCH   1  12
ATOM     12  C   UNL     1       1.614   4.540  11.642  1.00  0.00     0.000 C 
BRANCH  12  13
ATOM     13  C   UNL     1       1.893   5.980  11.187  1.00  0.00    -0.000 C 
BRANCH  13  14
ATOM     14  C   UNL     1       1.326   6.231   9.785  1.00  0.00    -0.000 C 
BRANCH  14  15
ATOM     15  C   UNL     1       2.344   6.962   8.902  1.00  0.00    -0.000 C 
BRANCH  15  16
ATOM     16  C   UNL     1       2.096   8.475   8.912  1.00  0.00    -0.000 C 
BRANCH  16  17
ATOM     17  C   UNL     1       0.594   8.786   8.990  1.00  0.00    -0.000 C 
BRANCH  17  18
ATOM     18  C   UNL     1       0.261   9.836  10.063  1.00  0.00    -0.000 C 
BRANCH  18  19
ATOM     19  C   UNL     1       1.212   9.771  11.267  1.00  0.00    -0.003 C 
ATOM     20  C   UNL     1       0.526   9.140  12.475  1.00  0.00     0.004 C 
ENDBRANCH  18  19
ENDBRANCH  17  18
ENDBRANCH  16  17
ENDBRANCH  15  16
ENDBRANCH  14  15
ENDBRANCH  13  14
ENDBRANCH  12  13
ENDBRANCH   1  12
TORSDOF 16
ENDMDL
MODEL 8
REMARK VINA RESULT:    -3.542      1.624      3.100
REMARK INTER + INTRA:          -9.159
REMARK INTER:                  -6.250
REMARK INTRA:                  -2.909
REMARK UNBOUND:                -2.303
REMARK SMILES CCCCCCCCCCCCCCCCCC(=O)[O-]
REMARK SMILES IDX 10 1 11 2 12 3 13 4 14 5 15 6 16 7 17 8 18 9 19 10 20 11
REMARK SMILES IDX 9 12 8 13 7 14 6 15 5 16 4 17 3 18 2 19 1 20
REMARK H PARENT
REMARK Flexibility Score: inf
ROOT
ATOM      1  C   UNL     1       4.944   8.339  11.103  1.00  0.00     0.000 C 
ENDROOT
BRANCH   1   2
ATOM      2  C   UNL     1       3.781   8.872  11.965  1.00  0.00     0.000 C 
BRANCH   2   3
ATOM      3  C   UNL     1       3.317   7.927  13.087  1.00  0.00     0.000 C 
BRANCH   3   4
ATOM      4  C   UNL     1       1.915   7.346  12.834  1.00  0.00     0.000 C 
BRANCH   4   5
ATOM      5  C   UNL     1       1.229   7.964  11.602  1.00  0.00     0.000 C 
BRANCH   5   6
ATOM      6  C   UNL     1       0.862   6.959  10.490  1.00  0.00     0.000 C 
BRANCH   6   7
ATOM      7  C   UNL     1       1.848   6.901   9.306  1.00  0.00     0.006 C 
BRANCH   7   8
ATOM      8  C   UNL     1       1.617   7.977   8.234  1.00  0.00     0.053 C 
BRANCH   8   9
ATOM      9  C   UNL     1       2.645   9.063   8.303  1.00  0.00     0.041 C 
ATOM     10  O   UNL     1       2.413  10.116   8.955  1.00  0.00    -0.550 OA
ATOM     11  O   UNL     1       3.873   8.899   7.675  1.00  0.00    -0.550 OA
ENDBRANCH   8   9
ENDBRANCH   7   8
ENDBRANCH   6   7
ENDBRANCH   5   6
ENDBRANCH   4   5
ENDBRANCH   3   4
ENDBRANCH   2   3
ENDBRANCH   1   2
BRANCH   1  12
ATOM     12  C   UNL     1       5.332   6.874  11.364  1.00  0.00     0.000 C 
BRANCH  12  13
ATOM     13  C   UNL     1       5.210   5.990  10.114  1.00  0.00    -0.000 C 
BRANCH  13  14
ATOM     14  C   UNL     1       4.723   4.584  10.481  1.00  0.00    -0.000 C 
BRANCH  14  15
ATOM     15  C   UNL     1       4.416   4.481  11.980  1.00  0.00    -0.000 C 
BRANCH  15  16
ATOM     16  C   UNL     1       3.418   3.352  12.263  1.00  0.00    -0.000 C 
BRANCH  16  17
ATOM     17  C   UNL     1       1.973   3.829  12.048  1.00  0.00    -0.000 C 
BRANCH  17  18
ATOM     18  C   UNL     1       1.334   3.232  10.784  1.00  0.00    -0.000 C 
BRANCH  18  19
ATOM     19  C   UNL     1       0.572   1.929  11.066  1.00  0.00    -0.003 C 
ATOM     20  C   UNL     1      -0.004   1.925  12.479  1.00  0.00     0.004 C 
ENDBRANCH  18  19
ENDBRANCH  17  18
ENDBRANCH  16  17
ENDBRANCH  15  16
ENDBRANCH  14  15
ENDBRANCH  13  14
ENDBRANCH  12  13
ENDBRANCH   1  12
TORSDOF 16
ENDMDL
MODEL 9
REMARK VINA RESULT:    -3.530      2.396      6.086
REMARK INTER + INTRA:          -9.135
REMARK INTER:                  -5.959
REMARK INTRA:                  -3.176
REMARK UNBOUND:                -2.303
REMARK SMILES CCCCCCCCCCCCCCCCCC(=O)[O-]
REMARK SMILES IDX 10 1 11 2 12 3 13 4 14 5 15 6 16 7 17 8 18 9 19 10 20 11
REMARK SMILES IDX 9 12 8 13 7 14 6 15 5 16 4 17 3 18 2 19 1 20
REMARK H PARENT
REMARK Flexibility Score: inf
ROOT
ATOM      1  C   UNL     1       2.224   8.038   8.257  1.00  0.00     0.000 C 
ENDROOT
BRANCH   1   2
ATOM      2  C   UNL     1       2.481   6.716   9.008  1.00  0.00     0.000 C 
BRANCH   2   3
ATOM      3  C   UNL     1       1.258   6.132   9.737  1.00  0.00     0.000 C 
BRANCH   3   4
ATOM      4  C   UNL     1       1.355   6.270  11.266  1.00  0.00     0.000 C 
BRANCH   4   5
ATOM      5  C   UNL     1       2.809   6.277  11.771  1.00  0.00     0.000 C 
BRANCH   5   6
ATOM      6  C   UNL     1       3.175   5.114  12.715  1.00  0.00     0.000 C 
BRANCH   6   7
ATOM      7  C   UNL     1       3.815   3.890  12.031  1.00  0.00     0.006 C 
BRANCH   7   8
ATOM      8  C   UNL     1       2.843   2.733  11.757  1.00  0.00     0.053 C 
BRANCH   8   9
ATOM      9  C   UNL     1       2.426   2.682  10.320  1.00  0.00     0.041 C 
ATOM     10  O   UNL     1       1.377   2.072   9.984  1.00  0.00    -0.550 OA
ATOM     11  O   UNL     1       3.179   3.339   9.354  1.00  0.00    -0.550 OA
ENDBRANCH   8   9
ENDBRANCH   7   8
ENDBRANCH   6   7
ENDBRANCH   5   6
ENDBRANCH   4   5
ENDBRANCH   3   4
ENDBRANCH   2   3
ENDBRANCH   1   2
BRANCH   1  12
ATOM     12  C   UNL     1       0.875   8.712   8.565  1.00  0.00     0.000 C 
BRANCH  12  13
ATOM     13  C   UNL     1       0.961   9.728   9.713  1.00  0.00    -0.000 C 
BRANCH  13  14
ATOM     14  C   UNL     1       2.399  10.225   9.899  1.00  0.00    -0.000 C 
BRANCH  14  15
ATOM     15  C   UNL     1       2.885   9.980  11.333  1.00  0.00    -0.000 C 
BRANCH  15  16
ATOM     16  C   UNL     1       4.380   9.640  11.357  1.00  0.00    -0.000 C 
BRANCH  16  17
ATOM     17  C   UNL     1       5.000   9.785   9.959  1.00  0.00    -0.000 C 
BRANCH  17  18
ATOM     18  C   UNL     1       5.735   8.514   9.502  1.00  0.00    -0.000 C 
BRANCH  18  19
ATOM     19  C   UNL     1       5.974   7.525  10.652  1.00  0.00    -0.003 C 
ATOM     20  C   UNL     1       6.157   6.105  10.124  1.00  0.00     0.004 C 
ENDBRANCH  18  19
ENDBRANCH  17  18
ENDBRANCH  16  17
ENDBRANCH  15  16
ENDBRANCH  14  15
ENDBRANCH  13  14
ENDBRANCH  12  13
ENDBRANCH   1  12
TORSDOF 16
ENDMDL
