MODEL 1
REMARK VINA RESULT:    -3.658      0.000      0.000
REMARK INTER + INTRA:          -4.338
REMARK INTER:                  -4.300
REMARK INTRA:                  -0.039
REMARK UNBOUND:                -0.039
REMARK SMILES O=C([O-])CCC(=O)[O-]
REMARK SMILES IDX 4 1 2 2 1 3 3 4 5 5 6 6 7 7 8 8
REMARK H PARENT
REMARK Flexibility Score: inf
ROOT
ATOM      1  C   UNL     1     -21.359   0.433   9.061  1.00  0.00     0.059 C 
ENDROOT
BRANCH   1   2
ATOM      2  C   UNL     1     -22.027   1.539   9.818  1.00  0.00     0.042 C 
ATOM      3  O   UNL     1     -22.421   2.572   9.215  1.00  0.00    -0.550 OA
ATOM      4  O   UNL     1     -22.179   1.447  11.195  1.00  0.00    -0.550 OA
ENDBRANCH   1   2
BRANCH   1   5
ATOM      5  C   UNL     1     -21.194   0.784   7.578  1.00  0.00     0.059 C 
BRANCH   5   6
ATOM      6  C   UNL     1     -20.826  -0.420   6.765  1.00  0.00     0.042 C 
ATOM      7  O   UNL     1     -20.221  -0.283   5.669  1.00  0.00    -0.550 OA
ATOM      8  O   UNL     1     -21.188  -1.689   7.198  1.00  0.00    -0.550 OA
ENDBRANCH   5   6
ENDBRANCH   1   5
TORSDOF 3
ENDMDL
MODEL 2
REMARK VINA RESULT:    -3.639      0.167      4.171
REMARK INTER + INTRA:          -4.315
REMARK INTER:                  -4.279
REMARK INTRA:                  -0.036
REMARK UNBOUND:                -0.039
REMARK SMILES O=C([O-])CCC(=O)[O-]
REMARK SMILES IDX 4 1 2 2 1 3 3 4 5 5 6 6 7 7 8 8
REMARK H PARENT
REMARK Flexibility Score: inf
ROOT
ATOM      1  C   UNL     1     -21.365   0.639   7.617  1.00  0.00     0.059 C 
ENDROOT
BRANCH   1   2
ATOM      2  C   UNL     1     -20.839  -0.516   6.821  1.00  0.00     0.042 C 
ATOM      3  O   UNL     1     -20.285  -0.318   5.708  1.00  0.00    -0.550 OA
ATOM      4  O   UNL     1     -20.996  -1.814   7.290  1.00  0.00    -0.550 OA
ENDBRANCH   1   2
BRANCH   1   5
ATOM      5  C   UNL     1     -21.341   0.344   9.121  1.00  0.00     0.059 C 
BRANCH   5   6
ATOM      6  C   UNL     1     -21.992   1.441   9.907  1.00  0.00     0.042 C 
ATOM      7  O   UNL     1     -22.454   2.454   9.320  1.00  0.00    -0.550 OA
ATOM      8  O   UNL     1     -22.049   1.362  11.293  1.00  0.00    -0.550 OA
ENDBRANCH   5   6
ENDBRANCH   1   5
TORSDOF 3
ENDMDL
MODEL 3
REMARK VINA RESULT:    -3.610      2.084      3.406
REMARK INTER + INTRA:          -4.281
REMARK INTER:                  -4.244
REMARK INTRA:                  -0.037
REMARK UNBOUND:                -0.039
REMARK SMILES O=C([O-])CCC(=O)[O-]
REMARK SMILES IDX 4 1 2 2 1 3 3 4 5 5 6 6 7 7 8 8
REMARK H PARENT
REMARK Flexibility Score: inf
ROOT
ATOM      1  C   UNL     1     -21.042  -0.678   7.578  1.00  0.00     0.059 C 
ENDROOT
BRANCH   1   2
ATOM      2  C   UNL     1     -21.423   0.600   6.897  1.00  0.00     0.042 C 
ATOM      3  O   UNL     1     -21.708   0.605   5.670  1.00  0.00    -0.550 OA
ATOM      4  O   UNL     1     -21.425   1.794   7.608  1.00  0.00    -0.550 OA
ENDBRANCH   1   2
BRANCH   1   5
ATOM      5  C   UNL     1     -21.120  -0.550   9.103  1.00  0.00     0.059 C 
BRANCH   5   6
ATOM      6  C   UNL     1     -20.607  -1.781   9.786  1.00  0.00     0.042 C 
ATOM      7  O   UNL     1     -20.131  -2.730   9.109  1.00  0.00    -0.550 OA
ATOM      8  O   UNL     1     -20.694  -1.895  11.168  1.00  0.00    -0.550 OA
ENDBRANCH   5   6
ENDBRANCH   1   5
TORSDOF 3
ENDMDL
MODEL 4
REMARK VINA RESULT:    -3.602      2.094      3.175
REMARK INTER + INTRA:          -4.272
REMARK INTER:                  -4.235
REMARK INTRA:                  -0.037
REMARK UNBOUND:                -0.039
REMARK SMILES O=C([O-])CCC(=O)[O-]
REMARK SMILES IDX 4 1 2 2 1 3 3 4 5 5 6 6 7 7 8 8
REMARK H PARENT
REMARK Flexibility Score: inf
ROOT
ATOM      1  C   UNL     1     -21.075  -0.553   9.120  1.00  0.00     0.059 C 
ENDROOT
BRANCH   1   2
ATOM      2  C   UNL     1     -20.580  -1.801   9.785  1.00  0.00     0.042 C 
ATOM      3  O   UNL     1     -20.144  -2.758   9.093  1.00  0.00    -0.550 OA
ATOM      4  O   UNL     1     -20.635  -1.922  11.168  1.00  0.00    -0.550 OA
ENDBRANCH   1   2
BRANCH   1   5
ATOM      5  C   UNL     1     -21.049  -0.680   7.593  1.00  0.00     0.059 C 
BRANCH   5   6
ATOM      6  C   UNL     1     -21.414   0.612   6.927  1.00  0.00     0.042 C 
ATOM      7  O   UNL     1     -21.684   0.637   5.697  1.00  0.00    -0.550 OA
ATOM      8  O   UNL     1     -21.414   1.794   7.657  1.00  0.00    -0.550 OA
ENDBRANCH   5   6
ENDBRANCH   1   5
TORSDOF 3
ENDMDL
MODEL 5
REMARK VINA RESULT:    -3.486      2.017      2.788
REMARK INTER + INTRA:          -4.136
REMARK INTER:                  -4.099
REMARK INTRA:                  -0.037
REMARK UNBOUND:                -0.039
REMARK SMILES O=C([O-])CCC(=O)[O-]
REMARK SMILES IDX 4 1 2 2 1 3 3 4 5 5 6 6 7 7 8 8
REMARK H PARENT
REMARK Flexibility Score: inf
ROOT
ATOM      1  C   UNL     1     -21.449   0.489   9.347  1.00  0.00     0.059 C 
ENDROOT
BRANCH   1   2
ATOM      2  C   UNL     1     -21.758   1.692   8.510  1.00  0.00     0.042 C 
ATOM      3  O   UNL     1     -22.433   2.641   8.989  1.00  0.00    -0.550 OA
ATOM      4  O   UNL     1     -21.335   1.748   7.188  1.00  0.00    -0.550 OA
ENDBRANCH   1   2
BRANCH   1   5
ATOM      5  C   UNL     1     -21.073  -0.718   8.482  1.00  0.00     0.059 C 
BRANCH   5   6
ATOM      6  C   UNL     1     -20.604  -1.870   9.318  1.00  0.00     0.042 C 
ATOM      7  O   UNL     1     -20.594  -1.779  10.574  1.00  0.00    -0.550 OA
ATOM      8  O   UNL     1     -20.138  -3.028   8.707  1.00  0.00    -0.550 OA
ENDBRANCH   5   6
ENDBRANCH   1   5
TORSDOF 3
ENDMDL
MODEL 6
REMARK VINA RESULT:    -3.464      2.025      3.732
REMARK INTER + INTRA:          -4.110
REMARK INTER:                  -4.070
REMARK INTRA:                  -0.040
REMARK UNBOUND:                -0.039
REMARK SMILES O=C([O-])CCC(=O)[O-]
REMARK SMILES IDX 4 1 2 2 1 3 3 4 5 5 6 6 7 7 8 8
REMARK H PARENT
REMARK Flexibility Score: inf
ROOT
ATOM      1  C   UNL     1     -21.003  -0.785   8.321  1.00  0.00     0.059 C 
ENDROOT
BRANCH   1   2
ATOM      2  C   UNL     1     -20.590  -1.916   9.211  1.00  0.00     0.042 C 
ATOM      3  O   UNL     1     -20.624  -1.783  10.463  1.00  0.00    -0.550 OA
ATOM      4  O   UNL     1     -20.130  -3.105   8.659  1.00  0.00    -0.550 OA
ENDBRANCH   1   2
BRANCH   1   5
ATOM      5  C   UNL     1     -21.420   0.447   9.131  1.00  0.00     0.059 C 
BRANCH   5   6
ATOM      6  C   UNL     1     -21.653   1.634   8.247  1.00  0.00     0.042 C 
ATOM      7  O   UNL     1     -21.261   1.620   7.050  1.00  0.00    -0.550 OA
ATOM      8  O   UNL     1     -22.267   2.771   8.758  1.00  0.00    -0.550 OA
ENDBRANCH   5   6
ENDBRANCH   1   5
TORSDOF 3
ENDMDL
MODEL 7
REMARK VINA RESULT:    -2.644     16.121     17.266
REMARK INTER + INTRA:          -3.146
REMARK INTER:                  -3.069
REMARK INTRA:                  -0.077
REMARK UNBOUND:                -0.039
REMARK SMILES O=C([O-])CCC(=O)[O-]
REMARK SMILES IDX 4 1 2 2 1 3 3 4 5 5 6 6 7 7 8 8
REMARK H PARENT
REMARK Flexibility Score: inf
ROOT
ATOM      1  C   UNL     1     -11.617   8.541  -3.468  1.00  0.00     0.059 C 
ENDROOT
BRANCH   1   2
ATOM      2  C   UNL     1     -12.763   8.479  -4.430  1.00  0.00     0.042 C 
ATOM      3  O   UNL     1     -13.065   9.486  -5.122  1.00  0.00    -0.550 OA
ATOM      4  O   UNL     1     -13.523   7.320  -4.534  1.00  0.00    -0.550 OA
ENDBRANCH   1   2
BRANCH   1   5
ATOM      5  C   UNL     1     -11.490   9.929  -2.830  1.00  0.00     0.059 C 
BRANCH   5   6
ATOM      6  C   UNL     1     -11.787   9.890  -1.362  1.00  0.00     0.042 C 
ATOM      7  O   UNL     1     -10.875  10.125  -0.525  1.00  0.00    -0.550 OA
ATOM      8  O   UNL     1     -13.059   9.553  -0.919  1.00  0.00    -0.550 OA
ENDBRANCH   5   6
ENDBRANCH   1   5
TORSDOF 3
ENDMDL
MODEL 8
REMARK VINA RESULT:    -2.323      1.335      4.127
REMARK INTER + INTRA:          -2.769
REMARK INTER:                  -2.733
REMARK INTRA:                  -0.036
REMARK UNBOUND:                -0.039
REMARK SMILES O=C([O-])CCC(=O)[O-]
REMARK SMILES IDX 4 1 2 2 1 3 3 4 5 5 6 6 7 7 8 8
REMARK H PARENT
REMARK Flexibility Score: inf
ROOT
ATOM      1  C   UNL     1     -21.302   0.335   8.787  1.00  0.00     0.059 C 
ENDROOT
BRANCH   1   2
ATOM      2  C   UNL     1     -21.246   0.850   7.381  1.00  0.00     0.042 C 
ATOM      3  O   UNL     1     -21.325   2.086   7.155  1.00  0.00    -0.550 OA
ATOM      4  O   UNL     1     -21.148  -0.039   6.318  1.00  0.00    -0.550 OA
ENDBRANCH   1   2
BRANCH   1   5
ATOM      5  C   UNL     1     -21.968   1.341   9.730  1.00  0.00     0.059 C 
BRANCH   5   6
ATOM      6  C   UNL     1     -21.820   0.933  11.165  1.00  0.00     0.042 C 
ATOM      7  O   UNL     1     -21.976   1.780  12.084  1.00  0.00    -0.550 OA
ATOM      8  O   UNL     1     -21.470  -0.373  11.483  1.00  0.00    -0.550 OA
ENDBRANCH   5   6
ENDBRANCH   1   5
TORSDOF 3
ENDMDL
MODEL 9
REMARK VINA RESULT:    -2.073      1.923      2.826
REMARK INTER + INTRA:          -2.475
REMARK INTER:                  -2.399
REMARK INTRA:                  -0.075
REMARK UNBOUND:                -0.039
REMARK SMILES O=C([O-])CCC(=O)[O-]
REMARK SMILES IDX 4 1 2 2 1 3 3 4 5 5 6 6 7 7 8 8
REMARK H PARENT
REMARK Flexibility Score: inf
ROOT
ATOM      1  C   UNL     1     -22.584   1.231  10.958  1.00  0.00     0.059 C 
ENDROOT
BRANCH   1   2
ATOM      2  C   UNL     1     -21.859   1.241  12.269  1.00  0.00     0.042 C 
ATOM      3  O   UNL     1     -21.260   2.279  12.654  1.00  0.00    -0.550 OA
ATOM      4  O   UNL     1     -21.813   0.092  13.047  1.00  0.00    -0.550 OA
ENDBRANCH   1   2
BRANCH   1   5
ATOM      5  C   UNL     1     -21.726   1.822   9.834  1.00  0.00     0.059 C 
BRANCH   5   6
ATOM      6  C   UNL     1     -21.417   0.800   8.782  1.00  0.00     0.042 C 
ATOM      7  O   UNL     1     -21.167  -0.390   9.108  1.00  0.00    -0.550 OA
ATOM      8  O   UNL     1     -21.365   1.174   7.445  1.00  0.00    -0.550 OA
ENDBRANCH   5   6
ENDBRANCH   1   5
TORSDOF 3
ENDMDL
