MODEL 1
REMARK VINA RESULT:    -5.860      0.000      0.000
REMARK INTER + INTRA:          -8.470
REMARK INTER:                  -7.916
REMARK INTRA:                  -0.554
REMARK UNBOUND:                -0.554
REMARK SMILES C=CC(C)=CCC=C(C)CCC=C(C)C
REMARK SMILES IDX 8 1 7 2 9 3 10 4 11 5 12 6 14 7 13 8 15 9 6 10 5 11 3 12
REMARK SMILES IDX 4 13 2 14 1 15
REMARK H PARENT
REMARK Flexibility Score: inf
ROOT
ATOM      1  C   UNL     1       3.695  10.293  11.678  1.00  0.00    -0.077 C 
ATOM      2  C   UNL     1       4.458   9.185  11.534  1.00  0.00    -0.024 C 
ATOM      3  C   UNL     1       2.469  10.309  12.561  1.00  0.00     0.039 C 
ENDROOT
BRANCH   1   4
ATOM      4  C   UNL     1       4.072  11.552  10.924  1.00  0.00     0.034 C 
BRANCH   4   5
ATOM      5  C   UNL     1       2.916  12.560  10.875  1.00  0.00     0.032 C 
BRANCH   5   6
ATOM      6  C   UNL     1       3.409  13.984  10.978  1.00  0.00    -0.028 C 
ATOM      7  C   UNL     1       3.843  13.837  13.440  1.00  0.00     0.039 C 
ATOM      8  C   UNL     1       3.799  14.580  12.126  1.00  0.00    -0.080 C 
ATOM      9  C   UNL     1       4.218  16.027  12.076  1.00  0.00     0.039 C 
ENDBRANCH   5   6
ENDBRANCH   4   5
ENDBRANCH   1   4
BRANCH   2  10
ATOM     10  C   UNL     1       4.182   7.863  12.207  1.00  0.00     0.055 C 
BRANCH  10  11
ATOM     11  C   UNL     1       5.445   7.071  12.423  1.00  0.00    -0.020 C 
ATOM     12  C   UNL     1       5.500   5.736  12.608  1.00  0.00    -0.055 C 
ATOM     13  C   UNL     1       4.253   4.880  12.650  1.00  0.00     0.044 C 
BRANCH  12  14
ATOM     14  C   UNL     1       6.832   5.126  12.856  1.00  0.00    -0.005 C 
ATOM     15  C   UNL     1       7.966   5.589  12.330  1.00  0.00     0.009 C 
ENDBRANCH  12  14
ENDBRANCH  10  11
ENDBRANCH   2  10
TORSDOF 6
ENDMDL
MODEL 2
REMARK VINA RESULT:    -5.611      1.118      1.437
REMARK INTER + INTRA:          -8.134
REMARK INTER:                  -7.596
REMARK INTRA:                  -0.537
REMARK UNBOUND:                -0.554
REMARK SMILES C=CC(C)=CCC=C(C)CCC=C(C)C
REMARK SMILES IDX 8 1 7 2 9 3 10 4 11 5 12 6 14 7 13 8 15 9 6 10 5 11 3 12
REMARK SMILES IDX 4 13 2 14 1 15
REMARK H PARENT
REMARK Flexibility Score: inf
ROOT
ATOM      1  C   UNL     1       3.614  10.799  11.647  1.00  0.00    -0.077 C 
ATOM      2  C   UNL     1       4.380   9.812  11.127  1.00  0.00    -0.024 C 
ATOM      3  C   UNL     1       2.493  10.513  12.618  1.00  0.00     0.039 C 
ENDROOT
BRANCH   1   4
ATOM      4  C   UNL     1       3.879  12.232  11.233  1.00  0.00     0.034 C 
BRANCH   4   5
ATOM      5  C   UNL     1       3.274  13.236  12.225  1.00  0.00     0.032 C 
BRANCH   5   6
ATOM      6  C   UNL     1       4.112  14.488  12.336  1.00  0.00    -0.028 C 
ATOM      7  C   UNL     1       2.568  15.855  10.914  1.00  0.00     0.039 C 
ATOM      8  C   UNL     1       3.824  15.660  11.730  1.00  0.00    -0.080 C 
ATOM      9  C   UNL     1       4.787  16.808  11.895  1.00  0.00     0.039 C 
ENDBRANCH   5   6
ENDBRANCH   4   5
ENDBRANCH   1   4
BRANCH   2  10
ATOM     10  C   UNL     1       4.208   8.345  11.434  1.00  0.00     0.055 C 
BRANCH  10  11
ATOM     11  C   UNL     1       5.365   7.800  12.230  1.00  0.00    -0.020 C 
ATOM     12  C   UNL     1       5.475   6.529  12.667  1.00  0.00    -0.055 C 
ATOM     13  C   UNL     1       4.394   5.500  12.419  1.00  0.00     0.044 C 
BRANCH  12  14
ATOM     14  C   UNL     1       6.665   6.178  13.484  1.00  0.00    -0.005 C 
ATOM     15  C   UNL     1       7.342   7.060  14.221  1.00  0.00     0.009 C 
ENDBRANCH  12  14
ENDBRANCH  10  11
ENDBRANCH   2  10
TORSDOF 6
ENDMDL
MODEL 3
REMARK VINA RESULT:    -5.474      2.254      6.833
REMARK INTER + INTRA:          -7.948
REMARK INTER:                  -7.333
REMARK INTRA:                  -0.615
REMARK UNBOUND:                -0.554
REMARK SMILES C=CC(C)=CCC=C(C)CCC=C(C)C
REMARK SMILES IDX 8 1 7 2 9 3 10 4 11 5 12 6 14 7 13 8 15 9 6 10 5 11 3 12
REMARK SMILES IDX 4 13 2 14 1 15
REMARK H PARENT
REMARK Flexibility Score: inf
ROOT
ATOM      1  C   UNL     1       4.232   7.277  12.550  1.00  0.00    -0.077 C 
ATOM      2  C   UNL     1       4.649   8.109  11.568  1.00  0.00    -0.024 C 
ATOM      3  C   UNL     1       3.612   7.795  13.826  1.00  0.00     0.039 C 
ENDROOT
BRANCH   1   4
ATOM      4  C   UNL     1       4.404   5.782  12.372  1.00  0.00     0.034 C 
BRANCH   4   5
ATOM      5  C   UNL     1       5.648   5.257  13.103  1.00  0.00     0.032 C 
BRANCH   5   6
ATOM      6  C   UNL     1       6.472   6.381  13.686  1.00  0.00    -0.028 C 
ATOM      7  C   UNL     1       8.123   6.377  11.803  1.00  0.00     0.039 C 
ATOM      8  C   UNL     1       7.600   6.872  13.131  1.00  0.00    -0.080 C 
ATOM      9  C   UNL     1       8.342   7.963  13.860  1.00  0.00     0.039 C 
ENDBRANCH   5   6
ENDBRANCH   4   5
ENDBRANCH   1   4
BRANCH   2  10
ATOM     10  C   UNL     1       4.559   9.614  11.627  1.00  0.00     0.055 C 
BRANCH  10  11
ATOM     11  C   UNL     1       3.288  10.124  11.000  1.00  0.00    -0.020 C 
ATOM     12  C   UNL     1       2.346  10.848  11.639  1.00  0.00    -0.055 C 
ATOM     13  C   UNL     1       2.463  11.201  13.105  1.00  0.00     0.044 C 
BRANCH  12  14
ATOM     14  C   UNL     1       1.129  11.225  10.875  1.00  0.00    -0.005 C 
ATOM     15  C   UNL     1      -0.099  10.809  11.188  1.00  0.00     0.009 C 
ENDBRANCH  12  14
ENDBRANCH  10  11
ENDBRANCH   2  10
TORSDOF 6
ENDMDL
MODEL 4
REMARK VINA RESULT:    -5.132      1.360      6.935
REMARK INTER + INTRA:          -7.486
REMARK INTER:                  -7.304
REMARK INTRA:                  -0.183
REMARK UNBOUND:                -0.554
REMARK SMILES C=CC(C)=CCC=C(C)CCC=C(C)C
REMARK SMILES IDX 8 1 7 2 9 3 10 4 11 5 12 6 14 7 13 8 15 9 6 10 5 11 3 12
REMARK SMILES IDX 4 13 2 14 1 15
REMARK H PARENT
REMARK Flexibility Score: inf
ROOT
ATOM      1  C   UNL     1       4.106   8.619  11.980  1.00  0.00    -0.077 C 
ATOM      2  C   UNL     1       3.152   9.578  12.012  1.00  0.00    -0.024 C 
ATOM      3  C   UNL     1       5.220   8.634  10.961  1.00  0.00     0.039 C 
ENDROOT
BRANCH   1   4
ATOM      4  C   UNL     1       4.047   7.488  12.987  1.00  0.00     0.034 C 
BRANCH   4   5
ATOM      5  C   UNL     1       5.313   6.621  12.949  1.00  0.00     0.032 C 
BRANCH   5   6
ATOM      6  C   UNL     1       6.508   7.346  13.523  1.00  0.00    -0.028 C 
ATOM      7  C   UNL     1       8.131   6.283  11.940  1.00  0.00     0.039 C 
ATOM      8  C   UNL     1       7.780   7.182  13.102  1.00  0.00    -0.080 C 
ATOM      9  C   UNL     1       8.873   7.940  13.811  1.00  0.00     0.039 C 
ENDBRANCH   5   6
ENDBRANCH   4   5
ENDBRANCH   1   4
BRANCH   2  10
ATOM     10  C   UNL     1       3.079  10.743  11.055  1.00  0.00     0.055 C 
BRANCH  10  11
ATOM     11  C   UNL     1       3.706  11.984  11.635  1.00  0.00    -0.020 C 
ATOM     12  C   UNL     1       3.286  12.616  12.750  1.00  0.00    -0.055 C 
ATOM     13  C   UNL     1       2.084  12.142  13.536  1.00  0.00     0.044 C 
BRANCH  12  14
ATOM     14  C   UNL     1       3.995  13.859  13.149  1.00  0.00    -0.005 C 
ATOM     15  C   UNL     1       3.973  14.985  12.434  1.00  0.00     0.009 C 
ENDBRANCH  12  14
ENDBRANCH  10  11
ENDBRANCH   2  10
TORSDOF 6
ENDMDL
MODEL 5
REMARK VINA RESULT:    -5.020      1.270      2.143
REMARK INTER + INTRA:          -7.335
REMARK INTER:                  -6.901
REMARK INTRA:                  -0.434
REMARK UNBOUND:                -0.554
REMARK SMILES C=CC(C)=CCC=C(C)CCC=C(C)C
REMARK SMILES IDX 8 1 7 2 9 3 10 4 11 5 12 6 14 7 13 8 15 9 6 10 5 11 3 12
REMARK SMILES IDX 4 13 2 14 1 15
REMARK H PARENT
REMARK Flexibility Score: inf
ROOT
ATOM      1  C   UNL     1       2.615  10.144  11.657  1.00  0.00    -0.077 C 
ATOM      2  C   UNL     1       3.749   9.801  11.004  1.00  0.00    -0.024 C 
ATOM      3  C   UNL     1       2.448   9.918  13.141  1.00  0.00     0.039 C 
ENDROOT
BRANCH   1   4
ATOM      4  C   UNL     1       1.472  10.761  10.876  1.00  0.00     0.034 C 
BRANCH   4   5
ATOM      5  C   UNL     1       1.492  12.294  10.946  1.00  0.00     0.032 C 
BRANCH   5   6
ATOM      6  C   UNL     1       2.110  12.789  12.233  1.00  0.00    -0.028 C 
ATOM      7  C   UNL     1       4.041  13.891  11.081  1.00  0.00     0.039 C 
ATOM      8  C   UNL     1       3.268  13.479  12.312  1.00  0.00    -0.080 C 
ATOM      9  C   UNL     1       3.784  13.859  13.675  1.00  0.00     0.039 C 
ENDBRANCH   5   6
ENDBRANCH   4   5
ENDBRANCH   1   4
BRANCH   2  10
ATOM     10  C   UNL     1       4.950   9.159  11.655  1.00  0.00     0.055 C 
BRANCH  10  11
ATOM     11  C   UNL     1       4.752   7.680  11.859  1.00  0.00    -0.020 C 
ATOM     12  C   UNL     1       5.512   6.899  12.655  1.00  0.00    -0.055 C 
ATOM     13  C   UNL     1       6.697   7.447  13.419  1.00  0.00     0.044 C 
BRANCH  12  14
ATOM     14  C   UNL     1       5.203   5.447  12.698  1.00  0.00    -0.005 C 
ATOM     15  C   UNL     1       3.989   4.942  12.473  1.00  0.00     0.009 C 
ENDBRANCH  12  14
ENDBRANCH  10  11
ENDBRANCH   2  10
TORSDOF 6
ENDMDL
MODEL 6
REMARK VINA RESULT:    -4.986      1.810      6.819
REMARK INTER + INTRA:          -7.290
REMARK INTER:                  -6.419
REMARK INTRA:                  -0.871
REMARK UNBOUND:                -0.554
REMARK SMILES C=CC(C)=CCC=C(C)CCC=C(C)C
REMARK SMILES IDX 8 1 7 2 9 3 10 4 11 5 12 6 14 7 13 8 15 9 6 10 5 11 3 12
REMARK SMILES IDX 4 13 2 14 1 15
REMARK H PARENT
REMARK Flexibility Score: inf
ROOT
ATOM      1  C   UNL     1       4.982   8.432  11.699  1.00  0.00    -0.077 C 
ATOM      2  C   UNL     1       4.596   9.629  11.200  1.00  0.00    -0.024 C 
ATOM      3  C   UNL     1       4.211   7.739  12.797  1.00  0.00     0.039 C 
ENDROOT
BRANCH   1   4
ATOM      4  C   UNL     1       6.231   7.773  11.150  1.00  0.00     0.034 C 
BRANCH   4   5
ATOM      5  C   UNL     1       6.826   6.760  12.138  1.00  0.00     0.032 C 
BRANCH   5   6
ATOM      6  C   UNL     1       8.214   7.160  12.582  1.00  0.00    -0.028 C 
ATOM      7  C   UNL     1       7.411   8.256  14.686  1.00  0.00     0.039 C 
ATOM      8  C   UNL     1       8.489   7.857  13.706  1.00  0.00    -0.080 C 
ATOM      9  C   UNL     1       9.923   8.225  13.988  1.00  0.00     0.039 C 
ENDBRANCH   5   6
ENDBRANCH   4   5
ENDBRANCH   1   4
BRANCH   2  10
ATOM     10  C   UNL     1       3.390  10.404  11.671  1.00  0.00     0.055 C 
BRANCH  10  11
ATOM     11  C   UNL     1       3.760  11.785  12.145  1.00  0.00    -0.020 C 
ATOM     12  C   UNL     1       3.116  12.471  13.111  1.00  0.00    -0.055 C 
ATOM     13  C   UNL     1       1.898  11.915  13.813  1.00  0.00     0.044 C 
BRANCH  12  14
ATOM     14  C   UNL     1       3.591  13.846  13.416  1.00  0.00    -0.005 C 
ATOM     15  C   UNL     1       3.830  14.769  12.484  1.00  0.00     0.009 C 
ENDBRANCH  12  14
ENDBRANCH  10  11
ENDBRANCH   2  10
TORSDOF 6
ENDMDL
