MODEL 1
REMARK VINA RESULT:    -3.922      0.000      0.000
REMARK INTER + INTRA:          -5.714
REMARK INTER:                  -5.297
REMARK INTRA:                  -0.417
REMARK UNBOUND:                -0.417
REMARK SMILES CCCCCCCC(=O)[O-]
REMARK SMILES IDX 5 1 6 2 7 3 8 4 9 5 10 6 4 7 3 8 2 9 1 10
REMARK H PARENT
REMARK Flexibility Score: inf
ROOT
ATOM      1  C   UNL     1     -11.058 -13.919  15.097  1.00  0.00     0.000 C 
ENDROOT
BRANCH   1   2
ATOM      2  C   UNL     1     -12.457 -13.657  14.528  1.00  0.00     0.006 C 
BRANCH   2   3
ATOM      3  C   UNL     1     -12.518 -12.299  13.822  1.00  0.00     0.053 C 
BRANCH   3   4
ATOM      4  C   UNL     1     -13.900 -12.033  13.316  1.00  0.00     0.041 C 
ATOM      5  O   UNL     1     -14.899 -12.484  13.935  1.00  0.00    -0.550 OA
ATOM      6  O   UNL     1     -14.083 -11.327  12.133  1.00  0.00    -0.550 OA
ENDBRANCH   3   4
ENDBRANCH   2   3
ENDBRANCH   1   2
BRANCH   1   7
ATOM      7  C   UNL     1     -10.584 -12.743  15.958  1.00  0.00     0.000 C 
BRANCH   7   8
ATOM      8  C   UNL     1      -9.093 -12.462  15.735  1.00  0.00    -0.000 C 
BRANCH   8   9
ATOM      9  C   UNL     1      -8.824 -12.036  14.288  1.00  0.00    -0.003 C 
ATOM     10  C   UNL     1      -8.937 -10.524  14.128  1.00  0.00     0.004 C 
ENDBRANCH   8   9
ENDBRANCH   7   8
ENDBRANCH   1   7
TORSDOF 6
ENDMDL
MODEL 2
REMARK VINA RESULT:    -3.916      3.613      5.188
REMARK INTER + INTRA:          -5.707
REMARK INTER:                  -5.392
REMARK INTRA:                  -0.315
REMARK UNBOUND:                -0.417
REMARK SMILES CCCCCCCC(=O)[O-]
REMARK SMILES IDX 5 1 6 2 7 3 8 4 9 5 10 6 4 7 3 8 2 9 1 10
REMARK H PARENT
REMARK Flexibility Score: inf
ROOT
ATOM      1  C   UNL     1      -9.454 -12.257  15.676  1.00  0.00     0.000 C 
ENDROOT
BRANCH   1   2
ATOM      2  C   UNL     1      -9.324 -11.766  14.230  1.00  0.00     0.006 C 
BRANCH   2   3
ATOM      3  C   UNL     1      -8.466 -10.499  14.154  1.00  0.00     0.053 C 
BRANCH   3   4
ATOM      4  C   UNL     1      -7.054 -10.843  13.801  1.00  0.00     0.041 C 
ATOM      5  O   UNL     1      -6.733 -12.037  13.565  1.00  0.00    -0.550 OA
ATOM      6  O   UNL     1      -6.082  -9.851  13.781  1.00  0.00    -0.550 OA
ENDBRANCH   3   4
ENDBRANCH   2   3
ENDBRANCH   1   2
BRANCH   1   7
ATOM      7  C   UNL     1     -10.859 -12.808  15.947  1.00  0.00     0.000 C 
BRANCH   7   8
ATOM      8  C   UNL     1     -11.142 -14.045  15.084  1.00  0.00    -0.000 C 
BRANCH   8   9
ATOM      9  C   UNL     1     -12.579 -14.027  14.553  1.00  0.00    -0.003 C 
ATOM     10  C   UNL     1     -12.885 -12.718  13.833  1.00  0.00     0.004 C 
ENDBRANCH   8   9
ENDBRANCH   7   8
ENDBRANCH   1   7
TORSDOF 6
ENDMDL
MODEL 3
REMARK VINA RESULT:    -3.862      2.650      3.772
REMARK INTER + INTRA:          -5.634
REMARK INTER:                  -5.205
REMARK INTRA:                  -0.429
REMARK UNBOUND:                -0.417
REMARK SMILES CCCCCCCC(=O)[O-]
REMARK SMILES IDX 5 1 6 2 7 3 8 4 9 5 10 6 4 7 3 8 2 9 1 10
REMARK H PARENT
REMARK Flexibility Score: inf
ROOT
ATOM      1  C   UNL     1     -13.822 -12.291  13.348  1.00  0.00     0.000 C 
ENDROOT
BRANCH   1   2
ATOM      2  C   UNL     1     -14.873 -13.391  13.166  1.00  0.00     0.006 C 
BRANCH   2   3
ATOM      3  C   UNL     1     -16.258 -12.907  13.608  1.00  0.00     0.053 C 
BRANCH   3   4
ATOM      4  C   UNL     1     -16.836 -13.835  14.630  1.00  0.00     0.041 C 
ATOM      5  O   UNL     1     -17.603 -14.768  14.277  1.00  0.00    -0.550 OA
ATOM      6  O   UNL     1     -16.565 -13.637  15.978  1.00  0.00    -0.550 OA
ENDBRANCH   3   4
ENDBRANCH   2   3
ENDBRANCH   1   2
BRANCH   1   7
ATOM      7  C   UNL     1     -13.571 -12.009  14.834  1.00  0.00     0.000 C 
BRANCH   7   8
ATOM      8  C   UNL     1     -13.023 -13.252  15.546  1.00  0.00    -0.000 C 
BRANCH   8   9
ATOM      9  C   UNL     1     -11.505 -13.157  15.731  1.00  0.00    -0.003 C 
ATOM     10  C   UNL     1     -10.776 -14.132  14.812  1.00  0.00     0.004 C 
ENDBRANCH   8   9
ENDBRANCH   7   8
ENDBRANCH   1   7
TORSDOF 6
ENDMDL
MODEL 4
REMARK VINA RESULT:    -3.830      3.276      4.937
REMARK INTER + INTRA:          -5.591
REMARK INTER:                  -5.250
REMARK INTRA:                  -0.341
REMARK UNBOUND:                -0.417
REMARK SMILES CCCCCCCC(=O)[O-]
REMARK SMILES IDX 5 1 6 2 7 3 8 4 9 5 10 6 4 7 3 8 2 9 1 10
REMARK H PARENT
REMARK Flexibility Score: inf
ROOT
ATOM      1  C   UNL     1     -10.217 -12.750  15.878  1.00  0.00     0.000 C 
ENDROOT
BRANCH   1   2
ATOM      2  C   UNL     1      -8.757 -12.375  15.602  1.00  0.00     0.006 C 
BRANCH   2   3
ATOM      3  C   UNL     1      -8.626 -11.607  14.283  1.00  0.00     0.053 C 
BRANCH   3   4
ATOM      4  C   UNL     1      -7.546 -12.202  13.436  1.00  0.00     0.041 C 
ATOM      5  O   UNL     1      -6.343 -12.124  13.796  1.00  0.00    -0.550 OA
ATOM      6  O   UNL     1      -7.865 -12.800  12.222  1.00  0.00    -0.550 OA
ENDBRANCH   3   4
ENDBRANCH   2   3
ENDBRANCH   1   2
BRANCH   1   7
ATOM      7  C   UNL     1     -10.698 -13.840  14.914  1.00  0.00     0.000 C 
BRANCH   7   8
ATOM      8  C   UNL     1     -12.167 -13.628  14.529  1.00  0.00    -0.000 C 
BRANCH   8   9
ATOM      9  C   UNL     1     -12.364 -12.275  13.836  1.00  0.00    -0.003 C 
ATOM     10  C   UNL     1     -13.777 -12.143  13.277  1.00  0.00     0.004 C 
ENDBRANCH   8   9
ENDBRANCH   7   8
ENDBRANCH   1   7
TORSDOF 6
ENDMDL
MODEL 5
REMARK VINA RESULT:    -3.819      1.857      2.802
REMARK INTER + INTRA:          -5.576
REMARK INTER:                  -5.213
REMARK INTRA:                  -0.363
REMARK UNBOUND:                -0.417
REMARK SMILES CCCCCCCC(=O)[O-]
REMARK SMILES IDX 5 1 6 2 7 3 8 4 9 5 10 6 4 7 3 8 2 9 1 10
REMARK H PARENT
REMARK Flexibility Score: inf
ROOT
ATOM      1  C   UNL     1      -9.330 -12.679  14.046  1.00  0.00     0.000 C 
ENDROOT
BRANCH   1   2
ATOM      2  C   UNL     1      -9.867 -13.496  15.227  1.00  0.00     0.006 C 
BRANCH   2   3
ATOM      3  C   UNL     1     -10.991 -12.746  15.949  1.00  0.00     0.053 C 
BRANCH   3   4
ATOM      4  C   UNL     1     -12.319 -13.105  15.364  1.00  0.00     0.041 C 
ATOM      5  O   UNL     1     -12.554 -14.287  15.003  1.00  0.00    -0.550 OA
ATOM      6  O   UNL     1     -13.283 -12.122  15.173  1.00  0.00    -0.550 OA
ENDBRANCH   3   4
ENDBRANCH   2   3
ENDBRANCH   1   2
BRANCH   1   7
ATOM      7  C   UNL     1      -9.381 -11.177  14.347  1.00  0.00     0.000 C 
BRANCH   7   8
ATOM      8  C   UNL     1      -8.045 -10.501  14.011  1.00  0.00    -0.000 C 
BRANCH   8   9
ATOM      9  C   UNL     1      -6.870 -11.271  14.624  1.00  0.00    -0.003 C 
ATOM     10  C   UNL     1      -5.682 -11.316  13.669  1.00  0.00     0.004 C 
ENDBRANCH   8   9
ENDBRANCH   7   8
ENDBRANCH   1   7
TORSDOF 6
ENDMDL
MODEL 6
REMARK VINA RESULT:    -3.808      1.154      1.226
REMARK INTER + INTRA:          -5.561
REMARK INTER:                  -5.210
REMARK INTRA:                  -0.351
REMARK UNBOUND:                -0.417
REMARK SMILES CCCCCCCC(=O)[O-]
REMARK SMILES IDX 5 1 6 2 7 3 8 4 9 5 10 6 4 7 3 8 2 9 1 10
REMARK H PARENT
REMARK Flexibility Score: inf
ROOT
ATOM      1  C   UNL     1     -11.690 -12.932  15.588  1.00  0.00     0.000 C 
ENDROOT
BRANCH   1   2
ATOM      2  C   UNL     1     -11.895 -12.963  14.070  1.00  0.00     0.006 C 
BRANCH   2   3
ATOM      3  C   UNL     1     -13.024 -12.017  13.647  1.00  0.00     0.053 C 
BRANCH   3   4
ATOM      4  C   UNL     1     -14.335 -12.737  13.642  1.00  0.00     0.041 C 
ATOM      5  O   UNL     1     -15.328 -12.249  14.242  1.00  0.00    -0.550 OA
ATOM      6  O   UNL     1     -14.446 -13.973  13.016  1.00  0.00    -0.550 OA
ENDBRANCH   3   4
ENDBRANCH   2   3
ENDBRANCH   1   2
BRANCH   1   7
ATOM      7  C   UNL     1     -10.232 -12.620  15.942  1.00  0.00     0.000 C 
BRANCH   7   8
ATOM      8  C   UNL     1      -9.403 -12.354  14.680  1.00  0.00    -0.000 C 
BRANCH   8   9
ATOM      9  C   UNL     1      -8.446 -11.175  14.888  1.00  0.00    -0.003 C 
ATOM     10  C   UNL     1      -8.571 -10.157  13.759  1.00  0.00     0.004 C 
ENDBRANCH   8   9
ENDBRANCH   7   8
ENDBRANCH   1   7
TORSDOF 6
ENDMDL
MODEL 7
REMARK VINA RESULT:    -3.764      2.275      3.169
REMARK INTER + INTRA:          -5.501
REMARK INTER:                  -5.129
REMARK INTRA:                  -0.372
REMARK UNBOUND:                -0.417
REMARK SMILES CCCCCCCC(=O)[O-]
REMARK SMILES IDX 5 1 6 2 7 3 8 4 9 5 10 6 4 7 3 8 2 9 1 10
REMARK H PARENT
REMARK Flexibility Score: inf
ROOT
ATOM      1  C   UNL     1     -12.967 -12.568  14.382  1.00  0.00     0.000 C 
ENDROOT
BRANCH   1   2
ATOM      2  C   UNL     1     -14.163 -12.274  15.294  1.00  0.00     0.006 C 
BRANCH   2   3
ATOM      3  C   UNL     1     -14.537 -13.506  16.125  1.00  0.00     0.053 C 
BRANCH   3   4
ATOM      4  C   UNL     1     -16.015 -13.563  16.341  1.00  0.00     0.041 C 
ATOM      5  O   UNL     1     -16.498 -13.351  17.484  1.00  0.00    -0.550 OA
ATOM      6  O   UNL     1     -16.859 -13.899  15.289  1.00  0.00    -0.550 OA
ENDBRANCH   3   4
ENDBRANCH   2   3
ENDBRANCH   1   2
BRANCH   1   7
ATOM      7  C   UNL     1     -12.405 -13.970  14.645  1.00  0.00     0.000 C 
BRANCH   7   8
ATOM      8  C   UNL     1     -10.896 -13.918  14.915  1.00  0.00    -0.000 C 
BRANCH   8   9
ATOM      9  C   UNL     1     -10.541 -12.740  15.828  1.00  0.00    -0.003 C 
ATOM     10  C   UNL     1      -9.338 -11.970  15.292  1.00  0.00     0.004 C 
ENDBRANCH   8   9
ENDBRANCH   7   8
ENDBRANCH   1   7
TORSDOF 6
ENDMDL
MODEL 8
REMARK VINA RESULT:    -3.761      1.372      1.879
REMARK INTER + INTRA:          -5.497
REMARK INTER:                  -5.156
REMARK INTRA:                  -0.341
REMARK UNBOUND:                -0.417
REMARK SMILES CCCCCCCC(=O)[O-]
REMARK SMILES IDX 5 1 6 2 7 3 8 4 9 5 10 6 4 7 3 8 2 9 1 10
REMARK H PARENT
REMARK Flexibility Score: inf
ROOT
ATOM      1  C   UNL     1     -13.471 -13.297  15.347  1.00  0.00     0.000 C 
ENDROOT
BRANCH   1   2
ATOM      2  C   UNL     1     -13.322 -14.080  14.037  1.00  0.00     0.006 C 
BRANCH   2   3
ATOM      3  C   UNL     1     -14.677 -14.252  13.343  1.00  0.00     0.053 C 
BRANCH   3   4
ATOM      4  C   UNL     1     -15.327 -12.922  13.126  1.00  0.00     0.041 C 
ATOM      5  O   UNL     1     -16.425 -12.655  13.679  1.00  0.00    -0.550 OA
ATOM      6  O   UNL     1     -14.742 -11.994  12.273  1.00  0.00    -0.550 OA
ENDBRANCH   3   4
ENDBRANCH   2   3
ENDBRANCH   1   2
BRANCH   1   7
ATOM      7  C   UNL     1     -12.101 -12.977  15.956  1.00  0.00     0.000 C 
BRANCH   7   8
ATOM      8  C   UNL     1     -10.992 -13.790  15.277  1.00  0.00    -0.000 C 
BRANCH   8   9
ATOM      9  C   UNL     1      -9.657 -13.038  15.314  1.00  0.00    -0.003 C 
ATOM     10  C   UNL     1      -9.707 -11.783  14.448  1.00  0.00     0.004 C 
ENDBRANCH   8   9
ENDBRANCH   7   8
ENDBRANCH   1   7
TORSDOF 6
ENDMDL
MODEL 9
REMARK VINA RESULT:    -3.656      2.829      5.363
REMARK INTER + INTRA:          -5.355
REMARK INTER:                  -4.952
REMARK INTRA:                  -0.403
REMARK UNBOUND:                -0.417
REMARK SMILES CCCCCCCC(=O)[O-]
REMARK SMILES IDX 5 1 6 2 7 3 8 4 9 5 10 6 4 7 3 8 2 9 1 10
REMARK H PARENT
REMARK Flexibility Score: inf
ROOT
ATOM      1  C   UNL     1     -14.030 -13.554  15.680  1.00  0.00     0.000 C 
ENDROOT
BRANCH   1   2
ATOM      2  C   UNL     1     -13.193 -14.081  14.509  1.00  0.00     0.006 C 
BRANCH   2   3
ATOM      3  C   UNL     1     -11.720 -14.220  14.905  1.00  0.00     0.053 C 
BRANCH   3   4
ATOM      4  C   UNL     1     -11.099 -12.872  15.093  1.00  0.00     0.041 C 
ATOM      5  O   UNL     1     -11.204 -11.995  14.197  1.00  0.00    -0.550 OA
ATOM      6  O   UNL     1     -10.362 -12.601  16.240  1.00  0.00    -0.550 OA
ENDBRANCH   3   4
ENDBRANCH   2   3
ENDBRANCH   1   2
BRANCH   1   7
ATOM      7  C   UNL     1     -14.841 -12.321  15.266  1.00  0.00     0.000 C 
BRANCH   7   8
ATOM      8  C   UNL     1     -15.540 -12.546  13.920  1.00  0.00    -0.000 C 
BRANCH   8   9
ATOM      9  C   UNL     1     -16.925 -13.172  14.117  1.00  0.00    -0.003 C 
ATOM     10  C   UNL     1     -17.237 -14.179  13.015  1.00  0.00     0.004 C 
ENDBRANCH   8   9
ENDBRANCH   7   8
ENDBRANCH   1   7
TORSDOF 6
ENDMDL
