MODEL 1
REMARK VINA RESULT:     0.846      0.000      0.000
REMARK INTER + INTRA:           0.871
REMARK INTER:                   0.871
REMARK INTRA:                   0.000
REMARK UNBOUND:                 0.000
REMARK SMILES O=c1ccc2ccc(O)cc2o1
REMARK SMILES IDX 6 1 7 2 8 3 10 4 11 5 5 6 4 7 3 8 2 9 1 10 12 11 9 12
REMARK H PARENT 9 13
REMARK Flexibility Score: inf
ROOT
ATOM      1  C   UNL     1      -7.570  -4.884  18.681  1.00  0.00     0.016 A 
ATOM      2  C   UNL     1      -6.835  -3.720  18.933  1.00  0.00     0.047 A 
ATOM      3  C   UNL     1      -6.516  -3.356  20.247  1.00  0.00     0.119 A 
ATOM      4  C   UNL     1      -6.935  -4.160  21.317  1.00  0.00     0.094 A 
ATOM      5  C   UNL     1      -7.670  -5.325  21.075  1.00  0.00     0.142 A 
ATOM      6  C   UNL     1      -7.990  -5.689  19.748  1.00  0.00     0.018 A 
ATOM      7  C   UNL     1      -8.726  -6.860  19.537  1.00  0.00     0.019 A 
ATOM      8  C   UNL     1      -9.119  -7.627  20.634  1.00  0.00     0.094 A 
ATOM      9  C   UNL     1      -8.767  -7.204  21.920  1.00  0.00     0.336 A 
ATOM     10  O   UNL     1      -9.113  -7.883  22.922  1.00  0.00    -0.246 OA
ATOM     11  O   UNL     1      -8.066  -6.086  22.093  1.00  0.00    -0.423 OA
ENDROOT
BRANCH   3  12
ATOM     12  O   UNL     1      -5.784  -2.193  20.477  1.00  0.00    -0.508 OA
ATOM     13  H   UNL     1      -4.868  -2.221  20.909  1.00  0.00     0.293 HD
ENDBRANCH   3  12
TORSDOF 1
ENDMDL
MODEL 2
REMARK VINA RESULT:     2.289      0.781      4.225
REMARK INTER + INTRA:           2.356
REMARK INTER:                   2.356
REMARK INTRA:                   0.000
REMARK UNBOUND:                 0.000
REMARK SMILES O=c1ccc2ccc(O)cc2o1
REMARK SMILES IDX 6 1 7 2 8 3 10 4 11 5 5 6 4 7 3 8 2 9 1 10 12 11 9 12
REMARK H PARENT 9 13
REMARK Flexibility Score: inf
ROOT
ATOM      1  C   UNL     1      -8.759  -6.785  19.498  1.00  0.00     0.016 A 
ATOM      2  C   UNL     1      -9.125  -7.631  20.551  1.00  0.00     0.047 A 
ATOM      3  C   UNL     1      -8.750  -7.326  21.865  1.00  0.00     0.119 A 
ATOM      4  C   UNL     1      -8.004  -6.169  22.130  1.00  0.00     0.094 A 
ATOM      5  C   UNL     1      -7.633  -5.318  21.083  1.00  0.00     0.142 A 
ATOM      6  C   UNL     1      -8.013  -5.628  19.758  1.00  0.00     0.018 A 
ATOM      7  C   UNL     1      -7.628  -4.758  18.733  1.00  0.00     0.019 A 
ATOM      8  C   UNL     1      -6.887  -3.619  19.046  1.00  0.00     0.094 A 
ATOM      9  C   UNL     1      -6.546  -3.375  20.380  1.00  0.00     0.336 A 
ATOM     10  O   UNL     1      -5.877  -2.352  20.682  1.00  0.00    -0.246 OA
ATOM     11  O   UNL     1      -6.925  -4.219  21.338  1.00  0.00    -0.423 OA
ENDROOT
BRANCH   3  12
ATOM     12  O   UNL     1      -9.124  -8.181  22.900  1.00  0.00    -0.508 OA
ATOM     13  H   UNL     1      -9.995  -8.055  23.403  1.00  0.00     0.293 HD
ENDBRANCH   3  12
TORSDOF 1
ENDMDL
