MODEL 1
REMARK VINA RESULT:    -3.250      0.000      0.000
REMARK INTER + INTRA:          -4.257
REMARK INTER:                  -4.010
REMARK INTRA:                  -0.247
REMARK UNBOUND:                -0.247
REMARK SMILES CCCCCC(=O)[O-]
REMARK SMILES IDX 4 1 5 2 6 3 7 4 8 5 3 6 2 7 1 8
REMARK H PARENT
REMARK Flexibility Score: inf
ROOT
ATOM      1  C   UNL     1      18.674 130.506  65.162  1.00  0.00     0.006 C 
ENDROOT
BRANCH   1   2
ATOM      2  C   UNL     1      18.909 131.951  64.691  1.00  0.00     0.053 C 
BRANCH   2   3
ATOM      3  C   UNL     1      19.384 132.007  63.272  1.00  0.00     0.041 C 
ATOM      4  O   UNL     1      18.657 132.519  62.380  1.00  0.00    -0.550 OA
ATOM      5  O   UNL     1      20.617 131.467  62.928  1.00  0.00    -0.550 OA
ENDBRANCH   2   3
ENDBRANCH   1   2
BRANCH   1   6
ATOM      6  C   UNL     1      17.739 129.687  64.252  1.00  0.00     0.000 C 
BRANCH   6   7
ATOM      7  C   UNL     1      18.201 128.234  64.080  1.00  0.00    -0.003 C 
ATOM      8  C   UNL     1      19.721 128.152  63.958  1.00  0.00     0.004 C 
ENDBRANCH   6   7
ENDBRANCH   1   6
TORSDOF 4
ENDMDL
MODEL 2
REMARK VINA RESULT:    -3.250      0.085      1.146
REMARK INTER + INTRA:          -4.256
REMARK INTER:                  -3.999
REMARK INTRA:                  -0.257
REMARK UNBOUND:                -0.247
REMARK SMILES CCCCCC(=O)[O-]
REMARK SMILES IDX 4 1 5 2 6 3 7 4 8 5 3 6 2 7 1 8
REMARK H PARENT
REMARK Flexibility Score: inf
ROOT
ATOM      1  C   UNL     1      18.696 130.504  65.127  1.00  0.00     0.006 C 
ENDROOT
BRANCH   1   2
ATOM      2  C   UNL     1      18.913 131.945  64.639  1.00  0.00     0.053 C 
BRANCH   2   3
ATOM      3  C   UNL     1      19.426 131.990  63.233  1.00  0.00     0.041 C 
ATOM      4  O   UNL     1      20.546 131.489  62.950  1.00  0.00    -0.550 OA
ATOM      5  O   UNL     1      18.681 132.613  62.238  1.00  0.00    -0.550 OA
ENDBRANCH   2   3
ENDBRANCH   1   2
BRANCH   1   6
ATOM      6  C   UNL     1      17.686 129.696  64.289  1.00  0.00     0.000 C 
BRANCH   6   7
ATOM      7  C   UNL     1      18.149 128.257  64.027  1.00  0.00    -0.003 C 
ATOM      8  C   UNL     1      19.673 128.166  63.997  1.00  0.00     0.004 C 
ENDBRANCH   6   7
ENDBRANCH   1   6
TORSDOF 4
ENDMDL
MODEL 3
REMARK VINA RESULT:    -3.198      1.054      1.548
REMARK INTER + INTRA:          -4.192
REMARK INTER:                  -3.976
REMARK INTRA:                  -0.216
REMARK UNBOUND:                -0.247
REMARK SMILES CCCCCC(=O)[O-]
REMARK SMILES IDX 4 1 5 2 6 3 7 4 8 5 3 6 2 7 1 8
REMARK H PARENT
REMARK Flexibility Score: inf
ROOT
ATOM      1  C   UNL     1      17.718 129.734  64.083  1.00  0.00     0.006 C 
ENDROOT
BRANCH   1   2
ATOM      2  C   UNL     1      18.472 130.625  65.084  1.00  0.00     0.053 C 
BRANCH   2   3
ATOM      3  C   UNL     1      19.059 131.835  64.425  1.00  0.00     0.041 C 
ATOM      4  O   UNL     1      18.804 132.986  64.871  1.00  0.00    -0.550 OA
ATOM      5  O   UNL     1      19.863 131.697  63.300  1.00  0.00    -0.550 OA
ENDBRANCH   2   3
ENDBRANCH   1   2
BRANCH   1   6
ATOM      6  C   UNL     1      18.185 128.266  64.067  1.00  0.00     0.000 C 
BRANCH   6   7
ATOM      7  C   UNL     1      19.647 128.103  64.506  1.00  0.00    -0.003 C 
ATOM      8  C   UNL     1      20.594 128.212  63.315  1.00  0.00     0.004 C 
ENDBRANCH   6   7
ENDBRANCH   1   6
TORSDOF 4
ENDMDL
MODEL 4
REMARK VINA RESULT:    -3.041      2.293      3.723
REMARK INTER + INTRA:          -3.999
REMARK INTER:                  -3.834
REMARK INTRA:                  -0.165
REMARK UNBOUND:                -0.247
REMARK SMILES CCCCCC(=O)[O-]
REMARK SMILES IDX 4 1 5 2 6 3 7 4 8 5 3 6 2 7 1 8
REMARK H PARENT
REMARK Flexibility Score: inf
ROOT
ATOM      1  C   UNL     1      18.251 130.997  63.923  1.00  0.00     0.006 C 
ENDROOT
BRANCH   1   2
ATOM      2  C   UNL     1      18.826 129.901  64.835  1.00  0.00     0.053 C 
BRANCH   2   3
ATOM      3  C   UNL     1      18.960 128.591  64.122  1.00  0.00     0.041 C 
ATOM      4  O   UNL     1      20.095 128.176  63.766  1.00  0.00    -0.550 OA
ATOM      5  O   UNL     1      17.829 127.842  63.820  1.00  0.00    -0.550 OA
ENDBRANCH   2   3
ENDBRANCH   1   2
BRANCH   1   6
ATOM      6  C   UNL     1      19.134 132.254  63.811  1.00  0.00     0.000 C 
BRANCH   6   7
ATOM      7  C   UNL     1      19.841 132.363  62.453  1.00  0.00    -0.003 C 
ATOM      8  C   UNL     1      21.182 131.634  62.472  1.00  0.00     0.004 C 
ENDBRANCH   6   7
ENDBRANCH   1   6
TORSDOF 4
ENDMDL
MODEL 5
REMARK VINA RESULT:    -2.960      2.806      4.077
REMARK INTER + INTRA:          -3.898
REMARK INTER:                  -3.760
REMARK INTRA:                  -0.139
REMARK UNBOUND:                -0.247
REMARK SMILES CCCCCC(=O)[O-]
REMARK SMILES IDX 4 1 5 2 6 3 7 4 8 5 3 6 2 7 1 8
REMARK H PARENT
REMARK Flexibility Score: inf
ROOT
ATOM      1  C   UNL     1      18.856 130.879  64.467  1.00  0.00     0.006 C 
ENDROOT
BRANCH   1   2
ATOM      2  C   UNL     1      17.563 130.128  64.109  1.00  0.00     0.053 C 
BRANCH   2   3
ATOM      3  C   UNL     1      17.702 128.650  64.301  1.00  0.00     0.041 C 
ATOM      4  O   UNL     1      18.730 128.050  63.887  1.00  0.00    -0.550 OA
ATOM      5  O   UNL     1      16.682 127.927  64.908  1.00  0.00    -0.550 OA
ENDBRANCH   2   3
ENDBRANCH   1   2
BRANCH   1   6
ATOM      6  C   UNL     1      18.686 131.942  65.570  1.00  0.00     0.000 C 
BRANCH   6   7
ATOM      7  C   UNL     1      18.472 131.326  66.960  1.00  0.00    -0.003 C 
ATOM      8  C   UNL     1      17.086 131.664  67.503  1.00  0.00     0.004 C 
ENDBRANCH   6   7
ENDBRANCH   1   6
TORSDOF 4
ENDMDL
MODEL 6
REMARK VINA RESULT:    -2.911      2.265      2.437
REMARK INTER + INTRA:          -3.839
REMARK INTER:                  -3.718
REMARK INTRA:                  -0.120
REMARK UNBOUND:                -0.247
REMARK SMILES CCCCCC(=O)[O-]
REMARK SMILES IDX 4 1 5 2 6 3 7 4 8 5 3 6 2 7 1 8
REMARK H PARENT
REMARK Flexibility Score: inf
ROOT
ATOM      1  C   UNL     1      19.206 130.575  64.083  1.00  0.00     0.006 C 
ENDROOT
BRANCH   1   2
ATOM      2  C   UNL     1      18.823 131.964  64.616  1.00  0.00     0.053 C 
BRANCH   2   3
ATOM      3  C   UNL     1      18.036 131.880  65.887  1.00  0.00     0.041 C 
ATOM      4  O   UNL     1      16.833 132.254  65.914  1.00  0.00    -0.550 OA
ATOM      5  O   UNL     1      18.638 131.418  67.051  1.00  0.00    -0.550 OA
ENDBRANCH   2   3
ENDBRANCH   1   2
BRANCH   1   6
ATOM      6  C   UNL     1      18.095 129.517  64.217  1.00  0.00     0.000 C 
BRANCH   6   7
ATOM      7  C   UNL     1      18.628 128.080  64.126  1.00  0.00    -0.003 C 
ATOM      8  C   UNL     1      20.094 128.064  63.700  1.00  0.00     0.004 C 
ENDBRANCH   6   7
ENDBRANCH   1   6
TORSDOF 4
ENDMDL
MODEL 7
REMARK VINA RESULT:    -2.767      2.923      3.532
REMARK INTER + INTRA:          -3.661
REMARK INTER:                  -3.397
REMARK INTRA:                  -0.264
REMARK UNBOUND:                -0.247
REMARK SMILES CCCCCC(=O)[O-]
REMARK SMILES IDX 4 1 5 2 6 3 7 4 8 5 3 6 2 7 1 8
REMARK H PARENT
REMARK Flexibility Score: inf
ROOT
ATOM      1  C   UNL     1      18.888 131.820  65.425  1.00  0.00     0.006 C 
ENDROOT
BRANCH   1   2
ATOM      2  C   UNL     1      18.274 131.397  66.770  1.00  0.00     0.053 C 
BRANCH   2   3
ATOM      3  C   UNL     1      16.780 131.331  66.708  1.00  0.00     0.041 C 
ATOM      4  O   UNL     1      16.183 130.243  66.927  1.00  0.00    -0.550 OA
ATOM      5  O   UNL     1      16.045 132.463  66.377  1.00  0.00    -0.550 OA
ENDBRANCH   2   3
ENDBRANCH   1   2
BRANCH   1   6
ATOM      6  C   UNL     1      18.485 130.927  64.236  1.00  0.00     0.000 C 
BRANCH   6   7
ATOM      7  C   UNL     1      18.951 129.474  64.401  1.00  0.00    -0.003 C 
ATOM      8  C   UNL     1      17.805 128.498  64.146  1.00  0.00     0.004 C 
ENDBRANCH   6   7
ENDBRANCH   1   6
TORSDOF 4
ENDMDL
MODEL 8
REMARK VINA RESULT:    -2.764      1.917      2.867
REMARK INTER + INTRA:          -3.657
REMARK INTER:                  -3.564
REMARK INTRA:                  -0.093
REMARK UNBOUND:                -0.247
REMARK SMILES CCCCCC(=O)[O-]
REMARK SMILES IDX 4 1 5 2 6 3 7 4 8 5 3 6 2 7 1 8
REMARK H PARENT
REMARK Flexibility Score: inf
ROOT
ATOM      1  C   UNL     1      18.874 132.220  65.117  1.00  0.00     0.006 C 
ENDROOT
BRANCH   1   2
ATOM      2  C   UNL     1      19.244 131.259  63.976  1.00  0.00     0.053 C 
BRANCH   2   3
ATOM      3  C   UNL     1      20.001 131.949  62.884  1.00  0.00     0.041 C 
ATOM      4  O   UNL     1      19.457 132.872  62.221  1.00  0.00    -0.550 OA
ATOM      5  O   UNL     1      21.296 131.552  62.575  1.00  0.00    -0.550 OA
ENDBRANCH   2   3
ENDBRANCH   1   2
BRANCH   1   6
ATOM      6  C   UNL     1      18.658 131.534  66.479  1.00  0.00     0.000 C 
BRANCH   6   7
ATOM      7  C   UNL     1      17.177 131.274  66.785  1.00  0.00    -0.003 C 
ATOM      8  C   UNL     1      16.280 132.251  66.029  1.00  0.00     0.004 C 
ENDBRANCH   6   7
ENDBRANCH   1   6
TORSDOF 4
ENDMDL
MODEL 9
REMARK VINA RESULT:    -2.584      7.652      8.715
REMARK INTER + INTRA:          -3.435
REMARK INTER:                  -3.308
REMARK INTRA:                  -0.127
REMARK UNBOUND:                -0.247
REMARK SMILES CCCCCC(=O)[O-]
REMARK SMILES IDX 4 1 5 2 6 3 7 4 8 5 3 6 2 7 1 8
REMARK H PARENT
REMARK Flexibility Score: inf
ROOT
ATOM      1  C   UNL     1      16.297 130.906  56.837  1.00  0.00     0.006 C 
ENDROOT
BRANCH   1   2
ATOM      2  C   UNL     1      16.998 130.853  55.470  1.00  0.00     0.053 C 
BRANCH   2   3
ATOM      3  C   UNL     1      16.142 131.415  54.378  1.00  0.00     0.041 C 
ATOM      4  O   UNL     1      16.627 131.622  53.235  1.00  0.00    -0.550 OA
ATOM      5  O   UNL     1      14.815 131.743  54.631  1.00  0.00    -0.550 OA
ENDBRANCH   2   3
ENDBRANCH   1   2
BRANCH   1   6
ATOM      6  C   UNL     1      17.071 131.688  57.916  1.00  0.00     0.000 C 
BRANCH   6   7
ATOM      7  C   UNL     1      18.338 132.359  57.367  1.00  0.00    -0.003 C 
ATOM      8  C   UNL     1      19.095 133.090  58.474  1.00  0.00     0.004 C 
ENDBRANCH   6   7
ENDBRANCH   1   6
TORSDOF 4
ENDMDL
