MODEL 1
REMARK VINA RESULT:    -6.342      0.000      0.000
REMARK INTER + INTRA:         -10.813
REMARK INTER:                  -9.678
REMARK INTRA:                  -1.135
REMARK UNBOUND:                -1.135
REMARK SMILES CC(=O)CCC=C(C)CCC=C(C)CCC=C(C)C
REMARK SMILES IDX 10 1 11 2 12 3 13 4 14 5 15 6 16 7 18 8 17 9 19 10 9 11 7 12
REMARK SMILES IDX 6 13 8 14 5 15 4 16 2 17 3 18 1 19
REMARK H PARENT
REMARK Flexibility Score: inf
ROOT
ATOM      1  C   UNL     1     -25.861  16.793 -31.105  1.00  0.00     0.032 C 
ENDROOT
BRANCH   1   2
ATOM      2  C   UNL     1     -25.814  15.418 -30.487  1.00  0.00    -0.028 C 
ATOM      3  C   UNL     1     -24.792  14.546 -30.640  1.00  0.00    -0.077 C 
ATOM      4  C   UNL     1     -23.609  14.850 -31.528  1.00  0.00     0.039 C 
BRANCH   3   5
ATOM      5  C   UNL     1     -24.865  13.192 -29.965  1.00  0.00     0.034 C 
BRANCH   5   6
ATOM      6  C   UNL     1     -25.965  12.311 -30.572  1.00  0.00     0.032 C 
BRANCH   6   7
ATOM      7  C   UNL     1     -27.030  11.959 -29.562  1.00  0.00    -0.028 C 
ATOM      8  C   UNL     1     -29.275  11.900 -28.566  1.00  0.00     0.039 C 
ATOM      9  C   UNL     1     -28.314  12.378 -29.623  1.00  0.00    -0.080 C 
ATOM     10  C   UNL     1     -28.800  13.318 -30.702  1.00  0.00     0.039 C 
ENDBRANCH   6   7
ENDBRANCH   5   6
ENDBRANCH   3   5
ENDBRANCH   1   2
BRANCH   1  11
ATOM     11  C   UNL     1     -27.114  16.959 -31.973  1.00  0.00     0.034 C 
BRANCH  11  12
ATOM     12  C   UNL     1     -26.973  18.149 -32.895  1.00  0.00    -0.077 C 
ATOM     13  C   UNL     1     -25.738  18.650 -33.132  1.00  0.00    -0.028 C 
ATOM     14  C   UNL     1     -28.211  18.759 -33.508  1.00  0.00     0.039 C 
BRANCH  13  15
ATOM     15  C   UNL     1     -25.449  19.799 -34.067  1.00  0.00     0.035 C 
BRANCH  15  16
ATOM     16  C   UNL     1     -23.943  19.927 -34.314  1.00  0.00     0.079 C 
BRANCH  16  17
ATOM     17  C   UNL     1     -23.228  20.321 -33.049  1.00  0.00     0.130 C 
ATOM     18  O   UNL     1     -23.137  21.504 -32.753  1.00  0.00    -0.300 OA
ATOM     19  C   UNL     1     -22.630  19.293 -32.136  1.00  0.00     0.087 C 
ENDBRANCH  16  17
ENDBRANCH  15  16
ENDBRANCH  13  15
ENDBRANCH  11  12
ENDBRANCH   1  11
TORSDOF 9
ENDMDL
MODEL 2
REMARK VINA RESULT:    -6.053      2.828      7.958
REMARK INTER + INTRA:         -10.372
REMARK INTER:                  -9.452
REMARK INTRA:                  -0.921
REMARK UNBOUND:                -1.135
REMARK SMILES CC(=O)CCC=C(C)CCC=C(C)CCC=C(C)C
REMARK SMILES IDX 10 1 11 2 12 3 13 4 14 5 15 6 16 7 18 8 17 9 19 10 9 11 7 12
REMARK SMILES IDX 6 13 8 14 5 15 4 16 2 17 3 18 1 19
REMARK H PARENT
REMARK Flexibility Score: inf
ROOT
ATOM      1  C   UNL     1     -26.717  16.413 -31.479  1.00  0.00     0.032 C 
ENDROOT
BRANCH   1   2
ATOM      2  C   UNL     1     -26.774  17.742 -32.188  1.00  0.00    -0.028 C 
ATOM      3  C   UNL     1     -27.721  18.088 -33.090  1.00  0.00    -0.077 C 
ATOM      4  C   UNL     1     -28.792  17.120 -33.534  1.00  0.00     0.039 C 
BRANCH   3   5
ATOM      5  C   UNL     1     -27.669  19.459 -33.732  1.00  0.00     0.034 C 
BRANCH   5   6
ATOM      6  C   UNL     1     -26.365  19.672 -34.513  1.00  0.00     0.032 C 
BRANCH   6   7
ATOM      7  C   UNL     1     -25.301  20.331 -33.669  1.00  0.00    -0.028 C 
ATOM      8  C   UNL     1     -23.036  20.812 -32.849  1.00  0.00     0.039 C 
ATOM      9  C   UNL     1     -23.984  20.028 -33.718  1.00  0.00    -0.080 C 
ATOM     10  C   UNL     1     -23.449  18.924 -34.599  1.00  0.00     0.039 C 
ENDBRANCH   6   7
ENDBRANCH   5   6
ENDBRANCH   3   5
ENDBRANCH   1   2
BRANCH   1  11
ATOM     11  C   UNL     1     -25.333  16.182 -30.863  1.00  0.00     0.034 C 
BRANCH  11  12
ATOM     12  C   UNL     1     -25.118  14.716 -30.560  1.00  0.00    -0.077 C 
ATOM     13  C   UNL     1     -26.120  14.015 -29.981  1.00  0.00    -0.028 C 
ATOM     14  C   UNL     1     -23.788  14.081 -30.889  1.00  0.00     0.039 C 
BRANCH  13  15
ATOM     15  C   UNL     1     -26.060  12.540 -29.670  1.00  0.00     0.035 C 
BRANCH  15  16
ATOM     16  C   UNL     1     -27.277  11.815 -30.253  1.00  0.00     0.079 C 
BRANCH  16  17
ATOM     17  C   UNL     1     -28.549  12.329 -29.632  1.00  0.00     0.130 C 
ATOM     18  O   UNL     1     -28.670  12.322 -28.415  1.00  0.00    -0.300 OA
ATOM     19  C   UNL     1     -29.672  12.857 -30.473  1.00  0.00     0.087 C 
ENDBRANCH  16  17
ENDBRANCH  15  16
ENDBRANCH  13  15
ENDBRANCH  11  12
ENDBRANCH   1  11
TORSDOF 9
ENDMDL
MODEL 3
REMARK VINA RESULT:    -6.033      3.112      7.629
REMARK INTER + INTRA:         -10.341
REMARK INTER:                  -9.018
REMARK INTRA:                  -1.323
REMARK UNBOUND:                -1.135
REMARK SMILES CC(=O)CCC=C(C)CCC=C(C)CCC=C(C)C
REMARK SMILES IDX 10 1 11 2 12 3 13 4 14 5 15 6 16 7 18 8 17 9 19 10 9 11 7 12
REMARK SMILES IDX 6 13 8 14 5 15 4 16 2 17 3 18 1 19
REMARK H PARENT
REMARK Flexibility Score: inf
ROOT
ATOM      1  C   UNL     1     -24.094  17.336 -31.296  1.00  0.00     0.032 C 
ENDROOT
BRANCH   1   2
ATOM      2  C   UNL     1     -24.111  17.966 -32.666  1.00  0.00    -0.028 C 
ATOM      3  C   UNL     1     -23.410  19.072 -33.007  1.00  0.00    -0.077 C 
ATOM      4  C   UNL     1     -22.586  19.838 -31.999  1.00  0.00     0.039 C 
BRANCH   3   5
ATOM      5  C   UNL     1     -23.511  19.607 -34.420  1.00  0.00     0.034 C 
BRANCH   5   6
ATOM      6  C   UNL     1     -24.922  19.432 -34.996  1.00  0.00     0.032 C 
BRANCH   6   7
ATOM      7  C   UNL     1     -25.875  20.486 -34.487  1.00  0.00    -0.028 C 
ATOM      8  C   UNL     1     -27.824  21.392 -33.296  1.00  0.00     0.039 C 
ATOM      9  C   UNL     1     -26.999  20.228 -33.780  1.00  0.00    -0.080 C 
ATOM     10  C   UNL     1     -27.453  18.818 -33.485  1.00  0.00     0.039 C 
ENDBRANCH   6   7
ENDBRANCH   5   6
ENDBRANCH   3   5
ENDBRANCH   1   2
BRANCH   1  11
ATOM     11  C   UNL     1     -25.511  16.951 -30.856  1.00  0.00     0.034 C 
BRANCH  11  12
ATOM     12  C   UNL     1     -25.690  15.449 -30.879  1.00  0.00    -0.077 C 
ATOM     13  C   UNL     1     -26.943  14.940 -30.908  1.00  0.00    -0.028 C 
ATOM     14  C   UNL     1     -24.469  14.560 -30.846  1.00  0.00     0.039 C 
BRANCH  13  15
ATOM     15  C   UNL     1     -27.264  13.468 -30.982  1.00  0.00     0.035 C 
BRANCH  15  16
ATOM     16  C   UNL     1     -28.726  13.215 -30.602  1.00  0.00     0.079 C 
BRANCH  16  17
ATOM     17  C   UNL     1     -28.817  12.236 -29.461  1.00  0.00     0.130 C 
ATOM     18  O   UNL     1     -29.774  11.478 -29.393  1.00  0.00    -0.300 OA
ATOM     19  C   UNL     1     -27.752  12.162 -28.407  1.00  0.00     0.087 C 
ENDBRANCH  16  17
ENDBRANCH  15  16
ENDBRANCH  13  15
ENDBRANCH  11  12
ENDBRANCH   1  11
TORSDOF 9
ENDMDL
MODEL 4
REMARK VINA RESULT:    -5.919      1.769      2.721
REMARK INTER + INTRA:         -10.167
REMARK INTER:                  -8.986
REMARK INTRA:                  -1.181
REMARK UNBOUND:                -1.135
REMARK SMILES CC(=O)CCC=C(C)CCC=C(C)CCC=C(C)C
REMARK SMILES IDX 10 1 11 2 12 3 13 4 14 5 15 6 16 7 18 8 17 9 19 10 9 11 7 12
REMARK SMILES IDX 6 13 8 14 5 15 4 16 2 17 3 18 1 19
REMARK H PARENT
REMARK Flexibility Score: inf
ROOT
ATOM      1  C   UNL     1     -24.779  15.759 -30.936  1.00  0.00     0.032 C 
ENDROOT
BRANCH   1   2
ATOM      2  C   UNL     1     -25.119  14.355 -30.506  1.00  0.00    -0.028 C 
ATOM      3  C   UNL     1     -24.213  13.361 -30.354  1.00  0.00    -0.077 C 
ATOM      4  C   UNL     1     -22.752  13.556 -30.684  1.00  0.00     0.039 C 
BRANCH   3   5
ATOM      5  C   UNL     1     -24.683  11.991 -29.913  1.00  0.00     0.034 C 
BRANCH   5   6
ATOM      6  C   UNL     1     -25.963  11.565 -30.645  1.00  0.00     0.032 C 
BRANCH   6   7
ATOM      7  C   UNL     1     -27.131  11.414 -29.699  1.00  0.00    -0.028 C 
ATOM      8  C   UNL     1     -29.357  11.861 -28.761  1.00  0.00     0.039 C 
ATOM      9  C   UNL     1     -28.254  12.166 -29.741  1.00  0.00    -0.080 C 
ATOM     10  C   UNL     1     -28.422  13.302 -30.721  1.00  0.00     0.039 C 
ENDBRANCH   6   7
ENDBRANCH   5   6
ENDBRANCH   3   5
ENDBRANCH   1   2
BRANCH   1  11
ATOM     11  C   UNL     1     -25.972  16.698 -30.725  1.00  0.00     0.034 C 
BRANCH  11  12
ATOM     12  C   UNL     1     -26.279  17.468 -31.990  1.00  0.00    -0.077 C 
ATOM     13  C   UNL     1     -27.537  17.433 -32.488  1.00  0.00    -0.028 C 
ATOM     14  C   UNL     1     -25.172  18.233 -32.676  1.00  0.00     0.039 C 
BRANCH  13  15
ATOM     15  C   UNL     1     -27.991  18.192 -33.710  1.00  0.00     0.035 C 
BRANCH  15  16
ATOM     16  C   UNL     1     -28.600  19.540 -33.313  1.00  0.00     0.079 C 
BRANCH  16  17
ATOM     17  C   UNL     1     -27.786  20.676 -33.874  1.00  0.00     0.130 C 
ATOM     18  O   UNL     1     -27.275  20.563 -34.978  1.00  0.00    -0.300 OA
ATOM     19  C   UNL     1     -27.595  21.953 -33.110  1.00  0.00     0.087 C 
ENDBRANCH  16  17
ENDBRANCH  15  16
ENDBRANCH  13  15
ENDBRANCH  11  12
ENDBRANCH   1  11
TORSDOF 9
ENDMDL
MODEL 5
REMARK VINA RESULT:    -5.834      2.044      3.011
REMARK INTER + INTRA:         -10.038
REMARK INTER:                  -9.030
REMARK INTRA:                  -1.009
REMARK UNBOUND:                -1.135
REMARK SMILES CC(=O)CCC=C(C)CCC=C(C)CCC=C(C)C
REMARK SMILES IDX 10 1 11 2 12 3 13 4 14 5 15 6 16 7 18 8 17 9 19 10 9 11 7 12
REMARK SMILES IDX 6 13 8 14 5 15 4 16 2 17 3 18 1 19
REMARK H PARENT
REMARK Flexibility Score: inf
ROOT
ATOM      1  C   UNL     1     -28.701  16.058 -33.378  1.00  0.00     0.032 C 
ENDROOT
BRANCH   1   2
ATOM      2  C   UNL     1     -29.578  15.370 -32.363  1.00  0.00    -0.028 C 
ATOM      3  C   UNL     1     -29.130  14.494 -31.434  1.00  0.00    -0.077 C 
ATOM      4  C   UNL     1     -27.685  14.058 -31.380  1.00  0.00     0.039 C 
BRANCH   3   5
ATOM      5  C   UNL     1     -30.114  13.872 -30.466  1.00  0.00     0.034 C 
BRANCH   5   6
ATOM      6  C   UNL     1     -29.908  12.356 -30.340  1.00  0.00     0.032 C 
BRANCH   6   7
ATOM      7  C   UNL     1     -29.063  11.999 -29.141  1.00  0.00    -0.028 C 
ATOM      8  C   UNL     1     -27.322  10.824 -27.867  1.00  0.00     0.039 C 
ATOM      9  C   UNL     1     -28.121  11.029 -29.127  1.00  0.00    -0.080 C 
ATOM     10  C   UNL     1     -27.865  10.144 -30.324  1.00  0.00     0.039 C 
ENDBRANCH   6   7
ENDBRANCH   5   6
ENDBRANCH   3   5
ENDBRANCH   1   2
BRANCH   1  11
ATOM     11  C   UNL     1     -28.955  17.570 -33.384  1.00  0.00     0.034 C 
BRANCH  11  12
ATOM     12  C   UNL     1     -27.656  18.332 -33.254  1.00  0.00    -0.077 C 
ATOM     13  C   UNL     1     -27.499  19.482 -33.951  1.00  0.00    -0.028 C 
ATOM     14  C   UNL     1     -26.562  17.782 -32.370  1.00  0.00     0.039 C 
BRANCH  13  15
ATOM     15  C   UNL     1     -26.279  20.365 -33.876  1.00  0.00     0.035 C 
BRANCH  15  16
ATOM     16  C   UNL     1     -25.274  19.990 -34.970  1.00  0.00     0.079 C 
BRANCH  16  17
ATOM     17  C   UNL     1     -23.945  19.619 -34.367  1.00  0.00     0.130 C 
ATOM     18  O   UNL     1     -23.346  18.640 -34.787  1.00  0.00    -0.300 OA
ATOM     19  C   UNL     1     -23.332  20.432 -33.265  1.00  0.00     0.087 C 
ENDBRANCH  16  17
ENDBRANCH  15  16
ENDBRANCH  13  15
ENDBRANCH  11  12
ENDBRANCH   1  11
TORSDOF 9
ENDMDL
MODEL 6
REMARK VINA RESULT:    -5.720      1.492      3.505
REMARK INTER + INTRA:          -9.865
REMARK INTER:                  -8.647
REMARK INTRA:                  -1.218
REMARK UNBOUND:                -1.135
REMARK SMILES CC(=O)CCC=C(C)CCC=C(C)CCC=C(C)C
REMARK SMILES IDX 10 1 11 2 12 3 13 4 14 5 15 6 16 7 18 8 17 9 19 10 9 11 7 12
REMARK SMILES IDX 6 13 8 14 5 15 4 16 2 17 3 18 1 19
REMARK H PARENT
REMARK Flexibility Score: inf
ROOT
ATOM      1  C   UNL     1     -29.450  15.698 -32.117  1.00  0.00     0.032 C 
ENDROOT
BRANCH   1   2
ATOM      2  C   UNL     1     -28.421  14.707 -31.633  1.00  0.00    -0.028 C 
ATOM      3  C   UNL     1     -28.711  13.577 -30.947  1.00  0.00    -0.077 C 
ATOM      4  C   UNL     1     -30.122  13.237 -30.530  1.00  0.00     0.039 C 
BRANCH   3   5
ATOM      5  C   UNL     1     -27.584  12.661 -30.518  1.00  0.00     0.034 C 
BRANCH   5   6
ATOM      6  C   UNL     1     -26.527  13.407 -29.693  1.00  0.00     0.032 C 
BRANCH   6   7
ATOM      7  C   UNL     1     -25.231  13.570 -30.450  1.00  0.00    -0.028 C 
ATOM      8  C   UNL     1     -23.367  14.761 -31.519  1.00  0.00     0.039 C 
ATOM      9  C   UNL     1     -24.696  14.759 -30.811  1.00  0.00    -0.080 C 
ATOM     10  C   UNL     1     -25.399  16.068 -30.541  1.00  0.00     0.039 C 
ENDBRANCH   6   7
ENDBRANCH   5   6
ENDBRANCH   3   5
ENDBRANCH   1   2
BRANCH   1  11
ATOM     11  C   UNL     1     -29.101  16.203 -33.522  1.00  0.00     0.034 C 
BRANCH  11  12
ATOM     12  C   UNL     1     -28.655  17.647 -33.476  1.00  0.00    -0.077 C 
ATOM     13  C   UNL     1     -27.362  17.924 -33.188  1.00  0.00    -0.028 C 
ATOM     14  C   UNL     1     -29.665  18.740 -33.730  1.00  0.00     0.039 C 
BRANCH  13  15
ATOM     15  C   UNL     1     -26.773  19.312 -33.158  1.00  0.00     0.035 C 
BRANCH  15  16
ATOM     16  C   UNL     1     -25.651  19.444 -34.192  1.00  0.00     0.079 C 
BRANCH  16  17
ATOM     17  C   UNL     1     -24.305  19.255 -33.543  1.00  0.00     0.130 C 
ATOM     18  O   UNL     1     -24.132  18.318 -32.778  1.00  0.00    -0.300 OA
ATOM     19  C   UNL     1     -23.165  20.189 -33.822  1.00  0.00     0.087 C 
ENDBRANCH  16  17
ENDBRANCH  15  16
ENDBRANCH  13  15
ENDBRANCH  11  12
ENDBRANCH   1  11
TORSDOF 9
ENDMDL
MODEL 7
REMARK VINA RESULT:    -5.667      3.273      7.590
REMARK INTER + INTRA:          -9.783
REMARK INTER:                  -8.401
REMARK INTRA:                  -1.382
REMARK UNBOUND:                -1.135
REMARK SMILES CC(=O)CCC=C(C)CCC=C(C)CCC=C(C)C
REMARK SMILES IDX 10 1 11 2 12 3 13 4 14 5 15 6 16 7 18 8 17 9 19 10 9 11 7 12
REMARK SMILES IDX 6 13 8 14 5 15 4 16 2 17 3 18 1 19
REMARK H PARENT
REMARK Flexibility Score: inf
ROOT
ATOM      1  C   UNL     1     -24.283  13.471 -30.688  1.00  0.00     0.032 C 
ENDROOT
BRANCH   1   2
ATOM      2  C   UNL     1     -25.252  14.614 -30.513  1.00  0.00    -0.028 C 
ATOM      3  C   UNL     1     -25.038  15.873 -30.959  1.00  0.00    -0.077 C 
ATOM      4  C   UNL     1     -23.743  16.274 -31.625  1.00  0.00     0.039 C 
BRANCH   3   5
ATOM      5  C   UNL     1     -26.093  16.933 -30.722  1.00  0.00     0.034 C 
BRANCH   5   6
ATOM      6  C   UNL     1     -27.075  17.033 -31.897  1.00  0.00     0.032 C 
BRANCH   6   7
ATOM      7  C   UNL     1     -26.737  18.179 -32.820  1.00  0.00    -0.028 C 
ATOM      8  C   UNL     1     -27.159  20.048 -34.357  1.00  0.00     0.039 C 
ATOM      9  C   UNL     1     -27.647  18.898 -33.516  1.00  0.00    -0.080 C 
ATOM     10  C   UNL     1     -29.120  18.568 -33.486  1.00  0.00     0.039 C 
ENDBRANCH   6   7
ENDBRANCH   5   6
ENDBRANCH   3   5
ENDBRANCH   1   2
BRANCH   1  11
ATOM     11  C   UNL     1     -24.423  12.458 -29.547  1.00  0.00     0.034 C 
BRANCH  11  12
ATOM     12  C   UNL     1     -25.773  11.778 -29.597  1.00  0.00    -0.077 C 
ATOM     13  C   UNL     1     -26.598  11.881 -28.529  1.00  0.00    -0.028 C 
ATOM     14  C   UNL     1     -26.155  10.984 -30.824  1.00  0.00     0.039 C 
BRANCH  13  15
ATOM     15  C   UNL     1     -27.987  11.296 -28.464  1.00  0.00     0.035 C 
BRANCH  15  16
ATOM     16  C   UNL     1     -29.042  12.394 -28.627  1.00  0.00     0.079 C 
BRANCH  16  17
ATOM     17  C   UNL     1     -29.479  12.502 -30.064  1.00  0.00     0.130 C 
ATOM     18  O   UNL     1     -30.125  11.594 -30.567  1.00  0.00    -0.300 OA
ATOM     19  C   UNL     1     -29.146  13.707 -30.894  1.00  0.00     0.087 C 
ENDBRANCH  16  17
ENDBRANCH  15  16
ENDBRANCH  13  15
ENDBRANCH  11  12
ENDBRANCH   1  11
TORSDOF 9
ENDMDL
MODEL 8
REMARK VINA RESULT:    -5.521      3.134      7.976
REMARK INTER + INTRA:          -9.560
REMARK INTER:                  -8.242
REMARK INTRA:                  -1.318
REMARK UNBOUND:                -1.135
REMARK SMILES CC(=O)CCC=C(C)CCC=C(C)CCC=C(C)C
REMARK SMILES IDX 10 1 11 2 12 3 13 4 14 5 15 6 16 7 18 8 17 9 19 10 9 11 7 12
REMARK SMILES IDX 6 13 8 14 5 15 4 16 2 17 3 18 1 19
REMARK H PARENT
REMARK Flexibility Score: inf
ROOT
ATOM      1  C   UNL     1     -27.863  13.966 -31.545  1.00  0.00     0.032 C 
ENDROOT
BRANCH   1   2
ATOM      2  C   UNL     1     -27.235  15.305 -31.252  1.00  0.00    -0.028 C 
ATOM      3  C   UNL     1     -25.967  15.475 -30.812  1.00  0.00    -0.077 C 
ATOM      4  C   UNL     1     -25.069  14.302 -30.496  1.00  0.00     0.039 C 
BRANCH   3   5
ATOM      5  C   UNL     1     -25.452  16.875 -30.556  1.00  0.00     0.034 C 
BRANCH   5   6
ATOM      6  C   UNL     1     -24.242  17.208 -31.440  1.00  0.00     0.032 C 
BRANCH   6   7
ATOM      7  C   UNL     1     -24.621  18.085 -32.609  1.00  0.00    -0.028 C 
ATOM      8  C   UNL     1     -24.369  19.878 -34.269  1.00  0.00     0.039 C 
ATOM      9  C   UNL     1     -23.885  19.128 -33.056  1.00  0.00    -0.080 C 
ATOM     10  C   UNL     1     -22.616  19.567 -32.365  1.00  0.00     0.039 C 
ENDBRANCH   6   7
ENDBRANCH   5   6
ENDBRANCH   3   5
ENDBRANCH   1   2
BRANCH   1  11
ATOM     11  C   UNL     1     -28.852  13.574 -30.441  1.00  0.00     0.034 C 
BRANCH  11  12
ATOM     12  C   UNL     1     -28.448  12.266 -29.799  1.00  0.00    -0.077 C 
ATOM     13  C   UNL     1     -27.618  11.435 -30.472  1.00  0.00    -0.028 C 
ATOM     14  C   UNL     1     -28.996  11.912 -28.436  1.00  0.00     0.039 C 
BRANCH  13  15
ATOM     15  C   UNL     1     -27.098  10.127 -29.931  1.00  0.00     0.035 C 
BRANCH  15  16
ATOM     16  C   UNL     1     -25.578  10.040 -30.102  1.00  0.00     0.079 C 
BRANCH  16  17
ATOM     17  C   UNL     1     -24.887  10.107 -28.766  1.00  0.00     0.130 C 
ATOM     18  O   UNL     1     -23.666  10.152 -28.721  1.00  0.00    -0.300 OA
ATOM     19  C   UNL     1     -25.665  10.129 -27.483  1.00  0.00     0.087 C 
ENDBRANCH  16  17
ENDBRANCH  15  16
ENDBRANCH  13  15
ENDBRANCH  11  12
ENDBRANCH   1  11
TORSDOF 9
ENDMDL
MODEL 9
REMARK VINA RESULT:    -5.475      2.957      7.134
REMARK INTER + INTRA:          -9.490
REMARK INTER:                  -8.508
REMARK INTRA:                  -0.983
REMARK UNBOUND:                -1.135
REMARK SMILES CC(=O)CCC=C(C)CCC=C(C)CCC=C(C)C
REMARK SMILES IDX 10 1 11 2 12 3 13 4 14 5 15 6 16 7 18 8 17 9 19 10 9 11 7 12
REMARK SMILES IDX 6 13 8 14 5 15 4 16 2 17 3 18 1 19
REMARK H PARENT
REMARK Flexibility Score: inf
ROOT
ATOM      1  C   UNL     1     -24.376  17.483 -31.690  1.00  0.00     0.032 C 
ENDROOT
BRANCH   1   2
ATOM      2  C   UNL     1     -25.179  18.224 -32.729  1.00  0.00    -0.028 C 
ATOM      3  C   UNL     1     -24.703  19.246 -33.477  1.00  0.00    -0.077 C 
ATOM      4  C   UNL     1     -23.311  19.799 -33.280  1.00  0.00     0.039 C 
BRANCH   3   5
ATOM      5  C   UNL     1     -25.612  19.909 -34.491  1.00  0.00     0.034 C 
BRANCH   5   6
ATOM      6  C   UNL     1     -27.000  20.203 -33.905  1.00  0.00     0.032 C 
BRANCH   6   7
ATOM      7  C   UNL     1     -27.934  19.025 -34.045  1.00  0.00    -0.028 C 
ATOM      8  C   UNL     1     -29.904  17.631 -33.589  1.00  0.00     0.039 C 
ATOM      9  C   UNL     1     -29.041  18.830 -33.294  1.00  0.00    -0.080 C 
ATOM     10  C   UNL     1     -29.420  19.763 -32.169  1.00  0.00     0.039 C 
ENDBRANCH   6   7
ENDBRANCH   5   6
ENDBRANCH   3   5
ENDBRANCH   1   2
BRANCH   1  11
ATOM     11  C   UNL     1     -25.270  17.031 -30.530  1.00  0.00     0.034 C 
BRANCH  11  12
ATOM     12  C   UNL     1     -25.957  15.724 -30.860  1.00  0.00    -0.077 C 
ATOM     13  C   UNL     1     -25.352  14.563 -30.520  1.00  0.00    -0.028 C 
ATOM     14  C   UNL     1     -27.285  15.750 -31.579  1.00  0.00     0.039 C 
BRANCH  13  15
ATOM     15  C   UNL     1     -25.945  13.194 -30.744  1.00  0.00     0.035 C 
BRANCH  15  16
ATOM     16  C   UNL     1     -25.817  12.337 -29.481  1.00  0.00     0.079 C 
BRANCH  16  17
ATOM     17  C   UNL     1     -27.174  12.053 -28.892  1.00  0.00     0.130 C 
ATOM     18  O   UNL     1     -27.257  11.400 -27.862  1.00  0.00    -0.300 OA
ATOM     19  C   UNL     1     -28.429  12.562 -29.536  1.00  0.00     0.087 C 
ENDBRANCH  16  17
ENDBRANCH  15  16
ENDBRANCH  13  15
ENDBRANCH  11  12
ENDBRANCH   1  11
TORSDOF 9
ENDMDL
