MODEL 1
REMARK VINA RESULT:    -3.899      0.000      0.000
REMARK INTER + INTRA:          -5.333
REMARK INTER:                  -4.925
REMARK INTRA:                  -0.408
REMARK UNBOUND:                -0.408
REMARK SMILES CC(C)=CCCC(C)=CCO
REMARK SMILES IDX 7 1 9 2 8 3 6 4 5 5 4 6 1 7 2 8 3 9 10 10 11 11
REMARK H PARENT 11 12
REMARK Flexibility Score: inf
ROOT
ATOM      1  C   UNL     1      34.026   0.720  27.147  1.00  0.00    -0.075 C 
ATOM      2  C   UNL     1      33.487   1.947  26.974  1.00  0.00    -0.000 C 
ATOM      3  C   UNL     1      34.498   0.254  28.503  1.00  0.00     0.039 C 
ENDROOT
BRANCH   1   4
ATOM      4  C   UNL     1      34.162  -0.203  25.957  1.00  0.00     0.034 C 
BRANCH   4   5
ATOM      5  C   UNL     1      32.799  -0.452  25.302  1.00  0.00     0.032 C 
BRANCH   5   6
ATOM      6  C   UNL     1      31.930  -1.313  26.185  1.00  0.00    -0.028 C 
ATOM      7  C   UNL     1      32.478  -3.418  24.943  1.00  0.00     0.039 C 
ATOM      8  C   UNL     1      31.753  -2.642  26.015  1.00  0.00    -0.080 C 
ATOM      9  C   UNL     1      30.839  -3.402  26.941  1.00  0.00     0.039 C 
ENDBRANCH   5   6
ENDBRANCH   4   5
ENDBRANCH   1   4
BRANCH   2  10
ATOM     10  C   UNL     1      33.309   2.937  28.096  1.00  0.00     0.183 C 
BRANCH  10  11
ATOM     11  O   UNL     1      32.248   3.809  27.813  1.00  0.00    -0.392 OA
ATOM     12  H   UNL     1      32.343   4.581  28.429  1.00  0.00     0.210 HD
ENDBRANCH  10  11
ENDBRANCH   2  10
TORSDOF 5
ENDMDL
MODEL 2
REMARK VINA RESULT:    -3.606     11.593     13.478
REMARK INTER + INTRA:          -4.962
REMARK INTER:                  -4.310
REMARK INTRA:                  -0.653
REMARK UNBOUND:                -0.408
REMARK SMILES CC(C)=CCCC(C)=CCO
REMARK SMILES IDX 7 1 9 2 8 3 6 4 5 5 4 6 1 7 2 8 3 9 10 10 11 11
REMARK H PARENT 11 12
REMARK Flexibility Score: inf
ROOT
ATOM      1  C   UNL     1      28.027   0.715  38.973  1.00  0.00    -0.075 C 
ATOM      2  C   UNL     1      27.780   0.099  37.796  1.00  0.00    -0.000 C 
ATOM      3  C   UNL     1      29.361   0.578  39.666  1.00  0.00     0.039 C 
ENDROOT
BRANCH   1   4
ATOM      4  C   UNL     1      26.943   1.556  39.610  1.00  0.00     0.034 C 
BRANCH   4   5
ATOM      5  C   UNL     1      27.417   3.001  39.802  1.00  0.00     0.032 C 
BRANCH   5   6
ATOM      6  C   UNL     1      27.196   3.807  38.546  1.00  0.00    -0.028 C 
ATOM      7  C   UNL     1      29.644   3.986  38.041  1.00  0.00     0.039 C 
ATOM      8  C   UNL     1      28.190   4.283  37.763  1.00  0.00    -0.080 C 
ATOM      9  C   UNL     1      27.857   5.103  36.543  1.00  0.00     0.039 C 
ENDBRANCH   5   6
ENDBRANCH   4   5
ENDBRANCH   1   4
BRANCH   2  10
ATOM     10  C   UNL     1      28.794  -0.759  37.083  1.00  0.00     0.183 C 
BRANCH  10  11
ATOM     11  O   UNL     1      28.346  -1.072  35.792  1.00  0.00    -0.392 OA
ATOM     12  H   UNL     1      28.158  -0.208  35.340  1.00  0.00     0.210 HD
ENDBRANCH  10  11
ENDBRANCH   2  10
TORSDOF 5
ENDMDL
MODEL 3
REMARK VINA RESULT:    -3.510     11.501     13.175
REMARK INTER + INTRA:          -4.841
REMARK INTER:                  -4.175
REMARK INTRA:                  -0.666
REMARK UNBOUND:                -0.408
REMARK SMILES CC(C)=CCCC(C)=CCO
REMARK SMILES IDX 7 1 9 2 8 3 6 4 5 5 4 6 1 7 2 8 3 9 10 10 11 11
REMARK H PARENT 11 12
REMARK Flexibility Score: inf
ROOT
ATOM      1  C   UNL     1      27.756   0.027  37.937  1.00  0.00    -0.075 C 
ATOM      2  C   UNL     1      28.377  -0.628  36.931  1.00  0.00    -0.000 C 
ATOM      3  C   UNL     1      26.877  -0.704  38.923  1.00  0.00     0.039 C 
ENDROOT
BRANCH   1   4
ATOM      4  C   UNL     1      27.944   1.521  38.074  1.00  0.00     0.034 C 
BRANCH   4   5
ATOM      5  C   UNL     1      28.689   1.859  39.370  1.00  0.00     0.032 C 
BRANCH   5   6
ATOM      6  C   UNL     1      30.179   1.893  39.136  1.00  0.00    -0.028 C 
ATOM      7  C   UNL     1      30.565  -0.314  40.256  1.00  0.00     0.039 C 
ATOM      8  C   UNL     1      31.038   0.937  39.557  1.00  0.00    -0.080 C 
ATOM      9  C   UNL     1      32.514   1.085  39.293  1.00  0.00     0.039 C 
ENDBRANCH   5   6
ENDBRANCH   4   5
ENDBRANCH   1   4
BRANCH   2  10
ATOM     10  C   UNL     1      28.253  -2.114  36.710  1.00  0.00     0.183 C 
BRANCH  10  11
ATOM     11  O   UNL     1      27.610  -2.374  35.492  1.00  0.00    -0.392 OA
ATOM     12  H   UNL     1      27.663  -1.537  34.960  1.00  0.00     0.210 HD
ENDBRANCH  10  11
ENDBRANCH   2  10
TORSDOF 5
ENDMDL
MODEL 4
REMARK VINA RESULT:    -3.510     12.005     13.913
REMARK INTER + INTRA:          -4.841
REMARK INTER:                  -4.359
REMARK INTRA:                  -0.482
REMARK UNBOUND:                -0.408
REMARK SMILES CC(C)=CCCC(C)=CCO
REMARK SMILES IDX 7 1 9 2 8 3 6 4 5 5 4 6 1 7 2 8 3 9 10 10 11 11
REMARK H PARENT 11 12
REMARK Flexibility Score: inf
ROOT
ATOM      1  C   UNL     1      27.433   0.478  38.724  1.00  0.00    -0.075 C 
ATOM      2  C   UNL     1      28.156   0.322  37.593  1.00  0.00    -0.000 C 
ATOM      3  C   UNL     1      27.006  -0.710  39.553  1.00  0.00     0.039 C 
ENDROOT
BRANCH   1   4
ATOM      4  C   UNL     1      27.041   1.870  39.165  1.00  0.00     0.034 C 
BRANCH   4   5
ATOM      5  C   UNL     1      27.846   2.930  38.404  1.00  0.00     0.032 C 
BRANCH   5   6
ATOM      6  C   UNL     1      28.409   3.958  39.353  1.00  0.00    -0.028 C 
ATOM      7  C   UNL     1      30.635   2.819  39.516  1.00  0.00     0.039 C 
ATOM      8  C   UNL     1      29.651   3.903  39.885  1.00  0.00    -0.080 C 
ATOM      9  C   UNL     1      30.103   4.971  40.848  1.00  0.00     0.039 C 
ENDBRANCH   5   6
ENDBRANCH   4   5
ENDBRANCH   1   4
BRANCH   2  10
ATOM     10  C   UNL     1      28.595  -1.023  37.071  1.00  0.00     0.183 C 
BRANCH  10  11
ATOM     11  O   UNL     1      28.365  -1.108  35.691  1.00  0.00    -0.392 OA
ATOM     12  H   UNL     1      28.656  -0.243  35.301  1.00  0.00     0.210 HD
ENDBRANCH  10  11
ENDBRANCH   2  10
TORSDOF 5
ENDMDL
MODEL 5
REMARK VINA RESULT:    -3.431     14.204     16.076
REMARK INTER + INTRA:          -4.741
REMARK INTER:                  -4.155
REMARK INTRA:                  -0.586
REMARK UNBOUND:                -0.408
REMARK SMILES CC(C)=CCCC(C)=CCO
REMARK SMILES IDX 7 1 9 2 8 3 6 4 5 5 4 6 1 7 2 8 3 9 10 10 11 11
REMARK H PARENT 11 12
REMARK Flexibility Score: inf
ROOT
ATOM      1  C   UNL     1      44.221  -8.331  35.647  1.00  0.00    -0.075 C 
ATOM      2  C   UNL     1      45.029  -7.568  34.878  1.00  0.00    -0.000 C 
ATOM      3  C   UNL     1      43.616  -9.610  35.120  1.00  0.00     0.039 C 
ENDROOT
BRANCH   1   4
ATOM      4  C   UNL     1      43.914  -7.892  37.061  1.00  0.00     0.034 C 
BRANCH   4   5
ATOM      5  C   UNL     1      42.464  -7.410  37.180  1.00  0.00     0.032 C 
BRANCH   5   6
ATOM      6  C   UNL     1      42.411  -5.908  37.320  1.00  0.00    -0.028 C 
ATOM      7  C   UNL     1      41.793  -5.548  34.919  1.00  0.00     0.039 C 
ATOM      8  C   UNL     1      42.141  -5.058  36.304  1.00  0.00    -0.080 C 
ATOM      9  C   UNL     1      42.140  -3.572  36.549  1.00  0.00     0.039 C 
ENDBRANCH   5   6
ENDBRANCH   4   5
ENDBRANCH   1   4
BRANCH   2  10
ATOM     10  C   UNL     1      45.394  -7.920  33.458  1.00  0.00     0.183 C 
BRANCH  10  11
ATOM     11  O   UNL     1      46.200  -6.918  32.900  1.00  0.00    -0.392 OA
ATOM     12  H   UNL     1      46.857  -7.377  32.314  1.00  0.00     0.210 HD
ENDBRANCH  10  11
ENDBRANCH   2  10
TORSDOF 5
ENDMDL
MODEL 6
REMARK VINA RESULT:    -3.426     13.838     15.453
REMARK INTER + INTRA:          -4.736
REMARK INTER:                  -4.269
REMARK INTRA:                  -0.467
REMARK UNBOUND:                -0.408
REMARK SMILES CC(C)=CCCC(C)=CCO
REMARK SMILES IDX 7 1 9 2 8 3 6 4 5 5 4 6 1 7 2 8 3 9 10 10 11 11
REMARK H PARENT 11 12
REMARK Flexibility Score: inf
ROOT
ATOM      1  C   UNL     1      42.360  -5.837  35.869  1.00  0.00    -0.075 C 
ATOM      2  C   UNL     1      42.231  -4.938  36.869  1.00  0.00    -0.000 C 
ATOM      3  C   UNL     1      42.254  -5.422  34.421  1.00  0.00     0.039 C 
ENDROOT
BRANCH   1   4
ATOM      4  C   UNL     1      42.612  -7.290  36.208  1.00  0.00     0.034 C 
BRANCH   4   5
ATOM      5  C   UNL     1      44.112  -7.557  36.376  1.00  0.00     0.032 C 
BRANCH   5   6
ATOM      6  C   UNL     1      44.557  -8.687  35.481  1.00  0.00    -0.028 C 
ATOM      7  C   UNL     1      45.311  -7.151  33.652  1.00  0.00     0.039 C 
ATOM      8  C   UNL     1      45.069  -8.519  34.241  1.00  0.00    -0.080 C 
ATOM      9  C   UNL     1      45.457  -9.721  33.420  1.00  0.00     0.039 C 
ENDBRANCH   5   6
ENDBRANCH   4   5
ENDBRANCH   1   4
BRANCH   2  10
ATOM     10  C   UNL     1      41.980  -3.470  36.634  1.00  0.00     0.183 C 
BRANCH  10  11
ATOM     11  O   UNL     1      42.221  -2.741  37.806  1.00  0.00    -0.392 OA
ATOM     12  H   UNL     1      43.168  -2.907  38.054  1.00  0.00     0.210 HD
ENDBRANCH  10  11
ENDBRANCH   2  10
TORSDOF 5
ENDMDL
MODEL 7
REMARK VINA RESULT:    -3.419     11.489     13.498
REMARK INTER + INTRA:          -4.726
REMARK INTER:                  -4.384
REMARK INTRA:                  -0.342
REMARK UNBOUND:                -0.408
REMARK SMILES CC(C)=CCCC(C)=CCO
REMARK SMILES IDX 7 1 9 2 8 3 6 4 5 5 4 6 1 7 2 8 3 9 10 10 11 11
REMARK H PARENT 11 12
REMARK Flexibility Score: inf
ROOT
ATOM      1  C   UNL     1      28.243   0.996  38.720  1.00  0.00    -0.075 C 
ATOM      2  C   UNL     1      27.872   0.134  37.748  1.00  0.00    -0.000 C 
ATOM      3  C   UNL     1      29.639   0.977  39.294  1.00  0.00     0.039 C 
ENDROOT
BRANCH   1   4
ATOM      4  C   UNL     1      27.238   1.996  39.246  1.00  0.00     0.034 C 
BRANCH   4   5
ATOM      5  C   UNL     1      27.793   3.422  39.160  1.00  0.00     0.032 C 
BRANCH   5   6
ATOM      6  C   UNL     1      27.785   3.914  37.734  1.00  0.00    -0.028 C 
ATOM      7  C   UNL     1      26.875   6.166  38.349  1.00  0.00     0.039 C 
ATOM      8  C   UNL     1      27.345   5.135  37.353  1.00  0.00    -0.080 C 
ATOM      9  C   UNL     1      27.356   5.514  35.894  1.00  0.00     0.039 C 
ENDBRANCH   5   6
ENDBRANCH   4   5
ENDBRANCH   1   4
BRANCH   2  10
ATOM     10  C   UNL     1      28.799  -0.898  37.159  1.00  0.00     0.183 C 
BRANCH  10  11
ATOM     11  O   UNL     1      28.378  -1.253  35.870  1.00  0.00    -0.392 OA
ATOM     12  H   UNL     1      28.555  -2.225  35.771  1.00  0.00     0.210 HD
ENDBRANCH  10  11
ENDBRANCH   2  10
TORSDOF 5
ENDMDL
MODEL 8
REMARK VINA RESULT:    -3.410     12.091     13.758
REMARK INTER + INTRA:          -4.715
REMARK INTER:                  -4.066
REMARK INTRA:                  -0.649
REMARK UNBOUND:                -0.408
REMARK SMILES CC(C)=CCCC(C)=CCO
REMARK SMILES IDX 7 1 9 2 8 3 6 4 5 5 4 6 1 7 2 8 3 9 10 10 11 11
REMARK H PARENT 11 12
REMARK Flexibility Score: inf
ROOT
ATOM      1  C   UNL     1      27.749  -1.030  39.135  1.00  0.00    -0.075 C 
ATOM      2  C   UNL     1      27.198  -1.325  37.937  1.00  0.00    -0.000 C 
ATOM      3  C   UNL     1      29.188  -1.370  39.441  1.00  0.00     0.039 C 
ENDROOT
BRANCH   1   4
ATOM      4  C   UNL     1      26.907  -0.347  40.189  1.00  0.00     0.034 C 
BRANCH   4   5
ATOM      5  C   UNL     1      27.510   1.008  40.574  1.00  0.00     0.032 C 
BRANCH   5   6
ATOM      6  C   UNL     1      27.308   2.016  39.470  1.00  0.00    -0.028 C 
ATOM      7  C   UNL     1      29.762   2.265  39.033  1.00  0.00     0.039 C 
ATOM      8  C   UNL     1      28.313   2.612  38.790  1.00  0.00    -0.080 C 
ATOM      9  C   UNL     1      27.998   3.628  37.722  1.00  0.00     0.039 C 
ENDBRANCH   5   6
ENDBRANCH   4   5
ENDBRANCH   1   4
BRANCH   2  10
ATOM     10  C   UNL     1      27.954  -2.003  36.823  1.00  0.00     0.183 C 
BRANCH  10  11
ATOM     11  O   UNL     1      28.374  -1.060  35.875  1.00  0.00    -0.392 OA
ATOM     12  H   UNL     1      28.657  -0.254  36.383  1.00  0.00     0.210 HD
ENDBRANCH  10  11
ENDBRANCH   2  10
TORSDOF 5
ENDMDL
MODEL 9
REMARK VINA RESULT:    -3.345     11.019     12.393
REMARK INTER + INTRA:          -4.633
REMARK INTER:                  -4.139
REMARK INTRA:                  -0.494
REMARK UNBOUND:                -0.408
REMARK SMILES CC(C)=CCCC(C)=CCO
REMARK SMILES IDX 7 1 9 2 8 3 6 4 5 5 4 6 1 7 2 8 3 9 10 10 11 11
REMARK H PARENT 11 12
REMARK Flexibility Score: inf
ROOT
ATOM      1  C   UNL     1      28.133   3.973  37.992  1.00  0.00    -0.075 C 
ATOM      2  C   UNL     1      27.607   4.687  36.972  1.00  0.00    -0.000 C 
ATOM      3  C   UNL     1      29.624   3.920  38.225  1.00  0.00     0.039 C 
ENDROOT
BRANCH   1   4
ATOM      4  C   UNL     1      27.210   3.211  38.915  1.00  0.00     0.034 C 
BRANCH   4   5
ATOM      5  C   UNL     1      27.839   1.878  39.337  1.00  0.00     0.032 C 
BRANCH   5   6
ATOM      6  C   UNL     1      27.695   0.849  38.243  1.00  0.00    -0.028 C 
ATOM      7  C   UNL     1      30.011  -0.050  38.567  1.00  0.00     0.039 C 
ATOM      8  C   UNL     1      28.675  -0.003  37.866  1.00  0.00    -0.080 C 
ATOM      9  C   UNL     1      28.432  -0.974  36.739  1.00  0.00     0.039 C 
ENDBRANCH   5   6
ENDBRANCH   4   5
ENDBRANCH   1   4
BRANCH   2  10
ATOM     10  C   UNL     1      28.443   5.479  35.999  1.00  0.00     0.183 C 
BRANCH  10  11
ATOM     11  O   UNL     1      27.869   5.442  34.721  1.00  0.00    -0.392 OA
ATOM     12  H   UNL     1      28.244   4.644  34.265  1.00  0.00     0.210 HD
ENDBRANCH  10  11
ENDBRANCH   2  10
TORSDOF 5
ENDMDL
