MODEL 1
REMARK VINA RESULT:    -4.005      0.000      0.000
REMARK INTER + INTRA:          -6.679
REMARK INTER:                  -6.113
REMARK INTRA:                  -0.566
REMARK UNBOUND:                -0.566
REMARK SMILES O=C([O-])CCCCCCCCC(=O)[O-]
REMARK SMILES IDX 7 1 6 2 5 3 4 4 2 5 1 6 3 7 8 8 9 9 10 10 11 11 12 12 13 13
REMARK SMILES IDX 14 14
REMARK H PARENT
REMARK Flexibility Score: inf
ROOT
ATOM      1  C   UNL     1       9.954  80.696  44.874  1.00  0.00     0.000 C 
ENDROOT
BRANCH   1   2
ATOM      2  C   UNL     1       8.725  81.521  44.456  1.00  0.00     0.000 C 
BRANCH   2   3
ATOM      3  C   UNL     1       7.408  80.914  44.966  1.00  0.00     0.006 C 
BRANCH   3   4
ATOM      4  C   UNL     1       7.299  80.934  46.496  1.00  0.00     0.053 C 
BRANCH   4   5
ATOM      5  C   UNL     1       7.009  79.562  47.016  1.00  0.00     0.041 C 
ATOM      6  O   UNL     1       5.827  79.131  47.045  1.00  0.00    -0.550 OA
ATOM      7  O   UNL     1       8.051  78.738  47.423  1.00  0.00    -0.550 OA
ENDBRANCH   4   5
ENDBRANCH   3   4
ENDBRANCH   2   3
ENDBRANCH   1   2
BRANCH   1   8
ATOM      8  C   UNL     1      11.280  81.452  44.672  1.00  0.00     0.000 C 
BRANCH   8   9
ATOM      9  C   UNL     1      11.492  82.037  43.264  1.00  0.00     0.000 C 
BRANCH   9  10
ATOM     10  C   UNL     1      12.511  81.244  42.432  1.00  0.00     0.006 C 
BRANCH  10  11
ATOM     11  C   UNL     1      11.873  79.980  41.844  1.00  0.00     0.053 C 
BRANCH  11  12
ATOM     12  C   UNL     1      10.995  80.328  40.685  1.00  0.00     0.041 C 
ATOM     13  O   UNL     1      11.499  80.747  39.610  1.00  0.00    -0.550 OA
ATOM     14  O   UNL     1       9.614  80.237  40.807  1.00  0.00    -0.550 OA
ENDBRANCH  11  12
ENDBRANCH  10  11
ENDBRANCH   9  10
ENDBRANCH   8   9
ENDBRANCH   1   8
TORSDOF 9
ENDMDL
MODEL 2
REMARK VINA RESULT:    -3.923      4.902      8.048
REMARK INTER + INTRA:          -6.553
REMARK INTER:                  -5.726
REMARK INTRA:                  -0.827
REMARK UNBOUND:                -0.566
REMARK SMILES O=C([O-])CCCCCCCCC(=O)[O-]
REMARK SMILES IDX 7 1 6 2 5 3 4 4 2 5 1 6 3 7 8 8 9 9 10 10 11 11 12 12 13 13
REMARK SMILES IDX 14 14
REMARK H PARENT
REMARK Flexibility Score: inf
ROOT
ATOM      1  C   UNL     1       7.248  79.081  37.152  1.00  0.00     0.000 C 
ENDROOT
BRANCH   1   2
ATOM      2  C   UNL     1       8.479  78.629  36.348  1.00  0.00     0.000 C 
BRANCH   2   3
ATOM      3  C   UNL     1       9.738  78.503  37.221  1.00  0.00     0.006 C 
BRANCH   3   4
ATOM      4  C   UNL     1       9.494  78.917  38.677  1.00  0.00     0.053 C 
BRANCH   4   5
ATOM      5  C   UNL     1      10.015  80.298  38.921  1.00  0.00     0.041 C 
ATOM      6  O   UNL     1      11.252  80.527  38.872  1.00  0.00    -0.550 OA
ATOM      7  O   UNL     1       9.131  81.344  39.153  1.00  0.00    -0.550 OA
ENDBRANCH   4   5
ENDBRANCH   3   4
ENDBRANCH   2   3
ENDBRANCH   1   2
BRANCH   1   8
ATOM      8  C   UNL     1       6.130  78.022  37.183  1.00  0.00     0.000 C 
BRANCH   8   9
ATOM      9  C   UNL     1       6.401  76.812  38.095  1.00  0.00     0.000 C 
BRANCH   9  10
ATOM     10  C   UNL     1       6.332  77.160  39.589  1.00  0.00     0.006 C 
BRANCH  10  11
ATOM     11  C   UNL     1       5.147  78.086  39.883  1.00  0.00     0.053 C 
BRANCH  11  12
ATOM     12  C   UNL     1       5.549  79.166  40.836  1.00  0.00     0.041 C 
ATOM     13  O   UNL     1       6.643  79.771  40.684  1.00  0.00    -0.550 OA
ATOM     14  O   UNL     1       4.740  79.471  41.923  1.00  0.00    -0.550 OA
ENDBRANCH  11  12
ENDBRANCH  10  11
ENDBRANCH   9  10
ENDBRANCH   8   9
ENDBRANCH   1   8
TORSDOF 9
ENDMDL
MODEL 3
REMARK VINA RESULT:    -3.923      0.608      6.370
REMARK INTER + INTRA:          -6.553
REMARK INTER:                  -5.987
REMARK INTRA:                  -0.566
REMARK UNBOUND:                -0.566
REMARK SMILES O=C([O-])CCCCCCCCC(=O)[O-]
REMARK SMILES IDX 7 1 6 2 5 3 4 4 2 5 1 6 3 7 8 8 9 9 10 10 11 11 12 12 13 13
REMARK SMILES IDX 14 14
REMARK H PARENT
REMARK Flexibility Score: inf
ROOT
ATOM      1  C   UNL     1      11.288  81.311  44.927  1.00  0.00     0.000 C 
ENDROOT
BRANCH   1   2
ATOM      2  C   UNL     1      11.879  82.082  43.735  1.00  0.00     0.000 C 
BRANCH   2   3
ATOM      3  C   UNL     1      12.265  81.157  42.568  1.00  0.00     0.006 C 
BRANCH   3   4
ATOM      4  C   UNL     1      11.708  81.637  41.223  1.00  0.00     0.053 C 
BRANCH   4   5
ATOM      5  C   UNL     1      11.161  80.482  40.444  1.00  0.00     0.041 C 
ATOM      6  O   UNL     1      10.600  79.525  41.038  1.00  0.00    -0.550 OA
ATOM      7  O   UNL     1      11.224  80.487  39.056  1.00  0.00    -0.550 OA
ENDBRANCH   4   5
ENDBRANCH   3   4
ENDBRANCH   2   3
ENDBRANCH   1   2
BRANCH   1   8
ATOM      8  C   UNL     1       9.984  80.571  44.574  1.00  0.00     0.000 C 
BRANCH   8   9
ATOM      9  C   UNL     1       8.777  81.478  44.275  1.00  0.00     0.000 C 
BRANCH   9  10
ATOM     10  C   UNL     1       7.454  80.911  44.811  1.00  0.00     0.006 C 
BRANCH  10  11
ATOM     11  C   UNL     1       7.428  80.933  46.343  1.00  0.00     0.053 C 
BRANCH  11  12
ATOM     12  C   UNL     1       7.011  79.601  46.879  1.00  0.00     0.041 C 
ATOM     13  O   UNL     1       5.794  79.281  46.907  1.00  0.00    -0.550 OA
ATOM     14  O   UNL     1       7.963  78.730  47.395  1.00  0.00    -0.550 OA
ENDBRANCH  11  12
ENDBRANCH  10  11
ENDBRANCH   9  10
ENDBRANCH   8   9
ENDBRANCH   1   8
TORSDOF 9
ENDMDL
MODEL 4
REMARK VINA RESULT:    -3.914      3.971      5.692
REMARK INTER + INTRA:          -6.539
REMARK INTER:                  -5.849
REMARK INTRA:                  -0.690
REMARK UNBOUND:                -0.566
REMARK SMILES O=C([O-])CCCCCCCCC(=O)[O-]
REMARK SMILES IDX 7 1 6 2 5 3 4 4 2 5 1 6 3 7 8 8 9 9 10 10 11 11 12 12 13 13
REMARK SMILES IDX 14 14
REMARK H PARENT
REMARK Flexibility Score: inf
ROOT
ATOM      1  C   UNL     1       9.656  79.155  38.488  1.00  0.00     0.000 C 
ENDROOT
BRANCH   1   2
ATOM      2  C   UNL     1       8.376  79.357  37.660  1.00  0.00     0.000 C 
BRANCH   2   3
ATOM      3  C   UNL     1       7.248  80.016  38.471  1.00  0.00     0.006 C 
BRANCH   3   4
ATOM      4  C   UNL     1       7.073  79.390  39.860  1.00  0.00     0.053 C 
BRANCH   4   5
ATOM      5  C   UNL     1       6.231  78.156  39.774  1.00  0.00     0.041 C 
ATOM      6  O   UNL     1       4.983  78.248  39.632  1.00  0.00    -0.550 OA
ATOM      7  O   UNL     1       6.828  76.902  39.800  1.00  0.00    -0.550 OA
ENDBRANCH   4   5
ENDBRANCH   3   4
ENDBRANCH   2   3
ENDBRANCH   1   2
BRANCH   1   8
ATOM      8  C   UNL     1      10.601  80.370  38.435  1.00  0.00     0.000 C 
BRANCH   8   9
ATOM      9  C   UNL     1      11.386  80.645  39.730  1.00  0.00     0.000 C 
BRANCH   9  10
ATOM     10  C   UNL     1      10.702  80.071  40.980  1.00  0.00     0.006 C 
BRANCH  10  11
ATOM     11  C   UNL     1      11.737  79.671  42.037  1.00  0.00     0.053 C 
BRANCH  11  12
ATOM     12  C   UNL     1      11.964  80.793  42.999  1.00  0.00     0.041 C 
ATOM     13  O   UNL     1      12.876  81.636  42.787  1.00  0.00    -0.550 OA
ATOM     14  O   UNL     1      11.202  80.882  44.157  1.00  0.00    -0.550 OA
ENDBRANCH  11  12
ENDBRANCH  10  11
ENDBRANCH   9  10
ENDBRANCH   8   9
ENDBRANCH   1   8
TORSDOF 9
ENDMDL
MODEL 5
REMARK VINA RESULT:    -3.903      5.152      7.880
REMARK INTER + INTRA:          -6.522
REMARK INTER:                  -5.802
REMARK INTRA:                  -0.720
REMARK UNBOUND:                -0.566
REMARK SMILES O=C([O-])CCCCCCCCC(=O)[O-]
REMARK SMILES IDX 7 1 6 2 5 3 4 4 2 5 1 6 3 7 8 8 9 9 10 10 11 11 12 12 13 13
REMARK SMILES IDX 14 14
REMARK H PARENT
REMARK Flexibility Score: inf
ROOT
ATOM      1  C   UNL     1       8.230  78.047  36.575  1.00  0.00     0.000 C 
ENDROOT
BRANCH   1   2
ATOM      2  C   UNL     1       9.676  78.312  37.025  1.00  0.00     0.000 C 
BRANCH   2   3
ATOM      3  C   UNL     1       9.752  78.913  38.439  1.00  0.00     0.006 C 
BRANCH   3   4
ATOM      4  C   UNL     1      10.468  80.270  38.468  1.00  0.00     0.053 C 
BRANCH   4   5
ATOM      5  C   UNL     1      10.950  80.575  39.851  1.00  0.00     0.041 C 
ATOM      6  O   UNL     1      11.623  81.615  40.073  1.00  0.00    -0.550 OA
ATOM      7  O   UNL     1      10.612  79.737  40.906  1.00  0.00    -0.550 OA
ENDBRANCH   4   5
ENDBRANCH   3   4
ENDBRANCH   2   3
ENDBRANCH   1   2
BRANCH   1   8
ATOM      8  C   UNL     1       7.392  79.333  36.459  1.00  0.00     0.000 C 
BRANCH   8   9
ATOM      9  C   UNL     1       6.023  79.289  37.161  1.00  0.00     0.000 C 
BRANCH   9  10
ATOM     10  C   UNL     1       6.080  79.768  38.619  1.00  0.00     0.006 C 
BRANCH  10  11
ATOM     11  C   UNL     1       5.076  79.003  39.487  1.00  0.00     0.053 C 
BRANCH  11  12
ATOM     12  C   UNL     1       5.445  77.556  39.563  1.00  0.00     0.041 C 
ATOM     13  O   UNL     1       6.607  77.215  39.910  1.00  0.00    -0.550 OA
ATOM     14  O   UNL     1       4.522  76.583  39.202  1.00  0.00    -0.550 OA
ENDBRANCH  11  12
ENDBRANCH  10  11
ENDBRANCH   9  10
ENDBRANCH   8   9
ENDBRANCH   1   8
TORSDOF 9
ENDMDL
MODEL 6
REMARK VINA RESULT:    -3.829      4.584      6.359
REMARK INTER + INTRA:          -6.409
REMARK INTER:                  -5.567
REMARK INTRA:                  -0.842
REMARK UNBOUND:                -0.566
REMARK SMILES O=C([O-])CCCCCCCCC(=O)[O-]
REMARK SMILES IDX 7 1 6 2 5 3 4 4 2 5 1 6 3 7 8 8 9 9 10 10 11 11 12 12 13 13
REMARK SMILES IDX 14 14
REMARK H PARENT
REMARK Flexibility Score: inf
ROOT
ATOM      1  C   UNL     1       6.012  78.646  37.182  1.00  0.00     0.000 C 
ENDROOT
BRANCH   1   2
ATOM      2  C   UNL     1       6.145  77.334  37.973  1.00  0.00     0.000 C 
BRANCH   2   3
ATOM      3  C   UNL     1       5.793  77.503  39.460  1.00  0.00     0.006 C 
BRANCH   3   4
ATOM      4  C   UNL     1       5.058  78.818  39.748  1.00  0.00     0.053 C 
BRANCH   4   5
ATOM      5  C   UNL     1       5.586  79.447  40.999  1.00  0.00     0.041 C 
ATOM      6  O   UNL     1       4.912  79.410  42.061  1.00  0.00    -0.550 OA
ATOM      7  O   UNL     1       6.847  80.032  41.005  1.00  0.00    -0.550 OA
ENDBRANCH   4   5
ENDBRANCH   3   4
ENDBRANCH   2   3
ENDBRANCH   1   2
BRANCH   1   8
ATOM      8  C   UNL     1       7.368  79.198  36.704  1.00  0.00     0.000 C 
BRANCH   8   9
ATOM      9  C   UNL     1       8.504  78.162  36.624  1.00  0.00     0.000 C 
BRANCH   9  10
ATOM     10  C   UNL     1       9.741  78.565  37.440  1.00  0.00     0.006 C 
BRANCH  10  11
ATOM     11  C   UNL     1       9.412  78.639  38.935  1.00  0.00     0.053 C 
BRANCH  11  12
ATOM     12  C   UNL     1      10.160  79.761  39.582  1.00  0.00     0.041 C 
ATOM     13  O   UNL     1      10.459  80.789  38.919  1.00  0.00    -0.550 OA
ATOM     14  O   UNL     1      10.573  79.651  40.903  1.00  0.00    -0.550 OA
ENDBRANCH  11  12
ENDBRANCH  10  11
ENDBRANCH   9  10
ENDBRANCH   8   9
ENDBRANCH   1   8
TORSDOF 9
ENDMDL
MODEL 7
REMARK VINA RESULT:    -3.810      7.153      9.635
REMARK INTER + INTRA:          -6.380
REMARK INTER:                  -5.771
REMARK INTRA:                  -0.609
REMARK UNBOUND:                -0.566
REMARK SMILES O=C([O-])CCCCCCCCC(=O)[O-]
REMARK SMILES IDX 7 1 6 2 5 3 4 4 2 5 1 6 3 7 8 8 9 9 10 10 11 11 12 12 13 13
REMARK SMILES IDX 14 14
REMARK H PARENT
REMARK Flexibility Score: inf
ROOT
ATOM      1  C   UNL     1       6.428  76.855  38.891  1.00  0.00     0.000 C 
ENDROOT
BRANCH   1   2
ATOM      2  C   UNL     1       6.688  77.043  37.386  1.00  0.00     0.000 C 
BRANCH   2   3
ATOM      3  C   UNL     1       7.097  78.483  37.035  1.00  0.00     0.006 C 
BRANCH   3   4
ATOM      4  C   UNL     1       8.422  78.550  36.265  1.00  0.00     0.053 C 
BRANCH   4   5
ATOM      5  C   UNL     1       9.538  78.001  37.097  1.00  0.00     0.041 C 
ATOM      6  O   UNL     1       9.811  78.518  38.213  1.00  0.00    -0.550 OA
ATOM      7  O   UNL     1      10.245  76.886  36.665  1.00  0.00    -0.550 OA
ENDBRANCH   4   5
ENDBRANCH   3   4
ENDBRANCH   2   3
ENDBRANCH   1   2
BRANCH   1   8
ATOM      8  C   UNL     1       4.930  76.878  39.247  1.00  0.00     0.000 C 
BRANCH   8   9
ATOM      9  C   UNL     1       4.143  75.616  38.849  1.00  0.00     0.000 C 
BRANCH   9  10
ATOM     10  C   UNL     1       4.490  74.395  39.713  1.00  0.00     0.006 C 
BRANCH  10  11
ATOM     11  C   UNL     1       5.261  73.349  38.900  1.00  0.00     0.053 C 
BRANCH  11  12
ATOM     12  C   UNL     1       6.384  72.782  39.708  1.00  0.00     0.041 C 
ATOM     13  O   UNL     1       6.951  71.717  39.346  1.00  0.00    -0.550 OA
ATOM     14  O   UNL     1       6.774  73.401  40.889  1.00  0.00    -0.550 OA
ENDBRANCH  11  12
ENDBRANCH  10  11
ENDBRANCH   9  10
ENDBRANCH   8   9
ENDBRANCH   1   8
TORSDOF 9
ENDMDL
MODEL 8
REMARK VINA RESULT:    -3.794      6.961      8.062
REMARK INTER + INTRA:          -6.356
REMARK INTER:                  -5.880
REMARK INTRA:                  -0.476
REMARK UNBOUND:                -0.566
REMARK SMILES O=C([O-])CCCCCCCCC(=O)[O-]
REMARK SMILES IDX 7 1 6 2 5 3 4 4 2 5 1 6 3 7 8 8 9 9 10 10 11 11 12 12 13 13
REMARK SMILES IDX 14 14
REMARK H PARENT
REMARK Flexibility Score: inf
ROOT
ATOM      1  C   UNL     1       5.545  76.738  38.981  1.00  0.00     0.000 C 
ENDROOT
BRANCH   1   2
ATOM      2  C   UNL     1       4.226  75.947  38.984  1.00  0.00     0.000 C 
BRANCH   2   3
ATOM      3  C   UNL     1       4.391  74.529  39.554  1.00  0.00     0.006 C 
BRANCH   3   4
ATOM      4  C   UNL     1       5.844  74.203  39.922  1.00  0.00     0.053 C 
BRANCH   4   5
ATOM      5  C   UNL     1       6.083  72.728  39.848  1.00  0.00     0.041 C 
ATOM      6  O   UNL     1       5.116  71.925  39.918  1.00  0.00    -0.550 OA
ATOM      7  O   UNL     1       7.369  72.240  39.652  1.00  0.00    -0.550 OA
ENDBRANCH   4   5
ENDBRANCH   3   4
ENDBRANCH   2   3
ENDBRANCH   1   2
BRANCH   1   8
ATOM      8  C   UNL     1       5.523  77.944  39.938  1.00  0.00     0.000 C 
BRANCH   8   9
ATOM      9  C   UNL     1       5.258  79.305  39.270  1.00  0.00     0.000 C 
BRANCH   9  10
ATOM     10  C   UNL     1       5.994  79.469  37.931  1.00  0.00     0.006 C 
BRANCH  10  11
ATOM     11  C   UNL     1       7.384  80.079  38.140  1.00  0.00     0.053 C 
BRANCH  11  12
ATOM     12  C   UNL     1       8.414  79.310  37.377  1.00  0.00     0.041 C 
ATOM     13  O   UNL     1       9.612  79.297  37.763  1.00  0.00    -0.550 OA
ATOM     14  O   UNL     1       8.062  78.647  36.208  1.00  0.00    -0.550 OA
ENDBRANCH  11  12
ENDBRANCH  10  11
ENDBRANCH   9  10
ENDBRANCH   8   9
ENDBRANCH   1   8
TORSDOF 9
ENDMDL
MODEL 9
REMARK VINA RESULT:    -3.785      2.957      6.739
REMARK INTER + INTRA:          -6.342
REMARK INTER:                  -5.755
REMARK INTRA:                  -0.587
REMARK UNBOUND:                -0.566
REMARK SMILES O=C([O-])CCCCCCCCC(=O)[O-]
REMARK SMILES IDX 7 1 6 2 5 3 4 4 2 5 1 6 3 7 8 8 9 9 10 10 11 11 12 12 13 13
REMARK SMILES IDX 14 14
REMARK H PARENT
REMARK Flexibility Score: inf
ROOT
ATOM      1  C   UNL     1      11.242  81.171  39.885  1.00  0.00     0.000 C 
ENDROOT
BRANCH   1   2
ATOM      2  C   UNL     1      10.886  80.483  38.556  1.00  0.00     0.000 C 
BRANCH   2   3
ATOM      3  C   UNL     1       9.434  79.976  38.527  1.00  0.00     0.006 C 
BRANCH   3   4
ATOM      4  C   UNL     1       9.341  78.459  38.319  1.00  0.00     0.053 C 
BRANCH   4   5
ATOM      5  C   UNL     1       9.476  78.122  36.868  1.00  0.00     0.041 C 
ATOM      6  O   UNL     1       8.669  78.601  36.028  1.00  0.00    -0.550 OA
ATOM      7  O   UNL     1      10.522  77.318  36.434  1.00  0.00    -0.550 OA
ENDBRANCH   4   5
ENDBRANCH   3   4
ENDBRANCH   2   3
ENDBRANCH   1   2
BRANCH   1   8
ATOM      8  C   UNL     1      11.751  80.186  40.952  1.00  0.00     0.000 C 
BRANCH   8   9
ATOM      9  C   UNL     1      12.019  80.802  42.337  1.00  0.00     0.000 C 
BRANCH   9  10
ATOM     10  C   UNL     1      10.903  80.509  43.351  1.00  0.00     0.006 C 
BRANCH  10  11
ATOM     11  C   UNL     1       9.957  81.707  43.486  1.00  0.00     0.053 C 
BRANCH  11  12
ATOM     12  C   UNL     1       8.572  81.330  43.067  1.00  0.00     0.041 C 
ATOM     13  O   UNL     1       8.312  81.115  41.854  1.00  0.00    -0.550 OA
ATOM     14  O   UNL     1       7.553  81.266  44.010  1.00  0.00    -0.550 OA
ENDBRANCH  11  12
ENDBRANCH  10  11
ENDBRANCH   9  10
ENDBRANCH   8   9
ENDBRANCH   1   8
TORSDOF 9
ENDMDL
