MODEL 1
REMARK VINA RESULT:    -2.641      0.000      0.000
REMARK INTER + INTRA:          -4.981
REMARK INTER:                  -3.876
REMARK INTRA:                  -1.105
REMARK UNBOUND:                -1.105
REMARK SMILES CCCCCCCCCC=O
REMARK SMILES IDX 6 1 5 2 4 3 3 4 2 5 1 6 7 7 8 8 9 9 10 10 11 11
REMARK H PARENT
REMARK Flexibility Score: inf
ROOT
ATOM      1  C   UNL     1     113.788 116.036 119.437  1.00  0.00     0.000 C 
ENDROOT
BRANCH   1   2
ATOM      2  C   UNL     1     114.498 114.711 119.089  1.00  0.00     0.000 C 
BRANCH   2   3
ATOM      3  C   UNL     1     116.001 114.834 118.783  1.00  0.00    -0.000 C 
BRANCH   3   4
ATOM      4  C   UNL     1     116.866 113.916 119.659  1.00  0.00    -0.000 C 
BRANCH   4   5
ATOM      5  C   UNL     1     118.192 114.593 120.021  1.00  0.00    -0.003 C 
ATOM      6  C   UNL     1     118.515 115.726 119.050  1.00  0.00     0.004 C 
ENDBRANCH   4   5
ENDBRANCH   3   4
ENDBRANCH   2   3
ENDBRANCH   1   2
BRANCH   1   7
ATOM      7  C   UNL     1     114.709 117.268 119.509  1.00  0.00     0.000 C 
BRANCH   7   8
ATOM      8  C   UNL     1     114.885 117.798 120.942  1.00  0.00     0.008 C 
BRANCH   8   9
ATOM      9  C   UNL     1     116.224 117.368 121.555  1.00  0.00     0.072 C 
BRANCH   9  10
ATOM     10  C   UNL     1     116.038 116.391 122.681  1.00  0.00     0.224 C 
ATOM     11  O   UNL     1     115.337 115.403 122.534  1.00  0.00    -0.303 OA
ENDBRANCH   9  10
ENDBRANCH   8   9
ENDBRANCH   7   8
ENDBRANCH   1   7
TORSDOF 8
ENDMDL
MODEL 2
REMARK VINA RESULT:    -2.624      0.987      1.594
REMARK INTER + INTRA:          -4.957
REMARK INTER:                  -3.791
REMARK INTRA:                  -1.166
REMARK UNBOUND:                -1.105
REMARK SMILES CCCCCCCCCC=O
REMARK SMILES IDX 6 1 5 2 4 3 3 4 2 5 1 6 7 7 8 8 9 9 10 10 11 11
REMARK H PARENT
REMARK Flexibility Score: inf
ROOT
ATOM      1  C   UNL     1     114.800 114.751 118.938  1.00  0.00     0.000 C 
ENDROOT
BRANCH   1   2
ATOM      2  C   UNL     1     116.262 114.415 118.580  1.00  0.00     0.000 C 
BRANCH   2   3
ATOM      3  C   UNL     1     117.107 113.852 119.737  1.00  0.00    -0.000 C 
BRANCH   3   4
ATOM      4  C   UNL     1     118.351 114.700 120.036  1.00  0.00    -0.000 C 
BRANCH   4   5
ATOM      5  C   UNL     1     118.396 115.942 119.141  1.00  0.00    -0.003 C 
ATOM      6  C   UNL     1     118.785 117.184 119.939  1.00  0.00     0.004 C 
ENDBRANCH   4   5
ENDBRANCH   3   4
ENDBRANCH   2   3
ENDBRANCH   1   2
BRANCH   1   7
ATOM      7  C   UNL     1     114.585 115.284 120.366  1.00  0.00     0.000 C 
BRANCH   7   8
ATOM      8  C   UNL     1     114.857 116.793 120.487  1.00  0.00     0.008 C 
BRANCH   8   9
ATOM      9  C   UNL     1     115.581 117.144 121.794  1.00  0.00     0.072 C 
BRANCH   9  10
ATOM     10  C   UNL     1     115.886 115.924 122.614  1.00  0.00     0.224 C 
ATOM     11  O   UNL     1     116.985 115.780 123.125  1.00  0.00    -0.303 OA
ENDBRANCH   9  10
ENDBRANCH   8   9
ENDBRANCH   7   8
ENDBRANCH   1   7
TORSDOF 8
ENDMDL
MODEL 3
REMARK VINA RESULT:    -2.619      1.796      3.189
REMARK INTER + INTRA:          -4.949
REMARK INTER:                  -3.874
REMARK INTRA:                  -1.075
REMARK UNBOUND:                -1.105
REMARK SMILES CCCCCCCCCC=O
REMARK SMILES IDX 6 1 5 2 4 3 3 4 2 5 1 6 7 7 8 8 9 9 10 10 11 11
REMARK H PARENT
REMARK Flexibility Score: inf
ROOT
ATOM      1  C   UNL     1     116.030 114.357 119.687  1.00  0.00     0.000 C 
ENDROOT
BRANCH   1   2
ATOM      2  C   UNL     1     117.567 114.329 119.817  1.00  0.00     0.000 C 
BRANCH   2   3
ATOM      3  C   UNL     1     118.168 115.426 120.714  1.00  0.00    -0.000 C 
BRANCH   3   4
ATOM      4  C   UNL     1     118.737 116.606 119.914  1.00  0.00    -0.000 C 
BRANCH   4   5
ATOM      5  C   UNL     1     118.370 117.942 120.570  1.00  0.00    -0.003 C 
ATOM      6  C   UNL     1     117.802 117.730 121.971  1.00  0.00     0.004 C 
ENDBRANCH   4   5
ENDBRANCH   3   4
ENDBRANCH   2   3
ENDBRANCH   1   2
BRANCH   1   7
ATOM      7  C   UNL     1     115.306 115.256 120.706  1.00  0.00     0.000 C 
BRANCH   7   8
ATOM      8  C   UNL     1     114.315 116.229 120.045  1.00  0.00     0.008 C 
BRANCH   8   9
ATOM      9  C   UNL     1     115.020 117.225 119.114  1.00  0.00     0.072 C 
BRANCH   9  10
ATOM     10  C   UNL     1     114.784 118.648 119.532  1.00  0.00     0.224 C 
ATOM     11  O   UNL     1     114.742 118.947 120.715  1.00  0.00    -0.303 OA
ENDBRANCH   9  10
ENDBRANCH   8   9
ENDBRANCH   7   8
ENDBRANCH   1   7
TORSDOF 8
ENDMDL
MODEL 4
REMARK VINA RESULT:    -2.575      1.813      3.769
REMARK INTER + INTRA:          -4.885
REMARK INTER:                  -3.876
REMARK INTRA:                  -1.009
REMARK UNBOUND:                -1.105
REMARK SMILES CCCCCCCCCC=O
REMARK SMILES IDX 6 1 5 2 4 3 3 4 2 5 1 6 7 7 8 8 9 9 10 10 11 11
REMARK H PARENT
REMARK Flexibility Score: inf
ROOT
ATOM      1  C   UNL     1     116.140 114.807 119.202  1.00  0.00     0.000 C 
ENDROOT
BRANCH   1   2
ATOM      2  C   UNL     1     114.612 114.752 119.406  1.00  0.00     0.000 C 
BRANCH   2   3
ATOM      3  C   UNL     1     113.941 116.108 119.692  1.00  0.00    -0.000 C 
BRANCH   3   4
ATOM      4  C   UNL     1     114.421 117.222 118.751  1.00  0.00    -0.000 C 
BRANCH   4   5
ATOM      5  C   UNL     1     114.820 118.473 119.542  1.00  0.00    -0.003 C 
ATOM      6  C   UNL     1     114.872 118.185 121.040  1.00  0.00     0.004 C 
ENDBRANCH   4   5
ENDBRANCH   3   4
ENDBRANCH   2   3
ENDBRANCH   1   2
BRANCH   1   7
ATOM      7  C   UNL     1     116.960 115.032 120.485  1.00  0.00     0.000 C 
BRANCH   7   8
ATOM      8  C   UNL     1     118.345 115.641 120.209  1.00  0.00     0.008 C 
BRANCH   8   9
ATOM      9  C   UNL     1     118.247 116.982 119.470  1.00  0.00     0.072 C 
BRANCH   9  10
ATOM     10  C   UNL     1     118.910 118.093 120.232  1.00  0.00     0.224 C 
ATOM     11  O   UNL     1     118.407 118.528 121.256  1.00  0.00    -0.303 OA
ENDBRANCH   9  10
ENDBRANCH   8   9
ENDBRANCH   7   8
ENDBRANCH   1   7
TORSDOF 8
ENDMDL
MODEL 5
REMARK VINA RESULT:    -2.565      1.445      4.309
REMARK INTER + INTRA:          -4.870
REMARK INTER:                  -3.987
REMARK INTRA:                  -0.883
REMARK UNBOUND:                -1.105
REMARK SMILES CCCCCCCCCC=O
REMARK SMILES IDX 6 1 5 2 4 3 3 4 2 5 1 6 7 7 8 8 9 9 10 10 11 11
REMARK H PARENT
REMARK Flexibility Score: inf
ROOT
ATOM      1  C   UNL     1     118.834 115.943 119.162  1.00  0.00     0.000 C 
ENDROOT
BRANCH   1   2
ATOM      2  C   UNL     1     119.345 117.331 119.599  1.00  0.00     0.000 C 
BRANCH   2   3
ATOM      3  C   UNL     1     118.392 118.120 120.515  1.00  0.00    -0.000 C 
BRANCH   3   4
ATOM      4  C   UNL     1     117.221 118.756 119.753  1.00  0.00    -0.000 C 
BRANCH   4   5
ATOM      5  C   UNL     1     115.881 118.384 120.397  1.00  0.00    -0.003 C 
ATOM      6  C   UNL     1     114.746 118.432 119.377  1.00  0.00     0.004 C 
ENDBRANCH   4   5
ENDBRANCH   3   4
ENDBRANCH   2   3
ENDBRANCH   1   2
BRANCH   1   7
ATOM      7  C   UNL     1     118.239 115.082 120.290  1.00  0.00     0.000 C 
BRANCH   7   8
ATOM      8  C   UNL     1     117.155 114.112 119.793  1.00  0.00     0.008 C 
BRANCH   8   9
ATOM      9  C   UNL     1     115.962 114.851 119.172  1.00  0.00     0.072 C 
BRANCH   9  10
ATOM     10  C   UNL     1     114.734 114.760 120.032  1.00  0.00     0.224 C 
ATOM     11  O   UNL     1     114.786 115.048 121.217  1.00  0.00    -0.303 OA
ENDBRANCH   9  10
ENDBRANCH   8   9
ENDBRANCH   7   8
ENDBRANCH   1   7
TORSDOF 8
ENDMDL
MODEL 6
REMARK VINA RESULT:    -2.560      1.863      3.642
REMARK INTER + INTRA:          -4.863
REMARK INTER:                  -3.807
REMARK INTRA:                  -1.056
REMARK UNBOUND:                -1.105
REMARK SMILES CCCCCCCCCC=O
REMARK SMILES IDX 6 1 5 2 4 3 3 4 2 5 1 6 7 7 8 8 9 9 10 10 11 11
REMARK H PARENT
REMARK Flexibility Score: inf
ROOT
ATOM      1  C   UNL     1     116.907 113.929 119.488  1.00  0.00     0.000 C 
ENDROOT
BRANCH   1   2
ATOM      2  C   UNL     1     115.834 114.885 118.929  1.00  0.00     0.000 C 
BRANCH   2   3
ATOM      3  C   UNL     1     114.923 115.536 119.985  1.00  0.00    -0.000 C 
BRANCH   3   4
ATOM      4  C   UNL     1     115.201 115.029 121.407  1.00  0.00    -0.000 C 
BRANCH   4   5
ATOM      5  C   UNL     1     115.852 116.122 122.262  1.00  0.00    -0.003 C 
ATOM      6  C   UNL     1     117.167 115.640 122.868  1.00  0.00     0.004 C 
ENDBRANCH   4   5
ENDBRANCH   3   4
ENDBRANCH   2   3
ENDBRANCH   1   2
BRANCH   1   7
ATOM      7  C   UNL     1     118.345 114.480 119.466  1.00  0.00     0.000 C 
BRANCH   7   8
ATOM      8  C   UNL     1     118.447 115.854 118.783  1.00  0.00     0.008 C 
BRANCH   8   9
ATOM      9  C   UNL     1     119.194 116.875 119.652  1.00  0.00     0.072 C 
BRANCH   9  10
ATOM     10  C   UNL     1     118.303 118.004 120.083  1.00  0.00     0.224 C 
ATOM     11  O   UNL     1     118.445 118.520 121.180  1.00  0.00    -0.303 OA
ENDBRANCH   9  10
ENDBRANCH   8   9
ENDBRANCH   7   8
ENDBRANCH   1   7
TORSDOF 8
ENDMDL
MODEL 7
REMARK VINA RESULT:    -2.553      1.624      3.921
REMARK INTER + INTRA:          -4.852
REMARK INTER:                  -3.710
REMARK INTRA:                  -1.143
REMARK UNBOUND:                -1.105
REMARK SMILES CCCCCCCCCC=O
REMARK SMILES IDX 6 1 5 2 4 3 3 4 2 5 1 6 7 7 8 8 9 9 10 10 11 11
REMARK H PARENT
REMARK Flexibility Score: inf
ROOT
ATOM      1  C   UNL     1     118.380 116.108 119.654  1.00  0.00     0.000 C 
ENDROOT
BRANCH   1   2
ATOM      2  C   UNL     1     118.842 117.427 120.306  1.00  0.00     0.000 C 
BRANCH   2   3
ATOM      3  C   UNL     1     117.756 118.511 120.430  1.00  0.00    -0.000 C 
BRANCH   3   4
ATOM      4  C   UNL     1     116.834 118.575 119.204  1.00  0.00    -0.000 C 
BRANCH   4   5
ATOM      5  C   UNL     1     115.361 118.598 119.627  1.00  0.00    -0.003 C 
ATOM      6  C   UNL     1     114.500 117.780 118.668  1.00  0.00     0.004 C 
ENDBRANCH   4   5
ENDBRANCH   3   4
ENDBRANCH   2   3
ENDBRANCH   1   2
BRANCH   1   7
ATOM      7  C   UNL     1     117.671 115.125 120.604  1.00  0.00     0.000 C 
BRANCH   7   8
ATOM      8  C   UNL     1     116.207 114.867 120.211  1.00  0.00     0.008 C 
BRANCH   8   9
ATOM      9  C   UNL     1     115.239 115.173 121.361  1.00  0.00     0.072 C 
BRANCH   9  10
ATOM     10  C   UNL     1     115.906 115.936 122.469  1.00  0.00     0.224 C 
ATOM     11  O   UNL     1     115.499 117.040 122.793  1.00  0.00    -0.303 OA
ENDBRANCH   9  10
ENDBRANCH   8   9
ENDBRANCH   7   8
ENDBRANCH   1   7
TORSDOF 8
ENDMDL
MODEL 8
REMARK VINA RESULT:    -2.534      1.539      3.194
REMARK INTER + INTRA:          -4.825
REMARK INTER:                  -3.940
REMARK INTRA:                  -0.885
REMARK UNBOUND:                -1.105
REMARK SMILES CCCCCCCCCC=O
REMARK SMILES IDX 6 1 5 2 4 3 3 4 2 5 1 6 7 7 8 8 9 9 10 10 11 11
REMARK H PARENT
REMARK Flexibility Score: inf
ROOT
ATOM      1  C   UNL     1     119.287 117.129 119.629  1.00  0.00     0.000 C 
ENDROOT
BRANCH   1   2
ATOM      2  C   UNL     1     118.523 115.895 119.105  1.00  0.00     0.000 C 
BRANCH   2   3
ATOM      3  C   UNL     1     118.035 114.918 120.191  1.00  0.00    -0.000 C 
BRANCH   3   4
ATOM      4  C   UNL     1     116.919 113.986 119.698  1.00  0.00    -0.000 C 
BRANCH   4   5
ATOM      5  C   UNL     1     115.608 114.756 119.506  1.00  0.00    -0.003 C 
ATOM      6  C   UNL     1     114.771 114.746 120.783  1.00  0.00     0.004 C 
ENDBRANCH   4   5
ENDBRANCH   3   4
ENDBRANCH   2   3
ENDBRANCH   1   2
BRANCH   1   7
ATOM      7  C   UNL     1     118.439 118.122 120.444  1.00  0.00     0.000 C 
BRANCH   7   8
ATOM      8  C   UNL     1     117.115 118.485 119.752  1.00  0.00     0.008 C 
BRANCH   8   9
ATOM      9  C   UNL     1     115.910 118.310 120.686  1.00  0.00     0.072 C 
BRANCH   9  10
ATOM     10  C   UNL     1     116.309 117.743 122.018  1.00  0.00     0.224 C 
ATOM     11  O   UNL     1     115.516 117.725 122.946  1.00  0.00    -0.303 OA
ENDBRANCH   9  10
ENDBRANCH   8   9
ENDBRANCH   7   8
ENDBRANCH   1   7
TORSDOF 8
ENDMDL
MODEL 9
REMARK VINA RESULT:    -2.532      2.251      3.731
REMARK INTER + INTRA:          -4.821
REMARK INTER:                  -3.998
REMARK INTRA:                  -0.823
REMARK UNBOUND:                -1.105
REMARK SMILES CCCCCCCCCC=O
REMARK SMILES IDX 6 1 5 2 4 3 3 4 2 5 1 6 7 7 8 8 9 9 10 10 11 11
REMARK H PARENT
REMARK Flexibility Score: inf
ROOT
ATOM      1  C   UNL     1     118.574 116.307 119.714  1.00  0.00     0.000 C 
ENDROOT
BRANCH   1   2
ATOM      2  C   UNL     1     118.184 115.073 120.555  1.00  0.00     0.000 C 
BRANCH   2   3
ATOM      3  C   UNL     1     117.428 113.973 119.789  1.00  0.00    -0.000 C 
BRANCH   3   4
ATOM      4  C   UNL     1     116.111 114.470 119.174  1.00  0.00    -0.000 C 
BRANCH   4   5
ATOM      5  C   UNL     1     115.059 114.717 120.261  1.00  0.00    -0.003 C 
ATOM      6  C   UNL     1     114.129 115.865 119.876  1.00  0.00     0.004 C 
ENDBRANCH   4   5
ENDBRANCH   3   4
ENDBRANCH   2   3
ENDBRANCH   1   2
BRANCH   1   7
ATOM      7  C   UNL     1     118.479 117.654 120.452  1.00  0.00     0.000 C 
BRANCH   7   8
ATOM      8  C   UNL     1     117.028 118.089 120.715  1.00  0.00     0.008 C 
BRANCH   8   9
ATOM      9  C   UNL     1     116.418 118.822 119.512  1.00  0.00     0.072 C 
BRANCH   9  10
ATOM     10  C   UNL     1     115.102 119.459 119.851  1.00  0.00     0.224 C 
ATOM     11  O   UNL     1     114.994 120.674 119.888  1.00  0.00    -0.303 OA
ENDBRANCH   9  10
ENDBRANCH   8   9
ENDBRANCH   7   8
ENDBRANCH   1   7
TORSDOF 8
ENDMDL
