MODEL 1
REMARK VINA RESULT:    -3.297      0.000      0.000
REMARK INTER + INTRA:          -8.209
REMARK INTER:                  -6.380
REMARK INTRA:                  -1.828
REMARK UNBOUND:                -1.828
REMARK SMILES CCCCCCCCCCCCCCCCCC(=O)[O-]
REMARK SMILES IDX 10 1 11 2 12 3 13 4 14 5 15 6 16 7 17 8 18 9 19 10 20 11
REMARK SMILES IDX 9 12 8 13 7 14 6 15 5 16 4 17 3 18 2 19 1 20
REMARK H PARENT
REMARK Flexibility Score: inf
ROOT
ATOM      1  C   UNL     1       2.410  19.753  10.260  1.00  0.00     0.000 C 
ENDROOT
BRANCH   1   2
ATOM      2  C   UNL     1       2.997  18.581  11.063  1.00  0.00     0.000 C 
BRANCH   2   3
ATOM      3  C   UNL     1       4.004  17.742  10.254  1.00  0.00     0.000 C 
BRANCH   3   4
ATOM      4  C   UNL     1       4.411  16.402  10.895  1.00  0.00     0.000 C 
BRANCH   4   5
ATOM      5  C   UNL     1       4.720  15.310   9.860  1.00  0.00     0.000 C 
BRANCH   5   6
ATOM      6  C   UNL     1       4.728  15.890   8.438  1.00  0.00     0.000 C 
BRANCH   6   7
ATOM      7  C   UNL     1       3.897  15.054   7.451  1.00  0.00     0.006 C 
BRANCH   7   8
ATOM      8  C   UNL     1       4.414  13.617   7.309  1.00  0.00     0.053 C 
BRANCH   8   9
ATOM      9  C   UNL     1       4.204  13.123   5.912  1.00  0.00     0.041 C 
ATOM     10  O   UNL     1       3.410  12.171   5.688  1.00  0.00    -0.550 OA
ATOM     11  O   UNL     1       4.930  13.675   4.864  1.00  0.00    -0.550 OA
ENDBRANCH   8   9
ENDBRANCH   7   8
ENDBRANCH   6   7
ENDBRANCH   5   6
ENDBRANCH   4   5
ENDBRANCH   3   4
ENDBRANCH   2   3
ENDBRANCH   1   2
BRANCH   1  12
ATOM     12  C   UNL     1       1.154  20.361  10.912  1.00  0.00     0.000 C 
BRANCH  12  13
ATOM     13  C   UNL     1       0.267  21.203   9.978  1.00  0.00    -0.000 C 
BRANCH  13  14
ATOM     14  C   UNL     1       0.896  21.428   8.593  1.00  0.00    -0.000 C 
BRANCH  14  15
ATOM     15  C   UNL     1      -0.054  21.049   7.445  1.00  0.00    -0.000 C 
BRANCH  15  16
ATOM     16  C   UNL     1       0.673  20.351   6.285  1.00  0.00    -0.000 C 
BRANCH  16  17
ATOM     17  C   UNL     1       2.196  20.398   6.486  1.00  0.00    -0.000 C 
BRANCH  17  18
ATOM     18  C   UNL     1       2.813  19.000   6.660  1.00  0.00    -0.000 C 
BRANCH  18  19
ATOM     19  C   UNL     1       4.348  19.027   6.658  1.00  0.00    -0.003 C 
ATOM     20  C   UNL     1       4.909  18.254   5.466  1.00  0.00     0.004 C 
ENDBRANCH  18  19
ENDBRANCH  17  18
ENDBRANCH  16  17
ENDBRANCH  15  16
ENDBRANCH  14  15
ENDBRANCH  13  14
ENDBRANCH  12  13
ENDBRANCH   1  12
TORSDOF 16
ENDMDL
MODEL 2
REMARK VINA RESULT:    -3.228      1.313      2.895
REMARK INTER + INTRA:          -8.076
REMARK INTER:                  -6.117
REMARK INTRA:                  -1.959
REMARK UNBOUND:                -1.828
REMARK SMILES CCCCCCCCCCCCCCCCCC(=O)[O-]
REMARK SMILES IDX 10 1 11 2 12 3 13 4 14 5 15 6 16 7 17 8 18 9 19 10 20 11
REMARK SMILES IDX 9 12 8 13 7 14 6 15 5 16 4 17 3 18 2 19 1 20
REMARK H PARENT
REMARK Flexibility Score: inf
ROOT
ATOM      1  C   UNL     1       0.420  21.256   9.037  1.00  0.00     0.000 C 
ENDROOT
BRANCH   1   2
ATOM      2  C   UNL     1       1.861  21.039   9.527  1.00  0.00     0.000 C 
BRANCH   2   3
ATOM      3  C   UNL     1       2.038  19.728  10.315  1.00  0.00     0.000 C 
BRANCH   3   4
ATOM      4  C   UNL     1       3.479  19.192  10.388  1.00  0.00     0.000 C 
BRANCH   4   5
ATOM      5  C   UNL     1       3.550  17.711  10.788  1.00  0.00     0.000 C 
BRANCH   5   6
ATOM      6  C   UNL     1       4.707  17.004  10.066  1.00  0.00     0.000 C 
BRANCH   6   7
ATOM      7  C   UNL     1       4.428  15.515   9.813  1.00  0.00     0.006 C 
BRANCH   7   8
ATOM      8  C   UNL     1       5.462  14.867   8.883  1.00  0.00     0.053 C 
BRANCH   8   9
ATOM      9  C   UNL     1       4.812  14.422   7.610  1.00  0.00     0.041 C 
ATOM     10  O   UNL     1       5.496  13.871   6.708  1.00  0.00    -0.550 OA
ATOM     11  O   UNL     1       3.462  14.668   7.398  1.00  0.00    -0.550 OA
ENDBRANCH   8   9
ENDBRANCH   7   8
ENDBRANCH   6   7
ENDBRANCH   5   6
ENDBRANCH   4   5
ENDBRANCH   3   4
ENDBRANCH   2   3
ENDBRANCH   1   2
BRANCH   1  12
ATOM     12  C   UNL     1       0.342  21.642   7.548  1.00  0.00     0.000 C 
BRANCH  12  13
ATOM     13  C   UNL     1       0.584  20.492   6.554  1.00  0.00    -0.000 C 
BRANCH  13  14
ATOM     14  C   UNL     1       1.627  20.837   5.477  1.00  0.00    -0.000 C 
BRANCH  14  15
ATOM     15  C   UNL     1       2.952  20.082   5.676  1.00  0.00    -0.000 C 
BRANCH  15  16
ATOM     16  C   UNL     1       2.840  18.959   6.719  1.00  0.00    -0.000 C 
BRANCH  16  17
ATOM     17  C   UNL     1       4.090  18.066   6.697  1.00  0.00    -0.000 C 
BRANCH  17  18
ATOM     18  C   UNL     1       4.912  18.230   5.409  1.00  0.00    -0.000 C 
BRANCH  18  19
ATOM     19  C   UNL     1       5.527  16.907   4.927  1.00  0.00    -0.003 C 
ATOM     20  C   UNL     1       5.693  16.900   3.410  1.00  0.00     0.004 C 
ENDBRANCH  18  19
ENDBRANCH  17  18
ENDBRANCH  16  17
ENDBRANCH  15  16
ENDBRANCH  14  15
ENDBRANCH  13  14
ENDBRANCH  12  13
ENDBRANCH   1  12
TORSDOF 16
ENDMDL
MODEL 3
REMARK VINA RESULT:    -3.190      1.565      4.493
REMARK INTER + INTRA:          -8.002
REMARK INTER:                  -5.490
REMARK INTRA:                  -2.511
REMARK UNBOUND:                -1.828
REMARK SMILES CCCCCCCCCCCCCCCCCC(=O)[O-]
REMARK SMILES IDX 10 1 11 2 12 3 13 4 14 5 15 6 16 7 17 8 18 9 19 10 20 11
REMARK SMILES IDX 9 12 8 13 7 14 6 15 5 16 4 17 3 18 2 19 1 20
REMARK H PARENT
REMARK Flexibility Score: inf
ROOT
ATOM      1  C   UNL     1       1.372  20.082   6.278  1.00  0.00     0.000 C 
ENDROOT
BRANCH   1   2
ATOM      2  C   UNL     1       2.172  20.849   5.213  1.00  0.00     0.000 C 
BRANCH   2   3
ATOM      3  C   UNL     1       3.567  20.248   4.960  1.00  0.00     0.000 C 
BRANCH   3   4
ATOM      4  C   UNL     1       3.930  19.034   5.834  1.00  0.00     0.000 C 
BRANCH   4   5
ATOM      5  C   UNL     1       5.436  18.923   6.114  1.00  0.00     0.000 C 
BRANCH   5   6
ATOM      6  C   UNL     1       5.715  17.870   7.196  1.00  0.00     0.000 C 
BRANCH   6   7
ATOM      7  C   UNL     1       5.223  16.468   6.802  1.00  0.00     0.006 C 
BRANCH   7   8
ATOM      8  C   UNL     1       4.726  15.655   8.004  1.00  0.00     0.053 C 
BRANCH   8   9
ATOM      9  C   UNL     1       4.565  14.215   7.629  1.00  0.00     0.041 C 
ATOM     10  O   UNL     1       3.677  13.869   6.805  1.00  0.00    -0.550 OA
ATOM     11  O   UNL     1       5.356  13.248   8.235  1.00  0.00    -0.550 OA
ENDBRANCH   8   9
ENDBRANCH   7   8
ENDBRANCH   6   7
ENDBRANCH   5   6
ENDBRANCH   4   5
ENDBRANCH   3   4
ENDBRANCH   2   3
ENDBRANCH   1   2
BRANCH   1  12
ATOM     12  C   UNL     1       0.772  21.000   7.359  1.00  0.00     0.000 C 
BRANCH  12  13
ATOM     13  C   UNL     1       1.296  20.767   8.788  1.00  0.00    -0.000 C 
BRANCH  13  14
ATOM     14  C   UNL     1       2.683  21.386   9.028  1.00  0.00    -0.000 C 
BRANCH  14  15
ATOM     15  C   UNL     1       3.762  20.326   9.304  1.00  0.00    -0.000 C 
BRANCH  15  16
ATOM     16  C   UNL     1       3.176  18.913   9.448  1.00  0.00    -0.000 C 
BRANCH  16  17
ATOM     17  C   UNL     1       3.646  18.257  10.756  1.00  0.00    -0.000 C 
BRANCH  17  18
ATOM     18  C   UNL     1       3.249  19.067  12.001  1.00  0.00    -0.000 C 
BRANCH  18  19
ATOM     19  C   UNL     1       1.839  18.724  12.504  1.00  0.00    -0.003 C 
ATOM     20  C   UNL     1       0.891  19.908  12.330  1.00  0.00     0.004 C 
ENDBRANCH  18  19
ENDBRANCH  17  18
ENDBRANCH  16  17
ENDBRANCH  15  16
ENDBRANCH  14  15
ENDBRANCH  13  14
ENDBRANCH  12  13
ENDBRANCH   1  12
TORSDOF 16
ENDMDL
MODEL 4
REMARK VINA RESULT:    -3.166      1.373      2.900
REMARK INTER + INTRA:          -7.956
REMARK INTER:                  -6.172
REMARK INTRA:                  -1.784
REMARK UNBOUND:                -1.828
REMARK SMILES CCCCCCCCCCCCCCCCCC(=O)[O-]
REMARK SMILES IDX 10 1 11 2 12 3 13 4 14 5 15 6 16 7 17 8 18 9 19 10 20 11
REMARK SMILES IDX 9 12 8 13 7 14 6 15 5 16 4 17 3 18 2 19 1 20
REMARK H PARENT
REMARK Flexibility Score: inf
ROOT
ATOM      1  C   UNL     1       4.770  17.352  10.051  1.00  0.00     0.000 C 
ENDROOT
BRANCH   1   2
ATOM      2  C   UNL     1       4.344  15.939   9.620  1.00  0.00     0.000 C 
BRANCH   2   3
ATOM      3  C   UNL     1       4.188  15.796   8.095  1.00  0.00     0.000 C 
BRANCH   3   4
ATOM      4  C   UNL     1       4.606  17.027   7.271  1.00  0.00     0.000 C 
BRANCH   4   5
ATOM      5  C   UNL     1       5.723  16.725   6.262  1.00  0.00     0.000 C 
BRANCH   5   6
ATOM      6  C   UNL     1       5.205  16.839   4.821  1.00  0.00     0.000 C 
BRANCH   6   7
ATOM      7  C   UNL     1       5.133  15.480   4.106  1.00  0.00     0.006 C 
BRANCH   7   8
ATOM      8  C   UNL     1       5.722  14.338   4.943  1.00  0.00     0.053 C 
BRANCH   8   9
ATOM      9  C   UNL     1       4.754  13.199   5.026  1.00  0.00     0.041 C 
ATOM     10  O   UNL     1       3.775  13.255   5.816  1.00  0.00    -0.550 OA
ATOM     11  O   UNL     1       4.967  12.051   4.274  1.00  0.00    -0.550 OA
ENDBRANCH   8   9
ENDBRANCH   7   8
ENDBRANCH   6   7
ENDBRANCH   5   6
ENDBRANCH   4   5
ENDBRANCH   3   4
ENDBRANCH   2   3
ENDBRANCH   1   2
BRANCH   1  12
ATOM     12  C   UNL     1       3.660  18.113  10.800  1.00  0.00     0.000 C 
BRANCH  12  13
ATOM     13  C   UNL     1       2.841  19.097   9.945  1.00  0.00    -0.000 C 
BRANCH  13  14
ATOM     14  C   UNL     1       1.672  19.734  10.715  1.00  0.00    -0.000 C 
BRANCH  14  15
ATOM     15  C   UNL     1       0.974  20.846   9.914  1.00  0.00    -0.000 C 
BRANCH  15  16
ATOM     16  C   UNL     1       1.763  21.253   8.661  1.00  0.00    -0.000 C 
BRANCH  16  17
ATOM     17  C   UNL     1       0.822  21.454   7.463  1.00  0.00    -0.000 C 
BRANCH  17  18
ATOM     18  C   UNL     1       0.872  20.283   6.468  1.00  0.00    -0.000 C 
BRANCH  18  19
ATOM     19  C   UNL     1       2.284  19.701   6.311  1.00  0.00    -0.003 C 
ATOM     20  C   UNL     1       3.037  20.386   5.173  1.00  0.00     0.004 C 
ENDBRANCH  18  19
ENDBRANCH  17  18
ENDBRANCH  16  17
ENDBRANCH  15  16
ENDBRANCH  14  15
ENDBRANCH  13  14
ENDBRANCH  12  13
ENDBRANCH   1  12
TORSDOF 16
ENDMDL
MODEL 5
REMARK VINA RESULT:    -3.161      1.475      2.849
REMARK INTER + INTRA:          -7.946
REMARK INTER:                  -4.935
REMARK INTRA:                  -3.011
REMARK UNBOUND:                -1.828
REMARK SMILES CCCCCCCCCCCCCCCCCC(=O)[O-]
REMARK SMILES IDX 10 1 11 2 12 3 13 4 14 5 15 6 16 7 17 8 18 9 19 10 20 11
REMARK SMILES IDX 9 12 8 13 7 14 6 15 5 16 4 17 3 18 2 19 1 20
REMARK H PARENT
REMARK Flexibility Score: inf
ROOT
ATOM      1  C   UNL     1       3.085  19.769  10.243  1.00  0.00     0.000 C 
ENDROOT
BRANCH   1   2
ATOM      2  C   UNL     1       3.310  18.323  10.715  1.00  0.00     0.000 C 
BRANCH   2   3
ATOM      3  C   UNL     1       4.779  18.028  11.073  1.00  0.00     0.000 C 
BRANCH   3   4
ATOM      4  C   UNL     1       5.299  16.648  10.633  1.00  0.00     0.000 C 
BRANCH   4   5
ATOM      5  C   UNL     1       4.250  15.823   9.873  1.00  0.00     0.000 C 
BRANCH   5   6
ATOM      6  C   UNL     1       4.886  15.097   8.679  1.00  0.00     0.000 C 
BRANCH   6   7
ATOM      7  C   UNL     1       4.005  15.139   7.420  1.00  0.00     0.006 C 
BRANCH   7   8
ATOM      8  C   UNL     1       4.802  14.905   6.130  1.00  0.00     0.053 C 
BRANCH   8   9
ATOM      9  C   UNL     1       4.518  13.541   5.583  1.00  0.00     0.041 C 
ATOM     10  O   UNL     1       5.088  13.149   4.531  1.00  0.00    -0.550 OA
ATOM     11  O   UNL     1       3.579  12.727   6.201  1.00  0.00    -0.550 OA
ENDBRANCH   8   9
ENDBRANCH   7   8
ENDBRANCH   6   7
ENDBRANCH   5   6
ENDBRANCH   4   5
ENDBRANCH   3   4
ENDBRANCH   2   3
ENDBRANCH   1   2
BRANCH   1  12
ATOM     12  C   UNL     1       4.392  20.578  10.137  1.00  0.00     0.000 C 
BRANCH  12  13
ATOM     13  C   UNL     1       4.471  21.551   8.947  1.00  0.00    -0.000 C 
BRANCH  13  14
ATOM     14  C   UNL     1       5.380  21.045   7.815  1.00  0.00    -0.000 C 
BRANCH  14  15
ATOM     15  C   UNL     1       6.123  19.751   8.191  1.00  0.00    -0.000 C 
BRANCH  15  16
ATOM     16  C   UNL     1       5.655  18.543   7.366  1.00  0.00    -0.000 C 
BRANCH  16  17
ATOM     17  C   UNL     1       4.596  18.961   6.335  1.00  0.00    -0.000 C 
BRANCH  17  18
ATOM     18  C   UNL     1       3.170  18.574   6.761  1.00  0.00    -0.000 C 
BRANCH  18  19
ATOM     19  C   UNL     1       2.163  19.717   6.562  1.00  0.00    -0.003 C 
ATOM     20  C   UNL     1       2.479  20.513   5.299  1.00  0.00     0.004 C 
ENDBRANCH  18  19
ENDBRANCH  17  18
ENDBRANCH  16  17
ENDBRANCH  15  16
ENDBRANCH  14  15
ENDBRANCH  13  14
ENDBRANCH  12  13
ENDBRANCH   1  12
TORSDOF 16
ENDMDL
MODEL 6
REMARK VINA RESULT:    -3.158      1.492      3.246
REMARK INTER + INTRA:          -7.940
REMARK INTER:                  -6.202
REMARK INTRA:                  -1.738
REMARK UNBOUND:                -1.828
REMARK SMILES CCCCCCCCCCCCCCCCCC(=O)[O-]
REMARK SMILES IDX 10 1 11 2 12 3 13 4 14 5 15 6 16 7 17 8 18 9 19 10 20 11
REMARK SMILES IDX 9 12 8 13 7 14 6 15 5 16 4 17 3 18 2 19 1 20
REMARK H PARENT
REMARK Flexibility Score: inf
ROOT
ATOM      1  C   UNL     1       2.377  19.845   9.300  1.00  0.00     0.000 C 
ENDROOT
BRANCH   1   2
ATOM      2  C   UNL     1       2.764  19.666  10.777  1.00  0.00     0.000 C 
BRANCH   2   3
ATOM      3  C   UNL     1       3.254  18.243  11.103  1.00  0.00     0.000 C 
BRANCH   3   4
ATOM      4  C   UNL     1       4.184  17.610  10.053  1.00  0.00     0.000 C 
BRANCH   4   5
ATOM      5  C   UNL     1       4.400  16.105  10.270  1.00  0.00     0.000 C 
BRANCH   5   6
ATOM      6  C   UNL     1       4.453  15.361   8.928  1.00  0.00     0.000 C 
BRANCH   6   7
ATOM      7  C   UNL     1       4.084  16.258   7.736  1.00  0.00     0.006 C 
BRANCH   7   8
ATOM      8  C   UNL     1       4.909  15.944   6.480  1.00  0.00     0.053 C 
BRANCH   8   9
ATOM      9  C   UNL     1       4.949  14.468   6.238  1.00  0.00     0.041 C 
ATOM     10  O   UNL     1       3.892  13.841   5.961  1.00  0.00    -0.550 OA
ATOM     11  O   UNL     1       6.144  13.775   6.376  1.00  0.00    -0.550 OA
ENDBRANCH   8   9
ENDBRANCH   7   8
ENDBRANCH   6   7
ENDBRANCH   5   6
ENDBRANCH   4   5
ENDBRANCH   3   4
ENDBRANCH   2   3
ENDBRANCH   1   2
BRANCH   1  12
ATOM     12  C   UNL     1       3.383  20.707   8.514  1.00  0.00     0.000 C 
BRANCH  12  13
ATOM     13  C   UNL     1       3.933  20.070   7.225  1.00  0.00    -0.000 C 
BRANCH  13  14
ATOM     14  C   UNL     1       2.828  19.525   6.305  1.00  0.00    -0.000 C 
BRANCH  14  15
ATOM     15  C   UNL     1       2.459  20.508   5.182  1.00  0.00    -0.000 C 
BRANCH  15  16
ATOM     16  C   UNL     1       1.086  21.163   5.399  1.00  0.00    -0.000 C 
BRANCH  16  17
ATOM     17  C   UNL     1       0.255  20.368   6.418  1.00  0.00    -0.000 C 
BRANCH  17  18
ATOM     18  C   UNL     1      -0.997  21.129   6.883  1.00  0.00    -0.000 C 
BRANCH  18  19
ATOM     19  C   UNL     1      -2.219  20.854   5.994  1.00  0.00    -0.003 C 
ATOM     20  C   UNL     1      -2.549  19.364   5.959  1.00  0.00     0.004 C 
ENDBRANCH  18  19
ENDBRANCH  17  18
ENDBRANCH  16  17
ENDBRANCH  15  16
ENDBRANCH  14  15
ENDBRANCH  13  14
ENDBRANCH  12  13
ENDBRANCH   1  12
TORSDOF 16
ENDMDL
MODEL 7
REMARK VINA RESULT:    -3.131      1.263      3.881
REMARK INTER + INTRA:          -7.887
REMARK INTER:                  -5.648
REMARK INTRA:                  -2.239
REMARK UNBOUND:                -1.828
REMARK SMILES CCCCCCCCCCCCCCCCCC(=O)[O-]
REMARK SMILES IDX 10 1 11 2 12 3 13 4 14 5 15 6 16 7 17 8 18 9 19 10 20 11
REMARK SMILES IDX 9 12 8 13 7 14 6 15 5 16 4 17 3 18 2 19 1 20
REMARK H PARENT
REMARK Flexibility Score: inf
ROOT
ATOM      1  C   UNL     1      -0.030  20.637   6.330  1.00  0.00     0.000 C 
ENDROOT
BRANCH   1   2
ATOM      2  C   UNL     1       1.435  20.670   5.865  1.00  0.00     0.000 C 
BRANCH   2   3
ATOM      3  C   UNL     1       2.246  19.452   6.346  1.00  0.00     0.000 C 
BRANCH   3   4
ATOM      4  C   UNL     1       3.756  19.510   6.054  1.00  0.00     0.000 C 
BRANCH   4   5
ATOM      5  C   UNL     1       4.413  18.123   6.006  1.00  0.00     0.000 C 
BRANCH   5   6
ATOM      6  C   UNL     1       5.341  17.915   7.212  1.00  0.00     0.000 C 
BRANCH   6   7
ATOM      7  C   UNL     1       5.483  16.436   7.605  1.00  0.00     0.006 C 
BRANCH   7   8
ATOM      8  C   UNL     1       4.143  15.689   7.598  1.00  0.00     0.053 C 
BRANCH   8   9
ATOM      9  C   UNL     1       4.363  14.224   7.383  1.00  0.00     0.041 C 
ATOM     10  O   UNL     1       3.652  13.589   6.560  1.00  0.00    -0.550 OA
ATOM     11  O   UNL     1       5.315  13.548   8.135  1.00  0.00    -0.550 OA
ENDBRANCH   8   9
ENDBRANCH   7   8
ENDBRANCH   6   7
ENDBRANCH   5   6
ENDBRANCH   4   5
ENDBRANCH   3   4
ENDBRANCH   2   3
ENDBRANCH   1   2
BRANCH   1  12
ATOM     12  C   UNL     1      -0.254  21.373   7.665  1.00  0.00     0.000 C 
BRANCH  12  13
ATOM     13  C   UNL     1       0.883  22.317   8.097  1.00  0.00    -0.000 C 
BRANCH  13  14
ATOM     14  C   UNL     1       1.515  21.918   9.442  1.00  0.00    -0.000 C 
BRANCH  14  15
ATOM     15  C   UNL     1       0.841  20.686  10.068  1.00  0.00    -0.000 C 
BRANCH  15  16
ATOM     16  C   UNL     1       1.830  19.801  10.841  1.00  0.00    -0.000 C 
BRANCH  16  17
ATOM     17  C   UNL     1       2.904  19.231   9.901  1.00  0.00    -0.000 C 
BRANCH  17  18
ATOM     18  C   UNL     1       3.654  18.037  10.514  1.00  0.00    -0.000 C 
BRANCH  18  19
ATOM     19  C   UNL     1       5.089  18.392  10.932  1.00  0.00    -0.003 C 
ATOM     20  C   UNL     1       5.881  17.138  11.294  1.00  0.00     0.004 C 
ENDBRANCH  18  19
ENDBRANCH  17  18
ENDBRANCH  16  17
ENDBRANCH  15  16
ENDBRANCH  14  15
ENDBRANCH  13  14
ENDBRANCH  12  13
ENDBRANCH   1  12
TORSDOF 16
ENDMDL
MODEL 8
REMARK VINA RESULT:    -3.109      1.259      4.088
REMARK INTER + INTRA:          -7.846
REMARK INTER:                  -5.957
REMARK INTRA:                  -1.889
REMARK UNBOUND:                -1.828
REMARK SMILES CCCCCCCCCCCCCCCCCC(=O)[O-]
REMARK SMILES IDX 10 1 11 2 12 3 13 4 14 5 15 6 16 7 17 8 18 9 19 10 20 11
REMARK SMILES IDX 9 12 8 13 7 14 6 15 5 16 4 17 3 18 2 19 1 20
REMARK H PARENT
REMARK Flexibility Score: inf
ROOT
ATOM      1  C   UNL     1       3.596  20.872   5.385  1.00  0.00     0.000 C 
ENDROOT
BRANCH   1   2
ATOM      2  C   UNL     1       4.525  19.798   4.797  1.00  0.00     0.000 C 
BRANCH   2   3
ATOM      3  C   UNL     1       5.252  18.974   5.876  1.00  0.00     0.000 C 
BRANCH   3   4
ATOM      4  C   UNL     1       4.561  17.658   6.277  1.00  0.00     0.000 C 
BRANCH   4   5
ATOM      5  C   UNL     1       5.296  16.910   7.400  1.00  0.00     0.000 C 
BRANCH   5   6
ATOM      6  C   UNL     1       4.299  16.225   8.345  1.00  0.00     0.000 C 
BRANCH   6   7
ATOM      7  C   UNL     1       4.146  14.723   8.061  1.00  0.00     0.006 C 
BRANCH   7   8
ATOM      8  C   UNL     1       5.188  14.199   7.064  1.00  0.00     0.053 C 
BRANCH   8   9
ATOM      9  C   UNL     1       4.519  13.719   5.814  1.00  0.00     0.041 C 
ATOM     10  O   UNL     1       4.798  14.244   4.704  1.00  0.00    -0.550 OA
ATOM     11  O   UNL     1       3.544  12.733   5.884  1.00  0.00    -0.550 OA
ENDBRANCH   8   9
ENDBRANCH   7   8
ENDBRANCH   6   7
ENDBRANCH   5   6
ENDBRANCH   4   5
ENDBRANCH   3   4
ENDBRANCH   2   3
ENDBRANCH   1   2
BRANCH   1  12
ATOM     12  C   UNL     1       2.103  20.556   5.180  1.00  0.00     0.000 C 
BRANCH  12  13
ATOM     13  C   UNL     1       1.338  20.129   6.446  1.00  0.00    -0.000 C 
BRANCH  13  14
ATOM     14  C   UNL     1       1.427  21.164   7.579  1.00  0.00    -0.000 C 
BRANCH  14  15
ATOM     15  C   UNL     1       1.723  20.520   8.944  1.00  0.00    -0.000 C 
BRANCH  15  16
ATOM     16  C   UNL     1       3.002  19.669   8.929  1.00  0.00    -0.000 C 
BRANCH  16  17
ATOM     17  C   UNL     1       3.339  19.162  10.340  1.00  0.00    -0.000 C 
BRANCH  17  18
ATOM     18  C   UNL     1       2.119  19.163  11.276  1.00  0.00    -0.000 C 
BRANCH  18  19
ATOM     19  C   UNL     1       2.337  18.307  12.532  1.00  0.00    -0.003 C 
ATOM     20  C   UNL     1       3.538  17.380  12.363  1.00  0.00     0.004 C 
ENDBRANCH  18  19
ENDBRANCH  17  18
ENDBRANCH  16  17
ENDBRANCH  15  16
ENDBRANCH  14  15
ENDBRANCH  13  14
ENDBRANCH  12  13
ENDBRANCH   1  12
TORSDOF 16
ENDMDL
MODEL 9
REMARK VINA RESULT:    -3.061      1.699      4.576
REMARK INTER + INTRA:          -7.751
REMARK INTER:                  -5.262
REMARK INTRA:                  -2.490
REMARK UNBOUND:                -1.828
REMARK SMILES CCCCCCCCCCCCCCCCCC(=O)[O-]
REMARK SMILES IDX 10 1 11 2 12 3 13 4 14 5 15 6 16 7 17 8 18 9 19 10 20 11
REMARK SMILES IDX 9 12 8 13 7 14 6 15 5 16 4 17 3 18 2 19 1 20
REMARK H PARENT
REMARK Flexibility Score: inf
ROOT
ATOM      1  C   UNL     1       1.846  21.150   8.526  1.00  0.00     0.000 C 
ENDROOT
BRANCH   1   2
ATOM      2  C   UNL     1       0.844  20.838   7.402  1.00  0.00     0.000 C 
BRANCH   2   3
ATOM      3  C   UNL     1       1.470  20.041   6.242  1.00  0.00     0.000 C 
BRANCH   3   4
ATOM      4  C   UNL     1       2.932  20.392   5.915  1.00  0.00     0.000 C 
BRANCH   4   5
ATOM      5  C   UNL     1       3.835  19.156   5.792  1.00  0.00     0.000 C 
BRANCH   5   6
ATOM      6  C   UNL     1       4.446  18.788   7.152  1.00  0.00     0.000 C 
BRANCH   6   7
ATOM      7  C   UNL     1       3.806  17.536   7.772  1.00  0.00     0.006 C 
BRANCH   7   8
ATOM      8  C   UNL     1       4.792  16.368   7.901  1.00  0.00     0.053 C 
BRANCH   8   9
ATOM      9  C   UNL     1       4.523  15.338   6.849  1.00  0.00     0.041 C 
ATOM     10  O   UNL     1       5.033  15.453   5.704  1.00  0.00    -0.550 OA
ATOM     11  O   UNL     1       3.660  14.283   7.116  1.00  0.00    -0.550 OA
ENDBRANCH   8   9
ENDBRANCH   7   8
ENDBRANCH   6   7
ENDBRANCH   5   6
ENDBRANCH   4   5
ENDBRANCH   3   4
ENDBRANCH   2   3
ENDBRANCH   1   2
BRANCH   1  12
ATOM     12  C   UNL     1       1.397  20.616   9.899  1.00  0.00     0.000 C 
BRANCH  12  13
ATOM     13  C   UNL     1       2.215  19.432  10.446  1.00  0.00    -0.000 C 
BRANCH  13  14
ATOM     14  C   UNL     1       1.994  19.193  11.950  1.00  0.00    -0.000 C 
BRANCH  14  15
ATOM     15  C   UNL     1       2.773  17.975  12.474  1.00  0.00    -0.000 C 
BRANCH  15  16
ATOM     16  C   UNL     1       3.898  17.541  11.522  1.00  0.00    -0.000 C 
BRANCH  16  17
ATOM     17  C   UNL     1       5.232  18.193  11.919  1.00  0.00    -0.000 C 
BRANCH  17  18
ATOM     18  C   UNL     1       6.342  17.945  10.885  1.00  0.00    -0.000 C 
BRANCH  18  19
ATOM     19  C   UNL     1       6.644  19.186  10.033  1.00  0.00    -0.003 C 
ATOM     20  C   UNL     1       5.826  20.387  10.503  1.00  0.00     0.004 C 
ENDBRANCH  18  19
ENDBRANCH  17  18
ENDBRANCH  16  17
ENDBRANCH  15  16
ENDBRANCH  14  15
ENDBRANCH  13  14
ENDBRANCH  12  13
ENDBRANCH   1  12
TORSDOF 16
ENDMDL
