MODEL 1
REMARK VINA RESULT:    -7.090      0.000      0.000
REMARK INTER + INTRA:          -8.689
REMARK INTER:                  -8.540
REMARK INTRA:                  -0.149
REMARK UNBOUND:                -0.149
REMARK SMILES O=c1c(O)c(-c2ccc(O)c(O)c2)oc2cc(O)cc(O)c12
REMARK SMILES IDX 5 1 3 2 2 3 1 4 22 5 20 6 19 7 17 8 16 9 15 10 14 11 6 12
REMARK SMILES IDX 7 13 8 14 9 15 13 16 11 17 10 18 12 20 4 22 21 24 18 26
REMARK H PARENT 10 19 12 21 4 23 21 25 18 27
REMARK Flexibility Score: inf
ROOT
ATOM      1  C   UNL     1      35.926  77.395  -0.190  1.00  0.00     0.180 A 
ATOM      2  C   UNL     1      35.917  78.684   0.371  1.00  0.00     0.208 A 
ATOM      3  C   UNL     1      36.159  78.830   1.746  1.00  0.00     0.238 A 
ATOM      4  O   UNL     1      36.096  79.980   2.252  1.00  0.00    -0.285 OA
ATOM      5  C   UNL     1      36.423  77.688   2.540  1.00  0.00     0.111 A 
ATOM      6  C   UNL     1      36.721  77.723   3.935  1.00  0.00     0.134 A 
ATOM      7  C   UNL     1      36.836  76.522   4.647  1.00  0.00     0.093 A 
ATOM      8  C   UNL     1      36.729  75.289   4.000  1.00  0.00     0.123 A 
ATOM      9  C   UNL     1      36.498  75.245   2.628  1.00  0.00     0.094 A 
ATOM     10  C   UNL     1      36.342  76.426   1.897  1.00  0.00     0.146 A 
ATOM     11  O   UNL     1      36.112  76.339   0.593  1.00  0.00    -0.452 OA
ENDROOT
BRANCH   1  12
ATOM     12  C   UNL     1      35.705  77.164  -1.636  1.00  0.00     0.025 A 
ATOM     13  C   UNL     1      36.613  77.694  -2.567  1.00  0.00     0.016 A 
ATOM     14  C   UNL     1      36.413  77.505  -3.937  1.00  0.00     0.051 A 
ATOM     15  C   UNL     1      35.294  76.799  -4.396  1.00  0.00     0.157 A 
ATOM     16  C   UNL     1      34.571  76.474  -2.103  1.00  0.00     0.062 A 
ATOM     17  C   UNL     1      34.369  76.287  -3.477  1.00  0.00     0.158 A 
BRANCH  15  18
ATOM     18  O   UNL     1      35.091  76.607  -5.761  1.00  0.00    -0.504 OA
ATOM     19  H   UNL     1      35.487  75.812  -6.249  1.00  0.00     0.293 HD
ENDBRANCH  15  18
BRANCH  17  20
ATOM     20  O   UNL     1      33.249  75.596  -3.938  1.00  0.00    -0.504 OA
ATOM     21  H   UNL     1      32.434  75.457  -3.352  1.00  0.00     0.293 HD
ENDBRANCH  17  20
ENDBRANCH   1  12
BRANCH   2  22
ATOM     22  O   UNL     1      35.633  79.796  -0.428  1.00  0.00    -0.502 OA
ATOM     23  H   UNL     1      34.775  80.327  -0.335  1.00  0.00     0.293 HD
ENDBRANCH   2  22
BRANCH   6  24
ATOM     24  O   UNL     1      36.938  78.899   4.658  1.00  0.00    -0.507 OA
ATOM     25  H   UNL     1      36.408  79.181   5.469  1.00  0.00     0.293 HD
ENDBRANCH   6  24
BRANCH   8  26
ATOM     26  O   UNL     1      36.860  74.099   4.713  1.00  0.00    -0.508 OA
ATOM     27  H   UNL     1      36.070  73.668   5.178  1.00  0.00     0.293 HD
ENDBRANCH   8  26
TORSDOF 6
ENDMDL
MODEL 2
REMARK VINA RESULT:    -6.902      1.142      1.546
REMARK INTER + INTRA:          -8.462
REMARK INTER:                  -8.299
REMARK INTRA:                  -0.163
REMARK UNBOUND:                -0.149
REMARK SMILES O=c1c(O)c(-c2ccc(O)c(O)c2)oc2cc(O)cc(O)c12
REMARK SMILES IDX 5 1 3 2 2 3 1 4 22 5 20 6 19 7 17 8 16 9 15 10 14 11 6 12
REMARK SMILES IDX 7 13 8 14 9 15 13 16 11 17 10 18 12 20 4 22 21 24 18 26
REMARK H PARENT 10 19 12 21 4 23 21 25 18 27
REMARK Flexibility Score: inf
ROOT
ATOM      1  C   UNL     1      36.024  76.852   1.203  1.00  0.00     0.180 A 
ATOM      2  C   UNL     1      36.071  78.070   1.903  1.00  0.00     0.208 A 
ATOM      3  C   UNL     1      36.327  78.054   3.283  1.00  0.00     0.238 A 
ATOM      4  O   UNL     1      36.314  79.143   3.913  1.00  0.00    -0.285 OA
ATOM      5  C   UNL     1      36.548  76.821   3.944  1.00  0.00     0.111 A 
ATOM      6  C   UNL     1      36.856  76.691   5.331  1.00  0.00     0.134 A 
ATOM      7  C   UNL     1      36.926  75.415   5.905  1.00  0.00     0.093 A 
ATOM      8  C   UNL     1      36.765  74.266   5.127  1.00  0.00     0.123 A 
ATOM      9  C   UNL     1      36.525  74.383   3.761  1.00  0.00     0.094 A 
ATOM     10  C   UNL     1      36.412  75.642   3.167  1.00  0.00     0.146 A 
ATOM     11  O   UNL     1      36.171  75.709   1.863  1.00  0.00    -0.452 OA
ENDROOT
BRANCH   1  12
ATOM     12  C   UNL     1      35.784  76.791  -0.257  1.00  0.00     0.025 A 
ATOM     13  C   UNL     1      36.721  77.360  -1.134  1.00  0.00     0.016 A 
ATOM     14  C   UNL     1      36.506  77.333  -2.515  1.00  0.00     0.051 A 
ATOM     15  C   UNL     1      35.344  76.749  -3.036  1.00  0.00     0.157 A 
ATOM     16  C   UNL     1      34.609  76.226  -0.784  1.00  0.00     0.062 A 
ATOM     17  C   UNL     1      34.391  76.199  -2.169  1.00  0.00     0.158 A 
BRANCH  15  18
ATOM     18  O   UNL     1      35.126  76.718  -4.412  1.00  0.00    -0.504 OA
ATOM     19  H   UNL     1      34.888  77.555  -4.930  1.00  0.00     0.293 HD
ENDBRANCH  15  18
BRANCH  17  20
ATOM     20  O   UNL     1      33.229  75.632  -2.689  1.00  0.00    -0.504 OA
ATOM     21  H   UNL     1      32.375  76.167  -2.784  1.00  0.00     0.293 HD
ENDBRANCH  17  20
ENDBRANCH   1  12
BRANCH   2  22
ATOM     22  O   UNL     1      35.827  79.274   1.234  1.00  0.00    -0.502 OA
ATOM     23  H   UNL     1      36.385  80.105   1.391  1.00  0.00     0.293 HD
ENDBRANCH   2  22
BRANCH   6  24
ATOM     24  O   UNL     1      37.125  77.770   6.177  1.00  0.00    -0.507 OA
ATOM     25  H   UNL     1      36.505  78.552   6.324  1.00  0.00     0.293 HD
ENDBRANCH   6  24
BRANCH   8  26
ATOM     26  O   UNL     1      36.853  73.000   5.704  1.00  0.00    -0.508 OA
ATOM     27  H   UNL     1      36.360  72.205   5.315  1.00  0.00     0.293 HD
ENDBRANCH   8  26
TORSDOF 6
ENDMDL
MODEL 3
REMARK VINA RESULT:    -6.505      1.785      3.573
REMARK INTER + INTRA:          -7.985
REMARK INTER:                  -7.765
REMARK INTRA:                  -0.220
REMARK UNBOUND:                -0.149
REMARK SMILES O=c1c(O)c(-c2ccc(O)c(O)c2)oc2cc(O)cc(O)c12
REMARK SMILES IDX 5 1 3 2 2 3 1 4 22 5 20 6 19 7 17 8 16 9 15 10 14 11 6 12
REMARK SMILES IDX 7 13 8 14 9 15 13 16 11 17 10 18 12 20 4 22 21 24 18 26
REMARK H PARENT 10 19 12 21 4 23 21 25 18 27
REMARK Flexibility Score: inf
ROOT
ATOM      1  C   UNL     1      35.761  77.642   0.881  1.00  0.00     0.180 A 
ATOM      2  C   UNL     1      36.234  76.859   1.948  1.00  0.00     0.208 A 
ATOM      3  C   UNL     1      36.610  77.492   3.143  1.00  0.00     0.238 A 
ATOM      4  O   UNL     1      37.083  76.792   4.075  1.00  0.00    -0.285 OA
ATOM      5  C   UNL     1      36.494  78.899   3.262  1.00  0.00     0.111 A 
ATOM      6  C   UNL     1      36.808  79.640   4.440  1.00  0.00     0.134 A 
ATOM      7  C   UNL     1      36.780  81.040   4.403  1.00  0.00     0.093 A 
ATOM      8  C   UNL     1      36.385  81.722   3.249  1.00  0.00     0.123 A 
ATOM      9  C   UNL     1      36.019  81.004   2.113  1.00  0.00     0.094 A 
ATOM     10  C   UNL     1      36.072  79.608   2.108  1.00  0.00     0.146 A 
ATOM     11  O   UNL     1      35.725  78.964   1.001  1.00  0.00    -0.452 OA
ENDROOT
BRANCH   1  12
ATOM     12  C   UNL     1      35.322  77.044  -0.401  1.00  0.00     0.025 A 
ATOM     13  C   UNL     1      36.034  77.331  -1.576  1.00  0.00     0.016 A 
ATOM     14  C   UNL     1      35.626  76.795  -2.801  1.00  0.00     0.051 A 
ATOM     15  C   UNL     1      34.490  75.978  -2.869  1.00  0.00     0.157 A 
ATOM     16  C   UNL     1      34.169  76.241  -0.478  1.00  0.00     0.062 A 
ATOM     17  C   UNL     1      33.758  75.704  -1.706  1.00  0.00     0.158 A 
BRANCH  15  18
ATOM     18  O   UNL     1      34.080  75.439  -4.087  1.00  0.00    -0.504 OA
ATOM     19  H   UNL     1      34.714  74.908  -4.672  1.00  0.00     0.293 HD
ENDBRANCH  15  18
BRANCH  17  20
ATOM     20  O   UNL     1      32.620  74.902  -1.779  1.00  0.00    -0.504 OA
ATOM     21  H   UNL     1      31.857  75.121  -2.408  1.00  0.00     0.293 HD
ENDBRANCH  17  20
ENDBRANCH   1  12
BRANCH   2  22
ATOM     22  O   UNL     1      36.361  75.475   1.801  1.00  0.00    -0.502 OA
ATOM     23  H   UNL     1      36.402  74.845   2.594  1.00  0.00     0.293 HD
ENDBRANCH   2  22
BRANCH   6  24
ATOM     24  O   UNL     1      37.125  79.056   5.669  1.00  0.00    -0.507 OA
ATOM     25  H   UNL     1      38.059  78.971   6.041  1.00  0.00     0.293 HD
ENDBRANCH   6  24
BRANCH   8  26
ATOM     26  O   UNL     1      36.344  83.114   3.226  1.00  0.00    -0.508 OA
ATOM     27  H   UNL     1      36.822  83.647   2.508  1.00  0.00     0.293 HD
ENDBRANCH   8  26
TORSDOF 6
ENDMDL
MODEL 4
REMARK VINA RESULT:    -6.486      1.439      6.773
REMARK INTER + INTRA:          -7.961
REMARK INTER:                  -8.217
REMARK INTRA:                   0.256
REMARK UNBOUND:                -0.149
REMARK SMILES O=c1c(O)c(-c2ccc(O)c(O)c2)oc2cc(O)cc(O)c12
REMARK SMILES IDX 5 1 3 2 2 3 1 4 22 5 20 6 19 7 17 8 16 9 15 10 14 11 6 12
REMARK SMILES IDX 7 13 8 14 9 15 13 16 11 17 10 18 12 20 4 22 21 24 18 26
REMARK H PARENT 10 19 12 21 4 23 21 25 18 27
REMARK Flexibility Score: inf
ROOT
ATOM      1  C   UNL     1      35.781  77.169   0.942  1.00  0.00     0.180 A 
ATOM      2  C   UNL     1      36.240  78.405   0.453  1.00  0.00     0.208 A 
ATOM      3  C   UNL     1      35.827  78.830  -0.819  1.00  0.00     0.238 A 
ATOM      4  O   UNL     1      36.284  79.911  -1.273  1.00  0.00    -0.285 OA
ATOM      5  C   UNL     1      34.947  78.022  -1.581  1.00  0.00     0.111 A 
ATOM      6  C   UNL     1      34.433  78.374  -2.865  1.00  0.00     0.134 A 
ATOM      7  C   UNL     1      33.675  77.440  -3.584  1.00  0.00     0.093 A 
ATOM      8  C   UNL     1      33.359  76.195  -3.036  1.00  0.00     0.123 A 
ATOM      9  C   UNL     1      33.806  75.867  -1.759  1.00  0.00     0.094 A 
ATOM     10  C   UNL     1      34.595  76.762  -1.032  1.00  0.00     0.146 A 
ATOM     11  O   UNL     1      35.010  76.405   0.177  1.00  0.00    -0.452 OA
ENDROOT
BRANCH   1  12
ATOM     12  C   UNL     1      36.153  76.665   2.284  1.00  0.00     0.025 A 
ATOM     13  C   UNL     1      36.163  75.282   2.524  1.00  0.00     0.016 A 
ATOM     14  C   UNL     1      36.490  74.785   3.788  1.00  0.00     0.051 A 
ATOM     15  C   UNL     1      36.796  75.665   4.835  1.00  0.00     0.157 A 
ATOM     16  C   UNL     1      36.440  77.546   3.344  1.00  0.00     0.062 A 
ATOM     17  C   UNL     1      36.766  77.048   4.613  1.00  0.00     0.158 A 
BRANCH  15  18
ATOM     18  O   UNL     1      37.125  75.174   6.097  1.00  0.00    -0.504 OA
ATOM     19  H   UNL     1      37.116  75.771   6.916  1.00  0.00     0.293 HD
ENDBRANCH  15  18
BRANCH  17  20
ATOM     20  O   UNL     1      37.058  77.922   5.659  1.00  0.00    -0.504 OA
ATOM     21  H   UNL     1      37.366  78.871   5.487  1.00  0.00     0.293 HD
ENDBRANCH  17  20
ENDBRANCH   1  12
BRANCH   2  22
ATOM     22  O   UNL     1      37.125  79.175   1.213  1.00  0.00    -0.502 OA
ATOM     23  H   UNL     1      37.014  80.176   1.327  1.00  0.00     0.293 HD
ENDBRANCH   2  22
BRANCH   6  24
ATOM     24  O   UNL     1      34.613  79.624  -3.463  1.00  0.00    -0.507 OA
ATOM     25  H   UNL     1      34.548  80.506  -2.979  1.00  0.00     0.293 HD
ENDBRANCH   6  24
BRANCH   8  26
ATOM     26  O   UNL     1      32.590  75.278  -3.751  1.00  0.00    -0.508 OA
ATOM     27  H   UNL     1      32.704  75.157  -4.751  1.00  0.00     0.293 HD
ENDBRANCH   8  26
TORSDOF 6
ENDMDL
MODEL 5
REMARK VINA RESULT:    -6.328      1.862      7.005
REMARK INTER + INTRA:          -7.771
REMARK INTER:                  -7.926
REMARK INTRA:                   0.155
REMARK UNBOUND:                -0.149
REMARK SMILES O=c1c(O)c(-c2ccc(O)c(O)c2)oc2cc(O)cc(O)c12
REMARK SMILES IDX 5 1 3 2 2 3 1 4 22 5 20 6 19 7 17 8 16 9 15 10 14 11 6 12
REMARK SMILES IDX 7 13 8 14 9 15 13 16 11 17 10 18 12 20 4 22 21 24 18 26
REMARK H PARENT 10 19 12 21 4 23 21 25 18 27
REMARK Flexibility Score: inf
ROOT
ATOM      1  C   UNL     1      35.350  77.984  -0.655  1.00  0.00     0.180 A 
ATOM      2  C   UNL     1      34.528  79.116  -0.794  1.00  0.00     0.208 A 
ATOM      3  C   UNL     1      34.086  79.485  -2.074  1.00  0.00     0.238 A 
ATOM      4  O   UNL     1      33.396  80.530  -2.197  1.00  0.00    -0.285 OA
ATOM      5  C   UNL     1      34.457  78.708  -3.199  1.00  0.00     0.111 A 
ATOM      6  C   UNL     1      34.033  78.967  -4.536  1.00  0.00     0.134 A 
ATOM      7  C   UNL     1      34.567  78.211  -5.588  1.00  0.00     0.093 A 
ATOM      8  C   UNL     1      35.459  77.164  -5.341  1.00  0.00     0.123 A 
ATOM      9  C   UNL     1      35.831  76.866  -4.033  1.00  0.00     0.094 A 
ATOM     10  C   UNL     1      35.344  77.626  -2.967  1.00  0.00     0.146 A 
ATOM     11  O   UNL     1      35.734  77.315  -1.736  1.00  0.00    -0.452 OA
ENDROOT
BRANCH   1  12
ATOM     12  C   UNL     1      35.834  77.518   0.664  1.00  0.00     0.025 A 
ATOM     13  C   UNL     1      35.812  76.147   0.963  1.00  0.00     0.016 A 
ATOM     14  C   UNL     1      36.245  75.686   2.209  1.00  0.00     0.051 A 
ATOM     15  C   UNL     1      36.690  76.593   3.180  1.00  0.00     0.157 A 
ATOM     16  C   UNL     1      36.262  78.427   1.650  1.00  0.00     0.062 A 
ATOM     17  C   UNL     1      36.694  77.966   2.901  1.00  0.00     0.158 A 
BRANCH  15  18
ATOM     18  O   UNL     1      37.125  76.139   4.424  1.00  0.00    -0.504 OA
ATOM     19  H   UNL     1      37.709  75.316   4.513  1.00  0.00     0.293 HD
ENDBRANCH  15  18
BRANCH  17  20
ATOM     20  O   UNL     1      37.125  78.867   3.874  1.00  0.00    -0.504 OA
ATOM     21  H   UNL     1      36.488  79.246   4.564  1.00  0.00     0.293 HD
ENDBRANCH  17  20
ENDBRANCH   1  12
BRANCH   2  22
ATOM     22  O   UNL     1      34.192  79.881   0.327  1.00  0.00    -0.502 OA
ATOM     23  H   UNL     1      33.716  79.488   1.131  1.00  0.00     0.293 HD
ENDBRANCH   2  22
BRANCH   6  24
ATOM     24  O   UNL     1      33.079  79.927  -4.881  1.00  0.00    -0.507 OA
ATOM     25  H   UNL     1      32.092  79.744  -4.989  1.00  0.00     0.293 HD
ENDBRANCH   6  24
BRANCH   8  26
ATOM     26  O   UNL     1      35.973  76.407  -6.392  1.00  0.00    -0.508 OA
ATOM     27  H   UNL     1      36.845  75.899  -6.303  1.00  0.00     0.293 HD
ENDBRANCH   8  26
TORSDOF 6
ENDMDL
MODEL 6
REMARK VINA RESULT:    -6.167      2.101      7.171
REMARK INTER + INTRA:          -7.578
REMARK INTER:                  -7.841
REMARK INTRA:                   0.263
REMARK UNBOUND:                -0.149
REMARK SMILES O=c1c(O)c(-c2ccc(O)c(O)c2)oc2cc(O)cc(O)c12
REMARK SMILES IDX 5 1 3 2 2 3 1 4 22 5 20 6 19 7 17 8 16 9 15 10 14 11 6 12
REMARK SMILES IDX 7 13 8 14 9 15 13 16 11 17 10 18 12 20 4 22 21 24 18 26
REMARK H PARENT 10 19 12 21 4 23 21 25 18 27
REMARK Flexibility Score: inf
ROOT
ATOM      1  C   UNL     1      36.717  76.688   3.669  1.00  0.00     0.180 A 
ATOM      2  C   UNL     1      36.850  78.063   3.928  1.00  0.00     0.208 A 
ATOM      3  C   UNL     1      36.821  78.966   2.854  1.00  0.00     0.238 A 
ATOM      4  O   UNL     1      36.995  80.190   3.087  1.00  0.00    -0.285 OA
ATOM      5  C   UNL     1      36.643  78.484   1.534  1.00  0.00     0.111 A 
ATOM      6  C   UNL     1      36.558  79.312   0.374  1.00  0.00     0.134 A 
ATOM      7  C   UNL     1      36.513  78.720  -0.895  1.00  0.00     0.093 A 
ATOM      8  C   UNL     1      36.484  77.331  -1.040  1.00  0.00     0.123 A 
ATOM      9  C   UNL     1      36.506  76.516   0.089  1.00  0.00     0.094 A 
ATOM     10  C   UNL     1      36.588  77.076   1.366  1.00  0.00     0.146 A 
ATOM     11  O   UNL     1      36.618  76.263   2.414  1.00  0.00    -0.452 OA
ENDROOT
BRANCH   1  12
ATOM     12  C   UNL     1      36.713  75.679   4.752  1.00  0.00     0.025 A 
ATOM     13  C   UNL     1      37.113  74.362   4.470  1.00  0.00     0.016 A 
ATOM     14  C   UNL     1      37.097  73.388   5.472  1.00  0.00     0.051 A 
ATOM     15  C   UNL     1      36.665  73.712   6.765  1.00  0.00     0.157 A 
ATOM     16  C   UNL     1      36.259  75.994   6.046  1.00  0.00     0.062 A 
ATOM     17  C   UNL     1      36.241  75.017   7.051  1.00  0.00     0.158 A 
BRANCH  15  18
ATOM     18  O   UNL     1      36.649  72.745   7.767  1.00  0.00    -0.504 OA
ATOM     19  H   UNL     1      37.220  71.910   7.707  1.00  0.00     0.293 HD
ENDBRANCH  15  18
BRANCH  17  20
ATOM     20  O   UNL     1      35.799  75.333   8.334  1.00  0.00    -0.504 OA
ATOM     21  H   UNL     1      36.447  75.586   9.070  1.00  0.00     0.293 HD
ENDBRANCH  17  20
ENDBRANCH   1  12
BRANCH   2  22
ATOM     22  O   UNL     1      37.046  78.515   5.237  1.00  0.00    -0.502 OA
ATOM     23  H   UNL     1      36.632  79.372   5.584  1.00  0.00     0.293 HD
ENDBRANCH   2  22
BRANCH   6  24
ATOM     24  O   UNL     1      36.489  80.707   0.414  1.00  0.00    -0.507 OA
ATOM     25  H   UNL     1      35.894  81.234   1.036  1.00  0.00     0.293 HD
ENDBRANCH   6  24
BRANCH   8  26
ATOM     26  O   UNL     1      36.423  76.751  -2.306  1.00  0.00    -0.508 OA
ATOM     27  H   UNL     1      36.942  77.130  -3.089  1.00  0.00     0.293 HD
ENDBRANCH   8  26
TORSDOF 6
ENDMDL
MODEL 7
REMARK VINA RESULT:    -5.929      2.574      3.901
REMARK INTER + INTRA:          -7.291
REMARK INTER:                  -6.987
REMARK INTRA:                  -0.305
REMARK UNBOUND:                -0.149
REMARK SMILES O=c1c(O)c(-c2ccc(O)c(O)c2)oc2cc(O)cc(O)c12
REMARK SMILES IDX 5 1 3 2 2 3 1 4 22 5 20 6 19 7 17 8 16 9 15 10 14 11 6 12
REMARK SMILES IDX 7 13 8 14 9 15 13 16 11 17 10 18 12 20 4 22 21 24 18 26
REMARK H PARENT 10 19 12 21 4 23 21 25 18 27
REMARK Flexibility Score: inf
ROOT
ATOM      1  C   UNL     1      34.639  78.639  -2.021  1.00  0.00     0.180 A 
ATOM      2  C   UNL     1      33.933  79.842  -2.196  1.00  0.00     0.208 A 
ATOM      3  C   UNL     1      34.027  80.837  -1.210  1.00  0.00     0.238 A 
ATOM      4  O   UNL     1      33.349  81.888  -1.347  1.00  0.00    -0.285 OA
ATOM      5  C   UNL     1      34.839  80.624  -0.070  1.00  0.00     0.111 A 
ATOM      6  C   UNL     1      35.039  81.580   0.971  1.00  0.00     0.134 A 
ATOM      7  C   UNL     1      35.759  81.213   2.116  1.00  0.00     0.093 A 
ATOM      8  C   UNL     1      36.340  79.947   2.225  1.00  0.00     0.123 A 
ATOM      9  C   UNL     1      36.201  79.029   1.188  1.00  0.00     0.094 A 
ATOM     10  C   UNL     1      35.457  79.353   0.050  1.00  0.00     0.146 A 
ATOM     11  O   UNL     1      35.340  78.444  -0.910  1.00  0.00    -0.452 OA
ENDROOT
BRANCH   1  12
ATOM     12  C   UNL     1      34.610  77.554  -3.029  1.00  0.00     0.025 A 
ATOM     13  C   UNL     1      33.834  76.409  -2.787  1.00  0.00     0.016 A 
ATOM     14  C   UNL     1      33.807  75.363  -3.714  1.00  0.00     0.051 A 
ATOM     15  C   UNL     1      34.568  75.442  -4.888  1.00  0.00     0.157 A 
ATOM     16  C   UNL     1      35.389  77.618  -4.199  1.00  0.00     0.062 A 
ATOM     17  C   UNL     1      35.364  76.569  -5.128  1.00  0.00     0.158 A 
BRANCH  15  18
ATOM     18  O   UNL     1      34.543  74.403  -5.816  1.00  0.00    -0.504 OA
ATOM     19  H   UNL     1      34.061  73.532  -5.624  1.00  0.00     0.293 HD
ENDBRANCH  15  18
BRANCH  17  20
ATOM     20  O   UNL     1      36.130  76.639  -6.290  1.00  0.00    -0.504 OA
ATOM     21  H   UNL     1      36.742  75.881  -6.567  1.00  0.00     0.293 HD
ENDBRANCH  17  20
ENDBRANCH   1  12
BRANCH   2  22
ATOM     22  O   UNL     1      33.119  80.021  -3.319  1.00  0.00    -0.502 OA
ATOM     23  H   UNL     1      32.719  79.243  -3.830  1.00  0.00     0.293 HD
ENDBRANCH   2  22
BRANCH   6  24
ATOM     24  O   UNL     1      34.580  82.898   0.919  1.00  0.00    -0.507 OA
ATOM     25  H   UNL     1      33.719  83.189   0.481  1.00  0.00     0.293 HD
ENDBRANCH   6  24
BRANCH   8  26
ATOM     26  O   UNL     1      37.068  79.597   3.361  1.00  0.00    -0.508 OA
ATOM     27  H   UNL     1      36.714  79.774   4.293  1.00  0.00     0.293 HD
ENDBRANCH   8  26
TORSDOF 6
ENDMDL
MODEL 8
REMARK VINA RESULT:    -5.624      3.334      4.993
REMARK INTER + INTRA:          -6.923
REMARK INTER:                  -6.641
REMARK INTRA:                  -0.282
REMARK UNBOUND:                -0.149
REMARK SMILES O=c1c(O)c(-c2ccc(O)c(O)c2)oc2cc(O)cc(O)c12
REMARK SMILES IDX 5 1 3 2 2 3 1 4 22 5 20 6 19 7 17 8 16 9 15 10 14 11 6 12
REMARK SMILES IDX 7 13 8 14 9 15 13 16 11 17 10 18 12 20 4 22 21 24 18 26
REMARK H PARENT 10 19 12 21 4 23 21 25 18 27
REMARK Flexibility Score: inf
ROOT
ATOM      1  C   UNL     1      34.658  79.079  -3.112  1.00  0.00     0.180 A 
ATOM      2  C   UNL     1      33.874  77.922  -3.259  1.00  0.00     0.208 A 
ATOM      3  C   UNL     1      33.840  76.985  -2.214  1.00  0.00     0.238 A 
ATOM      4  O   UNL     1      33.180  75.925  -2.374  1.00  0.00    -0.285 OA
ATOM      5  C   UNL     1      34.577  77.224  -1.029  1.00  0.00     0.111 A 
ATOM      6  C   UNL     1      34.583  76.362   0.108  1.00  0.00     0.134 A 
ATOM      7  C   UNL     1      35.452  76.632   1.174  1.00  0.00     0.093 A 
ATOM      8  C   UNL     1      36.264  77.769   1.171  1.00  0.00     0.123 A 
ATOM      9  C   UNL     1      36.220  78.647   0.091  1.00  0.00     0.094 A 
ATOM     10  C   UNL     1      35.391  78.385  -1.003  1.00  0.00     0.146 A 
ATOM     11  O   UNL     1      35.389  79.243  -2.016  1.00  0.00    -0.452 OA
ENDROOT
BRANCH   1  12
ATOM     12  C   UNL     1      34.723  80.125  -4.159  1.00  0.00     0.025 A 
ATOM     13  C   UNL     1      35.888  80.255  -4.932  1.00  0.00     0.016 A 
ATOM     14  C   UNL     1      35.981  81.247  -5.912  1.00  0.00     0.051 A 
ATOM     15  C   UNL     1      34.916  82.133  -6.120  1.00  0.00     0.157 A 
ATOM     16  C   UNL     1      33.665  81.030  -4.358  1.00  0.00     0.062 A 
ATOM     17  C   UNL     1      33.758  82.027  -5.339  1.00  0.00     0.158 A 
BRANCH  15  18
ATOM     18  O   UNL     1      35.003  83.123  -7.097  1.00  0.00    -0.504 OA
ATOM     19  H   UNL     1      34.865  82.913  -8.079  1.00  0.00     0.293 HD
ENDBRANCH  15  18
BRANCH  17  20
ATOM     20  O   UNL     1      32.706  82.919  -5.540  1.00  0.00    -0.504 OA
ATOM     21  H   UNL     1      32.434  83.218  -6.469  1.00  0.00     0.293 HD
ENDBRANCH  17  20
ENDBRANCH   1  12
BRANCH   2  22
ATOM     22  O   UNL     1      33.172  77.695  -4.447  1.00  0.00    -0.502 OA
ATOM     23  H   UNL     1      32.918  78.445  -5.079  1.00  0.00     0.293 HD
ENDBRANCH   2  22
BRANCH   6  24
ATOM     24  O   UNL     1      33.746  75.253   0.252  1.00  0.00    -0.507 OA
ATOM     25  H   UNL     1      33.341  74.736  -0.514  1.00  0.00     0.293 HD
ENDBRANCH   6  24
BRANCH   8  26
ATOM     26  O   UNL     1      37.113  78.038   2.242  1.00  0.00    -0.508 OA
ATOM     27  H   UNL     1      37.965  78.573   2.123  1.00  0.00     0.293 HD
ENDBRANCH   8  26
TORSDOF 6
ENDMDL
MODEL 9
REMARK VINA RESULT:    -5.466      1.705      7.192
REMARK INTER + INTRA:          -6.733
REMARK INTER:                  -6.839
REMARK INTRA:                   0.105
REMARK UNBOUND:                -0.149
REMARK SMILES O=c1c(O)c(-c2ccc(O)c(O)c2)oc2cc(O)cc(O)c12
REMARK SMILES IDX 5 1 3 2 2 3 1 4 22 5 20 6 19 7 17 8 16 9 15 10 14 11 6 12
REMARK SMILES IDX 7 13 8 14 9 15 13 16 11 17 10 18 12 20 4 22 21 24 18 26
REMARK H PARENT 10 19 12 21 4 23 21 25 18 27
REMARK Flexibility Score: inf
ROOT
ATOM      1  C   UNL     1      35.537  77.195  -0.047  1.00  0.00     0.180 A 
ATOM      2  C   UNL     1      34.443  76.534  -0.632  1.00  0.00     0.208 A 
ATOM      3  C   UNL     1      34.103  76.827  -1.962  1.00  0.00     0.238 A 
ATOM      4  O   UNL     1      33.090  76.273  -2.463  1.00  0.00    -0.285 OA
ATOM      5  C   UNL     1      34.870  77.764  -2.696  1.00  0.00     0.111 A 
ATOM      6  C   UNL     1      34.640  78.106  -4.062  1.00  0.00     0.134 A 
ATOM      7  C   UNL     1      35.379  79.142  -4.648  1.00  0.00     0.093 A 
ATOM      8  C   UNL     1      36.384  79.801  -3.936  1.00  0.00     0.123 A 
ATOM      9  C   UNL     1      36.656  79.433  -2.621  1.00  0.00     0.094 A 
ATOM     10  C   UNL     1      35.911  78.429  -1.998  1.00  0.00     0.146 A 
ATOM     11  O   UNL     1      36.196  78.116  -0.740  1.00  0.00    -0.452 OA
ENDROOT
BRANCH   1  12
ATOM     12  C   UNL     1      35.972  76.921   1.342  1.00  0.00     0.025 A 
ATOM     13  C   UNL     1      36.042  75.593   1.794  1.00  0.00     0.016 A 
ATOM     14  C   UNL     1      36.430  75.312   3.107  1.00  0.00     0.051 A 
ATOM     15  C   UNL     1      36.736  76.355   3.991  1.00  0.00     0.157 A 
ATOM     16  C   UNL     1      36.259  77.965   2.240  1.00  0.00     0.062 A 
ATOM     17  C   UNL     1      36.646  77.684   3.558  1.00  0.00     0.158 A 
BRANCH  15  18
ATOM     18  O   UNL     1      37.125  76.079   5.300  1.00  0.00    -0.504 OA
ATOM     19  H   UNL     1      37.456  76.809   5.920  1.00  0.00     0.293 HD
ENDBRANCH  15  18
BRANCH  17  20
ATOM     20  O   UNL     1      36.937  78.720   4.443  1.00  0.00    -0.504 OA
ATOM     21  H   UNL     1      36.414  78.847   5.301  1.00  0.00     0.293 HD
ENDBRANCH  17  20
ENDBRANCH   1  12
BRANCH   2  22
ATOM     22  O   UNL     1      33.686  75.629   0.118  1.00  0.00    -0.502 OA
ATOM     23  H   UNL     1      34.033  75.206   0.970  1.00  0.00     0.293 HD
ENDBRANCH   2  22
BRANCH   6  24
ATOM     24  O   UNL     1      33.724  77.449  -4.888  1.00  0.00    -0.507 OA
ATOM     25  H   UNL     1      33.853  76.521  -5.263  1.00  0.00     0.293 HD
ENDBRANCH   6  24
BRANCH   8  26
ATOM     26  O   UNL     1      37.125  80.820  -4.532  1.00  0.00    -0.508 OA
ATOM     27  H   UNL     1      36.677  81.623  -4.957  1.00  0.00     0.293 HD
ENDBRANCH   8  26
TORSDOF 6
ENDMDL
