MODEL 1
REMARK VINA RESULT:    -6.414      0.000      0.000
REMARK INTER + INTRA:          -6.976
REMARK INTER:                  -6.976
REMARK INTRA:                   0.000
REMARK UNBOUND:                 0.000
REMARK SMILES Cc1cc(O)c2c(c1)C(=O)c1cc(O)cc(O)c1C2=O
REMARK SMILES IDX 1 1 2 2 8 3 7 4 6 5 4 6 3 7 19 8 20 9 18 10 11 11 9 12 10 13
REMARK SMILES IDX 12 14 13 15 15 16 16 17 5 18 17 20 14 22
REMARK H PARENT 5 19 17 21 14 23
REMARK Flexibility Score: inf
ROOT
ATOM      1  C   UNL     1       1.744  29.353  24.231  1.00  0.00     0.044 C 
ATOM      2  C   UNL     1       1.256  28.185  25.037  1.00  0.00    -0.047 A 
ATOM      3  C   UNL     1      -0.070  28.138  25.478  1.00  0.00     0.016 A 
ATOM      4  C   UNL     1      -0.550  27.027  26.193  1.00  0.00     0.038 A 
ATOM      5  C   UNL     1       0.304  25.929  26.448  1.00  0.00     0.076 A 
ATOM      6  C   UNL     1       1.666  26.011  26.050  1.00  0.00     0.127 A 
ATOM      7  C   UNL     1       2.112  27.115  25.317  1.00  0.00     0.050 A 
ATOM      8  C   UNL     1      -0.280  24.707  27.069  1.00  0.00     0.201 C 
ATOM      9  O   UNL     1       0.297  23.594  26.941  1.00  0.00    -0.288 OA
ATOM     10  C   UNL     1      -1.604  24.770  27.741  1.00  0.00     0.076 A 
ATOM     11  C   UNL     1      -2.426  25.897  27.533  1.00  0.00     0.041 A 
ATOM     12  C   UNL     1      -1.949  27.011  26.683  1.00  0.00     0.194 C 
ATOM     13  O   UNL     1      -2.730  27.959  26.393  1.00  0.00    -0.289 OA
ATOM     14  C   UNL     1      -3.698  25.955  28.131  1.00  0.00     0.059 A 
ATOM     15  C   UNL     1      -4.151  24.906  28.939  1.00  0.00     0.120 A 
ATOM     16  C   UNL     1      -3.336  23.794  29.153  1.00  0.00     0.093 A 
ATOM     17  C   UNL     1      -2.067  23.716  28.564  1.00  0.00     0.131 A 
ENDROOT
BRANCH   6  18
ATOM     18  O   UNL     1       2.617  25.044  26.386  1.00  0.00    -0.507 OA
ATOM     19  H   UNL     1       2.384  24.118  26.716  1.00  0.00     0.293 HD
ENDBRANCH   6  18
BRANCH  17  20
ATOM     20  O   UNL     1      -1.269  22.599  28.807  1.00  0.00    -0.507 OA
ATOM     21  H   UNL     1      -1.623  21.656  28.694  1.00  0.00     0.293 HD
ENDBRANCH  17  20
BRANCH  15  22
ATOM     22  O   UNL     1      -5.408  24.960  29.534  1.00  0.00    -0.508 OA
ATOM     23  H   UNL     1      -5.539  24.748  30.517  1.00  0.00     0.293 HD
ENDBRANCH  15  22
TORSDOF 3
ENDMDL
MODEL 2
REMARK VINA RESULT:    -6.359      2.959      5.519
REMARK INTER + INTRA:          -6.916
REMARK INTER:                  -6.916
REMARK INTRA:                   0.000
REMARK UNBOUND:                 0.000
REMARK SMILES Cc1cc(O)c2c(c1)C(=O)c1cc(O)cc(O)c1C2=O
REMARK SMILES IDX 1 1 2 2 8 3 7 4 6 5 4 6 3 7 19 8 20 9 18 10 11 11 9 12 10 13
REMARK SMILES IDX 12 14 13 15 15 16 16 17 5 18 17 20 14 22
REMARK H PARENT 5 19 17 21 14 23
REMARK Flexibility Score: inf
ROOT
ATOM      1  C   UNL     1      -4.591  25.983  27.860  1.00  0.00     0.044 C 
ATOM      2  C   UNL     1      -3.139  25.612  27.771  1.00  0.00    -0.047 A 
ATOM      3  C   UNL     1      -2.179  26.353  28.467  1.00  0.00     0.016 A 
ATOM      4  C   UNL     1      -0.823  25.986  28.429  1.00  0.00     0.038 A 
ATOM      5  C   UNL     1      -0.421  24.841  27.703  1.00  0.00     0.076 A 
ATOM      6  C   UNL     1      -1.394  24.130  26.949  1.00  0.00     0.127 A 
ATOM      7  C   UNL     1      -2.740  24.499  27.025  1.00  0.00     0.050 A 
ATOM      8  C   UNL     1       0.996  24.393  27.813  1.00  0.00     0.201 C 
ATOM      9  O   UNL     1       1.306  23.201  27.549  1.00  0.00    -0.288 OA
ATOM     10  C   UNL     1       2.031  25.316  28.346  1.00  0.00     0.076 A 
ATOM     11  C   UNL     1       1.626  26.490  29.015  1.00  0.00     0.041 A 
ATOM     12  C   UNL     1       0.185  26.804  29.145  1.00  0.00     0.194 C 
ATOM     13  O   UNL     1      -0.183  27.784  29.851  1.00  0.00    -0.289 OA
ATOM     14  C   UNL     1       2.593  27.354  29.559  1.00  0.00     0.059 A 
ATOM     15  C   UNL     1       3.955  27.063  29.435  1.00  0.00     0.120 A 
ATOM     16  C   UNL     1       4.360  25.908  28.766  1.00  0.00     0.093 A 
ATOM     17  C   UNL     1       3.412  25.033  28.220  1.00  0.00     0.131 A 
ENDROOT
BRANCH   6  18
ATOM     18  O   UNL     1      -1.070  23.078  26.088  1.00  0.00    -0.507 OA
ATOM     19  H   UNL     1      -1.682  22.296  25.901  1.00  0.00     0.293 HD
ENDBRANCH   6  18
BRANCH  17  20
ATOM     20  O   UNL     1       3.844  23.891  27.545  1.00  0.00    -0.507 OA
ATOM     21  H   UNL     1       3.277  23.446  26.833  1.00  0.00     0.293 HD
ENDBRANCH  17  20
BRANCH  15  22
ATOM     22  O   UNL     1       4.916  27.917  29.971  1.00  0.00    -0.508 OA
ATOM     23  H   UNL     1       4.871  28.920  29.831  1.00  0.00     0.293 HD
ENDBRANCH  15  22
TORSDOF 3
ENDMDL
MODEL 3
REMARK VINA RESULT:    -6.334      3.038      3.267
REMARK INTER + INTRA:          -6.889
REMARK INTER:                  -6.889
REMARK INTRA:                   0.000
REMARK UNBOUND:                 0.000
REMARK SMILES Cc1cc(O)c2c(c1)C(=O)c1cc(O)cc(O)c1C2=O
REMARK SMILES IDX 1 1 2 2 8 3 7 4 6 5 4 6 3 7 19 8 20 9 18 10 11 11 9 12 10 13
REMARK SMILES IDX 12 14 13 15 15 16 16 17 5 18 17 20 14 22
REMARK H PARENT 5 19 17 21 14 23
REMARK Flexibility Score: inf
ROOT
ATOM      1  C   UNL     1       4.000  26.383  27.748  1.00  0.00     0.044 C 
ATOM      2  C   UNL     1       2.750  25.634  28.110  1.00  0.00    -0.047 A 
ATOM      3  C   UNL     1       1.721  26.276  28.804  1.00  0.00     0.016 A 
ATOM      4  C   UNL     1       0.527  25.598  29.107  1.00  0.00     0.038 A 
ATOM      5  C   UNL     1       0.349  24.260  28.683  1.00  0.00     0.076 A 
ATOM      6  C   UNL     1       1.424  23.596  28.033  1.00  0.00     0.127 A 
ATOM      7  C   UNL     1       2.590  24.301  27.720  1.00  0.00     0.050 A 
ATOM      8  C   UNL     1      -0.985  23.626  28.883  1.00  0.00     0.201 C 
ATOM      9  O   UNL     1      -1.327  22.636  28.183  1.00  0.00    -0.288 OA
ATOM     10  C   UNL     1      -1.965  24.227  29.825  1.00  0.00     0.076 A 
ATOM     11  C   UNL     1      -1.749  25.540  30.294  1.00  0.00     0.041 A 
ATOM     12  C   UNL     1      -0.539  26.284  29.874  1.00  0.00     0.194 C 
ATOM     13  O   UNL     1      -0.409  27.499  30.189  1.00  0.00    -0.289 OA
ATOM     14  C   UNL     1      -2.686  26.138  31.156  1.00  0.00     0.059 A 
ATOM     15  C   UNL     1      -3.828  25.437  31.558  1.00  0.00     0.120 A 
ATOM     16  C   UNL     1      -4.040  24.136  31.103  1.00  0.00     0.093 A 
ATOM     17  C   UNL     1      -3.119  23.524  30.242  1.00  0.00     0.131 A 
ENDROOT
BRANCH   6  18
ATOM     18  O   UNL     1       1.395  22.238  27.709  1.00  0.00    -0.507 OA
ATOM     19  H   UNL     1       0.676  21.810  27.143  1.00  0.00     0.293 HD
ENDBRANCH   6  18
BRANCH  17  20
ATOM     20  O   UNL     1      -3.349  22.217  29.813  1.00  0.00    -0.507 OA
ATOM     21  H   UNL     1      -3.427  21.985  28.830  1.00  0.00     0.293 HD
ENDBRANCH  17  20
BRANCH  15  22
ATOM     22  O   UNL     1      -4.758  26.025  32.412  1.00  0.00    -0.508 OA
ATOM     23  H   UNL     1      -4.712  27.009  32.649  1.00  0.00     0.293 HD
ENDBRANCH  15  22
TORSDOF 3
ENDMDL
MODEL 4
REMARK VINA RESULT:    -6.177      2.768      3.493
REMARK INTER + INTRA:          -6.718
REMARK INTER:                  -6.718
REMARK INTRA:                   0.000
REMARK UNBOUND:                 0.000
REMARK SMILES Cc1cc(O)c2c(c1)C(=O)c1cc(O)cc(O)c1C2=O
REMARK SMILES IDX 1 1 2 2 8 3 7 4 6 5 4 6 3 7 19 8 20 9 18 10 11 11 9 12 10 13
REMARK SMILES IDX 12 14 13 15 15 16 16 17 5 18 17 20 14 22
REMARK H PARENT 5 19 17 21 14 23
REMARK Flexibility Score: inf
ROOT
ATOM      1  C   UNL     1       3.508  29.397  30.481  1.00  0.00     0.044 C 
ATOM      2  C   UNL     1       2.798  28.409  29.603  1.00  0.00    -0.047 A 
ATOM      3  C   UNL     1       1.759  27.628  30.117  1.00  0.00     0.016 A 
ATOM      4  C   UNL     1       1.056  26.733  29.291  1.00  0.00     0.038 A 
ATOM      5  C   UNL     1       1.381  26.638  27.918  1.00  0.00     0.076 A 
ATOM      6  C   UNL     1       2.478  27.389  27.417  1.00  0.00     0.127 A 
ATOM      7  C   UNL     1       3.143  28.292  28.253  1.00  0.00     0.050 A 
ATOM      8  C   UNL     1       0.515  25.798  27.043  1.00  0.00     0.201 C 
ATOM      9  O   UNL     1       0.491  25.995  25.799  1.00  0.00    -0.288 OA
ATOM     10  C   UNL     1      -0.412  24.803  27.642  1.00  0.00     0.076 A 
ATOM     11  C   UNL     1      -0.684  24.864  29.025  1.00  0.00     0.041 A 
ATOM     12  C   UNL     1      -0.019  25.888  29.863  1.00  0.00     0.194 C 
ATOM     13  O   UNL     1      -0.356  26.026  31.071  1.00  0.00    -0.289 OA
ATOM     14  C   UNL     1      -1.589  23.955  29.601  1.00  0.00     0.059 A 
ATOM     15  C   UNL     1      -2.216  22.983  28.814  1.00  0.00     0.120 A 
ATOM     16  C   UNL     1      -1.942  22.914  27.448  1.00  0.00     0.093 A 
ATOM     17  C   UNL     1      -1.046  23.813  26.855  1.00  0.00     0.131 A 
ENDROOT
BRANCH   6  18
ATOM     18  O   UNL     1       2.964  27.251  26.115  1.00  0.00    -0.507 OA
ATOM     19  H   UNL     1       3.732  26.644  25.862  1.00  0.00     0.293 HD
ENDBRANCH   6  18
BRANCH  17  20
ATOM     20  O   UNL     1      -0.781  23.713  25.489  1.00  0.00    -0.507 OA
ATOM     21  H   UNL     1      -0.673  22.816  25.032  1.00  0.00     0.293 HD
ENDBRANCH  17  20
BRANCH  15  22
ATOM     22  O   UNL     1      -3.111  22.079  29.380  1.00  0.00    -0.508 OA
ATOM     23  H   UNL     1      -2.838  21.470  30.143  1.00  0.00     0.293 HD
ENDBRANCH  15  22
TORSDOF 3
ENDMDL
MODEL 5
REMARK VINA RESULT:    -6.155      3.320      4.885
REMARK INTER + INTRA:          -6.695
REMARK INTER:                  -6.695
REMARK INTRA:                   0.000
REMARK UNBOUND:                 0.000
REMARK SMILES Cc1cc(O)c2c(c1)C(=O)c1cc(O)cc(O)c1C2=O
REMARK SMILES IDX 1 1 2 2 8 3 7 4 6 5 4 6 3 7 19 8 20 9 18 10 11 11 9 12 10 13
REMARK SMILES IDX 12 14 13 15 15 16 16 17 5 18 17 20 14 22
REMARK H PARENT 5 19 17 21 14 23
REMARK Flexibility Score: inf
ROOT
ATOM      1  C   UNL     1       5.961  27.881  30.921  1.00  0.00     0.044 C 
ATOM      2  C   UNL     1       4.872  27.429  29.993  1.00  0.00    -0.047 A 
ATOM      3  C   UNL     1       3.928  28.343  29.516  1.00  0.00     0.016 A 
ATOM      4  C   UNL     1       2.932  27.940  28.610  1.00  0.00     0.038 A 
ATOM      5  C   UNL     1       2.895  26.602  28.150  1.00  0.00     0.076 A 
ATOM      6  C   UNL     1       3.820  25.666  28.688  1.00  0.00     0.127 A 
ATOM      7  C   UNL     1       4.817  26.098  29.567  1.00  0.00     0.050 A 
ATOM      8  C   UNL     1       1.927  26.250  27.074  1.00  0.00     0.201 C 
ATOM      9  O   UNL     1       2.121  25.233  26.356  1.00  0.00    -0.288 OA
ATOM     10  C   UNL     1       0.790  27.156  26.766  1.00  0.00     0.076 A 
ATOM     11  C   UNL     1       0.801  28.470  27.279  1.00  0.00     0.041 A 
ATOM     12  C   UNL     1       1.918  28.915  28.142  1.00  0.00     0.194 C 
ATOM     13  O   UNL     1       1.995  30.124  28.496  1.00  0.00    -0.289 OA
ATOM     14  C   UNL     1      -0.248  29.352  26.964  1.00  0.00     0.059 A 
ATOM     15  C   UNL     1      -1.307  28.934  26.152  1.00  0.00     0.120 A 
ATOM     16  C   UNL     1      -1.326  27.633  25.651  1.00  0.00     0.093 A 
ATOM     17  C   UNL     1      -0.289  26.739  25.951  1.00  0.00     0.131 A 
ENDROOT
BRANCH   6  18
ATOM     18  O   UNL     1       3.768  24.299  28.407  1.00  0.00    -0.507 OA
ATOM     19  H   UNL     1       4.094  23.889  27.542  1.00  0.00     0.293 HD
ENDBRANCH   6  18
BRANCH  17  20
ATOM     20  O   UNL     1      -0.339  25.440  25.447  1.00  0.00    -0.507 OA
ATOM     21  H   UNL     1       0.016  24.650  25.973  1.00  0.00     0.293 HD
ENDBRANCH  17  20
BRANCH  15  22
ATOM     22  O   UNL     1      -2.349  29.804  25.839  1.00  0.00    -0.508 OA
ATOM     23  H   UNL     1      -3.091  30.003  26.501  1.00  0.00     0.293 HD
ENDBRANCH  15  22
TORSDOF 3
ENDMDL
MODEL 6
REMARK VINA RESULT:    -6.022      2.589      6.110
REMARK INTER + INTRA:          -6.550
REMARK INTER:                  -6.550
REMARK INTRA:                   0.000
REMARK UNBOUND:                 0.000
REMARK SMILES Cc1cc(O)c2c(c1)C(=O)c1cc(O)cc(O)c1C2=O
REMARK SMILES IDX 1 1 2 2 8 3 7 4 6 5 4 6 3 7 19 8 20 9 18 10 11 11 9 12 10 13
REMARK SMILES IDX 12 14 13 15 15 16 16 17 5 18 17 20 14 22
REMARK H PARENT 5 19 17 21 14 23
REMARK Flexibility Score: inf
ROOT
ATOM      1  C   UNL     1      -2.430  24.947  33.930  1.00  0.00     0.044 C 
ATOM      2  C   UNL     1      -2.130  24.762  32.471  1.00  0.00    -0.047 A 
ATOM      3  C   UNL     1      -1.120  25.509  31.859  1.00  0.00     0.016 A 
ATOM      4  C   UNL     1      -0.799  25.311  30.505  1.00  0.00     0.038 A 
ATOM      5  C   UNL     1      -1.483  24.325  29.755  1.00  0.00     0.076 A 
ATOM      6  C   UNL     1      -2.550  23.613  30.368  1.00  0.00     0.127 A 
ATOM      7  C   UNL     1      -2.831  23.811  31.723  1.00  0.00     0.050 A 
ATOM      8  C   UNL     1      -1.011  24.034  28.372  1.00  0.00     0.201 C 
ATOM      9  O   UNL     1      -1.286  22.932  27.828  1.00  0.00    -0.288 OA
ATOM     10  C   UNL     1      -0.117  24.992  27.670  1.00  0.00     0.076 A 
ATOM     11  C   UNL     1       0.514  26.012  28.413  1.00  0.00     0.041 A 
ATOM     12  C   UNL     1       0.251  26.137  29.864  1.00  0.00     0.194 C 
ATOM     13  O   UNL     1       0.910  26.966  30.553  1.00  0.00    -0.289 OA
ATOM     14  C   UNL     1       1.393  26.902  27.771  1.00  0.00     0.059 A 
ATOM     15  C   UNL     1       1.640  26.790  26.399  1.00  0.00     0.120 A 
ATOM     16  C   UNL     1       1.011  25.788  25.660  1.00  0.00     0.093 A 
ATOM     17  C   UNL     1       0.134  24.889  26.282  1.00  0.00     0.131 A 
ENDROOT
BRANCH   6  18
ATOM     18  O   UNL     1      -3.375  22.730  29.668  1.00  0.00    -0.507 OA
ATOM     19  H   UNL     1      -4.354  22.902  29.482  1.00  0.00     0.293 HD
ENDBRANCH   6  18
BRANCH  17  20
ATOM     20  O   UNL     1      -0.492  23.905  25.517  1.00  0.00    -0.507 OA
ATOM     21  H   UNL     1      -1.202  23.297  25.908  1.00  0.00     0.293 HD
ENDBRANCH  17  20
BRANCH  15  22
ATOM     22  O   UNL     1       2.509  27.671  25.759  1.00  0.00    -0.508 OA
ATOM     23  H   UNL     1       3.504  27.487  25.704  1.00  0.00     0.293 HD
ENDBRANCH  15  22
TORSDOF 3
ENDMDL
MODEL 7
REMARK VINA RESULT:    -6.007      2.251      2.844
REMARK INTER + INTRA:          -6.533
REMARK INTER:                  -6.533
REMARK INTRA:                   0.000
REMARK UNBOUND:                 0.000
REMARK SMILES Cc1cc(O)c2c(c1)C(=O)c1cc(O)cc(O)c1C2=O
REMARK SMILES IDX 1 1 2 2 8 3 7 4 6 5 4 6 3 7 19 8 20 9 18 10 11 11 9 12 10 13
REMARK SMILES IDX 12 14 13 15 15 16 16 17 5 18 17 20 14 22
REMARK H PARENT 5 19 17 21 14 23
REMARK Flexibility Score: inf
ROOT
ATOM      1  C   UNL     1       1.329  28.286  25.838  1.00  0.00     0.044 C 
ATOM      2  C   UNL     1       0.556  27.145  26.431  1.00  0.00    -0.047 A 
ATOM      3  C   UNL     1       0.037  27.243  27.726  1.00  0.00     0.016 A 
ATOM      4  C   UNL     1      -0.729  26.199  28.274  1.00  0.00     0.038 A 
ATOM      5  C   UNL     1      -1.004  25.046  27.502  1.00  0.00     0.076 A 
ATOM      6  C   UNL     1      -0.421  24.928  26.211  1.00  0.00     0.127 A 
ATOM      7  C   UNL     1       0.314  25.991  25.679  1.00  0.00     0.050 A 
ATOM      8  C   UNL     1      -1.946  24.032  28.056  1.00  0.00     0.201 C 
ATOM      9  O   UNL     1      -2.537  23.231  27.285  1.00  0.00    -0.288 OA
ATOM     10  C   UNL     1      -2.282  24.036  29.503  1.00  0.00     0.076 A 
ATOM     11  C   UNL     1      -1.949  25.165  30.282  1.00  0.00     0.041 A 
ATOM     12  C   UNL     1      -1.241  26.306  29.661  1.00  0.00     0.194 C 
ATOM     13  O   UNL     1      -1.055  27.366  30.322  1.00  0.00    -0.289 OA
ATOM     14  C   UNL     1      -2.295  25.201  31.645  1.00  0.00     0.059 A 
ATOM     15  C   UNL     1      -2.960  24.122  32.237  1.00  0.00     0.120 A 
ATOM     16  C   UNL     1      -3.283  23.001  31.471  1.00  0.00     0.093 A 
ATOM     17  C   UNL     1      -2.949  22.947  30.111  1.00  0.00     0.131 A 
ENDROOT
BRANCH   6  18
ATOM     18  O   UNL     1      -0.515  23.769  25.437  1.00  0.00    -0.507 OA
ATOM     19  H   UNL     1       0.279  23.310  25.012  1.00  0.00     0.293 HD
ENDBRANCH   6  18
BRANCH  17  20
ATOM     20  O   UNL     1      -3.272  21.809  29.373  1.00  0.00    -0.507 OA
ATOM     21  H   UNL     1      -2.668  21.462  28.637  1.00  0.00     0.293 HD
ENDBRANCH  17  20
BRANCH  15  22
ATOM     22  O   UNL     1      -3.303  24.152  33.586  1.00  0.00    -0.508 OA
ATOM     23  H   UNL     1      -4.269  24.223  33.886  1.00  0.00     0.293 HD
ENDBRANCH  15  22
TORSDOF 3
ENDMDL
MODEL 8
REMARK VINA RESULT:    -5.856      2.401      2.779
REMARK INTER + INTRA:          -6.369
REMARK INTER:                  -6.369
REMARK INTRA:                   0.000
REMARK UNBOUND:                 0.000
REMARK SMILES Cc1cc(O)c2c(c1)C(=O)c1cc(O)cc(O)c1C2=O
REMARK SMILES IDX 1 1 2 2 8 3 7 4 6 5 4 6 3 7 19 8 20 9 18 10 11 11 9 12 10 13
REMARK SMILES IDX 12 14 13 15 15 16 16 17 5 18 17 20 14 22
REMARK H PARENT 5 19 17 21 14 23
REMARK Flexibility Score: inf
ROOT
ATOM      1  C   UNL     1       4.745  28.234  29.265  1.00  0.00     0.044 C 
ATOM      2  C   UNL     1       3.611  27.317  28.911  1.00  0.00    -0.047 A 
ATOM      3  C   UNL     1       2.306  27.812  28.824  1.00  0.00     0.016 A 
ATOM      4  C   UNL     1       1.243  26.973  28.448  1.00  0.00     0.038 A 
ATOM      5  C   UNL     1       1.494  25.618  28.125  1.00  0.00     0.076 A 
ATOM      6  C   UNL     1       2.812  25.109  28.275  1.00  0.00     0.127 A 
ATOM      7  C   UNL     1       3.856  25.971  28.625  1.00  0.00     0.050 A 
ATOM      8  C   UNL     1       0.373  24.801  27.580  1.00  0.00     0.201 C 
ATOM      9  O   UNL     1       0.614  23.764  26.907  1.00  0.00    -0.288 OA
ATOM     10  C   UNL     1      -1.031  25.266  27.728  1.00  0.00     0.076 A 
ATOM     11  C   UNL     1      -1.275  26.601  28.112  1.00  0.00     0.041 A 
ATOM     12  C   UNL     1      -0.139  27.507  28.396  1.00  0.00     0.194 C 
ATOM     13  O   UNL     1      -0.351  28.732  28.614  1.00  0.00    -0.289 OA
ATOM     14  C   UNL     1      -2.598  27.068  28.218  1.00  0.00     0.059 A 
ATOM     15  C   UNL     1      -3.674  26.214  27.955  1.00  0.00     0.120 A 
ATOM     16  C   UNL     1      -3.436  24.891  27.584  1.00  0.00     0.093 A 
ATOM     17  C   UNL     1      -2.126  24.408  27.469  1.00  0.00     0.131 A 
ENDROOT
BRANCH   6  18
ATOM     18  O   UNL     1       3.128  23.757  28.122  1.00  0.00    -0.507 OA
ATOM     19  H   UNL     1       3.734  23.400  27.397  1.00  0.00     0.293 HD
ENDBRANCH   6  18
BRANCH  17  20
ATOM     20  O   UNL     1      -1.917  23.077  27.110  1.00  0.00    -0.507 OA
ATOM     21  H   UNL     1      -1.029  22.615  27.268  1.00  0.00     0.293 HD
ENDBRANCH  17  20
BRANCH  15  22
ATOM     22  O   UNL     1      -4.986  26.671  28.060  1.00  0.00    -0.508 OA
ATOM     23  H   UNL     1      -5.195  27.613  28.371  1.00  0.00     0.293 HD
ENDBRANCH  15  22
TORSDOF 3
ENDMDL
MODEL 9
REMARK VINA RESULT:    -5.842      1.156      3.375
REMARK INTER + INTRA:          -6.354
REMARK INTER:                  -6.354
REMARK INTRA:                   0.000
REMARK UNBOUND:                 0.000
REMARK SMILES Cc1cc(O)c2c(c1)C(=O)c1cc(O)cc(O)c1C2=O
REMARK SMILES IDX 1 1 2 2 8 3 7 4 6 5 4 6 3 7 19 8 20 9 18 10 11 11 9 12 10 13
REMARK SMILES IDX 12 14 13 15 15 16 16 17 5 18 17 20 14 22
REMARK H PARENT 5 19 17 21 14 23
REMARK Flexibility Score: inf
ROOT
ATOM      1  C   UNL     1       2.496  28.985  23.624  1.00  0.00     0.044 C 
ATOM      2  C   UNL     1       1.287  28.578  24.415  1.00  0.00    -0.047 A 
ATOM      3  C   UNL     1       1.268  27.356  25.094  1.00  0.00     0.016 A 
ATOM      4  C   UNL     1       0.160  26.986  25.876  1.00  0.00     0.038 A 
ATOM      5  C   UNL     1      -0.939  27.867  26.003  1.00  0.00     0.076 A 
ATOM      6  C   UNL     1      -0.938  29.079  25.260  1.00  0.00     0.127 A 
ATOM      7  C   UNL     1       0.188  29.435  24.511  1.00  0.00     0.050 A 
ATOM      8  C   UNL     1      -2.023  27.512  26.962  1.00  0.00     0.201 C 
ATOM      9  O   UNL     1      -2.783  28.407  27.418  1.00  0.00    -0.288 OA
ATOM     10  C   UNL     1      -2.142  26.122  27.475  1.00  0.00     0.076 A 
ATOM     11  C   UNL     1      -1.066  25.228  27.289  1.00  0.00     0.041 A 
ATOM     12  C   UNL     1       0.143  25.671  26.560  1.00  0.00     0.194 C 
ATOM     13  O   UNL     1       1.155  24.917  26.504  1.00  0.00    -0.289 OA
ATOM     14  C   UNL     1      -1.147  23.922  27.803  1.00  0.00     0.059 A 
ATOM     15  C   UNL     1      -2.289  23.498  28.489  1.00  0.00     0.120 A 
ATOM     16  C   UNL     1      -3.358  24.376  28.666  1.00  0.00     0.093 A 
ATOM     17  C   UNL     1      -3.297  25.683  28.164  1.00  0.00     0.131 A 
ENDROOT
BRANCH   6  18
ATOM     18  O   UNL     1      -2.037  29.940  25.207  1.00  0.00    -0.507 OA
ATOM     19  H   UNL     1      -2.825  29.808  24.588  1.00  0.00     0.293 HD
ENDBRANCH   6  18
BRANCH  17  20
ATOM     20  O   UNL     1      -4.385  26.537  28.344  1.00  0.00    -0.507 OA
ATOM     21  H   UNL     1      -5.320  26.181  28.507  1.00  0.00     0.293 HD
ENDBRANCH  17  20
BRANCH  15  22
ATOM     22  O   UNL     1      -2.374  22.204  28.998  1.00  0.00    -0.508 OA
ATOM     23  H   UNL     1      -1.805  21.904  29.781  1.00  0.00     0.293 HD
ENDBRANCH  15  22
TORSDOF 3
ENDMDL
