MODEL 1
REMARK VINA RESULT:    -8.205      0.000      0.000
REMARK INTER + INTRA:         -16.250
REMARK INTER:                 -13.482
REMARK INTRA:                  -2.768
REMARK UNBOUND:                -2.768
REMARK SMILES C[C@@H]1O[C@H](OC[C@@H]2O[C@@H](Oc3c(-c4ccc(O)c(O)c4)oc4cc(O)cc(O)c4c3=O)[C@H](O)[C@H](O)[C@@H]2O)[C@@H](O)[C@@H](O)[C@@H]1O
REMARK SMILES IDX 7 1 36 2 34 3 32 4 9 5 8 6 6 7 5 8 4 9 1 10 2 11 42 12 3 13
REMARK SMILES IDX 40 14 38 15 43 16 41 18 39 20 37 22 35 24 10 26 11 27 12 28
REMARK SMILES IDX 30 29 21 30 29 31 31 32 22 33 27 34 23 35 26 36 24 37 13 38
REMARK SMILES IDX 20 39 14 40 18 41 15 42 16 43 19 44 17 46 28 48 25 50 33 52
REMARK H PARENT 43 17 41 19 39 21 37 23 35 25 19 45 17 47 28 49 25 51 33 53
REMARK Flexibility Score: inf
ROOT
ATOM      1  C   UNL     1       3.890  23.799  76.480  1.00  0.00     0.180 C 
ATOM      2  C   UNL     1       3.728  23.416  74.971  1.00  0.00     0.177 C 
ATOM      3  C   UNL     1       2.265  23.441  74.523  1.00  0.00     0.180 C 
ATOM      4  C   UNL     1       1.650  24.821  74.822  1.00  0.00     0.214 C 
ATOM      5  C   UNL     1       2.101  25.409  76.189  1.00  0.00     0.339 C 
ATOM      6  O   UNL     1       2.782  24.499  77.045  1.00  0.00    -0.332 OA
ENDROOT
BRANCH   1   7
ATOM      7  C   UNL     1       4.162  22.564  77.359  1.00  0.00     0.198 C 
BRANCH   7   8
ATOM      8  O   UNL     1       5.524  22.186  77.250  1.00  0.00    -0.347 OA
BRANCH   8   9
ATOM      9  C   UNL     1       6.153  22.124  78.522  1.00  0.00     0.281 C 
ATOM     10  C   UNL     1       7.868  20.912  76.242  1.00  0.00     0.041 C 
ATOM     11  C   UNL     1       8.207  21.199  77.712  1.00  0.00     0.150 C 
ATOM     12  C   UNL     1       8.961  22.533  77.943  1.00  0.00     0.174 C 
ATOM     13  O   UNL     1       7.076  21.042  78.566  1.00  0.00    -0.344 OA
ATOM     14  C   UNL     1       8.000  23.736  77.928  1.00  0.00     0.179 C 
ATOM     15  C   UNL     1       6.830  23.465  78.881  1.00  0.00     0.202 C 
BRANCH  12  16
ATOM     16  O   UNL     1      10.019  22.697  77.027  1.00  0.00    -0.388 OA
ATOM     17  H   UNL     1      10.711  23.275  77.449  1.00  0.00     0.211 HD
ENDBRANCH  12  16
BRANCH  14  18
ATOM     18  O   UNL     1       8.673  24.902  78.325  1.00  0.00    -0.387 OA
ATOM     19  H   UNL     1       8.438  25.611  77.671  1.00  0.00     0.211 HD
ENDBRANCH  14  18
BRANCH  15  20
ATOM     20  O   UNL     1       7.285  23.402  80.210  1.00  0.00    -0.385 OA
ATOM     21  H   UNL     1       8.274  23.497  80.187  1.00  0.00     0.211 HD
ENDBRANCH  15  20
ENDBRANCH   8   9
ENDBRANCH   7   8
ENDBRANCH   1   7
BRANCH   2  22
ATOM     22  O   UNL     1       4.288  22.162  74.665  1.00  0.00    -0.387 OA
ATOM     23  H   UNL     1       4.836  21.893  75.447  1.00  0.00     0.211 HD
ENDBRANCH   2  22
BRANCH   3  24
ATOM     24  O   UNL     1       1.525  22.386  75.089  1.00  0.00    -0.387 OA
ATOM     25  H   UNL     1       2.157  21.665  75.357  1.00  0.00     0.211 HD
ENDBRANCH   3  24
BRANCH   5  26
ATOM     26  O   UNL     1       2.767  26.678  76.061  1.00  0.00    -0.454 OA
BRANCH  26  27
ATOM     27  C   UNL     1       2.315  27.916  76.537  1.00  0.00     0.214 A 
ATOM     28  C   UNL     1       2.517  28.290  77.882  1.00  0.00     0.180 A 
ATOM     29  C   UNL     1       1.591  28.779  75.700  1.00  0.00     0.239 A 
ATOM     30  O   UNL     1       2.094  29.480  78.299  1.00  0.00    -0.452 OA
ATOM     31  C   UNL     1       1.230  30.066  76.156  1.00  0.00     0.111 A 
ATOM     32  O   UNL     1       1.219  28.362  74.572  1.00  0.00    -0.285 OA
ATOM     33  C   UNL     1       1.475  30.356  77.520  1.00  0.00     0.146 A 
ATOM     34  C   UNL     1       0.600  31.055  75.348  1.00  0.00     0.134 A 
ATOM     35  C   UNL     1       1.039  31.558  78.076  1.00  0.00     0.094 A 
ATOM     36  C   UNL     1       0.136  32.237  75.941  1.00  0.00     0.093 A 
ATOM     37  C   UNL     1       0.348  32.487  77.300  1.00  0.00     0.123 A 
BRANCH  28  38
ATOM     38  C   UNL     1       3.167  27.407  78.886  1.00  0.00     0.025 A 
ATOM     39  C   UNL     1       4.566  27.267  78.968  1.00  0.00     0.062 A 
ATOM     40  C   UNL     1       2.360  26.591  79.698  1.00  0.00     0.016 A 
ATOM     41  C   UNL     1       5.145  26.360  79.869  1.00  0.00     0.158 A 
ATOM     42  C   UNL     1       2.937  25.677  80.583  1.00  0.00     0.051 A 
ATOM     43  C   UNL     1       4.325  25.567  80.685  1.00  0.00     0.157 A 
BRANCH  41  44
ATOM     44  O   UNL     1       6.531  26.237  79.943  1.00  0.00    -0.504 OA
ATOM     45  H   UNL     1       7.148  26.962  79.594  1.00  0.00     0.293 HD
ENDBRANCH  41  44
BRANCH  43  46
ATOM     46  O   UNL     1       4.871  24.658  81.592  1.00  0.00    -0.504 OA
ATOM     47  H   UNL     1       5.051  23.692  81.346  1.00  0.00     0.293 HD
ENDBRANCH  43  46
ENDBRANCH  28  38
BRANCH  34  48
ATOM     48  O   UNL     1       0.444  30.940  73.963  1.00  0.00    -0.507 OA
ATOM     49  H   UNL     1      -0.147  30.254  73.517  1.00  0.00     0.293 HD
ENDBRANCH  34  48
BRANCH  37  50
ATOM     50  O   UNL     1      -0.119  33.659  77.892  1.00  0.00    -0.508 OA
ATOM     51  H   UNL     1      -1.064  33.728  78.254  1.00  0.00     0.293 HD
ENDBRANCH  37  50
ENDBRANCH  26  27
ENDBRANCH   5  26
BRANCH   4  52
ATOM     52  O   UNL     1       0.247  24.781  74.704  1.00  0.00    -0.384 OA
ATOM     53  H   UNL     1      -0.142  25.243  75.493  1.00  0.00     0.211 HD
ENDBRANCH   4  52
TORSDOF 16
ENDMDL
MODEL 2
REMARK VINA RESULT:    -8.139      1.566      4.004
REMARK INTER + INTRA:         -16.141
REMARK INTER:                 -14.068
REMARK INTRA:                  -2.073
REMARK UNBOUND:                -2.768
REMARK SMILES C[C@@H]1O[C@H](OC[C@@H]2O[C@@H](Oc3c(-c4ccc(O)c(O)c4)oc4cc(O)cc(O)c4c3=O)[C@H](O)[C@H](O)[C@@H]2O)[C@@H](O)[C@@H](O)[C@@H]1O
REMARK SMILES IDX 7 1 36 2 34 3 32 4 9 5 8 6 6 7 5 8 4 9 1 10 2 11 42 12 3 13
REMARK SMILES IDX 40 14 38 15 43 16 41 18 39 20 37 22 35 24 10 26 11 27 12 28
REMARK SMILES IDX 30 29 21 30 29 31 31 32 22 33 27 34 23 35 26 36 24 37 13 38
REMARK SMILES IDX 20 39 14 40 18 41 15 42 16 43 19 44 17 46 28 48 25 50 33 52
REMARK H PARENT 43 17 41 19 39 21 37 23 35 25 19 45 17 47 28 49 25 51 33 53
REMARK Flexibility Score: inf
ROOT
ATOM      1  C   UNL     1       3.293  24.192  77.501  1.00  0.00     0.180 C 
ATOM      2  C   UNL     1       1.746  24.351  77.684  1.00  0.00     0.177 C 
ATOM      3  C   UNL     1       1.391  25.087  78.977  1.00  0.00     0.180 C 
ATOM      4  C   UNL     1       2.105  26.451  79.017  1.00  0.00     0.214 C 
ATOM      5  C   UNL     1       3.563  26.395  78.477  1.00  0.00     0.339 C 
ATOM      6  O   UNL     1       4.086  25.085  78.281  1.00  0.00    -0.332 OA
ENDROOT
BRANCH   1   7
ATOM      7  C   UNL     1       3.761  22.758  77.809  1.00  0.00     0.198 C 
BRANCH   7   8
ATOM      8  O   UNL     1       5.051  22.543  77.260  1.00  0.00    -0.347 OA
BRANCH   8   9
ATOM      9  C   UNL     1       5.956  22.039  78.231  1.00  0.00     0.281 C 
ATOM     10  C   UNL     1       7.244  22.439  75.441  1.00  0.00     0.041 C 
ATOM     11  C   UNL     1       7.871  22.078  76.795  1.00  0.00     0.150 C 
ATOM     12  C   UNL     1       8.482  23.282  77.555  1.00  0.00     0.174 C 
ATOM     13  O   UNL     1       6.993  21.296  77.603  1.00  0.00    -0.344 OA
ATOM     14  C   UNL     1       7.399  24.107  78.274  1.00  0.00     0.179 C 
ATOM     15  C   UNL     1       6.522  23.172  79.115  1.00  0.00     0.202 C 
BRANCH  12  16
ATOM     16  O   UNL     1       9.274  24.083  76.708  1.00  0.00    -0.388 OA
ATOM     17  H   UNL     1      10.229  23.954  76.959  1.00  0.00     0.211 HD
ENDBRANCH  12  16
BRANCH  14  18
ATOM     18  O   UNL     1       7.993  25.072  79.104  1.00  0.00    -0.387 OA
ATOM     19  H   UNL     1       7.280  25.422  79.698  1.00  0.00     0.211 HD
ENDBRANCH  14  18
BRANCH  15  20
ATOM     20  O   UNL     1       7.272  22.602  80.158  1.00  0.00    -0.385 OA
ATOM     21  H   UNL     1       6.953  21.668  80.273  1.00  0.00     0.211 HD
ENDBRANCH  15  20
ENDBRANCH   8   9
ENDBRANCH   7   8
ENDBRANCH   1   7
BRANCH   2  22
ATOM     22  O   UNL     1       1.064  23.121  77.645  1.00  0.00    -0.387 OA
ATOM     23  H   UNL     1       0.684  22.975  78.550  1.00  0.00     0.211 HD
ENDBRANCH   2  22
BRANCH   3  24
ATOM     24  O   UNL     1       1.658  24.305  80.116  1.00  0.00    -0.387 OA
ATOM     25  H   UNL     1       0.792  24.058  80.540  1.00  0.00     0.211 HD
ENDBRANCH   3  24
BRANCH   5  26
ATOM     26  O   UNL     1       3.779  27.269  77.354  1.00  0.00    -0.454 OA
BRANCH  26  27
ATOM     27  C   UNL     1       2.959  28.327  76.944  1.00  0.00     0.214 A 
ATOM     28  C   UNL     1       2.098  28.186  75.835  1.00  0.00     0.180 A 
ATOM     29  C   UNL     1       3.027  29.572  77.589  1.00  0.00     0.239 A 
ATOM     30  O   UNL     1       1.317  29.203  75.483  1.00  0.00    -0.452 OA
ATOM     31  C   UNL     1       2.125  30.600  77.238  1.00  0.00     0.111 A 
ATOM     32  O   UNL     1       3.941  29.771  78.431  1.00  0.00    -0.285 OA
ATOM     33  C   UNL     1       1.295  30.369  76.114  1.00  0.00     0.146 A 
ATOM     34  C   UNL     1       2.036  31.853  77.908  1.00  0.00     0.134 A 
ATOM     35  C   UNL     1       0.463  31.378  75.630  1.00  0.00     0.094 A 
ATOM     36  C   UNL     1       1.222  32.863  77.378  1.00  0.00     0.093 A 
ATOM     37  C   UNL     1       0.443  32.631  76.240  1.00  0.00     0.123 A 
BRANCH  28  38
ATOM     38  C   UNL     1       2.029  26.954  75.007  1.00  0.00     0.025 A 
ATOM     39  C   UNL     1       0.817  26.275  74.772  1.00  0.00     0.062 A 
ATOM     40  C   UNL     1       3.224  26.376  74.546  1.00  0.00     0.016 A 
ATOM     41  C   UNL     1       0.798  25.067  74.059  1.00  0.00     0.158 A 
ATOM     42  C   UNL     1       3.206  25.165  73.851  1.00  0.00     0.051 A 
ATOM     43  C   UNL     1       1.999  24.514  73.590  1.00  0.00     0.157 A 
BRANCH  41  44
ATOM     44  O   UNL     1      -0.410  24.410  73.829  1.00  0.00    -0.504 OA
ATOM     45  H   UNL     1      -0.711  23.635  74.410  1.00  0.00     0.293 HD
ENDBRANCH  41  44
BRANCH  43  46
ATOM     46  O   UNL     1       2.011  23.315  72.876  1.00  0.00    -0.504 OA
ATOM     47  H   UNL     1       2.577  22.525  73.159  1.00  0.00     0.293 HD
ENDBRANCH  43  46
ENDBRANCH  28  38
BRANCH  34  48
ATOM     48  O   UNL     1       2.692  32.137  79.110  1.00  0.00    -0.507 OA
ATOM     49  H   UNL     1       2.693  33.044  79.553  1.00  0.00     0.293 HD
ENDBRANCH  34  48
BRANCH  37  50
ATOM     50  O   UNL     1      -0.361  33.637  75.708  1.00  0.00    -0.508 OA
ATOM     51  H   UNL     1      -0.020  34.588  75.607  1.00  0.00     0.293 HD
ENDBRANCH  37  50
ENDBRANCH  26  27
ENDBRANCH   5  26
BRANCH   4  52
ATOM     52  O   UNL     1       2.044  27.013  80.306  1.00  0.00    -0.384 OA
ATOM     53  H   UNL     1       2.548  27.868  80.295  1.00  0.00     0.211 HD
ENDBRANCH   4  52
TORSDOF 16
ENDMDL
MODEL 3
REMARK VINA RESULT:    -7.433      1.596      4.453
REMARK INTER + INTRA:         -14.981
REMARK INTER:                 -13.415
REMARK INTRA:                  -1.565
REMARK UNBOUND:                -2.768
REMARK SMILES C[C@@H]1O[C@H](OC[C@@H]2O[C@@H](Oc3c(-c4ccc(O)c(O)c4)oc4cc(O)cc(O)c4c3=O)[C@H](O)[C@H](O)[C@@H]2O)[C@@H](O)[C@@H](O)[C@@H]1O
REMARK SMILES IDX 7 1 36 2 34 3 32 4 9 5 8 6 6 7 5 8 4 9 1 10 2 11 42 12 3 13
REMARK SMILES IDX 40 14 38 15 43 16 41 18 39 20 37 22 35 24 10 26 11 27 12 28
REMARK SMILES IDX 30 29 21 30 29 31 31 32 22 33 27 34 23 35 26 36 24 37 13 38
REMARK SMILES IDX 20 39 14 40 18 41 15 42 16 43 19 44 17 46 28 48 25 50 33 52
REMARK H PARENT 43 17 41 19 39 21 37 23 35 25 19 45 17 47 28 49 25 51 33 53
REMARK Flexibility Score: inf
ROOT
ATOM      1  C   UNL     1       5.343  24.774  79.407  1.00  0.00     0.180 C 
ATOM      2  C   UNL     1       4.037  24.003  79.795  1.00  0.00     0.177 C 
ATOM      3  C   UNL     1       3.120  24.836  80.692  1.00  0.00     0.180 C 
ATOM      4  C   UNL     1       2.798  26.179  80.008  1.00  0.00     0.214 C 
ATOM      5  C   UNL     1       4.022  26.802  79.278  1.00  0.00     0.339 C 
ATOM      6  O   UNL     1       5.274  26.191  79.564  1.00  0.00    -0.332 OA
ENDROOT
BRANCH   1   7
ATOM      7  C   UNL     1       6.563  24.272  80.203  1.00  0.00     0.198 C 
BRANCH   7   8
ATOM      8  O   UNL     1       7.261  23.295  79.450  1.00  0.00    -0.347 OA
BRANCH   8   9
ATOM      9  C   UNL     1       7.741  23.824  78.223  1.00  0.00     0.281 C 
ATOM     10  C   UNL     1       9.945  23.533  80.382  1.00  0.00     0.041 C 
ATOM     11  C   UNL     1      10.038  23.900  78.894  1.00  0.00     0.150 C 
ATOM     12  C   UNL     1      10.403  22.713  77.967  1.00  0.00     0.174 C 
ATOM     13  O   UNL     1       8.894  24.626  78.447  1.00  0.00    -0.344 OA
ATOM     14  C   UNL     1       9.179  21.825  77.675  1.00  0.00     0.179 C 
ATOM     15  C   UNL     1       8.017  22.703  77.196  1.00  0.00     0.202 C 
BRANCH  12  16
ATOM     16  O   UNL     1      11.481  21.965  78.482  1.00  0.00    -0.388 OA
ATOM     17  H   UNL     1      12.242  22.035  77.844  1.00  0.00     0.211 HD
ENDBRANCH  12  16
BRANCH  14  18
ATOM     18  O   UNL     1       9.492  20.875  76.689  1.00  0.00    -0.387 OA
ATOM     19  H   UNL     1       9.858  20.080  77.158  1.00  0.00     0.211 HD
ENDBRANCH  14  18
BRANCH  15  20
ATOM     20  O   UNL     1       8.324  23.289  75.956  1.00  0.00    -0.385 OA
ATOM     21  H   UNL     1       8.539  22.550  75.326  1.00  0.00     0.211 HD
ENDBRANCH  15  20
ENDBRANCH   8   9
ENDBRANCH   7   8
ENDBRANCH   1   7
BRANCH   2  22
ATOM     22  O   UNL     1       4.299  22.767  80.415  1.00  0.00    -0.387 OA
ATOM     23  H   UNL     1       3.599  22.640  81.108  1.00  0.00     0.211 HD
ENDBRANCH   2  22
BRANCH   3  24
ATOM     24  O   UNL     1       3.657  25.003  81.982  1.00  0.00    -0.387 OA
ATOM     25  H   UNL     1       3.141  25.715  82.449  1.00  0.00     0.211 HD
ENDBRANCH   3  24
BRANCH   5  26
ATOM     26  O   UNL     1       3.793  27.002  77.871  1.00  0.00    -0.454 OA
BRANCH  26  27
ATOM     27  C   UNL     1       2.995  27.992  77.283  1.00  0.00     0.214 A 
ATOM     28  C   UNL     1       2.173  27.692  76.175  1.00  0.00     0.180 A 
ATOM     29  C   UNL     1       3.051  29.316  77.742  1.00  0.00     0.239 A 
ATOM     30  O   UNL     1       1.412  28.649  75.652  1.00  0.00    -0.452 OA
ATOM     31  C   UNL     1       2.169  30.284  77.213  1.00  0.00     0.111 A 
ATOM     32  O   UNL     1       3.936  29.634  78.578  1.00  0.00    -0.285 OA
ATOM     33  C   UNL     1       1.377  29.894  76.105  1.00  0.00     0.146 A 
ATOM     34  C   UNL     1       2.066  31.622  77.690  1.00  0.00     0.134 A 
ATOM     35  C   UNL     1       0.571  30.825  75.450  1.00  0.00     0.094 A 
ATOM     36  C   UNL     1       1.279  32.546  76.990  1.00  0.00     0.093 A 
ATOM     37  C   UNL     1       0.538  32.153  75.871  1.00  0.00     0.123 A 
BRANCH  28  38
ATOM     38  C   UNL     1       2.124  26.353  75.533  1.00  0.00     0.025 A 
ATOM     39  C   UNL     1       1.727  25.198  76.236  1.00  0.00     0.062 A 
ATOM     40  C   UNL     1       2.605  26.210  74.221  1.00  0.00     0.016 A 
ATOM     41  C   UNL     1       1.774  23.936  75.627  1.00  0.00     0.158 A 
ATOM     42  C   UNL     1       2.666  24.951  73.620  1.00  0.00     0.051 A 
ATOM     43  C   UNL     1       2.240  23.813  74.309  1.00  0.00     0.157 A 
BRANCH  41  44
ATOM     44  O   UNL     1       1.373  22.803  76.333  1.00  0.00    -0.504 OA
ATOM     45  H   UNL     1       2.048  22.167  76.744  1.00  0.00     0.293 HD
ENDBRANCH  41  44
BRANCH  43  46
ATOM     46  O   UNL     1       2.296  22.571  73.675  1.00  0.00    -0.504 OA
ATOM     47  H   UNL     1       2.752  22.442  72.781  1.00  0.00     0.293 HD
ENDBRANCH  43  46
ENDBRANCH  28  38
BRANCH  34  48
ATOM     48  O   UNL     1       2.681  32.076  78.861  1.00  0.00    -0.507 OA
ATOM     49  H   UNL     1       3.634  31.863  79.117  1.00  0.00     0.293 HD
ENDBRANCH  34  48
BRANCH  37  50
ATOM     50  O   UNL     1      -0.239  33.073  75.170  1.00  0.00    -0.508 OA
ATOM     51  H   UNL     1      -1.219  32.899  74.978  1.00  0.00     0.293 HD
ENDBRANCH  37  50
ENDBRANCH  26  27
ENDBRANCH   5  26
BRANCH   4  52
ATOM     52  O   UNL     1       2.215  27.079  80.920  1.00  0.00    -0.384 OA
ATOM     53  H   UNL     1       2.928  27.684  81.255  1.00  0.00     0.211 HD
ENDBRANCH   4  52
TORSDOF 16
ENDMDL
MODEL 4
REMARK VINA RESULT:    -7.332      2.580      9.316
REMARK INTER + INTRA:         -14.815
REMARK INTER:                 -13.800
REMARK INTRA:                  -1.015
REMARK UNBOUND:                -2.768
REMARK SMILES C[C@@H]1O[C@H](OC[C@@H]2O[C@@H](Oc3c(-c4ccc(O)c(O)c4)oc4cc(O)cc(O)c4c3=O)[C@H](O)[C@H](O)[C@@H]2O)[C@@H](O)[C@@H](O)[C@@H]1O
REMARK SMILES IDX 7 1 36 2 34 3 32 4 9 5 8 6 6 7 5 8 4 9 1 10 2 11 42 12 3 13
REMARK SMILES IDX 40 14 38 15 43 16 41 18 39 20 37 22 35 24 10 26 11 27 12 28
REMARK SMILES IDX 30 29 21 30 29 31 31 32 22 33 27 34 23 35 26 36 24 37 13 38
REMARK SMILES IDX 20 39 14 40 18 41 15 42 16 43 19 44 17 46 28 48 25 50 33 52
REMARK H PARENT 43 17 41 19 39 21 37 23 35 25 19 45 17 47 28 49 25 51 33 53
REMARK Flexibility Score: inf
ROOT
ATOM      1  C   UNL     1       3.260  26.375  79.222  1.00  0.00     0.180 C 
ATOM      2  C   UNL     1       3.244  25.627  80.597  1.00  0.00     0.177 C 
ATOM      3  C   UNL     1       3.254  24.106  80.427  1.00  0.00     0.180 C 
ATOM      4  C   UNL     1       4.462  23.683  79.571  1.00  0.00     0.214 C 
ATOM      5  C   UNL     1       4.735  24.645  78.380  1.00  0.00     0.339 C 
ATOM      6  O   UNL     1       3.704  25.589  78.116  1.00  0.00    -0.332 OA
ENDROOT
BRANCH   1   7
ATOM      7  C   UNL     1       1.875  26.946  78.865  1.00  0.00     0.198 C 
BRANCH   7   8
ATOM      8  O   UNL     1       2.018  28.241  78.304  1.00  0.00    -0.347 OA
BRANCH   8   9
ATOM      9  C   UNL     1       2.487  29.177  79.263  1.00  0.00     0.281 C 
ATOM     10  C   UNL     1       1.511  30.494  76.632  1.00  0.00     0.041 C 
ATOM     11  C   UNL     1       1.938  31.116  77.970  1.00  0.00     0.150 C 
ATOM     12  C   UNL     1       0.759  31.474  78.910  1.00  0.00     0.174 C 
ATOM     13  O   UNL     1       2.956  30.355  78.616  1.00  0.00    -0.344 OA
ATOM     14  C   UNL     1       0.229  30.234  79.653  1.00  0.00     0.179 C 
ATOM     15  C   UNL     1       1.401  29.499  80.314  1.00  0.00     0.202 C 
BRANCH  12  16
ATOM     16  O   UNL     1      -0.268  32.150  78.221  1.00  0.00    -0.388 OA
ATOM     17  H   UNL     1      -1.094  31.595  78.269  1.00  0.00     0.211 HD
ENDBRANCH  12  16
BRANCH  14  18
ATOM     18  O   UNL     1      -0.703  30.614  80.631  1.00  0.00    -0.387 OA
ATOM     19  H   UNL     1      -0.967  29.789  81.117  1.00  0.00     0.211 HD
ENDBRANCH  14  18
BRANCH  15  20
ATOM     20  O   UNL     1       1.969  30.291  81.326  1.00  0.00    -0.385 OA
ATOM     21  H   UNL     1       1.315  30.327  82.073  1.00  0.00     0.211 HD
ENDBRANCH  15  20
ENDBRANCH   8   9
ENDBRANCH   7   8
ENDBRANCH   1   7
BRANCH   2  22
ATOM     22  O   UNL     1       2.155  25.998  81.406  1.00  0.00    -0.387 OA
ATOM     23  H   UNL     1       1.484  26.419  80.808  1.00  0.00     0.211 HD
ENDBRANCH   2  22
BRANCH   3  24
ATOM     24  O   UNL     1       2.035  23.627  79.913  1.00  0.00    -0.387 OA
ATOM     25  H   UNL     1       1.504  23.245  80.664  1.00  0.00     0.211 HD
ENDBRANCH   3  24
BRANCH   5  26
ATOM     26  O   UNL     1       6.049  25.231  78.422  1.00  0.00    -0.454 OA
BRANCH  26  27
ATOM     27  C   UNL     1       7.174  24.723  79.083  1.00  0.00     0.214 A 
ATOM     28  C   UNL     1       8.069  23.855  78.422  1.00  0.00     0.180 A 
ATOM     29  C   UNL     1       7.396  25.014  80.437  1.00  0.00     0.239 A 
ATOM     30  O   UNL     1       9.139  23.405  79.070  1.00  0.00    -0.452 OA
ATOM     31  C   UNL     1       8.585  24.584  81.067  1.00  0.00     0.111 A 
ATOM     32  O   UNL     1       6.495  25.603  81.088  1.00  0.00    -0.285 OA
ATOM     33  C   UNL     1       9.426  23.719  80.326  1.00  0.00     0.146 A 
ATOM     34  C   UNL     1       8.957  24.925  82.398  1.00  0.00     0.134 A 
ATOM     35  C   UNL     1      10.556  23.154  80.918  1.00  0.00     0.094 A 
ATOM     36  C   UNL     1      10.074  24.313  82.981  1.00  0.00     0.093 A 
ATOM     37  C   UNL     1      10.869  23.427  82.248  1.00  0.00     0.123 A 
BRANCH  28  38
ATOM     38  C   UNL     1       7.870  23.386  77.026  1.00  0.00     0.025 A 
ATOM     39  C   UNL     1       6.631  22.897  76.567  1.00  0.00     0.062 A 
ATOM     40  C   UNL     1       8.982  23.310  76.169  1.00  0.00     0.016 A 
ATOM     41  C   UNL     1       6.498  22.382  75.269  1.00  0.00     0.158 A 
ATOM     42  C   UNL     1       8.852  22.781  74.883  1.00  0.00     0.051 A 
ATOM     43  C   UNL     1       7.614  22.330  74.421  1.00  0.00     0.157 A 
BRANCH  41  44
ATOM     44  O   UNL     1       5.264  21.908  74.828  1.00  0.00    -0.504 OA
ATOM     45  H   UNL     1       4.410  22.084  75.348  1.00  0.00     0.293 HD
ENDBRANCH  41  44
BRANCH  43  46
ATOM     46  O   UNL     1       7.512  21.825  73.124  1.00  0.00    -0.504 OA
ATOM     47  H   UNL     1       6.796  21.160  72.859  1.00  0.00     0.293 HD
ENDBRANCH  43  46
ENDBRANCH  28  38
BRANCH  34  48
ATOM     48  O   UNL     1       8.288  25.883  83.168  1.00  0.00    -0.507 OA
ATOM     49  H   UNL     1       7.879  25.696  84.071  1.00  0.00     0.293 HD
ENDBRANCH  34  48
BRANCH  37  50
ATOM     50  O   UNL     1      11.976  22.812  82.830  1.00  0.00    -0.508 OA
ATOM     51  H   UNL     1      11.873  22.149  83.590  1.00  0.00     0.293 HD
ENDBRANCH  37  50
ENDBRANCH  26  27
ENDBRANCH   5  26
BRANCH   4  52
ATOM     52  O   UNL     1       4.334  22.346  79.149  1.00  0.00    -0.384 OA
ATOM     53  H   UNL     1       3.389  22.070  79.279  1.00  0.00     0.211 HD
ENDBRANCH   4  52
TORSDOF 16
ENDMDL
MODEL 5
REMARK VINA RESULT:    -7.211      3.580      8.731
REMARK INTER + INTRA:         -14.617
REMARK INTER:                 -11.807
REMARK INTRA:                  -2.810
REMARK UNBOUND:                -2.768
REMARK SMILES C[C@@H]1O[C@H](OC[C@@H]2O[C@@H](Oc3c(-c4ccc(O)c(O)c4)oc4cc(O)cc(O)c4c3=O)[C@H](O)[C@H](O)[C@@H]2O)[C@@H](O)[C@@H](O)[C@@H]1O
REMARK SMILES IDX 7 1 36 2 34 3 32 4 9 5 8 6 6 7 5 8 4 9 1 10 2 11 42 12 3 13
REMARK SMILES IDX 40 14 38 15 43 16 41 18 39 20 37 22 35 24 10 26 11 27 12 28
REMARK SMILES IDX 30 29 21 30 29 31 31 32 22 33 27 34 23 35 26 36 24 37 13 38
REMARK SMILES IDX 20 39 14 40 18 41 15 42 16 43 19 44 17 46 28 48 25 50 33 52
REMARK H PARENT 43 17 41 19 39 21 37 23 35 25 19 45 17 47 28 49 25 51 33 53
REMARK Flexibility Score: inf
ROOT
ATOM      1  C   UNL     1       7.170  23.140  77.231  1.00  0.00     0.180 C 
ATOM      2  C   UNL     1       7.550  21.654  76.920  1.00  0.00     0.177 C 
ATOM      3  C   UNL     1       9.064  21.455  76.819  1.00  0.00     0.180 C 
ATOM      4  C   UNL     1       9.744  21.951  78.109  1.00  0.00     0.214 C 
ATOM      5  C   UNL     1       9.123  23.265  78.662  1.00  0.00     0.339 C 
ATOM      6  O   UNL     1       8.226  23.929  77.779  1.00  0.00    -0.332 OA
ENDROOT
BRANCH   1   7
ATOM      7  C   UNL     1       6.639  23.870  75.983  1.00  0.00     0.198 C 
BRANCH   7   8
ATOM      8  O   UNL     1       5.305  23.470  75.721  1.00  0.00    -0.347 OA
BRANCH   8   9
ATOM      9  C   UNL     1       4.401  24.009  76.674  1.00  0.00     0.281 C 
ATOM     10  C   UNL     1       3.740  24.820  73.756  1.00  0.00     0.041 C 
ATOM     11  C   UNL     1       2.958  25.033  75.061  1.00  0.00     0.150 C 
ATOM     12  C   UNL     1       1.844  23.987  75.315  1.00  0.00     0.174 C 
ATOM     13  O   UNL     1       3.822  25.212  76.182  1.00  0.00    -0.344 OA
ATOM     14  C   UNL     1       2.419  22.671  75.872  1.00  0.00     0.179 C 
ATOM     15  C   UNL     1       3.321  22.978  77.072  1.00  0.00     0.202 C 
BRANCH  12  16
ATOM     16  O   UNL     1       1.063  23.770  74.162  1.00  0.00    -0.388 OA
ATOM     17  H   UNL     1       0.588  24.617  73.942  1.00  0.00     0.211 HD
ENDBRANCH  12  16
BRANCH  14  18
ATOM     18  O   UNL     1       1.378  21.815  76.268  1.00  0.00    -0.387 OA
ATOM     19  H   UNL     1       0.983  21.436  75.441  1.00  0.00     0.211 HD
ENDBRANCH  14  18
BRANCH  15  20
ATOM     20  O   UNL     1       2.563  23.502  78.134  1.00  0.00    -0.385 OA
ATOM     21  H   UNL     1       2.701  22.905  78.916  1.00  0.00     0.211 HD
ENDBRANCH  15  20
ENDBRANCH   8   9
ENDBRANCH   7   8
ENDBRANCH   1   7
BRANCH   2  22
ATOM     22  O   UNL     1       6.938  21.169  75.750  1.00  0.00    -0.387 OA
ATOM     23  H   UNL     1       6.322  21.881  75.432  1.00  0.00     0.211 HD
ENDBRANCH   2  22
BRANCH   3  24
ATOM     24  O   UNL     1       9.597  22.055  75.663  1.00  0.00    -0.387 OA
ATOM     25  H   UNL     1      10.494  21.661  75.487  1.00  0.00     0.211 HD
ENDBRANCH   3  24
BRANCH   5  26
ATOM     26  O   UNL     1       8.608  23.123  79.998  1.00  0.00    -0.454 OA
BRANCH  26  27
ATOM     27  C   UNL     1       8.975  23.872  81.123  1.00  0.00     0.214 A 
ATOM     28  C   UNL     1       8.093  24.826  81.675  1.00  0.00     0.180 A 
ATOM     29  C   UNL     1      10.255  23.736  81.683  1.00  0.00     0.239 A 
ATOM     30  O   UNL     1       8.463  25.506  82.756  1.00  0.00    -0.452 OA
ATOM     31  C   UNL     1      10.580  24.417  82.876  1.00  0.00     0.111 A 
ATOM     32  O   UNL     1      11.117  23.055  81.070  1.00  0.00    -0.285 OA
ATOM     33  C   UNL     1       9.633  25.352  83.361  1.00  0.00     0.146 A 
ATOM     34  C   UNL     1      11.806  24.256  83.584  1.00  0.00     0.134 A 
ATOM     35  C   UNL     1       9.929  26.151  84.464  1.00  0.00     0.094 A 
ATOM     36  C   UNL     1      12.095  25.099  84.665  1.00  0.00     0.093 A 
ATOM     37  C   UNL     1      11.164  26.047  85.102  1.00  0.00     0.123 A 
BRANCH  28  38
ATOM     38  C   UNL     1       6.761  25.137  81.096  1.00  0.00     0.025 A 
ATOM     39  C   UNL     1       6.614  25.863  79.898  1.00  0.00     0.062 A 
ATOM     40  C   UNL     1       5.607  24.806  81.827  1.00  0.00     0.016 A 
ATOM     41  C   UNL     1       5.342  26.214  79.422  1.00  0.00     0.158 A 
ATOM     42  C   UNL     1       4.342  25.170  81.362  1.00  0.00     0.051 A 
ATOM     43  C   UNL     1       4.200  25.860  80.156  1.00  0.00     0.157 A 
BRANCH  41  44
ATOM     44  O   UNL     1       5.213  26.928  78.232  1.00  0.00    -0.504 OA
ATOM     45  H   UNL     1       6.009  27.101  77.628  1.00  0.00     0.293 HD
ENDBRANCH  41  44
BRANCH  43  46
ATOM     46  O   UNL     1       2.921  26.194  79.708  1.00  0.00    -0.504 OA
ATOM     47  H   UNL     1       2.572  25.898  78.804  1.00  0.00     0.293 HD
ENDBRANCH  43  46
ENDBRANCH  28  38
BRANCH  34  48
ATOM     48  O   UNL     1      12.746  23.263  83.288  1.00  0.00    -0.507 OA
ATOM     49  H   UNL     1      12.893  22.883  82.366  1.00  0.00     0.293 HD
ENDBRANCH  34  48
BRANCH  37  50
ATOM     50  O   UNL     1      11.454  26.891  86.172  1.00  0.00    -0.508 OA
ATOM     51  H   UNL     1      11.773  26.524  87.063  1.00  0.00     0.293 HD
ENDBRANCH  37  50
ENDBRANCH  26  27
ENDBRANCH   5  26
BRANCH   4  52
ATOM     52  O   UNL     1      11.137  22.061  77.932  1.00  0.00    -0.384 OA
ATOM     53  H   UNL     1      11.488  22.680  78.624  1.00  0.00     0.211 HD
ENDBRANCH   4  52
TORSDOF 16
ENDMDL
MODEL 6
REMARK VINA RESULT:    -7.211      2.834      8.318
REMARK INTER + INTRA:         -14.616
REMARK INTER:                 -13.019
REMARK INTRA:                  -1.597
REMARK UNBOUND:                -2.768
REMARK SMILES C[C@@H]1O[C@H](OC[C@@H]2O[C@@H](Oc3c(-c4ccc(O)c(O)c4)oc4cc(O)cc(O)c4c3=O)[C@H](O)[C@H](O)[C@@H]2O)[C@@H](O)[C@@H](O)[C@@H]1O
REMARK SMILES IDX 7 1 36 2 34 3 32 4 9 5 8 6 6 7 5 8 4 9 1 10 2 11 42 12 3 13
REMARK SMILES IDX 40 14 38 15 43 16 41 18 39 20 37 22 35 24 10 26 11 27 12 28
REMARK SMILES IDX 30 29 21 30 29 31 31 32 22 33 27 34 23 35 26 36 24 37 13 38
REMARK SMILES IDX 20 39 14 40 18 41 15 42 16 43 19 44 17 46 28 48 25 50 33 52
REMARK H PARENT 43 17 41 19 39 21 37 23 35 25 19 45 17 47 28 49 25 51 33 53
REMARK Flexibility Score: inf
ROOT
ATOM      1  C   UNL     1       5.247  23.908  76.706  1.00  0.00     0.180 C 
ATOM      2  C   UNL     1       5.105  22.509  76.020  1.00  0.00     0.177 C 
ATOM      3  C   UNL     1       6.433  22.009  75.448  1.00  0.00     0.180 C 
ATOM      4  C   UNL     1       7.504  21.986  76.554  1.00  0.00     0.214 C 
ATOM      5  C   UNL     1       7.428  23.215  77.505  1.00  0.00     0.339 C 
ATOM      6  O   UNL     1       6.580  24.270  77.064  1.00  0.00    -0.332 OA
ENDROOT
BRANCH   1   7
ATOM      7  C   UNL     1       4.675  25.037  75.829  1.00  0.00     0.198 C 
BRANCH   7   8
ATOM      8  O   UNL     1       4.491  26.207  76.609  1.00  0.00    -0.347 OA
BRANCH   8   9
ATOM      9  C   UNL     1       3.323  26.124  77.411  1.00  0.00     0.281 C 
ATOM     10  C   UNL     1       4.360  29.022  77.048  1.00  0.00     0.041 C 
ATOM     11  C   UNL     1       3.069  28.489  77.684  1.00  0.00     0.150 C 
ATOM     12  C   UNL     1       1.836  28.518  76.746  1.00  0.00     0.174 C 
ATOM     13  O   UNL     1       3.261  27.222  78.312  1.00  0.00    -0.344 OA
ATOM     14  C   UNL     1       1.844  27.333  75.763  1.00  0.00     0.179 C 
ATOM     15  C   UNL     1       2.049  26.028  76.542  1.00  0.00     0.202 C 
BRANCH  12  16
ATOM     16  O   UNL     1       1.724  29.753  76.075  1.00  0.00    -0.388 OA
ATOM     17  H   UNL     1       1.327  29.586  75.177  1.00  0.00     0.211 HD
ENDBRANCH  12  16
BRANCH  14  18
ATOM     18  O   UNL     1       0.631  27.277  75.058  1.00  0.00    -0.387 OA
ATOM     19  H   UNL     1       0.608  28.066  74.456  1.00  0.00     0.211 HD
ENDBRANCH  14  18
BRANCH  15  20
ATOM     20  O   UNL     1       0.947  25.778  77.377  1.00  0.00    -0.385 OA
ATOM     21  H   UNL     1       1.290  25.732  78.309  1.00  0.00     0.211 HD
ENDBRANCH  15  20
ENDBRANCH   8   9
ENDBRANCH   7   8
ENDBRANCH   1   7
BRANCH   2  22
ATOM     22  O   UNL     1       4.127  22.496  75.007  1.00  0.00    -0.387 OA
ATOM     23  H   UNL     1       3.438  23.162  75.265  1.00  0.00     0.211 HD
ENDBRANCH   2  22
BRANCH   3  24
ATOM     24  O   UNL     1       6.835  22.755  74.324  1.00  0.00    -0.387 OA
ATOM     25  H   UNL     1       6.406  23.653  74.372  1.00  0.00     0.211 HD
ENDBRANCH   3  24
BRANCH   5  26
ATOM     26  O   UNL     1       7.216  22.848  78.880  1.00  0.00    -0.454 OA
BRANCH  26  27
ATOM     27  C   UNL     1       7.785  23.454  80.008  1.00  0.00     0.214 A 
ATOM     28  C   UNL     1       6.984  24.170  80.923  1.00  0.00     0.180 A 
ATOM     29  C   UNL     1       9.172  23.417  80.212  1.00  0.00     0.239 A 
ATOM     30  O   UNL     1       7.551  24.716  81.995  1.00  0.00    -0.452 OA
ATOM     31  C   UNL     1       9.725  23.939  81.402  1.00  0.00     0.111 A 
ATOM     32  O   UNL     1       9.911  22.973  79.295  1.00  0.00    -0.285 OA
ATOM     33  C   UNL     1       8.846  24.637  82.265  1.00  0.00     0.146 A 
ATOM     34  C   UNL     1      11.102  23.846  81.756  1.00  0.00     0.134 A 
ATOM     35  C   UNL     1       9.337  25.285  83.399  1.00  0.00     0.094 A 
ATOM     36  C   UNL     1      11.574  24.539  82.878  1.00  0.00     0.093 A 
ATOM     37  C   UNL     1      10.698  25.261  83.695  1.00  0.00     0.123 A 
BRANCH  28  38
ATOM     38  C   UNL     1       5.523  24.373  80.746  1.00  0.00     0.025 A 
ATOM     39  C   UNL     1       4.826  25.413  81.391  1.00  0.00     0.062 A 
ATOM     40  C   UNL     1       4.789  23.426  80.011  1.00  0.00     0.016 A 
ATOM     41  C   UNL     1       3.433  25.526  81.272  1.00  0.00     0.158 A 
ATOM     42  C   UNL     1       3.400  23.530  79.906  1.00  0.00     0.051 A 
ATOM     43  C   UNL     1       2.718  24.583  80.519  1.00  0.00     0.157 A 
BRANCH  41  44
ATOM     44  O   UNL     1       2.758  26.565  81.911  1.00  0.00    -0.504 OA
ATOM     45  H   UNL     1       3.178  27.481  82.023  1.00  0.00     0.293 HD
ENDBRANCH  41  44
BRANCH  43  46
ATOM     46  O   UNL     1       1.332  24.670  80.380  1.00  0.00    -0.504 OA
ATOM     47  H   UNL     1       0.797  25.431  80.781  1.00  0.00     0.293 HD
ENDBRANCH  43  46
ENDBRANCH  28  38
BRANCH  34  48
ATOM     48  O   UNL     1      12.028  23.059  81.063  1.00  0.00    -0.507 OA
ATOM     49  H   UNL     1      11.788  22.219  80.557  1.00  0.00     0.293 HD
ENDBRANCH  34  48
BRANCH  37  50
ATOM     50  O   UNL     1      11.169  25.956  84.807  1.00  0.00    -0.508 OA
ATOM     51  H   UNL     1      11.975  26.568  84.745  1.00  0.00     0.293 HD
ENDBRANCH  37  50
ENDBRANCH  26  27
ENDBRANCH   5  26
BRANCH   4  52
ATOM     52  O   UNL     1       8.790  21.825  76.005  1.00  0.00    -0.384 OA
ATOM     53  H   UNL     1       8.822  20.944  75.547  1.00  0.00     0.211 HD
ENDBRANCH   4  52
TORSDOF 16
ENDMDL
MODEL 7
REMARK VINA RESULT:    -7.186      2.854      8.267
REMARK INTER + INTRA:         -14.575
REMARK INTER:                 -12.324
REMARK INTRA:                  -2.251
REMARK UNBOUND:                -2.768
REMARK SMILES C[C@@H]1O[C@H](OC[C@@H]2O[C@@H](Oc3c(-c4ccc(O)c(O)c4)oc4cc(O)cc(O)c4c3=O)[C@H](O)[C@H](O)[C@@H]2O)[C@@H](O)[C@@H](O)[C@@H]1O
REMARK SMILES IDX 7 1 36 2 34 3 32 4 9 5 8 6 6 7 5 8 4 9 1 10 2 11 42 12 3 13
REMARK SMILES IDX 40 14 38 15 43 16 41 18 39 20 37 22 35 24 10 26 11 27 12 28
REMARK SMILES IDX 30 29 21 30 29 31 31 32 22 33 27 34 23 35 26 36 24 37 13 38
REMARK SMILES IDX 20 39 14 40 18 41 15 42 16 43 19 44 17 46 28 48 25 50 33 52
REMARK H PARENT 43 17 41 19 39 21 37 23 35 25 19 45 17 47 28 49 25 51 33 53
REMARK Flexibility Score: inf
ROOT
ATOM      1  C   UNL     1       5.963  22.750  76.070  1.00  0.00     0.180 C 
ATOM      2  C   UNL     1       6.945  21.573  75.754  1.00  0.00     0.177 C 
ATOM      3  C   UNL     1       8.397  22.043  75.653  1.00  0.00     0.180 C 
ATOM      4  C   UNL     1       8.800  22.779  76.945  1.00  0.00     0.214 C 
ATOM      5  C   UNL     1       7.674  23.697  77.502  1.00  0.00     0.339 C 
ATOM      6  O   UNL     1       6.578  23.914  76.621  1.00  0.00    -0.332 OA
ENDROOT
BRANCH   1   7
ATOM      7  C   UNL     1       5.170  23.184  74.824  1.00  0.00     0.198 C 
BRANCH   7   8
ATOM      8  O   UNL     1       4.358  24.304  75.135  1.00  0.00    -0.347 OA
BRANCH   8   9
ATOM      9  C   UNL     1       3.294  24.454  74.206  1.00  0.00     0.281 C 
ATOM     10  C   UNL     1       2.333  23.792  77.077  1.00  0.00     0.041 C 
ATOM     11  C   UNL     1       1.546  24.189  75.820  1.00  0.00     0.150 C 
ATOM     12  C   UNL     1       1.178  25.692  75.747  1.00  0.00     0.174 C 
ATOM     13  O   UNL     1       2.160  23.706  74.626  1.00  0.00    -0.344 OA
ATOM     14  C   UNL     1       2.370  26.544  75.273  1.00  0.00     0.179 C 
ATOM     15  C   UNL     1       2.945  25.943  73.986  1.00  0.00     0.202 C 
BRANCH  12  16
ATOM     16  O   UNL     1       0.655  26.159  76.969  1.00  0.00    -0.388 OA
ATOM     17  H   UNL     1      -0.321  26.319  76.851  1.00  0.00     0.211 HD
ENDBRANCH  12  16
BRANCH  14  18
ATOM     18  O   UNL     1       1.959  27.866  75.035  1.00  0.00    -0.387 OA
ATOM     19  H   UNL     1       1.481  27.869  74.165  1.00  0.00     0.211 HD
ENDBRANCH  14  18
BRANCH  15  20
ATOM     20  O   UNL     1       2.012  26.040  72.939  1.00  0.00    -0.385 OA
ATOM     21  H   UNL     1       2.434  25.642  72.132  1.00  0.00     0.211 HD
ENDBRANCH  15  20
ENDBRANCH   8   9
ENDBRANCH   7   8
ENDBRANCH   1   7
BRANCH   2  22
ATOM     22  O   UNL     1       6.599  20.875  74.582  1.00  0.00    -0.387 OA
ATOM     23  H   UNL     1       7.248  21.150  73.882  1.00  0.00     0.211 HD
ENDBRANCH   2  22
BRANCH   3  24
ATOM     24  O   UNL     1       8.619  22.818  74.500  1.00  0.00    -0.387 OA
ATOM     25  H   UNL     1       7.759  23.246  74.236  1.00  0.00     0.211 HD
ENDBRANCH   3  24
BRANCH   5  26
ATOM     26  O   UNL     1       7.272  23.344  78.838  1.00  0.00    -0.454 OA
BRANCH  26  27
ATOM     27  C   UNL     1       7.759  23.887  80.033  1.00  0.00     0.214 A 
ATOM     28  C   UNL     1       6.989  24.809  80.774  1.00  0.00     0.180 A 
ATOM     29  C   UNL     1       9.052  23.576  80.482  1.00  0.00     0.239 A 
ATOM     30  O   UNL     1       7.471  25.292  81.915  1.00  0.00    -0.452 OA
ATOM     31  C   UNL     1       9.495  24.045  81.738  1.00  0.00     0.111 A 
ATOM     32  O   UNL     1       9.821  22.932  79.722  1.00  0.00    -0.285 OA
ATOM     33  C   UNL     1       8.655  24.964  82.413  1.00  0.00     0.146 A 
ATOM     34  C   UNL     1      10.739  23.691  82.333  1.00  0.00     0.134 A 
ATOM     35  C   UNL     1       9.075  25.565  83.600  1.00  0.00     0.094 A 
ATOM     36  C   UNL     1      11.154  24.340  83.504  1.00  0.00     0.093 A 
ATOM     37  C   UNL     1      10.330  25.277  84.133  1.00  0.00     0.123 A 
BRANCH  28  38
ATOM     38  C   UNL     1       5.657  25.300  80.334  1.00  0.00     0.025 A 
ATOM     39  C   UNL     1       5.508  26.221  79.278  1.00  0.00     0.062 A 
ATOM     40  C   UNL     1       4.519  24.932  81.071  1.00  0.00     0.016 A 
ATOM     41  C   UNL     1       4.244  26.730  78.943  1.00  0.00     0.158 A 
ATOM     42  C   UNL     1       3.264  25.452  80.748  1.00  0.00     0.051 A 
ATOM     43  C   UNL     1       3.116  26.338  79.679  1.00  0.00     0.157 A 
BRANCH  41  44
ATOM     44  O   UNL     1       4.111  27.636  77.893  1.00  0.00    -0.504 OA
ATOM     45  H   UNL     1       3.491  27.455  77.110  1.00  0.00     0.293 HD
ENDBRANCH  41  44
BRANCH  43  46
ATOM     46  O   UNL     1       1.846  26.826  79.369  1.00  0.00    -0.504 OA
ATOM     47  H   UNL     1       1.002  26.410  79.743  1.00  0.00     0.293 HD
ENDBRANCH  43  46
ENDBRANCH  28  38
BRANCH  34  48
ATOM     48  O   UNL     1      11.578  22.687  81.836  1.00  0.00    -0.507 OA
ATOM     49  H   UNL     1      11.252  21.884  81.319  1.00  0.00     0.293 HD
ENDBRANCH  34  48
BRANCH  37  50
ATOM     50  O   UNL     1      10.744  25.928  85.293  1.00  0.00    -0.508 OA
ATOM     51  H   UNL     1      10.373  25.674  86.203  1.00  0.00     0.293 HD
ENDBRANCH  37  50
ENDBRANCH  26  27
ENDBRANCH   5  26
BRANCH   4  52
ATOM     52  O   UNL     1      10.009  23.478  76.769  1.00  0.00    -0.384 OA
ATOM     53  H   UNL     1      10.574  23.325  77.571  1.00  0.00     0.211 HD
ENDBRANCH   4  52
TORSDOF 16
ENDMDL
MODEL 8
REMARK VINA RESULT:    -7.107      1.868      7.961
REMARK INTER + INTRA:         -14.445
REMARK INTER:                 -12.620
REMARK INTRA:                  -1.825
REMARK UNBOUND:                -2.768
REMARK SMILES C[C@@H]1O[C@H](OC[C@@H]2O[C@@H](Oc3c(-c4ccc(O)c(O)c4)oc4cc(O)cc(O)c4c3=O)[C@H](O)[C@H](O)[C@@H]2O)[C@@H](O)[C@@H](O)[C@@H]1O
REMARK SMILES IDX 7 1 36 2 34 3 32 4 9 5 8 6 6 7 5 8 4 9 1 10 2 11 42 12 3 13
REMARK SMILES IDX 40 14 38 15 43 16 41 18 39 20 37 22 35 24 10 26 11 27 12 28
REMARK SMILES IDX 30 29 21 30 29 31 31 32 22 33 27 34 23 35 26 36 24 37 13 38
REMARK SMILES IDX 20 39 14 40 18 41 15 42 16 43 19 44 17 46 28 48 25 50 33 52
REMARK H PARENT 43 17 41 19 39 21 37 23 35 25 19 45 17 47 28 49 25 51 33 53
REMARK Flexibility Score: inf
ROOT
ATOM      1  C   UNL     1       3.161  24.864  76.239  1.00  0.00     0.180 C 
ATOM      2  C   UNL     1       1.774  24.139  76.219  1.00  0.00     0.177 C 
ATOM      3  C   UNL     1       1.754  22.957  75.247  1.00  0.00     0.180 C 
ATOM      4  C   UNL     1       2.894  21.980  75.589  1.00  0.00     0.214 C 
ATOM      5  C   UNL     1       4.216  22.696  75.987  1.00  0.00     0.339 C 
ATOM      6  O   UNL     1       4.248  24.095  75.727  1.00  0.00    -0.332 OA
ENDROOT
BRANCH   1   7
ATOM      7  C   UNL     1       3.123  26.195  75.467  1.00  0.00     0.198 C 
BRANCH   7   8
ATOM      8  O   UNL     1       2.608  27.221  76.299  1.00  0.00    -0.347 OA
BRANCH   8   9
ATOM      9  C   UNL     1       3.634  27.842  77.060  1.00  0.00     0.281 C 
ATOM     10  C   UNL     1       1.357  29.783  76.252  1.00  0.00     0.041 C 
ATOM     11  C   UNL     1       2.557  29.976  77.190  1.00  0.00     0.150 C 
ATOM     12  C   UNL     1       2.229  29.778  78.692  1.00  0.00     0.174 C 
ATOM     13  O   UNL     1       3.697  29.232  76.766  1.00  0.00    -0.344 OA
ATOM     14  C   UNL     1       2.172  28.286  79.068  1.00  0.00     0.179 C 
ATOM     15  C   UNL     1       3.444  27.588  78.573  1.00  0.00     0.202 C 
BRANCH  12  16
ATOM     16  O   UNL     1       1.049  30.456  79.060  1.00  0.00    -0.388 OA
ATOM     17  H   UNL     1       1.239  30.993  79.876  1.00  0.00     0.211 HD
ENDBRANCH  12  16
BRANCH  14  18
ATOM     18  O   UNL     1       2.063  28.138  80.460  1.00  0.00    -0.387 OA
ATOM     19  H   UNL     1       1.237  28.613  80.738  1.00  0.00     0.211 HD
ENDBRANCH  14  18
BRANCH  15  20
ATOM     20  O   UNL     1       4.570  28.075  79.259  1.00  0.00    -0.385 OA
ATOM     21  H   UNL     1       4.719  27.477  80.039  1.00  0.00     0.211 HD
ENDBRANCH  15  20
ENDBRANCH   8   9
ENDBRANCH   7   8
ENDBRANCH   1   7
BRANCH   2  22
ATOM     22  O   UNL     1       0.710  25.009  75.916  1.00  0.00    -0.387 OA
ATOM     23  H   UNL     1       0.286  25.255  76.779  1.00  0.00     0.211 HD
ENDBRANCH   2  22
BRANCH   3  24
ATOM     24  O   UNL     1       1.791  23.380  73.905  1.00  0.00    -0.387 OA
ATOM     25  H   UNL     1       2.132  22.629  73.347  1.00  0.00     0.211 HD
ENDBRANCH   3  24
BRANCH   5  26
ATOM     26  O   UNL     1       4.666  22.350  77.309  1.00  0.00    -0.454 OA
BRANCH  26  27
ATOM     27  C   UNL     1       5.932  22.595  77.856  1.00  0.00     0.214 A 
ATOM     28  C   UNL     1       6.070  23.306  79.067  1.00  0.00     0.180 A 
ATOM     29  C   UNL     1       7.091  22.196  77.174  1.00  0.00     0.239 A 
ATOM     30  O   UNL     1       7.285  23.505  79.571  1.00  0.00    -0.452 OA
ATOM     31  C   UNL     1       8.357  22.353  77.780  1.00  0.00     0.111 A 
ATOM     32  O   UNL     1       6.986  21.760  75.998  1.00  0.00    -0.285 OA
ATOM     33  C   UNL     1       8.400  23.076  78.997  1.00  0.00     0.146 A 
ATOM     34  C   UNL     1       9.579  21.877  77.224  1.00  0.00     0.134 A 
ATOM     35  C   UNL     1       9.623  23.379  79.596  1.00  0.00     0.094 A 
ATOM     36  C   UNL     1      10.794  22.229  77.824  1.00  0.00     0.093 A 
ATOM     37  C   UNL     1      10.819  22.981  79.002  1.00  0.00     0.123 A 
BRANCH  28  38
ATOM     38  C   UNL     1       4.920  23.877  79.814  1.00  0.00     0.025 A 
ATOM     39  C   UNL     1       3.584  23.620  79.446  1.00  0.00     0.062 A 
ATOM     40  C   UNL     1       5.168  24.802  80.843  1.00  0.00     0.016 A 
ATOM     41  C   UNL     1       2.522  24.243  80.119  1.00  0.00     0.158 A 
ATOM     42  C   UNL     1       4.111  25.434  81.501  1.00  0.00     0.051 A 
ATOM     43  C   UNL     1       2.788  25.150  81.156  1.00  0.00     0.157 A 
BRANCH  41  44
ATOM     44  O   UNL     1       1.206  23.974  79.748  1.00  0.00    -0.504 OA
ATOM     45  H   UNL     1       0.874  24.147  78.804  1.00  0.00     0.293 HD
ENDBRANCH  41  44
BRANCH  43  46
ATOM     46  O   UNL     1       1.753  25.783  81.844  1.00  0.00    -0.504 OA
ATOM     47  H   UNL     1       0.839  25.926  81.431  1.00  0.00     0.293 HD
ENDBRANCH  43  46
ENDBRANCH  28  38
BRANCH  34  48
ATOM     48  O   UNL     1       9.645  21.028  76.113  1.00  0.00    -0.507 OA
ATOM     49  H   UNL     1       9.257  21.252  75.209  1.00  0.00     0.293 HD
ENDBRANCH  34  48
BRANCH  37  50
ATOM     50  O   UNL     1      12.029  23.338  79.596  1.00  0.00    -0.508 OA
ATOM     51  H   UNL     1      12.788  23.735  79.052  1.00  0.00     0.293 HD
ENDBRANCH  37  50
ENDBRANCH  26  27
ENDBRANCH   5  26
BRANCH   4  52
ATOM     52  O   UNL     1       3.090  21.053  74.548  1.00  0.00    -0.384 OA
ATOM     53  H   UNL     1       2.230  20.583  74.386  1.00  0.00     0.211 HD
ENDBRANCH   4  52
TORSDOF 16
ENDMDL
MODEL 9
REMARK VINA RESULT:    -7.071      2.956      8.886
REMARK INTER + INTRA:         -14.386
REMARK INTER:                 -12.641
REMARK INTRA:                  -1.745
REMARK UNBOUND:                -2.768
REMARK SMILES C[C@@H]1O[C@H](OC[C@@H]2O[C@@H](Oc3c(-c4ccc(O)c(O)c4)oc4cc(O)cc(O)c4c3=O)[C@H](O)[C@H](O)[C@@H]2O)[C@@H](O)[C@@H](O)[C@@H]1O
REMARK SMILES IDX 7 1 36 2 34 3 32 4 9 5 8 6 6 7 5 8 4 9 1 10 2 11 42 12 3 13
REMARK SMILES IDX 40 14 38 15 43 16 41 18 39 20 37 22 35 24 10 26 11 27 12 28
REMARK SMILES IDX 30 29 21 30 29 31 31 32 22 33 27 34 23 35 26 36 24 37 13 38
REMARK SMILES IDX 20 39 14 40 18 41 15 42 16 43 19 44 17 46 28 48 25 50 33 52
REMARK H PARENT 43 17 41 19 39 21 37 23 35 25 19 45 17 47 28 49 25 51 33 53
REMARK Flexibility Score: inf
ROOT
ATOM      1  C   UNL     1       4.287  26.237  79.637  1.00  0.00     0.180 C 
ATOM      2  C   UNL     1       4.109  25.478  80.994  1.00  0.00     0.177 C 
ATOM      3  C   UNL     1       4.109  23.959  80.811  1.00  0.00     0.180 C 
ATOM      4  C   UNL     1       5.395  23.519  80.085  1.00  0.00     0.214 C 
ATOM      5  C   UNL     1       5.813  24.486  78.941  1.00  0.00     0.339 C 
ATOM      6  O   UNL     1       4.834  25.452  78.577  1.00  0.00    -0.332 OA
ENDROOT
BRANCH   1   7
ATOM      7  C   UNL     1       2.960  26.838  79.138  1.00  0.00     0.198 C 
BRANCH   7   8
ATOM      8  O   UNL     1       2.732  26.455  77.792  1.00  0.00    -0.347 OA
BRANCH   8   9
ATOM      9  C   UNL     1       1.561  25.662  77.666  1.00  0.00     0.281 C 
ATOM     10  C   UNL     1       2.774  26.506  74.941  1.00  0.00     0.041 C 
ATOM     11  C   UNL     1       1.632  25.536  75.276  1.00  0.00     0.150 C 
ATOM     12  C   UNL     1       2.053  24.045  75.314  1.00  0.00     0.174 C 
ATOM     13  O   UNL     1       0.905  25.940  76.435  1.00  0.00    -0.344 OA
ATOM     14  C   UNL     1       2.749  23.687  76.640  1.00  0.00     0.179 C 
ATOM     15  C   UNL     1       1.881  24.157  77.813  1.00  0.00     0.202 C 
BRANCH  12  16
ATOM     16  O   UNL     1       2.843  23.700  74.199  1.00  0.00    -0.388 OA
ATOM     17  H   UNL     1       3.559  23.079  74.503  1.00  0.00     0.211 HD
ENDBRANCH  12  16
BRANCH  14  18
ATOM     18  O   UNL     1       2.948  22.299  76.726  1.00  0.00    -0.387 OA
ATOM     19  H   UNL     1       3.317  22.114  77.628  1.00  0.00     0.211 HD
ENDBRANCH  14  18
BRANCH  15  20
ATOM     20  O   UNL     1       0.674  23.438  77.850  1.00  0.00    -0.385 OA
ATOM     21  H   UNL     1       0.302  23.441  76.929  1.00  0.00     0.211 HD
ENDBRANCH  15  20
ENDBRANCH   8   9
ENDBRANCH   7   8
ENDBRANCH   1   7
BRANCH   2  22
ATOM     22  O   UNL     1       2.946  25.864  81.685  1.00  0.00    -0.387 OA
ATOM     23  H   UNL     1       3.018  26.841  81.845  1.00  0.00     0.211 HD
ENDBRANCH   2  22
BRANCH   3  24
ATOM     24  O   UNL     1       2.944  23.509  80.163  1.00  0.00    -0.387 OA
ATOM     25  H   UNL     1       2.600  22.711  80.650  1.00  0.00     0.211 HD
ENDBRANCH   3  24
BRANCH   5  26
ATOM     26  O   UNL     1       7.125  25.046  79.130  1.00  0.00    -0.454 OA
BRANCH  26  27
ATOM     27  C   UNL     1       8.146  24.535  79.942  1.00  0.00     0.214 A 
ATOM     28  C   UNL     1       8.971  23.484  79.488  1.00  0.00     0.180 A 
ATOM     29  C   UNL     1       8.324  25.015  81.248  1.00  0.00     0.239 A 
ATOM     30  O   UNL     1       9.945  23.035  80.274  1.00  0.00    -0.452 OA
ATOM     31  C   UNL     1       9.419  24.570  82.021  1.00  0.00     0.111 A 
ATOM     32  O   UNL     1       7.461  25.792  81.734  1.00  0.00    -0.285 OA
ATOM     33  C   UNL     1      10.196  23.514  81.485  1.00  0.00     0.146 A 
ATOM     34  C   UNL     1       9.753  25.080  83.308  1.00  0.00     0.134 A 
ATOM     35  C   UNL     1      11.219  22.937  82.237  1.00  0.00     0.094 A 
ATOM     36  C   UNL     1      10.759  24.456  84.058  1.00  0.00     0.093 A 
ATOM     37  C   UNL     1      11.486  23.385  83.529  1.00  0.00     0.123 A 
BRANCH  28  38
ATOM     38  C   UNL     1       8.798  22.821  78.170  1.00  0.00     0.025 A 
ATOM     39  C   UNL     1       9.151  23.452  76.960  1.00  0.00     0.062 A 
ATOM     40  C   UNL     1       8.149  21.576  78.114  1.00  0.00     0.016 A 
ATOM     41  C   UNL     1       8.895  22.834  75.727  1.00  0.00     0.158 A 
ATOM     42  C   UNL     1       7.880  20.969  76.886  1.00  0.00     0.051 A 
ATOM     43  C   UNL     1       8.262  21.583  75.691  1.00  0.00     0.157 A 
BRANCH  41  44
ATOM     44  O   UNL     1       9.255  23.469  74.539  1.00  0.00    -0.504 OA
ATOM     45  H   UNL     1       9.447  22.943  73.693  1.00  0.00     0.293 HD
ENDBRANCH  41  44
BRANCH  43  46
ATOM     46  O   UNL     1       7.997  20.943  74.480  1.00  0.00    -0.504 OA
ATOM     47  H   UNL     1       7.055  20.714  74.186  1.00  0.00     0.293 HD
ENDBRANCH  43  46
ENDBRANCH  28  38
BRANCH  34  48
ATOM     48  O   UNL     1       9.156  26.212  83.871  1.00  0.00    -0.507 OA
ATOM     49  H   UNL     1       8.166  26.302  84.043  1.00  0.00     0.293 HD
ENDBRANCH  34  48
BRANCH  37  50
ATOM     50  O   UNL     1      12.482  22.760  84.277  1.00  0.00    -0.508 OA
ATOM     51  H   UNL     1      12.513  21.751  84.376  1.00  0.00     0.293 HD
ENDBRANCH  37  50
ENDBRANCH  26  27
ENDBRANCH   5  26
BRANCH   4  52
ATOM     52  O   UNL     1       5.288  22.189  79.638  1.00  0.00    -0.384 OA
ATOM     53  H   UNL     1       4.645  21.715  80.228  1.00  0.00     0.211 HD
ENDBRANCH   4  52
TORSDOF 16
ENDMDL
