MODEL 1
REMARK VINA RESULT:    -5.892      0.000      0.000
REMARK INTER + INTRA:          -8.759
REMARK INTER:                  -7.958
REMARK INTRA:                  -0.801
REMARK UNBOUND:                -0.801
REMARK SMILES O=c1c(-c2ccc(O)cc2)coc2c([C@@H]3O[C@H](CO)[C@H](O)[C@H](O)[C@@H]3O)c(O)ccc12
REMARK SMILES IDX 3 1 11 2 12 3 13 4 30 5 2 6 1 7 29 8 28 9 26 10 14 11 4 12
REMARK SMILES IDX 5 13 6 14 7 15 10 16 9 17 8 18 15 20 24 21 16 22 22 23 17 24
REMARK SMILES IDX 20 25 25 26 23 28 18 30 19 31 21 33 27 35
REMARK H PARENT 8 19 25 27 23 29 19 32 21 34 27 36
REMARK Flexibility Score: inf
ROOT
ATOM      1  C   UNL     1      23.716  28.894  -5.050  1.00  0.00     0.065 A 
ATOM      2  C   UNL     1      23.605  28.086  -6.178  1.00  0.00     0.208 A 
ATOM      3  O   UNL     1      23.749  26.769  -6.086  1.00  0.00    -0.463 OA
ATOM      4  C   UNL     1      24.032  26.135  -4.951  1.00  0.00     0.147 A 
ATOM      5  C   UNL     1      24.178  26.893  -3.762  1.00  0.00     0.066 A 
ATOM      6  C   UNL     1      24.000  28.288  -3.822  1.00  0.00     0.200 A 
ATOM      7  O   UNL     1      24.089  28.991  -2.778  1.00  0.00    -0.288 OA
ATOM      8  C   UNL     1      24.480  26.244  -2.556  1.00  0.00     0.020 A 
ATOM      9  C   UNL     1      24.577  24.860  -2.515  1.00  0.00     0.047 A 
ATOM     10  C   UNL     1      24.376  24.089  -3.671  1.00  0.00     0.125 A 
ATOM     11  C   UNL     1      24.176  24.717  -4.930  1.00  0.00     0.069 A 
ENDROOT
BRANCH   1  12
ATOM     12  C   UNL     1      23.509  30.349  -5.172  1.00  0.00    -0.011 A 
ATOM     13  C   UNL     1      22.207  30.861  -5.272  1.00  0.00     0.013 A 
ATOM     14  C   UNL     1      22.002  32.236  -5.434  1.00  0.00     0.047 A 
ATOM     15  C   UNL     1      23.103  33.102  -5.520  1.00  0.00     0.115 A 
ATOM     16  C   UNL     1      24.607  31.218  -5.240  1.00  0.00     0.013 A 
ATOM     17  C   UNL     1      24.405  32.587  -5.421  1.00  0.00     0.047 A 
BRANCH  15  18
ATOM     18  O   UNL     1      22.892  34.467  -5.721  1.00  0.00    -0.508 OA
ATOM     19  H   UNL     1      22.427  34.817  -6.551  1.00  0.00     0.293 HD
ENDBRANCH  15  18
ENDBRANCH   1  12
BRANCH  11  20
ATOM     20  C   UNL     1      23.952  23.860  -6.192  1.00  0.00     0.188 C 
ATOM     21  C   UNL     1      25.007  24.061  -7.329  1.00  0.00     0.179 C 
ATOM     22  O   UNL     1      23.956  22.479  -5.868  1.00  0.00    -0.362 OA
ATOM     23  C   UNL     1      24.975  22.900  -8.373  1.00  0.00     0.177 C 
ATOM     24  C   UNL     1      23.284  21.706  -6.857  1.00  0.00     0.176 C 
ATOM     25  C   UNL     1      23.623  22.169  -8.319  1.00  0.00     0.177 C 
BRANCH  21  26
ATOM     26  O   UNL     1      26.305  24.233  -6.805  1.00  0.00    -0.387 OA
ATOM     27  H   UNL     1      26.457  25.208  -6.712  1.00  0.00     0.211 HD
ENDBRANCH  21  26
BRANCH  23  28
ATOM     28  O   UNL     1      26.018  21.979  -8.157  1.00  0.00    -0.387 OA
ATOM     29  H   UNL     1      26.714  22.164  -8.842  1.00  0.00     0.211 HD
ENDBRANCH  23  28
BRANCH  24  30
ATOM     30  C   UNL     1      23.587  20.217  -6.586  1.00  0.00     0.191 C 
BRANCH  30  31
ATOM     31  O   UNL     1      24.971  19.974  -6.644  1.00  0.00    -0.394 OA
ATOM     32  H   UNL     1      25.120  19.076  -6.243  1.00  0.00     0.210 HD
ENDBRANCH  30  31
ENDBRANCH  24  30
BRANCH  25  33
ATOM     33  O   UNL     1      23.610  21.116  -9.244  1.00  0.00    -0.388 OA
ATOM     34  H   UNL     1      24.563  20.867  -9.406  1.00  0.00     0.211 HD
ENDBRANCH  25  33
ENDBRANCH  11  20
BRANCH  10  35
ATOM     35  O   UNL     1      24.370  22.693  -3.554  1.00  0.00    -0.507 OA
ATOM     36  H   UNL     1      25.133  22.128  -3.913  1.00  0.00     0.293 HD
ENDBRANCH  10  35
TORSDOF 9
ENDMDL
MODEL 2
REMARK VINA RESULT:    -5.844      2.401      8.528
REMARK INTER + INTRA:          -8.694
REMARK INTER:                  -7.632
REMARK INTRA:                  -1.062
REMARK UNBOUND:                -0.801
REMARK SMILES O=c1c(-c2ccc(O)cc2)coc2c([C@@H]3O[C@H](CO)[C@H](O)[C@H](O)[C@@H]3O)c(O)ccc12
REMARK SMILES IDX 3 1 11 2 12 3 13 4 30 5 2 6 1 7 29 8 28 9 26 10 14 11 4 12
REMARK SMILES IDX 5 13 6 14 7 15 10 16 9 17 8 18 15 20 24 21 16 22 22 23 17 24
REMARK SMILES IDX 20 25 25 26 23 28 18 30 19 31 21 33 27 35
REMARK H PARENT 8 19 25 27 23 29 19 32 21 34 27 36
REMARK Flexibility Score: inf
ROOT
ATOM      1  C   UNL     1      24.281  24.081  -3.570  1.00  0.00     0.065 A 
ATOM      2  C   UNL     1      24.538  25.370  -3.112  1.00  0.00     0.208 A 
ATOM      3  O   UNL     1      24.494  26.406  -3.941  1.00  0.00    -0.463 OA
ATOM      4  C   UNL     1      24.239  26.300  -5.242  1.00  0.00     0.147 A 
ATOM      5  C   UNL     1      23.984  25.016  -5.787  1.00  0.00     0.066 A 
ATOM      6  C   UNL     1      23.992  23.902  -4.927  1.00  0.00     0.200 A 
ATOM      7  O   UNL     1      23.737  22.748  -5.369  1.00  0.00    -0.288 OA
ATOM      8  C   UNL     1      23.717  24.883  -7.157  1.00  0.00     0.020 A 
ATOM      9  C   UNL     1      23.644  26.008  -7.966  1.00  0.00     0.047 A 
ATOM     10  C   UNL     1      23.834  27.292  -7.432  1.00  0.00     0.125 A 
ATOM     11  C   UNL     1      24.213  27.458  -6.072  1.00  0.00     0.069 A 
ENDROOT
BRANCH   1  12
ATOM     12  C   UNL     1      24.293  22.954  -2.620  1.00  0.00    -0.011 A 
ATOM     13  C   UNL     1      23.153  22.680  -1.849  1.00  0.00     0.013 A 
ATOM     14  C   UNL     1      23.170  21.640  -0.912  1.00  0.00     0.047 A 
ATOM     15  C   UNL     1      24.338  20.885  -0.727  1.00  0.00     0.115 A 
ATOM     16  C   UNL     1      25.452  22.186  -2.446  1.00  0.00     0.013 A 
ATOM     17  C   UNL     1      25.477  21.162  -1.498  1.00  0.00     0.047 A 
BRANCH  15  18
ATOM     18  O   UNL     1      24.360  19.876   0.237  1.00  0.00    -0.508 OA
ATOM     19  H   UNL     1      23.507  19.498   0.632  1.00  0.00     0.293 HD
ENDBRANCH  15  18
ENDBRANCH   1  12
BRANCH  11  20
ATOM     20  C   UNL     1      24.416  28.874  -5.496  1.00  0.00     0.188 C 
ATOM     21  C   UNL     1      25.862  29.451  -5.641  1.00  0.00     0.179 C 
ATOM     22  O   UNL     1      23.539  29.799  -6.118  1.00  0.00    -0.362 OA
ATOM     23  C   UNL     1      25.901  30.999  -5.430  1.00  0.00     0.177 C 
ATOM     24  C   UNL     1      23.339  30.956  -5.312  1.00  0.00     0.176 C 
ATOM     25  C   UNL     1      24.666  31.462  -4.641  1.00  0.00     0.177 C 
BRANCH  21  26
ATOM     26  O   UNL     1      26.438  29.097  -6.879  1.00  0.00    -0.387 OA
ATOM     27  H   UNL     1      26.689  28.139  -6.822  1.00  0.00     0.211 HD
ENDBRANCH  21  26
BRANCH  23  28
ATOM     28  O   UNL     1      25.966  31.689  -6.656  1.00  0.00    -0.387 OA
ATOM     29  H   UNL     1      25.122  31.494  -7.143  1.00  0.00     0.211 HD
ENDBRANCH  23  28
BRANCH  24  30
ATOM     30  C   UNL     1      22.628  32.021  -6.175  1.00  0.00     0.191 C 
BRANCH  30  31
ATOM     31  O   UNL     1      21.975  32.964  -5.361  1.00  0.00    -0.394 OA
ATOM     32  H   UNL     1      21.779  32.509  -4.499  1.00  0.00     0.210 HD
ENDBRANCH  30  31
ENDBRANCH  24  30
BRANCH  25  33
ATOM     33  O   UNL     1      24.698  32.854  -4.473  1.00  0.00    -0.388 OA
ATOM     34  H   UNL     1      25.453  33.048  -3.851  1.00  0.00     0.211 HD
ENDBRANCH  25  33
ENDBRANCH  11  20
BRANCH  10  35
ATOM     35  O   UNL     1      23.636  28.401  -8.264  1.00  0.00    -0.507 OA
ATOM     36  H   UNL     1      23.412  28.292  -9.249  1.00  0.00     0.293 HD
ENDBRANCH  10  35
TORSDOF 9
ENDMDL
MODEL 3
REMARK VINA RESULT:    -5.712      4.089      6.512
REMARK INTER + INTRA:          -8.516
REMARK INTER:                  -7.223
REMARK INTRA:                  -1.292
REMARK UNBOUND:                -0.801
REMARK SMILES O=c1c(-c2ccc(O)cc2)coc2c([C@@H]3O[C@H](CO)[C@H](O)[C@H](O)[C@@H]3O)c(O)ccc12
REMARK SMILES IDX 3 1 11 2 12 3 13 4 30 5 2 6 1 7 29 8 28 9 26 10 14 11 4 12
REMARK SMILES IDX 5 13 6 14 7 15 10 16 9 17 8 18 15 20 24 21 16 22 22 23 17 24
REMARK SMILES IDX 20 25 25 26 23 28 18 30 19 31 21 33 27 35
REMARK H PARENT 8 19 25 27 23 29 19 32 21 34 27 36
REMARK Flexibility Score: inf
ROOT
ATOM      1  C   UNL     1      24.411  34.089  -6.181  1.00  0.00     0.065 A 
ATOM      2  C   UNL     1      24.716  33.424  -4.996  1.00  0.00     0.208 A 
ATOM      3  O   UNL     1      24.760  32.099  -4.955  1.00  0.00    -0.463 OA
ATOM      4  C   UNL     1      24.494  31.318  -5.999  1.00  0.00     0.147 A 
ATOM      5  C   UNL     1      24.157  31.923  -7.237  1.00  0.00     0.066 A 
ATOM      6  C   UNL     1      24.134  33.327  -7.320  1.00  0.00     0.200 A 
ATOM      7  O   UNL     1      23.871  33.901  -8.413  1.00  0.00    -0.288 OA
ATOM      8  C   UNL     1      23.870  31.118  -8.349  1.00  0.00     0.020 A 
ATOM      9  C   UNL     1      23.972  29.736  -8.254  1.00  0.00     0.047 A 
ATOM     10  C   UNL     1      24.363  29.124  -7.054  1.00  0.00     0.125 A 
ATOM     11  C   UNL     1      24.556  29.900  -5.879  1.00  0.00     0.069 A 
ENDROOT
BRANCH   1  12
ATOM     12  C   UNL     1      24.412  35.564  -6.210  1.00  0.00    -0.011 A 
ATOM     13  C   UNL     1      25.620  36.256  -6.384  1.00  0.00     0.013 A 
ATOM     14  C   UNL     1      25.638  37.655  -6.368  1.00  0.00     0.047 A 
ATOM     15  C   UNL     1      24.448  38.368  -6.154  1.00  0.00     0.115 A 
ATOM     16  C   UNL     1      23.222  36.278  -6.015  1.00  0.00     0.013 A 
ATOM     17  C   UNL     1      23.241  37.673  -5.979  1.00  0.00     0.047 A 
BRANCH  15  18
ATOM     18  O   UNL     1      24.480  39.762  -6.099  1.00  0.00    -0.508 OA
ATOM     19  H   UNL     1      24.703  40.256  -5.243  1.00  0.00     0.293 HD
ENDBRANCH  15  18
ENDBRANCH   1  12
BRANCH  11  20
ATOM     20  C   UNL     1      24.988  29.216  -4.566  1.00  0.00     0.188 C 
ATOM     21  C   UNL     1      23.839  28.516  -3.769  1.00  0.00     0.179 C 
ATOM     22  O   UNL     1      25.975  28.228  -4.817  1.00  0.00    -0.362 OA
ATOM     23  C   UNL     1      24.387  27.513  -2.705  1.00  0.00     0.177 C 
ATOM     24  C   UNL     1      26.735  27.937  -3.648  1.00  0.00     0.176 C 
ATOM     25  C   UNL     1      25.846  27.847  -2.356  1.00  0.00     0.177 C 
BRANCH  21  26
ATOM     26  O   UNL     1      22.922  27.884  -4.634  1.00  0.00    -0.387 OA
ATOM     27  H   UNL     1      22.396  28.597  -5.077  1.00  0.00     0.211 HD
ENDBRANCH  21  26
BRANCH  23  28
ATOM     28  O   UNL     1      24.303  26.181  -3.155  1.00  0.00    -0.387 OA
ATOM     29  H   UNL     1      25.227  25.889  -3.372  1.00  0.00     0.211 HD
ENDBRANCH  23  28
BRANCH  24  30
ATOM     30  C   UNL     1      27.567  26.666  -3.924  1.00  0.00     0.191 C 
BRANCH  30  31
ATOM     31  O   UNL     1      26.727  25.576  -4.218  1.00  0.00    -0.394 OA
ATOM     32  H   UNL     1      26.570  25.594  -5.200  1.00  0.00     0.210 HD
ENDBRANCH  30  31
ENDBRANCH  24  30
BRANCH  25  33
ATOM     33  O   UNL     1      26.338  26.931  -1.416  1.00  0.00    -0.388 OA
ATOM     34  H   UNL     1      25.565  26.671  -0.840  1.00  0.00     0.211 HD
ENDBRANCH  25  33
ENDBRANCH  11  20
BRANCH  10  35
ATOM     35  O   UNL     1      24.563  27.738  -7.042  1.00  0.00    -0.507 OA
ATOM     36  H   UNL     1      24.389  27.169  -7.866  1.00  0.00     0.293 HD
ENDBRANCH  10  35
TORSDOF 9
ENDMDL
MODEL 4
REMARK VINA RESULT:    -5.644      4.346     10.341
REMARK INTER + INTRA:          -8.424
REMARK INTER:                  -7.125
REMARK INTRA:                  -1.299
REMARK UNBOUND:                -0.801
REMARK SMILES O=c1c(-c2ccc(O)cc2)coc2c([C@@H]3O[C@H](CO)[C@H](O)[C@H](O)[C@@H]3O)c(O)ccc12
REMARK SMILES IDX 3 1 11 2 12 3 13 4 30 5 2 6 1 7 29 8 28 9 26 10 14 11 4 12
REMARK SMILES IDX 5 13 6 14 7 15 10 16 9 17 8 18 15 20 24 21 16 22 22 23 17 24
REMARK SMILES IDX 20 25 25 26 23 28 18 30 19 31 21 33 27 35
REMARK H PARENT 8 19 25 27 23 29 19 32 21 34 27 36
REMARK Flexibility Score: inf
ROOT
ATOM      1  C   UNL     1      25.897  29.194  -3.968  1.00  0.00     0.065 A 
ATOM      2  C   UNL     1      26.756  30.273  -4.156  1.00  0.00     0.208 A 
ATOM      3  O   UNL     1      26.296  31.436  -4.599  1.00  0.00    -0.463 OA
ATOM      4  C   UNL     1      25.023  31.654  -4.918  1.00  0.00     0.147 A 
ATOM      5  C   UNL     1      24.090  30.596  -4.770  1.00  0.00     0.066 A 
ATOM      6  C   UNL     1      24.543  29.359  -4.273  1.00  0.00     0.200 A 
ATOM      7  O   UNL     1      23.736  28.405  -4.096  1.00  0.00    -0.288 OA
ATOM      8  C   UNL     1      22.745  30.804  -5.105  1.00  0.00     0.020 A 
ATOM      9  C   UNL     1      22.316  32.056  -5.524  1.00  0.00     0.047 A 
ATOM     10  C   UNL     1      23.213  33.130  -5.618  1.00  0.00     0.125 A 
ATOM     11  C   UNL     1      24.603  32.930  -5.392  1.00  0.00     0.069 A 
ENDROOT
BRANCH   1  12
ATOM     12  C   UNL     1      26.427  27.925  -3.434  1.00  0.00    -0.011 A 
ATOM     13  C   UNL     1      26.487  27.724  -2.047  1.00  0.00     0.013 A 
ATOM     14  C   UNL     1      27.029  26.542  -1.529  1.00  0.00     0.047 A 
ATOM     15  C   UNL     1      27.536  25.565  -2.400  1.00  0.00     0.115 A 
ATOM     16  C   UNL     1      26.916  26.940  -4.302  1.00  0.00     0.013 A 
ATOM     17  C   UNL     1      27.476  25.769  -3.787  1.00  0.00     0.047 A 
BRANCH  15  18
ATOM     18  O   UNL     1      28.112  24.407  -1.876  1.00  0.00    -0.508 OA
ATOM     19  H   UNL     1      28.076  23.524  -2.372  1.00  0.00     0.293 HD
ENDBRANCH  15  18
ENDBRANCH   1  12
BRANCH  11  20
ATOM     20  C   UNL     1      25.579  34.119  -5.496  1.00  0.00     0.188 C 
ATOM     21  C   UNL     1      26.083  34.443  -6.940  1.00  0.00     0.179 C 
ATOM     22  O   UNL     1      24.982  35.304  -4.993  1.00  0.00    -0.362 OA
ATOM     23  C   UNL     1      26.712  35.869  -7.037  1.00  0.00     0.177 C 
ATOM     24  C   UNL     1      25.963  36.266  -4.616  1.00  0.00     0.176 C 
ATOM     25  C   UNL     1      27.145  36.359  -5.646  1.00  0.00     0.177 C 
BRANCH  21  26
ATOM     26  O   UNL     1      25.057  34.278  -7.894  1.00  0.00    -0.387 OA
ATOM     27  H   UNL     1      24.280  34.810  -7.584  1.00  0.00     0.211 HD
ENDBRANCH  21  26
BRANCH  23  28
ATOM     28  O   UNL     1      25.816  36.795  -7.606  1.00  0.00    -0.387 OA
ATOM     29  H   UNL     1      26.070  37.692  -7.263  1.00  0.00     0.211 HD
ENDBRANCH  23  28
BRANCH  24  30
ATOM     30  C   UNL     1      25.242  37.608  -4.367  1.00  0.00     0.191 C 
BRANCH  30  31
ATOM     31  O   UNL     1      24.543  38.018  -5.516  1.00  0.00    -0.394 OA
ATOM     32  H   UNL     1      24.730  37.340  -6.220  1.00  0.00     0.210 HD
ENDBRANCH  30  31
ENDBRANCH  24  30
BRANCH  25  33
ATOM     33  O   UNL     1      27.690  37.648  -5.738  1.00  0.00    -0.388 OA
ATOM     34  H   UNL     1      27.787  37.983  -4.803  1.00  0.00     0.211 HD
ENDBRANCH  25  33
ENDBRANCH  11  20
BRANCH  10  35
ATOM     35  O   UNL     1      22.711  34.399  -5.933  1.00  0.00    -0.507 OA
ATOM     36  H   UNL     1      23.295  35.228  -5.882  1.00  0.00     0.293 HD
ENDBRANCH  10  35
TORSDOF 9
ENDMDL
MODEL 5
REMARK VINA RESULT:    -5.640      2.233      3.197
REMARK INTER + INTRA:          -8.419
REMARK INTER:                  -7.958
REMARK INTRA:                  -0.460
REMARK UNBOUND:                -0.801
REMARK SMILES O=c1c(-c2ccc(O)cc2)coc2c([C@@H]3O[C@H](CO)[C@H](O)[C@H](O)[C@@H]3O)c(O)ccc12
REMARK SMILES IDX 3 1 11 2 12 3 13 4 30 5 2 6 1 7 29 8 28 9 26 10 14 11 4 12
REMARK SMILES IDX 5 13 6 14 7 15 10 16 9 17 8 18 15 20 24 21 16 22 22 23 17 24
REMARK SMILES IDX 20 25 25 26 23 28 18 30 19 31 21 33 27 35
REMARK H PARENT 8 19 25 27 23 29 19 32 21 34 27 36
REMARK Flexibility Score: inf
ROOT
ATOM      1  C   UNL     1      24.487  28.886  -4.217  1.00  0.00     0.065 A 
ATOM      2  C   UNL     1      23.609  27.815  -4.357  1.00  0.00     0.208 A 
ATOM      3  O   UNL     1      23.980  26.586  -4.020  1.00  0.00    -0.463 OA
ATOM      4  C   UNL     1      25.191  26.279  -3.564  1.00  0.00     0.147 A 
ATOM      5  C   UNL     1      26.147  27.315  -3.410  1.00  0.00     0.066 A 
ATOM      6  C   UNL     1      25.773  28.634  -3.730  1.00  0.00     0.200 A 
ATOM      7  O   UNL     1      26.586  29.586  -3.576  1.00  0.00    -0.288 OA
ATOM      8  C   UNL     1      27.431  27.012  -2.935  1.00  0.00     0.020 A 
ATOM      9  C   UNL     1      27.747  25.713  -2.559  1.00  0.00     0.047 A 
ATOM     10  C   UNL     1      26.794  24.687  -2.647  1.00  0.00     0.125 A 
ATOM     11  C   UNL     1      25.519  24.934  -3.225  1.00  0.00     0.069 A 
ENDROOT
BRANCH   1  12
ATOM     12  C   UNL     1      24.035  30.248  -4.559  1.00  0.00    -0.011 A 
ATOM     13  C   UNL     1      22.844  30.427  -5.278  1.00  0.00     0.013 A 
ATOM     14  C   UNL     1      22.431  31.713  -5.645  1.00  0.00     0.047 A 
ATOM     15  C   UNL     1      23.221  32.823  -5.313  1.00  0.00     0.115 A 
ATOM     16  C   UNL     1      24.814  31.360  -4.212  1.00  0.00     0.013 A 
ATOM     17  C   UNL     1      24.413  32.641  -4.595  1.00  0.00     0.047 A 
BRANCH  15  18
ATOM     18  O   UNL     1      22.823  34.098  -5.718  1.00  0.00    -0.508 OA
ATOM     19  H   UNL     1      22.033  34.570  -5.291  1.00  0.00     0.293 HD
ENDBRANCH  15  18
ENDBRANCH   1  12
BRANCH  11  20
ATOM     20  C   UNL     1      24.479  23.799  -3.313  1.00  0.00     0.188 C 
ATOM     21  C   UNL     1      24.635  22.846  -4.543  1.00  0.00     0.179 C 
ATOM     22  O   UNL     1      24.527  22.984  -2.153  1.00  0.00    -0.362 OA
ATOM     23  C   UNL     1      23.846  21.512  -4.357  1.00  0.00     0.177 C 
ATOM     24  C   UNL     1      23.310  22.267  -1.965  1.00  0.00     0.176 C 
ATOM     25  C   UNL     1      22.737  21.688  -3.307  1.00  0.00     0.177 C 
BRANCH  21  26
ATOM     26  O   UNL     1      25.992  22.593  -4.831  1.00  0.00    -0.387 OA
ATOM     27  H   UNL     1      26.468  23.462  -4.791  1.00  0.00     0.211 HD
ENDBRANCH  21  26
BRANCH  23  28
ATOM     28  O   UNL     1      24.694  20.455  -3.975  1.00  0.00    -0.387 OA
ATOM     29  H   UNL     1      25.219  20.200  -4.779  1.00  0.00     0.211 HD
ENDBRANCH  23  28
BRANCH  24  30
ATOM     30  C   UNL     1      23.550  21.201  -0.874  1.00  0.00     0.191 C 
BRANCH  30  31
ATOM     31  O   UNL     1      24.577  20.320  -1.257  1.00  0.00    -0.394 OA
ATOM     32  H   UNL     1      24.458  19.492  -0.719  1.00  0.00     0.210 HD
ENDBRANCH  30  31
ENDBRANCH  24  30
BRANCH  25  33
ATOM     33  O   UNL     1      22.045  20.481  -3.130  1.00  0.00    -0.388 OA
ATOM     34  H   UNL     1      21.173  20.712  -2.704  1.00  0.00     0.211 HD
ENDBRANCH  25  33
ENDBRANCH  11  20
BRANCH  10  35
ATOM     35  O   UNL     1      27.124  23.421  -2.147  1.00  0.00    -0.507 OA
ATOM     36  H   UNL     1      27.619  22.739  -2.715  1.00  0.00     0.293 HD
ENDBRANCH  10  35
TORSDOF 9
ENDMDL
MODEL 6
REMARK VINA RESULT:    -5.627      5.091     10.631
REMARK INTER + INTRA:          -8.402
REMARK INTER:                  -7.670
REMARK INTRA:                  -0.731
REMARK UNBOUND:                -0.801
REMARK SMILES O=c1c(-c2ccc(O)cc2)coc2c([C@@H]3O[C@H](CO)[C@H](O)[C@H](O)[C@@H]3O)c(O)ccc12
REMARK SMILES IDX 3 1 11 2 12 3 13 4 30 5 2 6 1 7 29 8 28 9 26 10 14 11 4 12
REMARK SMILES IDX 5 13 6 14 7 15 10 16 9 17 8 18 15 20 24 21 16 22 22 23 17 24
REMARK SMILES IDX 20 25 25 26 23 28 18 30 19 31 21 33 27 35
REMARK H PARENT 8 19 25 27 23 29 19 32 21 34 27 36
REMARK Flexibility Score: inf
ROOT
ATOM      1  C   UNL     1      25.352  30.747  -5.154  1.00  0.00     0.065 A 
ATOM      2  C   UNL     1      25.489  32.105  -4.882  1.00  0.00     0.208 A 
ATOM      3  O   UNL     1      25.122  33.016  -5.775  1.00  0.00    -0.463 OA
ATOM      4  C   UNL     1      24.637  32.718  -6.977  1.00  0.00     0.147 A 
ATOM      5  C   UNL     1      24.484  31.354  -7.334  1.00  0.00     0.066 A 
ATOM      6  C   UNL     1      24.835  30.365  -6.396  1.00  0.00     0.200 A 
ATOM      7  O   UNL     1      24.682  29.142  -6.666  1.00  0.00    -0.288 OA
ATOM      8  C   UNL     1      23.978  31.019  -8.598  1.00  0.00     0.020 A 
ATOM      9  C   UNL     1      23.573  32.017  -9.474  1.00  0.00     0.047 A 
ATOM     10  C   UNL     1      23.660  33.370  -9.114  1.00  0.00     0.125 A 
ATOM     11  C   UNL     1      24.268  33.751  -7.886  1.00  0.00     0.069 A 
ENDROOT
BRANCH   1  12
ATOM     12  C   UNL     1      25.726  29.756  -4.128  1.00  0.00    -0.011 A 
ATOM     13  C   UNL     1      24.741  28.936  -3.558  1.00  0.00     0.013 A 
ATOM     14  C   UNL     1      25.079  28.025  -2.552  1.00  0.00     0.047 A 
ATOM     15  C   UNL     1      26.403  27.947  -2.094  1.00  0.00     0.115 A 
ATOM     16  C   UNL     1      27.052  29.664  -3.683  1.00  0.00     0.013 A 
ATOM     17  C   UNL     1      27.387  28.770  -2.665  1.00  0.00     0.047 A 
BRANCH  15  18
ATOM     18  O   UNL     1      26.725  27.064  -1.062  1.00  0.00    -0.508 OA
ATOM     19  H   UNL     1      27.559  27.187  -0.498  1.00  0.00     0.293 HD
ENDBRANCH  15  18
ENDBRANCH   1  12
BRANCH  11  20
ATOM     20  C   UNL     1      24.355  35.241  -7.500  1.00  0.00     0.188 C 
ATOM     21  C   UNL     1      23.196  35.763  -6.590  1.00  0.00     0.179 C 
ATOM     22  O   UNL     1      25.568  35.512  -6.816  1.00  0.00    -0.362 OA
ATOM     23  C   UNL     1      23.550  37.121  -5.905  1.00  0.00     0.177 C 
ATOM     24  C   UNL     1      25.911  36.893  -6.882  1.00  0.00     0.176 C 
ATOM     25  C   UNL     1      24.671  37.834  -6.681  1.00  0.00     0.177 C 
BRANCH  21  26
ATOM     26  O   UNL     1      22.818  34.799  -5.632  1.00  0.00    -0.387 OA
ATOM     27  H   UNL     1      21.831  34.720  -5.668  1.00  0.00     0.211 HD
ENDBRANCH  21  26
BRANCH  23  28
ATOM     28  O   UNL     1      23.943  36.941  -4.566  1.00  0.00    -0.387 OA
ATOM     29  H   UNL     1      24.114  35.970  -4.441  1.00  0.00     0.211 HD
ENDBRANCH  23  28
BRANCH  24  30
ATOM     30  C   UNL     1      27.059  37.147  -5.881  1.00  0.00     0.191 C 
BRANCH  30  31
ATOM     31  O   UNL     1      26.668  36.798  -4.577  1.00  0.00    -0.394 OA
ATOM     32  H   UNL     1      25.767  36.381  -4.651  1.00  0.00     0.210 HD
ENDBRANCH  30  31
ENDBRANCH  24  30
BRANCH  25  33
ATOM     33  O   UNL     1      24.998  39.043  -6.049  1.00  0.00    -0.388 OA
ATOM     34  H   UNL     1      25.304  38.809  -5.129  1.00  0.00     0.211 HD
ENDBRANCH  25  33
ENDBRANCH  11  20
BRANCH  10  35
ATOM     35  O   UNL     1      23.132  34.332  -9.984  1.00  0.00    -0.507 OA
ATOM     36  H   UNL     1      22.886  34.102 -10.943  1.00  0.00     0.293 HD
ENDBRANCH  10  35
TORSDOF 9
ENDMDL
MODEL 7
REMARK VINA RESULT:    -5.621      1.302      2.338
REMARK INTER + INTRA:          -8.393
REMARK INTER:                  -7.604
REMARK INTRA:                  -0.789
REMARK UNBOUND:                -0.801
REMARK SMILES O=c1c(-c2ccc(O)cc2)coc2c([C@@H]3O[C@H](CO)[C@H](O)[C@H](O)[C@@H]3O)c(O)ccc12
REMARK SMILES IDX 3 1 11 2 12 3 13 4 30 5 2 6 1 7 29 8 28 9 26 10 14 11 4 12
REMARK SMILES IDX 5 13 6 14 7 15 10 16 9 17 8 18 15 20 24 21 16 22 22 23 17 24
REMARK SMILES IDX 20 25 25 26 23 28 18 30 19 31 21 33 27 35
REMARK H PARENT 8 19 25 27 23 29 19 32 21 34 27 36
REMARK Flexibility Score: inf
ROOT
ATOM      1  C   UNL     1      23.839  28.093  -5.238  1.00  0.00     0.065 A 
ATOM      2  C   UNL     1      24.017  27.314  -6.378  1.00  0.00     0.208 A 
ATOM      3  O   UNL     1      24.321  26.026  -6.279  1.00  0.00    -0.463 OA
ATOM      4  C   UNL     1      24.504  25.398  -5.121  1.00  0.00     0.147 A 
ATOM      5  C   UNL     1      24.356  26.129  -3.915  1.00  0.00     0.066 A 
ATOM      6  C   UNL     1      24.004  27.489  -3.987  1.00  0.00     0.200 A 
ATOM      7  O   UNL     1      23.832  28.164  -2.935  1.00  0.00    -0.288 OA
ATOM      8  C   UNL     1      24.549  25.486  -2.684  1.00  0.00     0.020 A 
ATOM      9  C   UNL     1      24.825  24.126  -2.643  1.00  0.00     0.047 A 
ATOM     10  C   UNL     1      24.914  23.374  -3.824  1.00  0.00     0.125 A 
ATOM     11  C   UNL     1      24.832  24.011  -5.092  1.00  0.00     0.069 A 
ENDROOT
BRANCH   1  12
ATOM     12  C   UNL     1      23.460  29.511  -5.375  1.00  0.00    -0.011 A 
ATOM     13  C   UNL     1      24.438  30.468  -5.684  1.00  0.00     0.013 A 
ATOM     14  C   UNL     1      24.097  31.821  -5.772  1.00  0.00     0.047 A 
ATOM     15  C   UNL     1      22.775  32.227  -5.530  1.00  0.00     0.115 A 
ATOM     16  C   UNL     1      22.137  29.916  -5.152  1.00  0.00     0.013 A 
ATOM     17  C   UNL     1      21.798  31.268  -5.220  1.00  0.00     0.047 A 
BRANCH  15  18
ATOM     18  O   UNL     1      22.450  33.583  -5.580  1.00  0.00    -0.508 OA
ATOM     19  H   UNL     1      22.223  34.044  -6.454  1.00  0.00     0.293 HD
ENDBRANCH  15  18
ENDBRANCH   1  12
BRANCH  11  20
ATOM     20  C   UNL     1      24.929  23.174  -6.383  1.00  0.00     0.188 C 
ATOM     21  C   UNL     1      23.566  22.646  -6.939  1.00  0.00     0.179 C 
ATOM     22  O   UNL     1      25.534  23.924  -7.424  1.00  0.00    -0.362 OA
ATOM     23  C   UNL     1      23.677  22.181  -8.426  1.00  0.00     0.177 C 
ATOM     24  C   UNL     1      26.080  23.079  -8.432  1.00  0.00     0.176 C 
ATOM     25  C   UNL     1      25.140  21.870  -8.781  1.00  0.00     0.177 C 
BRANCH  21  26
ATOM     26  O   UNL     1      22.541  23.602  -6.785  1.00  0.00    -0.387 OA
ATOM     27  H   UNL     1      22.921  24.360  -6.271  1.00  0.00     0.211 HD
ENDBRANCH  21  26
BRANCH  23  28
ATOM     28  O   UNL     1      23.171  23.151  -9.312  1.00  0.00    -0.387 OA
ATOM     29  H   UNL     1      23.640  24.002  -9.109  1.00  0.00     0.211 HD
ENDBRANCH  23  28
BRANCH  24  30
ATOM     30  C   UNL     1      26.444  23.960  -9.647  1.00  0.00     0.191 C 
BRANCH  30  31
ATOM     31  O   UNL     1      25.526  25.015  -9.789  1.00  0.00    -0.394 OA
ATOM     32  H   UNL     1      26.018  25.852  -9.572  1.00  0.00     0.210 HD
ENDBRANCH  30  31
ENDBRANCH  24  30
BRANCH  25  33
ATOM     33  O   UNL     1      25.234  21.473 -10.123  1.00  0.00    -0.388 OA
ATOM     34  H   UNL     1      25.515  20.515 -10.117  1.00  0.00     0.211 HD
ENDBRANCH  25  33
ENDBRANCH  11  20
BRANCH  10  35
ATOM     35  O   UNL     1      25.078  21.986  -3.726  1.00  0.00    -0.507 OA
ATOM     36  H   UNL     1      25.959  21.576  -3.431  1.00  0.00     0.293 HD
ENDBRANCH  10  35
TORSDOF 9
ENDMDL
MODEL 8
REMARK VINA RESULT:    -5.528      3.220      8.350
REMARK INTER + INTRA:          -8.268
REMARK INTER:                  -6.974
REMARK INTRA:                  -1.294
REMARK UNBOUND:                -0.801
REMARK SMILES O=c1c(-c2ccc(O)cc2)coc2c([C@@H]3O[C@H](CO)[C@H](O)[C@H](O)[C@@H]3O)c(O)ccc12
REMARK SMILES IDX 3 1 11 2 12 3 13 4 30 5 2 6 1 7 29 8 28 9 26 10 14 11 4 12
REMARK SMILES IDX 5 13 6 14 7 15 10 16 9 17 8 18 15 20 24 21 16 22 22 23 17 24
REMARK SMILES IDX 20 25 25 26 23 28 18 30 19 31 21 33 27 35
REMARK H PARENT 8 19 25 27 23 29 19 32 21 34 27 36
REMARK Flexibility Score: inf
ROOT
ATOM      1  C   UNL     1      24.824  25.443  -3.316  1.00  0.00     0.065 A 
ATOM      2  C   UNL     1      24.030  26.046  -4.288  1.00  0.00     0.208 A 
ATOM      3  O   UNL     1      24.276  27.286  -4.690  1.00  0.00    -0.463 OA
ATOM      4  C   UNL     1      25.249  28.045  -4.194  1.00  0.00     0.147 A 
ATOM      5  C   UNL     1      26.090  27.506  -3.187  1.00  0.00     0.066 A 
ATOM      6  C   UNL     1      25.874  26.182  -2.761  1.00  0.00     0.200 A 
ATOM      7  O   UNL     1      26.622  25.658  -1.891  1.00  0.00    -0.288 OA
ATOM      8  C   UNL     1      27.119  28.290  -2.647  1.00  0.00     0.020 A 
ATOM      9  C   UNL     1      27.354  29.568  -3.139  1.00  0.00     0.047 A 
ATOM     10  C   UNL     1      26.571  30.094  -4.177  1.00  0.00     0.125 A 
ATOM     11  C   UNL     1      25.451  29.372  -4.673  1.00  0.00     0.069 A 
ENDROOT
BRANCH   1  12
ATOM     12  C   UNL     1      24.556  24.049  -2.918  1.00  0.00    -0.011 A 
ATOM     13  C   UNL     1      25.168  22.996  -3.613  1.00  0.00     0.013 A 
ATOM     14  C   UNL     1      24.886  21.668  -3.273  1.00  0.00     0.047 A 
ATOM     15  C   UNL     1      23.970  21.389  -2.247  1.00  0.00     0.115 A 
ATOM     16  C   UNL     1      23.656  23.768  -1.881  1.00  0.00     0.013 A 
ATOM     17  C   UNL     1      23.357  22.444  -1.553  1.00  0.00     0.047 A 
BRANCH  15  18
ATOM     18  O   UNL     1      23.663  20.063  -1.939  1.00  0.00    -0.508 OA
ATOM     19  H   UNL     1      22.711  19.766  -1.756  1.00  0.00     0.293 HD
ENDBRANCH  15  18
ENDBRANCH   1  12
BRANCH  11  20
ATOM     20  C   UNL     1      24.600  29.959  -5.816  1.00  0.00     0.188 C 
ATOM     21  C   UNL     1      23.563  31.046  -5.384  1.00  0.00     0.179 C 
ATOM     22  O   UNL     1      25.427  30.550  -6.805  1.00  0.00    -0.362 OA
ATOM     23  C   UNL     1      23.045  31.881  -6.599  1.00  0.00     0.177 C 
ATOM     24  C   UNL     1      24.758  30.650  -8.058  1.00  0.00     0.176 C 
ATOM     25  C   UNL     1      23.263  31.109  -7.910  1.00  0.00     0.177 C 
BRANCH  21  26
ATOM     26  O   UNL     1      24.085  31.888  -4.381  1.00  0.00    -0.387 OA
ATOM     27  H   UNL     1      24.935  31.482  -4.069  1.00  0.00     0.211 HD
ENDBRANCH  21  26
BRANCH  23  28
ATOM     28  O   UNL     1      23.681  33.135  -6.677  1.00  0.00    -0.387 OA
ATOM     29  H   UNL     1      23.652  33.532  -5.767  1.00  0.00     0.211 HD
ENDBRANCH  23  28
BRANCH  24  30
ATOM     30  C   UNL     1      25.603  31.557  -8.979  1.00  0.00     0.191 C 
BRANCH  30  31
ATOM     31  O   UNL     1      25.737  32.842  -8.424  1.00  0.00    -0.394 OA
ATOM     32  H   UNL     1      24.865  33.061  -7.999  1.00  0.00     0.210 HD
ENDBRANCH  30  31
ENDBRANCH  24  30
BRANCH  25  33
ATOM     33  O   UNL     1      22.815  31.872  -8.997  1.00  0.00    -0.388 OA
ATOM     34  H   UNL     1      23.559  31.885  -9.662  1.00  0.00     0.211 HD
ENDBRANCH  25  33
ENDBRANCH  11  20
BRANCH  10  35
ATOM     35  O   UNL     1      26.919  31.339  -4.716  1.00  0.00    -0.507 OA
ATOM     36  H   UNL     1      27.817  31.770  -4.517  1.00  0.00     0.293 HD
ENDBRANCH  10  35
TORSDOF 9
ENDMDL
MODEL 9
REMARK VINA RESULT:    -5.345      1.929      3.802
REMARK INTER + INTRA:          -8.020
REMARK INTER:                  -6.793
REMARK INTRA:                  -1.227
REMARK UNBOUND:                -0.801
REMARK SMILES O=c1c(-c2ccc(O)cc2)coc2c([C@@H]3O[C@H](CO)[C@H](O)[C@H](O)[C@@H]3O)c(O)ccc12
REMARK SMILES IDX 3 1 11 2 12 3 13 4 30 5 2 6 1 7 29 8 28 9 26 10 14 11 4 12
REMARK SMILES IDX 5 13 6 14 7 15 10 16 9 17 8 18 15 20 24 21 16 22 22 23 17 24
REMARK SMILES IDX 20 25 25 26 23 28 18 30 19 31 21 33 27 35
REMARK H PARENT 8 19 25 27 23 29 19 32 21 34 27 36
REMARK Flexibility Score: inf
ROOT
ATOM      1  C   UNL     1      23.587  28.200  -5.630  1.00  0.00     0.065 A 
ATOM      2  C   UNL     1      23.964  27.501  -4.486  1.00  0.00     0.208 A 
ATOM      3  O   UNL     1      24.176  26.192  -4.530  1.00  0.00    -0.463 OA
ATOM      4  C   UNL     1      24.022  25.455  -5.627  1.00  0.00     0.147 A 
ATOM      5  C   UNL     1      23.622  26.093  -6.829  1.00  0.00     0.066 A 
ATOM      6  C   UNL     1      23.420  27.486  -6.821  1.00  0.00     0.200 A 
ATOM      7  O   UNL     1      23.097  28.093  -7.879  1.00  0.00    -0.288 OA
ATOM      8  C   UNL     1      23.451  25.334  -7.995  1.00  0.00     0.020 A 
ATOM      9  C   UNL     1      23.728  23.973  -7.989  1.00  0.00     0.047 A 
ATOM     10  C   UNL     1      24.182  23.337  -6.824  1.00  0.00     0.125 A 
ATOM     11  C   UNL     1      24.264  24.051  -5.597  1.00  0.00     0.069 A 
ENDROOT
BRANCH   1  12
ATOM     12  C   UNL     1      23.400  29.661  -5.564  1.00  0.00    -0.011 A 
ATOM     13  C   UNL     1      22.134  30.189  -5.273  1.00  0.00     0.013 A 
ATOM     14  C   UNL     1      21.936  31.574  -5.252  1.00  0.00     0.047 A 
ATOM     15  C   UNL     1      23.003  32.437  -5.546  1.00  0.00     0.115 A 
ATOM     16  C   UNL     1      24.469  30.525  -5.839  1.00  0.00     0.013 A 
ATOM     17  C   UNL     1      24.269  31.907  -5.838  1.00  0.00     0.047 A 
BRANCH  15  18
ATOM     18  O   UNL     1      22.789  33.816  -5.562  1.00  0.00    -0.508 OA
ATOM     19  H   UNL     1      22.681  34.348  -4.706  1.00  0.00     0.293 HD
ENDBRANCH  15  18
ENDBRANCH   1  12
BRANCH  11  20
ATOM     20  C   UNL     1      24.767  23.342  -4.324  1.00  0.00     0.188 C 
ATOM     21  C   UNL     1      23.714  22.438  -3.604  1.00  0.00     0.179 C 
ATOM     22  O   UNL     1      25.885  22.519  -4.617  1.00  0.00    -0.362 OA
ATOM     23  C   UNL     1      24.380  21.446  -2.598  1.00  0.00     0.177 C 
ATOM     24  C   UNL     1      26.660  22.253  -3.453  1.00  0.00     0.176 C 
ATOM     25  C   UNL     1      25.774  21.952  -2.192  1.00  0.00     0.177 C 
BRANCH  21  26
ATOM     26  O   UNL     1      22.906  21.748  -4.532  1.00  0.00    -0.387 OA
ATOM     27  H   UNL     1      22.808  22.332  -5.327  1.00  0.00     0.211 HD
ENDBRANCH  21  26
BRANCH  23  28
ATOM     28  O   UNL     1      24.487  20.150  -3.139  1.00  0.00    -0.387 OA
ATOM     29  H   UNL     1      24.981  20.235  -3.997  1.00  0.00     0.211 HD
ENDBRANCH  23  28
BRANCH  24  30
ATOM     30  C   UNL     1      27.664  21.130  -3.795  1.00  0.00     0.191 C 
BRANCH  30  31
ATOM     31  O   UNL     1      27.064  20.162  -4.619  1.00  0.00    -0.394 OA
ATOM     32  H   UNL     1      26.156  20.500  -4.842  1.00  0.00     0.210 HD
ENDBRANCH  30  31
ENDBRANCH  24  30
BRANCH  25  33
ATOM     33  O   UNL     1      26.374  21.047  -1.305  1.00  0.00    -0.388 OA
ATOM     34  H   UNL     1      27.320  20.940  -1.604  1.00  0.00     0.211 HD
ENDBRANCH  25  33
ENDBRANCH  11  20
BRANCH  10  35
ATOM     35  O   UNL     1      24.558  21.990  -6.898  1.00  0.00    -0.507 OA
ATOM     36  H   UNL     1      24.086  21.341  -7.521  1.00  0.00     0.293 HD
ENDBRANCH  10  35
TORSDOF 9
ENDMDL
