MODEL 1
REMARK VINA RESULT:    -3.501      0.000      0.000
REMARK INTER + INTRA:          -3.729
REMARK INTER:                  -3.706
REMARK INTRA:                  -0.024
REMARK UNBOUND:                -0.024
REMARK SMILES O=C([O-])c1cccnc1
REMARK SMILES IDX 4 1 5 2 9 3 6 4 8 5 7 6 2 7 1 8 3 9
REMARK H PARENT
REMARK Flexibility Score: inf
ROOT
ATOM      1  C   UNL     1     -15.776  16.446 -24.437  1.00  0.00     0.016 A 
ATOM      2  C   UNL     1     -15.444  17.667 -25.046  1.00  0.00     0.013 A 
ATOM      3  C   UNL     1     -16.646  15.574 -25.115  1.00  0.00     0.120 A 
ATOM      4  C   UNL     1     -15.973  17.992 -26.297  1.00  0.00     0.021 A 
ATOM      5  N   UNL     1     -17.146  15.916 -26.333  1.00  0.00    -0.264 NA
ATOM      6  C   UNL     1     -16.831  17.095 -26.931  1.00  0.00     0.111 A 
ENDROOT
BRANCH   1   7
ATOM      7  C   UNL     1     -15.223  16.090 -23.112  1.00  0.00     0.073 C 
ATOM      8  O   UNL     1     -14.635  16.956 -22.410  1.00  0.00    -0.545 OA
ATOM      9  O   UNL     1     -15.346  14.795 -22.623  1.00  0.00    -0.545 OA
ENDBRANCH   1   7
TORSDOF 1
ENDMDL
MODEL 2
REMARK VINA RESULT:    -3.421      0.875      1.606
REMARK INTER + INTRA:          -3.645
REMARK INTER:                  -3.621
REMARK INTRA:                  -0.023
REMARK UNBOUND:                -0.024
REMARK SMILES O=C([O-])c1cccnc1
REMARK SMILES IDX 4 1 5 2 9 3 6 4 8 5 7 6 2 7 1 8 3 9
REMARK H PARENT
REMARK Flexibility Score: inf
ROOT
ATOM      1  C   UNL     1     -15.811  16.442 -24.497  1.00  0.00     0.016 A 
ATOM      2  C   UNL     1     -16.722  15.531 -25.055  1.00  0.00     0.013 A 
ATOM      3  C   UNL     1     -15.502  17.607 -25.221  1.00  0.00     0.120 A 
ATOM      4  C   UNL     1     -17.298  15.790 -26.300  1.00  0.00     0.021 A 
ATOM      5  N   UNL     1     -16.078  17.836 -26.431  1.00  0.00    -0.264 NA
ATOM      6  C   UNL     1     -16.960  16.960 -26.980  1.00  0.00     0.111 A 
ENDROOT
BRANCH   1   7
ATOM      7  C   UNL     1     -15.193  16.178 -23.179  1.00  0.00     0.073 C 
ATOM      8  O   UNL     1     -14.559  17.085 -22.576  1.00  0.00    -0.545 OA
ATOM      9  O   UNL     1     -15.304  14.925 -22.588  1.00  0.00    -0.545 OA
ENDBRANCH   1   7
TORSDOF 1
ENDMDL
MODEL 3
REMARK VINA RESULT:    -3.332      2.987      4.189
REMARK INTER + INTRA:          -3.550
REMARK INTER:                  -3.526
REMARK INTRA:                  -0.024
REMARK UNBOUND:                -0.024
REMARK SMILES O=C([O-])c1cccnc1
REMARK SMILES IDX 4 1 5 2 9 3 6 4 8 5 7 6 2 7 1 8 3 9
REMARK H PARENT
REMARK Flexibility Score: inf
ROOT
ATOM      1  C   UNL     1     -15.389  17.535 -25.096  1.00  0.00     0.016 A 
ATOM      2  C   UNL     1     -15.881  16.407 -24.418  1.00  0.00     0.013 A 
ATOM      3  C   UNL     1     -14.378  18.295 -24.482  1.00  0.00     0.120 A 
ATOM      4  C   UNL     1     -15.367  16.063 -23.167  1.00  0.00     0.021 A 
ATOM      5  N   UNL     1     -13.895  17.937 -23.262  1.00  0.00    -0.264 NA
ATOM      6  C   UNL     1     -14.365  16.848 -22.598  1.00  0.00     0.111 A 
ENDROOT
BRANCH   1   7
ATOM      7  C   UNL     1     -15.925  17.910 -26.422  1.00  0.00     0.073 C 
ATOM      8  O   UNL     1     -16.881  17.268 -26.932  1.00  0.00    -0.545 OA
ATOM      9  O   UNL     1     -15.379  18.979 -27.124  1.00  0.00    -0.545 OA
ENDBRANCH   1   7
TORSDOF 1
ENDMDL
MODEL 4
REMARK VINA RESULT:    -3.268      2.684      3.699
REMARK INTER + INTRA:          -3.483
REMARK INTER:                  -3.460
REMARK INTRA:                  -0.023
REMARK UNBOUND:                -0.024
REMARK SMILES O=C([O-])c1cccnc1
REMARK SMILES IDX 4 1 5 2 9 3 6 4 8 5 7 6 2 7 1 8 3 9
REMARK H PARENT
REMARK Flexibility Score: inf
ROOT
ATOM      1  C   UNL     1     -15.722  16.848 -25.178  1.00  0.00     0.016 A 
ATOM      2  C   UNL     1     -14.869  17.481 -24.260  1.00  0.00     0.013 A 
ATOM      3  C   UNL     1     -16.132  15.530 -24.911  1.00  0.00     0.120 A 
ATOM      4  C   UNL     1     -14.447  16.805 -23.114  1.00  0.00     0.021 A 
ATOM      5  N   UNL     1     -15.706  14.894 -23.787  1.00  0.00    -0.264 NA
ATOM      6  C   UNL     1     -14.880  15.498 -22.893  1.00  0.00     0.111 A 
ENDROOT
BRANCH   1   7
ATOM      7  C   UNL     1     -16.177  17.554 -26.395  1.00  0.00     0.073 C 
ATOM      8  O   UNL     1     -17.078  17.060 -27.124  1.00  0.00    -0.545 OA
ATOM      9  O   UNL     1     -15.615  18.775 -26.752  1.00  0.00    -0.545 OA
ENDBRANCH   1   7
TORSDOF 1
ENDMDL
MODEL 5
REMARK VINA RESULT:    -3.180     16.676     17.490
REMARK INTER + INTRA:          -3.390
REMARK INTER:                  -3.373
REMARK INTRA:                  -0.016
REMARK UNBOUND:                -0.024
REMARK SMILES O=C([O-])c1cccnc1
REMARK SMILES IDX 4 1 5 2 9 3 6 4 8 5 7 6 2 7 1 8 3 9
REMARK H PARENT
REMARK Flexibility Score: inf
ROOT
ATOM      1  C   UNL     1     -20.973  18.331  -8.287  1.00  0.00     0.016 A 
ATOM      2  C   UNL     1     -20.282  17.316  -7.606  1.00  0.00     0.013 A 
ATOM      3  C   UNL     1     -20.243  19.185  -9.133  1.00  0.00     0.120 A 
ATOM      4  C   UNL     1     -18.904  17.171  -7.776  1.00  0.00     0.021 A 
ATOM      5  N   UNL     1     -18.901  19.022  -9.280  1.00  0.00    -0.264 NA
ATOM      6  C   UNL     1     -18.223  18.043  -8.625  1.00  0.00     0.111 A 
ENDROOT
BRANCH   1   7
ATOM      7  C   UNL     1     -22.433  18.495  -8.115  1.00  0.00     0.073 C 
ATOM      8  O   UNL     1     -23.230  18.114  -9.014  1.00  0.00    -0.545 OA
ATOM      9  O   UNL     1     -22.945  19.071  -6.959  1.00  0.00    -0.545 OA
ENDBRANCH   1   7
TORSDOF 1
ENDMDL
MODEL 6
REMARK VINA RESULT:    -3.097     16.581     17.410
REMARK INTER + INTRA:          -3.301
REMARK INTER:                  -3.285
REMARK INTRA:                  -0.016
REMARK UNBOUND:                -0.024
REMARK SMILES O=C([O-])c1cccnc1
REMARK SMILES IDX 4 1 5 2 9 3 6 4 8 5 7 6 2 7 1 8 3 9
REMARK H PARENT
REMARK Flexibility Score: inf
ROOT
ATOM      1  C   UNL     1     -20.870  18.337  -8.294  1.00  0.00     0.016 A 
ATOM      2  C   UNL     1     -20.128  19.255  -9.055  1.00  0.00     0.013 A 
ATOM      3  C   UNL     1     -20.190  17.266  -7.689  1.00  0.00     0.120 A 
ATOM      4  C   UNL     1     -18.749  19.093  -9.199  1.00  0.00     0.021 A 
ATOM      5  N   UNL     1     -18.846  17.131  -7.845  1.00  0.00    -0.264 NA
ATOM      6  C   UNL     1     -18.119  18.014  -8.580  1.00  0.00     0.111 A 
ENDROOT
BRANCH   1   7
ATOM      7  C   UNL     1     -22.332  18.498  -8.135  1.00  0.00     0.073 C 
ATOM      8  O   UNL     1     -23.119  18.147  -9.054  1.00  0.00    -0.545 OA
ATOM      9  O   UNL     1     -22.857  19.038  -6.966  1.00  0.00    -0.545 OA
ENDBRANCH   1   7
TORSDOF 1
ENDMDL
MODEL 7
REMARK VINA RESULT:    -2.999     15.492     17.074
REMARK INTER + INTRA:          -3.198
REMARK INTER:                  -3.182
REMARK INTRA:                  -0.016
REMARK UNBOUND:                -0.024
REMARK SMILES O=C([O-])c1cccnc1
REMARK SMILES IDX 4 1 5 2 9 3 6 4 8 5 7 6 2 7 1 8 3 9
REMARK H PARENT
REMARK Flexibility Score: inf
ROOT
ATOM      1  C   UNL     1     -14.840  11.590  -9.014  1.00  0.00     0.016 A 
ATOM      2  C   UNL     1     -13.940  10.842  -8.237  1.00  0.00     0.013 A 
ATOM      3  C   UNL     1     -16.206  11.545  -8.684  1.00  0.00     0.120 A 
ATOM      4  C   UNL     1     -14.407  10.078  -7.166  1.00  0.00     0.021 A 
ATOM      5  N   UNL     1     -16.634  10.793  -7.635  1.00  0.00    -0.264 NA
ATOM      6  C   UNL     1     -15.771  10.066  -6.877  1.00  0.00     0.111 A 
ENDROOT
BRANCH   1   7
ATOM      7  C   UNL     1     -14.358  12.402 -10.152  1.00  0.00     0.073 C 
ATOM      8  O   UNL     1     -14.165  13.641 -10.019  1.00  0.00    -0.545 OA
ATOM      9  O   UNL     1     -14.111  11.810 -11.385  1.00  0.00    -0.545 OA
ENDBRANCH   1   7
TORSDOF 1
ENDMDL
MODEL 8
REMARK VINA RESULT:    -2.984     15.273     16.308
REMARK INTER + INTRA:          -3.182
REMARK INTER:                  -3.166
REMARK INTRA:                  -0.016
REMARK UNBOUND:                -0.024
REMARK SMILES O=C([O-])c1cccnc1
REMARK SMILES IDX 4 1 5 2 9 3 6 4 8 5 7 6 2 7 1 8 3 9
REMARK H PARENT
REMARK Flexibility Score: inf
ROOT
ATOM      1  C   UNL     1     -15.043  11.621  -9.089  1.00  0.00     0.016 A 
ATOM      2  C   UNL     1     -14.639  11.146 -10.346  1.00  0.00     0.013 A 
ATOM      3  C   UNL     1     -14.863  12.986  -8.800  1.00  0.00     0.120 A 
ATOM      4  C   UNL     1     -14.073  12.019 -11.277  1.00  0.00     0.021 A 
ATOM      5  N   UNL     1     -14.309  13.815  -9.725  1.00  0.00    -0.264 NA
ATOM      6  C   UNL     1     -13.915  13.364 -10.945  1.00  0.00     0.111 A 
ENDROOT
BRANCH   1   7
ATOM      7  C   UNL     1     -15.643  10.706  -8.094  1.00  0.00     0.073 C 
ATOM      8  O   UNL     1     -16.893  10.657  -7.940  1.00  0.00    -0.545 OA
ATOM      9  O   UNL     1     -14.835   9.886  -7.315  1.00  0.00    -0.545 OA
ENDBRANCH   1   7
TORSDOF 1
ENDMDL
MODEL 9
REMARK VINA RESULT:    -2.968      1.757      2.352
REMARK INTER + INTRA:          -3.165
REMARK INTER:                  -3.148
REMARK INTRA:                  -0.017
REMARK UNBOUND:                -0.024
REMARK SMILES O=C([O-])c1cccnc1
REMARK SMILES IDX 4 1 5 2 9 3 6 4 8 5 7 6 2 7 1 8 3 9
REMARK H PARENT
REMARK Flexibility Score: inf
ROOT
ATOM      1  C   UNL     1     -15.089  15.823 -23.089  1.00  0.00     0.016 A 
ATOM      2  C   UNL     1     -15.567  16.739 -24.038  1.00  0.00     0.013 A 
ATOM      3  C   UNL     1     -14.789  14.516 -23.512  1.00  0.00     0.120 A 
ATOM      4  C   UNL     1     -15.734  16.347 -25.368  1.00  0.00     0.021 A 
ATOM      5  N   UNL     1     -14.962  14.160 -24.813  1.00  0.00    -0.264 NA
ATOM      6  C   UNL     1     -15.424  15.040 -25.740  1.00  0.00     0.111 A 
ENDROOT
BRANCH   1   7
ATOM      7  C   UNL     1     -14.907  16.226 -21.677  1.00  0.00     0.073 C 
ATOM      8  O   UNL     1     -15.611  15.710 -20.768  1.00  0.00    -0.545 OA
ATOM      9  O   UNL     1     -13.955  17.179 -21.334  1.00  0.00    -0.545 OA
ENDBRANCH   1   7
TORSDOF 1
ENDMDL
