MODEL 1
REMARK VINA RESULT:    -4.132      0.000      0.000
REMARK INTER + INTRA:          -5.857
REMARK INTER:                  -5.581
REMARK INTRA:                  -0.276
REMARK UNBOUND:                -0.276
REMARK SMILES CCCCCCCC(=O)[O-]
REMARK SMILES IDX 5 1 6 2 7 3 8 4 9 5 10 6 4 7 3 8 2 9 1 10
REMARK H PARENT
REMARK Flexibility Score: inf
ROOT
ATOM      1  C   UNL     1      -1.211   0.156   6.730  1.00  0.00     0.000 C 
ENDROOT
BRANCH   1   2
ATOM      2  C   UNL     1      -1.232  -1.257   6.131  1.00  0.00     0.006 C 
BRANCH   2   3
ATOM      3  C   UNL     1      -1.503  -1.212   4.626  1.00  0.00     0.053 C 
BRANCH   3   4
ATOM      4  C   UNL     1      -1.535  -2.595   4.057  1.00  0.00     0.041 C 
ATOM      5  O   UNL     1      -1.251  -2.790   2.846  1.00  0.00    -0.550 OA
ATOM      6  O   UNL     1      -1.926  -3.665   4.853  1.00  0.00    -0.550 OA
ENDBRANCH   3   4
ENDBRANCH   2   3
ENDBRANCH   1   2
BRANCH   1   7
ATOM      7  C   UNL     1      -1.414   0.112   8.251  1.00  0.00     0.000 C 
BRANCH   7   8
ATOM      8  C   UNL     1      -0.088   0.070   9.032  1.00  0.00    -0.000 C 
BRANCH   8   9
ATOM      9  C   UNL     1       0.032  -1.085  10.042  1.00  0.00    -0.003 C 
ATOM     10  C   UNL     1       0.003  -2.463   9.381  1.00  0.00     0.004 C 
ENDBRANCH   8   9
ENDBRANCH   7   8
ENDBRANCH   1   7
TORSDOF 6
ENDMDL
MODEL 2
REMARK VINA RESULT:    -4.046      5.350      6.450
REMARK INTER + INTRA:          -5.741
REMARK INTER:                  -5.457
REMARK INTRA:                  -0.283
REMARK UNBOUND:                -0.276
REMARK SMILES CCCCCCCC(=O)[O-]
REMARK SMILES IDX 5 1 6 2 7 3 8 4 9 5 10 6 4 7 3 8 2 9 1 10
REMARK H PARENT
REMARK Flexibility Score: inf
ROOT
ATOM      1  C   UNL     1      -0.497  -6.705   6.900  1.00  0.00     0.000 C 
ENDROOT
BRANCH   1   2
ATOM      2  C   UNL     1      -1.465  -6.966   8.062  1.00  0.00     0.006 C 
BRANCH   2   3
ATOM      3  C   UNL     1      -2.070  -8.370   7.968  1.00  0.00     0.053 C 
BRANCH   3   4
ATOM      4  C   UNL     1      -3.538  -8.327   8.250  1.00  0.00     0.041 C 
ATOM      5  O   UNL     1      -4.254  -7.421   7.750  1.00  0.00    -0.550 OA
ATOM      6  O   UNL     1      -4.109  -9.261   9.107  1.00  0.00    -0.550 OA
ENDBRANCH   3   4
ENDBRANCH   2   3
ENDBRANCH   1   2
BRANCH   1   7
ATOM      7  C   UNL     1       0.519  -5.614   7.267  1.00  0.00     0.000 C 
BRANCH   7   8
ATOM      8  C   UNL     1       0.516  -5.271   8.767  1.00  0.00    -0.000 C 
BRANCH   8   9
ATOM      9  C   UNL     1       1.884  -5.394   9.462  1.00  0.00    -0.003 C 
ATOM     10  C   UNL     1       3.060  -5.168   8.512  1.00  0.00     0.004 C 
ENDBRANCH   8   9
ENDBRANCH   7   8
ENDBRANCH   1   7
TORSDOF 6
ENDMDL
MODEL 3
REMARK VINA RESULT:    -3.940      3.633      5.607
REMARK INTER + INTRA:          -5.597
REMARK INTER:                  -5.338
REMARK INTRA:                  -0.259
REMARK UNBOUND:                -0.276
REMARK SMILES CCCCCCCC(=O)[O-]
REMARK SMILES IDX 5 1 6 2 7 3 8 4 9 5 10 6 4 7 3 8 2 9 1 10
REMARK H PARENT
REMARK Flexibility Score: inf
ROOT
ATOM      1  C   UNL     1      -0.647  -3.732   7.025  1.00  0.00     0.000 C 
ENDROOT
BRANCH   1   2
ATOM      2  C   UNL     1      -0.445  -5.068   6.298  1.00  0.00     0.006 C 
BRANCH   2   3
ATOM      3  C   UNL     1      -0.002  -6.162   7.273  1.00  0.00     0.053 C 
BRANCH   3   4
ATOM      4  C   UNL     1      -0.972  -7.301   7.258  1.00  0.00     0.041 C 
ATOM      5  O   UNL     1      -2.118  -7.163   7.760  1.00  0.00    -0.550 OA
ATOM      6  O   UNL     1      -0.593  -8.531   6.734  1.00  0.00    -0.550 OA
ENDBRANCH   3   4
ENDBRANCH   2   3
ENDBRANCH   1   2
BRANCH   1   7
ATOM      7  C   UNL     1      -1.137  -2.647   6.056  1.00  0.00     0.000 C 
BRANCH   7   8
ATOM      8  C   UNL     1      -1.739  -3.225   4.763  1.00  0.00    -0.000 C 
BRANCH   8   9
ATOM      9  C   UNL     1      -1.488  -2.384   3.499  1.00  0.00    -0.003 C 
ATOM     10  C   UNL     1      -1.266  -3.234   2.249  1.00  0.00     0.004 C 
ENDBRANCH   8   9
ENDBRANCH   7   8
ENDBRANCH   1   7
TORSDOF 6
ENDMDL
MODEL 4
REMARK VINA RESULT:    -3.899      2.687      3.644
REMARK INTER + INTRA:          -5.542
REMARK INTER:                  -5.275
REMARK INTRA:                  -0.267
REMARK UNBOUND:                -0.276
REMARK SMILES CCCCCCCC(=O)[O-]
REMARK SMILES IDX 5 1 6 2 7 3 8 4 9 5 10 6 4 7 3 8 2 9 1 10
REMARK H PARENT
REMARK Flexibility Score: inf
ROOT
ATOM      1  C   UNL     1      -0.696  -3.547   7.133  1.00  0.00     0.000 C 
ENDROOT
BRANCH   1   2
ATOM      2  C   UNL     1      -1.134  -2.608   6.002  1.00  0.00     0.006 C 
BRANCH   2   3
ATOM      3  C   UNL     1      -1.641  -3.401   4.795  1.00  0.00     0.053 C 
BRANCH   3   4
ATOM      4  C   UNL     1      -1.495  -2.597   3.542  1.00  0.00     0.041 C 
ATOM      5  O   UNL     1      -1.460  -1.340   3.595  1.00  0.00    -0.550 OA
ATOM      6  O   UNL     1      -1.448  -3.235   2.308  1.00  0.00    -0.550 OA
ENDBRANCH   3   4
ENDBRANCH   2   3
ENDBRANCH   1   2
BRANCH   1   7
ATOM      7  C   UNL     1      -0.471  -4.973   6.608  1.00  0.00     0.000 C 
BRANCH   7   8
ATOM      8  C   UNL     1       0.288  -5.866   7.605  1.00  0.00    -0.000 C 
BRANCH   8   9
ATOM      9  C   UNL     1       1.594  -5.262   8.151  1.00  0.00    -0.003 C 
ATOM     10  C   UNL     1       1.734  -5.410   9.666  1.00  0.00     0.004 C 
ENDBRANCH   8   9
ENDBRANCH   7   8
ENDBRANCH   1   7
TORSDOF 6
ENDMDL
MODEL 5
REMARK VINA RESULT:    -3.794      3.974      5.962
REMARK INTER + INTRA:          -5.400
REMARK INTER:                  -5.194
REMARK INTRA:                  -0.206
REMARK UNBOUND:                -0.276
REMARK SMILES CCCCCCCC(=O)[O-]
REMARK SMILES IDX 5 1 6 2 7 3 8 4 9 5 10 6 4 7 3 8 2 9 1 10
REMARK H PARENT
REMARK Flexibility Score: inf
ROOT
ATOM      1  C   UNL     1      -0.284  -5.345   6.678  1.00  0.00     0.000 C 
ENDROOT
BRANCH   1   2
ATOM      2  C   UNL     1       0.190  -5.663   8.102  1.00  0.00     0.006 C 
BRANCH   2   3
ATOM      3  C   UNL     1       1.662  -5.285   8.288  1.00  0.00     0.053 C 
BRANCH   3   4
ATOM      4  C   UNL     1       1.803  -4.227   9.337  1.00  0.00     0.041 C 
ATOM      5  O   UNL     1       2.944  -3.891   9.749  1.00  0.00    -0.550 OA
ATOM      6  O   UNL     1       0.670  -3.647   9.896  1.00  0.00    -0.550 OA
ENDBRANCH   3   4
ENDBRANCH   2   3
ENDBRANCH   1   2
BRANCH   1   7
ATOM      7  C   UNL     1      -0.790  -3.899   6.577  1.00  0.00     0.000 C 
BRANCH   7   8
ATOM      8  C   UNL     1      -1.474  -3.596   5.232  1.00  0.00    -0.000 C 
BRANCH   8   9
ATOM      9  C   UNL     1      -1.484  -2.110   4.832  1.00  0.00    -0.003 C 
ATOM     10  C   UNL     1      -1.442  -1.898   3.319  1.00  0.00     0.004 C 
ENDBRANCH   8   9
ENDBRANCH   7   8
ENDBRANCH   1   7
TORSDOF 6
ENDMDL
MODEL 6
REMARK VINA RESULT:    -3.633      5.390      7.033
REMARK INTER + INTRA:          -5.184
REMARK INTER:                  -4.951
REMARK INTRA:                  -0.233
REMARK UNBOUND:                -0.276
REMARK SMILES CCCCCCCC(=O)[O-]
REMARK SMILES IDX 5 1 6 2 7 3 8 4 9 5 10 6 4 7 3 8 2 9 1 10
REMARK H PARENT
REMARK Flexibility Score: inf
ROOT
ATOM      1  C   UNL     1       0.060  -5.856   6.992  1.00  0.00     0.000 C 
ENDROOT
BRANCH   1   2
ATOM      2  C   UNL     1       0.252  -5.223   8.376  1.00  0.00     0.006 C 
BRANCH   2   3
ATOM      3  C   UNL     1       1.728  -5.231   8.784  1.00  0.00     0.053 C 
BRANCH   3   4
ATOM      4  C   UNL     1       2.038  -4.053   9.651  1.00  0.00     0.041 C 
ATOM      5  O   UNL     1       1.143  -3.209   9.919  1.00  0.00    -0.550 OA
ATOM      6  O   UNL     1       3.330  -3.858  10.125  1.00  0.00    -0.550 OA
ENDBRANCH   3   4
ENDBRANCH   2   3
ENDBRANCH   1   2
BRANCH   1   7
ATOM      7  C   UNL     1      -0.738  -7.164   7.091  1.00  0.00     0.000 C 
BRANCH   7   8
ATOM      8  C   UNL     1      -1.764  -7.154   8.238  1.00  0.00    -0.000 C 
BRANCH   8   9
ATOM      9  C   UNL     1      -2.704  -8.372   8.277  1.00  0.00    -0.003 C 
ATOM     10  C   UNL     1      -2.016  -9.671   7.858  1.00  0.00     0.004 C 
ENDBRANCH   8   9
ENDBRANCH   7   8
ENDBRANCH   1   7
TORSDOF 6
ENDMDL
MODEL 7
REMARK VINA RESULT:    -3.625     12.088     13.338
REMARK INTER + INTRA:          -5.172
REMARK INTER:                  -4.834
REMARK INTRA:                  -0.338
REMARK UNBOUND:                -0.276
REMARK SMILES CCCCCCCC(=O)[O-]
REMARK SMILES IDX 5 1 6 2 7 3 8 4 9 5 10 6 4 7 3 8 2 9 1 10
REMARK H PARENT
REMARK Flexibility Score: inf
ROOT
ATOM      1  C   UNL     1       7.252   9.807   6.204  1.00  0.00     0.000 C 
ENDROOT
BRANCH   1   2
ATOM      2  C   UNL     1       7.833   9.863   7.623  1.00  0.00     0.006 C 
BRANCH   2   3
ATOM      3  C   UNL     1       8.400   8.503   8.039  1.00  0.00     0.053 C 
BRANCH   3   4
ATOM      4  C   UNL     1       7.330   7.654   8.648  1.00  0.00     0.041 C 
ATOM      5  O   UNL     1       7.434   6.399   8.639  1.00  0.00    -0.550 OA
ATOM      6  O   UNL     1       6.192   8.246   9.183  1.00  0.00    -0.550 OA
ENDBRANCH   3   4
ENDBRANCH   2   3
ENDBRANCH   1   2
BRANCH   1   7
ATOM      7  C   UNL     1       5.736  10.050   6.221  1.00  0.00     0.000 C 
BRANCH   7   8
ATOM      8  C   UNL     1       4.944   8.949   5.493  1.00  0.00    -0.000 C 
BRANCH   8   9
ATOM      9  C   UNL     1       5.565   8.473   4.168  1.00  0.00    -0.003 C 
ATOM     10  C   UNL     1       4.965   7.161   3.663  1.00  0.00     0.004 C 
ENDBRANCH   8   9
ENDBRANCH   7   8
ENDBRANCH   1   7
TORSDOF 6
ENDMDL
MODEL 8
REMARK VINA RESULT:    -3.445      5.703      7.062
REMARK INTER + INTRA:          -4.929
REMARK INTER:                  -4.662
REMARK INTRA:                  -0.267
REMARK UNBOUND:                -0.276
REMARK SMILES CCCCCCCC(=O)[O-]
REMARK SMILES IDX 5 1 6 2 7 3 8 4 9 5 10 6 4 7 3 8 2 9 1 10
REMARK H PARENT
REMARK Flexibility Score: inf
ROOT
ATOM      1  C   UNL     1      -1.582  -7.217   7.864  1.00  0.00     0.000 C 
ENDROOT
BRANCH   1   2
ATOM      2  C   UNL     1      -0.450  -6.960   6.862  1.00  0.00     0.006 C 
BRANCH   2   3
ATOM      3  C   UNL     1      -0.134  -5.465   6.761  1.00  0.00     0.053 C 
BRANCH   3   4
ATOM      4  C   UNL     1       0.375  -4.947   8.068  1.00  0.00     0.041 C 
ATOM      5  O   UNL     1       1.399  -5.455   8.596  1.00  0.00    -0.550 OA
ATOM      6  O   UNL     1      -0.310  -3.935   8.730  1.00  0.00    -0.550 OA
ENDBRANCH   3   4
ENDBRANCH   2   3
ENDBRANCH   1   2
BRANCH   1   7
ATOM      7  C   UNL     1      -2.000  -8.694   7.854  1.00  0.00     0.000 C 
BRANCH   7   8
ATOM      8  C   UNL     1      -3.198  -8.985   8.776  1.00  0.00    -0.000 C 
BRANCH   8   9
ATOM      9  C   UNL     1      -4.221  -7.840   8.888  1.00  0.00    -0.003 C 
ATOM     10  C   UNL     1      -5.283  -7.877   7.790  1.00  0.00     0.004 C 
ENDBRANCH   8   9
ENDBRANCH   7   8
ENDBRANCH   1   7
TORSDOF 6
ENDMDL
MODEL 9
REMARK VINA RESULT:    -3.387      6.374      7.650
REMARK INTER + INTRA:          -4.851
REMARK INTER:                  -4.595
REMARK INTRA:                  -0.256
REMARK UNBOUND:                -0.276
REMARK SMILES CCCCCCCC(=O)[O-]
REMARK SMILES IDX 5 1 6 2 7 3 8 4 9 5 10 6 4 7 3 8 2 9 1 10
REMARK H PARENT
REMARK Flexibility Score: inf
ROOT
ATOM      1  C   UNL     1      -1.920  -9.207   8.062  1.00  0.00     0.000 C 
ENDROOT
BRANCH   1   2
ATOM      2  C   UNL     1      -3.043  -8.384   8.705  1.00  0.00     0.006 C 
BRANCH   2   3
ATOM      3  C   UNL     1      -4.367  -9.152   8.686  1.00  0.00     0.053 C 
BRANCH   3   4
ATOM      4  C   UNL     1      -5.399  -8.397   7.909  1.00  0.00     0.041 C 
ATOM      5  O   UNL     1      -5.113  -7.291   7.383  1.00  0.00    -0.550 OA
ATOM      6  O   UNL     1      -6.694  -8.893   7.808  1.00  0.00    -0.550 OA
ENDBRANCH   3   4
ENDBRANCH   2   3
ENDBRANCH   1   2
BRANCH   1   7
ATOM      7  C   UNL     1      -1.074  -8.340   7.118  1.00  0.00     0.000 C 
BRANCH   7   8
ATOM      8  C   UNL     1      -1.112  -6.845   7.481  1.00  0.00    -0.000 C 
BRANCH   8   9
ATOM      9  C   UNL     1       0.045  -6.009   6.906  1.00  0.00    -0.003 C 
ATOM     10  C   UNL     1       0.865  -5.301   7.984  1.00  0.00     0.004 C 
ENDBRANCH   8   9
ENDBRANCH   7   8
ENDBRANCH   1   7
TORSDOF 6
ENDMDL
