MODEL 1
REMARK VINA RESULT:    -3.745      0.000      0.000
REMARK INTER + INTRA:          -8.593
REMARK INTER:                  -6.809
REMARK INTRA:                  -1.783
REMARK UNBOUND:                -1.783
REMARK SMILES CCCCCCCCCCCCCC[C@H](C)C(=O)[O-]
REMARK SMILES IDX 9 1 10 2 11 3 12 4 13 5 14 6 15 7 16 8 17 9 18 10 19 11 8 12
REMARK SMILES IDX 7 13 6 14 5 15 4 16 3 17 2 18 1 19
REMARK H PARENT
REMARK Flexibility Score: inf
ROOT
ATOM      1  C   UNL     1     -44.984 -22.347  27.460  1.00  0.00     0.000 C 
ENDROOT
BRANCH   1   2
ATOM      2  C   UNL     1     -43.963 -22.429  28.601  1.00  0.00     0.000 C 
BRANCH   2   3
ATOM      3  C   UNL     1     -42.531 -22.489  28.056  1.00  0.00     0.000 C 
BRANCH   3   4
ATOM      4  C   UNL     1     -41.508 -22.205  29.167  1.00  0.00     0.000 C 
BRANCH   4   5
ATOM      5  C   UNL     1     -40.521 -21.086  28.796  1.00  0.00     0.001 C 
BRANCH   5   6
ATOM      6  C   UNL     1     -40.852 -20.429  27.443  1.00  0.00     0.009 C 
BRANCH   6   7
ATOM      7  C   UNL     1     -39.593 -20.165  26.587  1.00  0.00     0.032 C 
ATOM      8  C   UNL     1     -38.300 -20.567  27.309  1.00  0.00     0.014 C 
BRANCH   7   9
ATOM      9  C   UNL     1     -39.528 -18.712  26.203  1.00  0.00     0.044 C 
ATOM     10  O   UNL     1     -40.103 -17.838  26.905  1.00  0.00    -0.550 OA
ATOM     11  O   UNL     1     -38.824 -18.325  25.070  1.00  0.00    -0.550 OA
ENDBRANCH   7   9
ENDBRANCH   6   7
ENDBRANCH   5   6
ENDBRANCH   4   5
ENDBRANCH   3   4
ENDBRANCH   2   3
ENDBRANCH   1   2
BRANCH   1  12
ATOM     12  C   UNL     1     -46.387 -22.043  27.999  1.00  0.00     0.000 C 
BRANCH  12  13
ATOM     13  C   UNL     1     -47.294 -21.489  26.893  1.00  0.00    -0.000 C 
BRANCH  13  14
ATOM     14  C   UNL     1     -48.013 -20.214  27.359  1.00  0.00    -0.000 C 
BRANCH  14  15
ATOM     15  C   UNL     1     -47.180 -18.946  27.114  1.00  0.00    -0.000 C 
BRANCH  15  16
ATOM     16  C   UNL     1     -46.429 -18.982  25.772  1.00  0.00    -0.000 C 
BRANCH  16  17
ATOM     17  C   UNL     1     -45.046 -18.302  25.860  1.00  0.00    -0.000 C 
BRANCH  17  18
ATOM     18  C   UNL     1     -43.875 -19.299  25.921  1.00  0.00    -0.003 C 
ATOM     19  C   UNL     1     -43.823 -20.236  24.716  1.00  0.00     0.004 C 
ENDBRANCH  17  18
ENDBRANCH  16  17
ENDBRANCH  15  16
ENDBRANCH  14  15
ENDBRANCH  13  14
ENDBRANCH  12  13
ENDBRANCH   1  12
TORSDOF 14
ENDMDL
MODEL 2
REMARK VINA RESULT:    -3.669      1.358      2.221
REMARK INTER + INTRA:          -8.455
REMARK INTER:                  -6.683
REMARK INTRA:                  -1.772
REMARK UNBOUND:                -1.783
REMARK SMILES CCCCCCCCCCCCCC[C@H](C)C(=O)[O-]
REMARK SMILES IDX 9 1 10 2 11 3 12 4 13 5 14 6 15 7 16 8 17 9 18 10 19 11 8 12
REMARK SMILES IDX 7 13 6 14 5 15 4 16 3 17 2 18 1 19
REMARK H PARENT
REMARK Flexibility Score: inf
ROOT
ATOM      1  C   UNL     1     -44.057 -22.178  26.988  1.00  0.00     0.000 C 
ENDROOT
BRANCH   1   2
ATOM      2  C   UNL     1     -42.703 -21.468  27.105  1.00  0.00     0.000 C 
BRANCH   2   3
ATOM      3  C   UNL     1     -41.671 -22.360  27.806  1.00  0.00     0.000 C 
BRANCH   3   4
ATOM      4  C   UNL     1     -41.342 -21.822  29.207  1.00  0.00     0.000 C 
BRANCH   4   5
ATOM      5  C   UNL     1     -40.366 -20.633  29.175  1.00  0.00     0.001 C 
BRANCH   5   6
ATOM      6  C   UNL     1     -39.017 -20.993  28.527  1.00  0.00     0.009 C 
BRANCH   6   7
ATOM      7  C   UNL     1     -38.645 -20.046  27.364  1.00  0.00     0.032 C 
ATOM      8  C   UNL     1     -39.641 -18.887  27.212  1.00  0.00     0.014 C 
BRANCH   7   9
ATOM      9  C   UNL     1     -38.569 -20.819  26.076  1.00  0.00     0.044 C 
ATOM     10  O   UNL     1     -38.636 -20.222  24.967  1.00  0.00    -0.550 OA
ATOM     11  O   UNL     1     -38.417 -22.199  26.102  1.00  0.00    -0.550 OA
ENDBRANCH   7   9
ENDBRANCH   6   7
ENDBRANCH   5   6
ENDBRANCH   4   5
ENDBRANCH   3   4
ENDBRANCH   2   3
ENDBRANCH   1   2
BRANCH   1  12
ATOM     12  C   UNL     1     -44.585 -22.586  28.369  1.00  0.00     0.000 C 
BRANCH  12  13
ATOM     13  C   UNL     1     -46.101 -22.373  28.464  1.00  0.00    -0.000 C 
BRANCH  13  14
ATOM     14  C   UNL     1     -46.774 -22.606  27.102  1.00  0.00    -0.000 C 
BRANCH  14  15
ATOM     15  C   UNL     1     -47.706 -21.451  26.702  1.00  0.00    -0.000 C 
BRANCH  15  16
ATOM     16  C   UNL     1     -47.595 -20.245  27.651  1.00  0.00    -0.000 C 
BRANCH  16  17
ATOM     17  C   UNL     1     -47.141 -18.966  26.917  1.00  0.00    -0.000 C 
BRANCH  17  18
ATOM     18  C   UNL     1     -45.656 -18.983  26.514  1.00  0.00    -0.003 C 
ATOM     19  C   UNL     1     -45.444 -19.192  25.017  1.00  0.00     0.004 C 
ENDBRANCH  17  18
ENDBRANCH  16  17
ENDBRANCH  15  16
ENDBRANCH  14  15
ENDBRANCH  13  14
ENDBRANCH  12  13
ENDBRANCH   1  12
TORSDOF 14
ENDMDL
MODEL 3
REMARK VINA RESULT:    -3.619      2.636      7.113
REMARK INTER + INTRA:          -8.364
REMARK INTER:                  -6.524
REMARK INTRA:                  -1.840
REMARK UNBOUND:                -1.783
REMARK SMILES CCCCCCCCCCCCCC[C@H](C)C(=O)[O-]
REMARK SMILES IDX 9 1 10 2 11 3 12 4 13 5 14 6 15 7 16 8 17 9 18 10 19 11 8 12
REMARK SMILES IDX 7 13 6 14 5 15 4 16 3 17 2 18 1 19
REMARK H PARENT
REMARK Flexibility Score: inf
ROOT
ATOM      1  C   UNL     1     -41.578 -19.948  25.215  1.00  0.00     0.000 C 
ENDROOT
BRANCH   1   2
ATOM      2  C   UNL     1     -42.762 -19.937  26.188  1.00  0.00     0.000 C 
BRANCH   2   3
ATOM      3  C   UNL     1     -44.085 -19.708  25.446  1.00  0.00     0.000 C 
BRANCH   3   4
ATOM      4  C   UNL     1     -44.971 -18.705  26.200  1.00  0.00     0.000 C 
BRANCH   4   5
ATOM      5  C   UNL     1     -46.445 -19.141  26.263  1.00  0.00     0.001 C 
BRANCH   5   6
ATOM      6  C   UNL     1     -46.625 -20.651  26.024  1.00  0.00     0.009 C 
BRANCH   6   7
ATOM      7  C   UNL     1     -47.260 -21.372  27.235  1.00  0.00     0.032 C 
ATOM      8  C   UNL     1     -47.990 -20.403  28.176  1.00  0.00     0.014 C 
BRANCH   7   9
ATOM      9  C   UNL     1     -46.202 -22.119  28.001  1.00  0.00     0.044 C 
ATOM     10  O   UNL     1     -45.076 -22.345  27.482  1.00  0.00    -0.550 OA
ATOM     11  O   UNL     1     -46.462 -22.561  29.291  1.00  0.00    -0.550 OA
ENDBRANCH   7   9
ENDBRANCH   6   7
ENDBRANCH   5   6
ENDBRANCH   4   5
ENDBRANCH   3   4
ENDBRANCH   2   3
ENDBRANCH   1   2
BRANCH   1  12
ATOM     12  C   UNL     1     -40.841 -18.603  25.232  1.00  0.00     0.000 C 
BRANCH  12  13
ATOM     13  C   UNL     1     -39.415 -18.763  25.775  1.00  0.00    -0.000 C 
BRANCH  13  14
ATOM     14  C   UNL     1     -38.916 -20.205  25.588  1.00  0.00    -0.000 C 
BRANCH  14  15
ATOM     15  C   UNL     1     -38.468 -20.848  26.910  1.00  0.00    -0.000 C 
BRANCH  15  16
ATOM     16  C   UNL     1     -38.818 -19.986  28.135  1.00  0.00    -0.000 C 
BRANCH  16  17
ATOM     17  C   UNL     1     -40.112 -20.461  28.829  1.00  0.00    -0.000 C 
BRANCH  17  18
ATOM     18  C   UNL     1     -40.462 -21.931  28.537  1.00  0.00    -0.003 C 
ATOM     19  C   UNL     1     -41.869 -22.314  28.991  1.00  0.00     0.004 C 
ENDBRANCH  17  18
ENDBRANCH  16  17
ENDBRANCH  15  16
ENDBRANCH  14  15
ENDBRANCH  13  14
ENDBRANCH  12  13
ENDBRANCH   1  12
TORSDOF 14
ENDMDL
MODEL 4
REMARK VINA RESULT:    -3.612      2.507      6.186
REMARK INTER + INTRA:          -8.351
REMARK INTER:                  -6.245
REMARK INTRA:                  -2.106
REMARK UNBOUND:                -1.783
REMARK SMILES CCCCCCCCCCCCCC[C@H](C)C(=O)[O-]
REMARK SMILES IDX 9 1 10 2 11 3 12 4 13 5 14 6 15 7 16 8 17 9 18 10 19 11 8 12
REMARK SMILES IDX 7 13 6 14 5 15 4 16 3 17 2 18 1 19
REMARK H PARENT
REMARK Flexibility Score: inf
ROOT
ATOM      1  C   UNL     1     -40.771 -21.329  28.816  1.00  0.00     0.000 C 
ENDROOT
BRANCH   1   2
ATOM      2  C   UNL     1     -41.680 -22.519  28.490  1.00  0.00     0.000 C 
BRANCH   2   3
ATOM      3  C   UNL     1     -43.138 -22.217  28.856  1.00  0.00     0.000 C 
BRANCH   3   4
ATOM      4  C   UNL     1     -44.103 -22.893  27.871  1.00  0.00     0.000 C 
BRANCH   4   5
ATOM      5  C   UNL     1     -45.545 -22.371  27.995  1.00  0.00     0.001 C 
BRANCH   5   6
ATOM      6  C   UNL     1     -45.926 -21.410  26.855  1.00  0.00     0.009 C 
BRANCH   6   7
ATOM      7  C   UNL     1     -46.608 -20.122  27.368  1.00  0.00     0.032 C 
ATOM      8  C   UNL     1     -48.041 -20.373  27.857  1.00  0.00     0.014 C 
BRANCH   7   9
ATOM      9  C   UNL     1     -46.621 -19.079  26.283  1.00  0.00     0.044 C 
ATOM     10  O   UNL     1     -46.269 -19.374  25.109  1.00  0.00    -0.550 OA
ATOM     11  O   UNL     1     -47.027 -17.783  26.571  1.00  0.00    -0.550 OA
ENDBRANCH   7   9
ENDBRANCH   6   7
ENDBRANCH   5   6
ENDBRANCH   4   5
ENDBRANCH   3   4
ENDBRANCH   2   3
ENDBRANCH   1   2
BRANCH   1  12
ATOM     12  C   UNL     1     -39.341 -21.575  28.318  1.00  0.00     0.000 C 
BRANCH  12  13
ATOM     13  C   UNL     1     -38.706 -20.277  27.802  1.00  0.00    -0.000 C 
BRANCH  13  14
ATOM     14  C   UNL     1     -38.798 -20.192  26.271  1.00  0.00    -0.000 C 
BRANCH  14  15
ATOM     15  C   UNL     1     -39.257 -18.808  25.785  1.00  0.00    -0.000 C 
BRANCH  15  16
ATOM     16  C   UNL     1     -40.520 -18.316  26.512  1.00  0.00    -0.000 C 
BRANCH  16  17
ATOM     17  C   UNL     1     -41.797 -18.533  25.673  1.00  0.00    -0.000 C 
BRANCH  17  18
ATOM     18  C   UNL     1     -42.613 -19.765  26.103  1.00  0.00    -0.003 C 
ATOM     19  C   UNL     1     -42.425 -20.963  25.176  1.00  0.00     0.004 C 
ENDBRANCH  17  18
ENDBRANCH  16  17
ENDBRANCH  15  16
ENDBRANCH  14  15
ENDBRANCH  13  14
ENDBRANCH  12  13
ENDBRANCH   1  12
TORSDOF 14
ENDMDL
MODEL 5
REMARK VINA RESULT:    -3.611      1.358      3.006
REMARK INTER + INTRA:          -8.350
REMARK INTER:                  -6.279
REMARK INTRA:                  -2.071
REMARK UNBOUND:                -1.783
REMARK SMILES CCCCCCCCCCCCCC[C@H](C)C(=O)[O-]
REMARK SMILES IDX 9 1 10 2 11 3 12 4 13 5 14 6 15 7 16 8 17 9 18 10 19 11 8 12
REMARK SMILES IDX 7 13 6 14 5 15 4 16 3 17 2 18 1 19
REMARK H PARENT
REMARK Flexibility Score: inf
ROOT
ATOM      1  C   UNL     1     -42.354 -20.898  25.355  1.00  0.00     0.000 C 
ENDROOT
BRANCH   1   2
ATOM      2  C   UNL     1     -42.364 -22.171  26.209  1.00  0.00     0.000 C 
BRANCH   2   3
ATOM      3  C   UNL     1     -42.501 -21.835  27.699  1.00  0.00     0.000 C 
BRANCH   3   4
ATOM      4  C   UNL     1     -41.217 -22.194  28.464  1.00  0.00     0.000 C 
BRANCH   4   5
ATOM      5  C   UNL     1     -40.402 -20.955  28.873  1.00  0.00     0.001 C 
BRANCH   5   6
ATOM      6  C   UNL     1     -38.946 -21.014  28.374  1.00  0.00     0.009 C 
BRANCH   6   7
ATOM      7  C   UNL     1     -38.661 -19.988  27.254  1.00  0.00     0.032 C 
ATOM      8  C   UNL     1     -39.730 -18.889  27.181  1.00  0.00     0.014 C 
BRANCH   7   9
ATOM      9  C   UNL     1     -38.565 -20.688  25.927  1.00  0.00     0.044 C 
ATOM     10  O   UNL     1     -38.252 -20.048  24.887  1.00  0.00    -0.550 OA
ATOM     11  O   UNL     1     -38.815 -22.052  25.841  1.00  0.00    -0.550 OA
ENDBRANCH   7   9
ENDBRANCH   6   7
ENDBRANCH   5   6
ENDBRANCH   4   5
ENDBRANCH   3   4
ENDBRANCH   2   3
ENDBRANCH   1   2
BRANCH   1  12
ATOM     12  C   UNL     1     -43.121 -19.765  26.049  1.00  0.00     0.000 C 
BRANCH  12  13
ATOM     13  C   UNL     1     -44.571 -19.697  25.552  1.00  0.00    -0.000 C 
BRANCH  13  14
ATOM     14  C   UNL     1     -45.366 -18.632  26.324  1.00  0.00    -0.000 C 
BRANCH  14  15
ATOM     15  C   UNL     1     -46.885 -18.840  26.217  1.00  0.00    -0.000 C 
BRANCH  15  16
ATOM     16  C   UNL     1     -47.446 -19.701  27.361  1.00  0.00    -0.000 C 
BRANCH  16  17
ATOM     17  C   UNL     1     -48.050 -21.027  26.850  1.00  0.00    -0.000 C 
BRANCH  17  18
ATOM     18  C   UNL     1     -47.085 -22.221  26.950  1.00  0.00    -0.003 C 
ATOM     19  C   UNL     1     -46.158 -22.142  28.160  1.00  0.00     0.004 C 
ENDBRANCH  17  18
ENDBRANCH  16  17
ENDBRANCH  15  16
ENDBRANCH  14  15
ENDBRANCH  13  14
ENDBRANCH  12  13
ENDBRANCH   1  12
TORSDOF 14
ENDMDL
MODEL 6
REMARK VINA RESULT:    -3.603      2.033      3.941
REMARK INTER + INTRA:          -8.334
REMARK INTER:                  -6.358
REMARK INTRA:                  -1.976
REMARK UNBOUND:                -1.783
REMARK SMILES CCCCCCCCCCCCCC[C@H](C)C(=O)[O-]
REMARK SMILES IDX 9 1 10 2 11 3 12 4 13 5 14 6 15 7 16 8 17 9 18 10 19 11 8 12
REMARK SMILES IDX 7 13 6 14 5 15 4 16 3 17 2 18 1 19
REMARK H PARENT
REMARK Flexibility Score: inf
ROOT
ATOM      1  C   UNL     1     -43.004 -20.470  25.421  1.00  0.00     0.000 C 
ENDROOT
BRANCH   1   2
ATOM      2  C   UNL     1     -42.369 -19.077  25.338  1.00  0.00     0.000 C 
BRANCH   2   3
ATOM      3  C   UNL     1     -40.838 -19.168  25.342  1.00  0.00     0.000 C 
BRANCH   3   4
ATOM      4  C   UNL     1     -40.240 -18.324  26.478  1.00  0.00     0.000 C 
BRANCH   4   5
ATOM      5  C   UNL     1     -39.316 -19.137  27.401  1.00  0.00     0.001 C 
BRANCH   5   6
ATOM      6  C   UNL     1     -40.097 -20.020  28.391  1.00  0.00     0.009 C 
BRANCH   6   7
ATOM      7  C   UNL     1     -39.469 -21.422  28.559  1.00  0.00     0.032 C 
ATOM      8  C   UNL     1     -38.017 -21.476  28.065  1.00  0.00     0.014 C 
BRANCH   7   9
ATOM      9  C   UNL     1     -40.292 -22.445  27.825  1.00  0.00     0.044 C 
ATOM     10  O   UNL     1     -40.214 -22.549  26.572  1.00  0.00    -0.550 OA
ATOM     11  O   UNL     1     -41.141 -23.289  28.529  1.00  0.00    -0.550 OA
ENDBRANCH   7   9
ENDBRANCH   6   7
ENDBRANCH   5   6
ENDBRANCH   4   5
ENDBRANCH   3   4
ENDBRANCH   2   3
ENDBRANCH   1   2
BRANCH   1  12
ATOM     12  C   UNL     1     -43.456 -20.783  26.852  1.00  0.00     0.000 C 
BRANCH  12  13
ATOM     13  C   UNL     1     -44.152 -22.148  26.923  1.00  0.00    -0.000 C 
BRANCH  13  14
ATOM     14  C   UNL     1     -44.714 -22.406  28.331  1.00  0.00    -0.000 C 
BRANCH  14  15
ATOM     15  C   UNL     1     -46.250 -22.404  28.360  1.00  0.00    -0.000 C 
BRANCH  15  16
ATOM     16  C   UNL     1     -46.869 -22.315  26.955  1.00  0.00    -0.000 C 
BRANCH  16  17
ATOM     17  C   UNL     1     -47.986 -21.253  26.876  1.00  0.00    -0.000 C 
BRANCH  17  18
ATOM     18  C   UNL     1     -47.651 -19.953  27.628  1.00  0.00    -0.003 C 
ATOM     19  C   UNL     1     -46.873 -18.952  26.778  1.00  0.00     0.004 C 
ENDBRANCH  17  18
ENDBRANCH  16  17
ENDBRANCH  15  16
ENDBRANCH  14  15
ENDBRANCH  13  14
ENDBRANCH  12  13
ENDBRANCH   1  12
TORSDOF 14
ENDMDL
MODEL 7
REMARK VINA RESULT:    -3.569      3.008      6.431
REMARK INTER + INTRA:          -8.273
REMARK INTER:                  -6.396
REMARK INTRA:                  -1.877
REMARK UNBOUND:                -1.783
REMARK SMILES CCCCCCCCCCCCCC[C@H](C)C(=O)[O-]
REMARK SMILES IDX 9 1 10 2 11 3 12 4 13 5 14 6 15 7 16 8 17 9 18 10 19 11 8 12
REMARK SMILES IDX 7 13 6 14 5 15 4 16 3 17 2 18 1 19
REMARK H PARENT
REMARK Flexibility Score: inf
ROOT
ATOM      1  C   UNL     1     -43.125 -22.456  28.567  1.00  0.00     0.000 C 
ENDROOT
BRANCH   1   2
ATOM      2  C   UNL     1     -42.962 -22.341  27.047  1.00  0.00     0.000 C 
BRANCH   2   3
ATOM      3  C   UNL     1     -44.034 -21.424  26.445  1.00  0.00     0.000 C 
BRANCH   3   4
ATOM      4  C   UNL     1     -43.503 -19.992  26.281  1.00  0.00     0.000 C 
BRANCH   4   5
ATOM      5  C   UNL     1     -44.541 -19.038  25.665  1.00  0.00     0.001 C 
BRANCH   5   6
ATOM      6  C   UNL     1     -45.851 -19.754  25.288  1.00  0.00     0.009 C 
BRANCH   6   7
ATOM      7  C   UNL     1     -47.071 -19.205  26.061  1.00  0.00     0.032 C 
ATOM      8  C   UNL     1     -46.701 -18.038  26.986  1.00  0.00     0.014 C 
BRANCH   7   9
ATOM      9  C   UNL     1     -47.708 -20.306  26.866  1.00  0.00     0.044 C 
ATOM     10  O   UNL     1     -47.334 -20.531  28.048  1.00  0.00    -0.550 OA
ATOM     11  O   UNL     1     -48.719 -21.077  26.309  1.00  0.00    -0.550 OA
ENDBRANCH   7   9
ENDBRANCH   6   7
ENDBRANCH   5   6
ENDBRANCH   4   5
ENDBRANCH   3   4
ENDBRANCH   2   3
ENDBRANCH   1   2
BRANCH   1  12
ATOM     12  C   UNL     1     -41.775 -22.299  29.278  1.00  0.00     0.000 C 
BRANCH  12  13
ATOM     13  C   UNL     1     -40.722 -21.705  28.334  1.00  0.00    -0.000 C 
BRANCH  13  14
ATOM     14  C   UNL     1     -40.026 -20.496  28.979  1.00  0.00    -0.000 C 
BRANCH  14  15
ATOM     15  C   UNL     1     -39.062 -19.788  28.014  1.00  0.00    -0.000 C 
BRANCH  15  16
ATOM     16  C   UNL     1     -39.795 -18.940  26.962  1.00  0.00    -0.000 C 
BRANCH  16  17
ATOM     17  C   UNL     1     -39.157 -19.069  25.562  1.00  0.00    -0.000 C 
BRANCH  17  18
ATOM     18  C   UNL     1     -38.990 -20.526  25.095  1.00  0.00    -0.003 C 
ATOM     19  C   UNL     1     -40.301 -21.162  24.640  1.00  0.00     0.004 C 
ENDBRANCH  17  18
ENDBRANCH  16  17
ENDBRANCH  15  16
ENDBRANCH  14  15
ENDBRANCH  13  14
ENDBRANCH  12  13
ENDBRANCH   1  12
TORSDOF 14
ENDMDL
MODEL 8
REMARK VINA RESULT:    -3.549      1.807      5.905
REMARK INTER + INTRA:          -8.237
REMARK INTER:                  -6.890
REMARK INTRA:                  -1.347
REMARK UNBOUND:                -1.783
REMARK SMILES CCCCCCCCCCCCCC[C@H](C)C(=O)[O-]
REMARK SMILES IDX 9 1 10 2 11 3 12 4 13 5 14 6 15 7 16 8 17 9 18 10 19 11 8 12
REMARK SMILES IDX 7 13 6 14 5 15 4 16 3 17 2 18 1 19
REMARK H PARENT
REMARK Flexibility Score: inf
ROOT
ATOM      1  C   UNL     1     -44.132 -21.853  27.697  1.00  0.00     0.000 C 
ENDROOT
BRANCH   1   2
ATOM      2  C   UNL     1     -45.242 -22.566  28.478  1.00  0.00     0.000 C 
BRANCH   2   3
ATOM      3  C   UNL     1     -46.600 -22.394  27.787  1.00  0.00     0.000 C 
BRANCH   3   4
ATOM      4  C   UNL     1     -47.165 -20.986  28.029  1.00  0.00     0.000 C 
BRANCH   4   5
ATOM      5  C   UNL     1     -47.854 -20.398  26.785  1.00  0.00     0.001 C 
BRANCH   5   6
ATOM      6  C   UNL     1     -46.870 -19.660  25.858  1.00  0.00     0.009 C 
BRANCH   6   7
ATOM      7  C   UNL     1     -45.978 -18.654  26.620  1.00  0.00     0.032 C 
ATOM      8  C   UNL     1     -46.733 -17.373  26.999  1.00  0.00     0.014 C 
BRANCH   7   9
ATOM      9  C   UNL     1     -44.774 -18.304  25.789  1.00  0.00     0.044 C 
ATOM     10  O   UNL     1     -43.746 -19.034  25.814  1.00  0.00    -0.550 OA
ATOM     11  O   UNL     1     -44.790 -17.173  24.984  1.00  0.00    -0.550 OA
ENDBRANCH   7   9
ENDBRANCH   6   7
ENDBRANCH   5   6
ENDBRANCH   4   5
ENDBRANCH   3   4
ENDBRANCH   2   3
ENDBRANCH   1   2
BRANCH   1  12
ATOM     12  C   UNL     1     -43.090 -22.855  27.184  1.00  0.00     0.000 C 
BRANCH  12  13
ATOM     13  C   UNL     1     -41.668 -22.303  27.350  1.00  0.00    -0.000 C 
BRANCH  13  14
ATOM     14  C   UNL     1     -41.359 -22.015  28.828  1.00  0.00    -0.000 C 
BRANCH  14  15
ATOM     15  C   UNL     1     -40.485 -20.765  29.013  1.00  0.00    -0.000 C 
BRANCH  15  16
ATOM     16  C   UNL     1     -39.010 -21.016  28.655  1.00  0.00    -0.000 C 
BRANCH  16  17
ATOM     17  C   UNL     1     -38.580 -20.245  27.388  1.00  0.00    -0.000 C 
BRANCH  17  18
ATOM     18  C   UNL     1     -39.384 -18.955  27.151  1.00  0.00    -0.003 C 
ATOM     19  C   UNL     1     -39.507 -18.589  25.674  1.00  0.00     0.004 C 
ENDBRANCH  17  18
ENDBRANCH  16  17
ENDBRANCH  15  16
ENDBRANCH  14  15
ENDBRANCH  13  14
ENDBRANCH  12  13
ENDBRANCH   1  12
TORSDOF 14
ENDMDL
MODEL 9
REMARK VINA RESULT:    -3.502      2.860      4.922
REMARK INTER + INTRA:          -8.152
REMARK INTER:                  -5.801
REMARK INTRA:                  -2.351
REMARK UNBOUND:                -1.783
REMARK SMILES CCCCCCCCCCCCCC[C@H](C)C(=O)[O-]
REMARK SMILES IDX 9 1 10 2 11 3 12 4 13 5 14 6 15 7 16 8 17 9 18 10 19 11 8 12
REMARK SMILES IDX 7 13 6 14 5 15 4 16 3 17 2 18 1 19
REMARK H PARENT
REMARK Flexibility Score: inf
ROOT
ATOM      1  C   UNL     1     -40.040 -19.911  25.496  1.00  0.00     0.000 C 
ENDROOT
BRANCH   1   2
ATOM      2  C   UNL     1     -39.067 -19.708  26.663  1.00  0.00     0.000 C 
BRANCH   2   3
ATOM      3  C   UNL     1     -39.823 -19.505  27.982  1.00  0.00     0.000 C 
BRANCH   3   4
ATOM      4  C   UNL     1     -39.715 -20.751  28.875  1.00  0.00     0.000 C 
BRANCH   4   5
ATOM      5  C   UNL     1     -41.072 -21.437  29.107  1.00  0.00     0.001 C 
BRANCH   5   6
ATOM      6  C   UNL     1     -41.114 -22.870  28.545  1.00  0.00     0.009 C 
BRANCH   6   7
ATOM      7  C   UNL     1     -39.858 -23.220  27.716  1.00  0.00     0.032 C 
ATOM      8  C   UNL     1     -40.195 -23.563  26.259  1.00  0.00     0.014 C 
BRANCH   7   9
ATOM      9  C   UNL     1     -39.127 -24.371  28.351  1.00  0.00     0.044 C 
ATOM     10  O   UNL     1     -37.884 -24.308  28.550  1.00  0.00    -0.550 OA
ATOM     11  O   UNL     1     -39.823 -25.513  28.727  1.00  0.00    -0.550 OA
ENDBRANCH   7   9
ENDBRANCH   6   7
ENDBRANCH   5   6
ENDBRANCH   4   5
ENDBRANCH   3   4
ENDBRANCH   2   3
ENDBRANCH   1   2
BRANCH   1  12
ATOM     12  C   UNL     1     -41.464 -19.498  25.889  1.00  0.00     0.000 C 
BRANCH  12  13
ATOM     13  C   UNL     1     -42.458 -20.637  25.630  1.00  0.00    -0.000 C 
BRANCH  13  14
ATOM     14  C   UNL     1     -43.664 -20.540  26.579  1.00  0.00    -0.000 C 
BRANCH  14  15
ATOM     15  C   UNL     1     -44.463 -21.850  26.651  1.00  0.00    -0.000 C 
BRANCH  15  16
ATOM     16  C   UNL     1     -44.760 -22.283  28.097  1.00  0.00    -0.000 C 
BRANCH  16  17
ATOM     17  C   UNL     1     -46.267 -22.217  28.426  1.00  0.00    -0.000 C 
BRANCH  17  18
ATOM     18  C   UNL     1     -47.087 -21.424  27.394  1.00  0.00    -0.003 C 
ATOM     19  C   UNL     1     -48.036 -20.412  28.031  1.00  0.00     0.004 C 
ENDBRANCH  17  18
ENDBRANCH  16  17
ENDBRANCH  15  16
ENDBRANCH  14  15
ENDBRANCH  13  14
ENDBRANCH  12  13
ENDBRANCH   1  12
TORSDOF 14
ENDMDL
