MODEL 1
REMARK VINA RESULT:    -2.219      0.000      0.000
REMARK INTER + INTRA:          -2.595
REMARK INTER:                  -2.738
REMARK INTRA:                   0.142
REMARK UNBOUND:                 0.142
REMARK SMILES CCCCC=CC(C)=O
REMARK SMILES IDX 4 1 3 2 2 3 1 4 5 5 6 6 7 7 9 8 8 9
REMARK H PARENT
REMARK Flexibility Score: inf
ROOT
ATOM      1  C   UNL     1      32.191  23.151  29.374  1.00  0.00     0.027 C 
ENDROOT
BRANCH   1   2
ATOM      2  C   UNL     1      33.362  24.124  29.133  1.00  0.00     0.004 C 
BRANCH   2   3
ATOM      3  C   UNL     1      34.337  23.663  28.035  1.00  0.00    -0.003 C 
ATOM      4  C   UNL     1      35.804  23.791  28.444  1.00  0.00     0.004 C 
ENDBRANCH   2   3
ENDBRANCH   1   2
BRANCH   1   5
ATOM      5  C   UNL     1      30.867  23.704  28.913  1.00  0.00    -0.023 C 
ATOM      6  C   UNL     1      30.011  23.099  28.072  1.00  0.00     0.042 C 
BRANCH   6   7
ATOM      7  C   UNL     1      30.212  21.795  27.400  1.00  0.00     0.152 C 
ATOM      8  O   UNL     1      29.282  20.953  27.297  1.00  0.00    -0.295 OA
ATOM      9  C   UNL     1      31.573  21.438  26.893  1.00  0.00     0.093 C 
ENDBRANCH   6   7
ENDBRANCH   1   5
TORSDOF 4
ENDMDL
MODEL 2
REMARK VINA RESULT:    -2.027      1.615      2.326
REMARK INTER + INTRA:          -2.359
REMARK INTER:                  -2.116
REMARK INTRA:                  -0.243
REMARK UNBOUND:                 0.142
REMARK SMILES CCCCC=CC(C)=O
REMARK SMILES IDX 4 1 3 2 2 3 1 4 5 5 6 6 7 7 9 8 8 9
REMARK H PARENT
REMARK Flexibility Score: inf
ROOT
ATOM      1  C   UNL     1      34.237  23.469  28.432  1.00  0.00     0.027 C 
ENDROOT
BRANCH   1   2
ATOM      2  C   UNL     1      35.608  24.125  28.690  1.00  0.00     0.004 C 
BRANCH   2   3
ATOM      3  C   UNL     1      36.782  23.130  28.694  1.00  0.00    -0.003 C 
ATOM      4  C   UNL     1      36.814  22.237  27.455  1.00  0.00     0.004 C 
ENDBRANCH   2   3
ENDBRANCH   1   2
BRANCH   1   5
ATOM      5  C   UNL     1      33.518  24.063  27.248  1.00  0.00    -0.023 C 
ATOM      6  C   UNL     1      32.256  23.791  26.876  1.00  0.00     0.042 C 
BRANCH   6   7
ATOM      7  C   UNL     1      31.335  22.829  27.524  1.00  0.00     0.152 C 
ATOM      8  O   UNL     1      30.536  23.184  28.429  1.00  0.00    -0.295 OA
ATOM      9  C   UNL     1      31.406  21.384  27.145  1.00  0.00     0.093 C 
ENDBRANCH   6   7
ENDBRANCH   1   5
TORSDOF 4
ENDMDL
MODEL 3
REMARK VINA RESULT:    -1.467     20.409     21.775
REMARK INTER + INTRA:          -1.668
REMARK INTER:                  -1.477
REMARK INTRA:                  -0.191
REMARK UNBOUND:                 0.142
REMARK SMILES CCCCC=CC(C)=O
REMARK SMILES IDX 4 1 3 2 2 3 1 4 5 5 6 6 7 7 9 8 8 9
REMARK H PARENT
REMARK Flexibility Score: inf
ROOT
ATOM      1  C   UNL     1      19.534  23.708  46.946  1.00  0.00     0.027 C 
ENDROOT
BRANCH   1   2
ATOM      2  C   UNL     1      18.003  23.779  47.113  1.00  0.00     0.004 C 
BRANCH   2   3
ATOM      3  C   UNL     1      17.251  24.121  45.815  1.00  0.00    -0.003 C 
ATOM      4  C   UNL     1      18.155  24.125  44.583  1.00  0.00     0.004 C 
ENDBRANCH   2   3
ENDBRANCH   1   2
BRANCH   1   5
ATOM      5  C   UNL     1      20.070  22.304  47.055  1.00  0.00    -0.023 C 
ATOM      6  C   UNL     1      21.212  21.852  46.510  1.00  0.00     0.042 C 
BRANCH   6   7
ATOM      7  C   UNL     1      22.148  22.625  45.662  1.00  0.00     0.152 C 
ATOM      8  O   UNL     1      21.777  23.160  44.584  1.00  0.00    -0.295 OA
ATOM      9  C   UNL     1      23.587  22.714  46.058  1.00  0.00     0.093 C 
ENDBRANCH   6   7
ENDBRANCH   1   5
TORSDOF 4
ENDMDL
MODEL 4
REMARK VINA RESULT:    -0.180     16.542     17.185
REMARK INTER + INTRA:          -0.080
REMARK INTER:                   0.185
REMARK INTRA:                  -0.266
REMARK UNBOUND:                 0.142
REMARK SMILES CCCCC=CC(C)=O
REMARK SMILES IDX 4 1 3 2 2 3 1 4 5 5 6 6 7 7 9 8 8 9
REMARK H PARENT
REMARK Flexibility Score: inf
ROOT
ATOM      1  C   UNL     1      35.478  12.738  41.229  1.00  0.00     0.027 C 
ENDROOT
BRANCH   1   2
ATOM      2  C   UNL     1      35.057  13.190  42.641  1.00  0.00     0.004 C 
BRANCH   2   3
ATOM      3  C   UNL     1      36.004  14.228  43.269  1.00  0.00    -0.003 C 
ATOM      4  C   UNL     1      35.307  15.545  43.611  1.00  0.00     0.004 C 
ENDBRANCH   2   3
ENDBRANCH   1   2
BRANCH   1   5
ATOM      5  C   UNL     1      34.399  12.955  40.199  1.00  0.00    -0.023 C 
ATOM      6  C   UNL     1      33.352  12.144  39.971  1.00  0.00     0.042 C 
BRANCH   6   7
ATOM      7  C   UNL     1      33.070  10.860  40.653  1.00  0.00     0.152 C 
ATOM      8  O   UNL     1      32.551  10.819  41.800  1.00  0.00    -0.295 OA
ATOM      9  C   UNL     1      33.477   9.581  39.995  1.00  0.00     0.093 C 
ENDBRANCH   6   7
ENDBRANCH   1   5
TORSDOF 4
ENDMDL
MODEL 5
REMARK VINA RESULT:     0.718     17.245     18.038
REMARK INTER + INTRA:           1.028
REMARK INTER:                   1.276
REMARK INTRA:                  -0.249
REMARK UNBOUND:                 0.142
REMARK SMILES CCCCC=CC(C)=O
REMARK SMILES IDX 4 1 3 2 2 3 1 4 5 5 6 6 7 7 9 8 8 9
REMARK H PARENT
REMARK Flexibility Score: inf
ROOT
ATOM      1  C   UNL     1      33.788  11.828  42.296  1.00  0.00     0.027 C 
ENDROOT
BRANCH   1   2
ATOM      2  C   UNL     1      32.702  11.015  41.563  1.00  0.00     0.004 C 
BRANCH   2   3
ATOM      3  C   UNL     1      33.042  10.708  40.094  1.00  0.00    -0.003 C 
ATOM      4  C   UNL     1      33.739   9.361  39.909  1.00  0.00     0.004 C 
ENDBRANCH   2   3
ENDBRANCH   1   2
BRANCH   1   5
ATOM      5  C   UNL     1      34.782  12.458  41.355  1.00  0.00    -0.023 C 
ATOM      6  C   UNL     1      35.674  13.411  41.674  1.00  0.00     0.042 C 
BRANCH   6   7
ATOM      7  C   UNL     1      35.831  14.061  42.996  1.00  0.00     0.152 C 
ATOM      8  O   UNL     1      36.627  13.613  43.862  1.00  0.00    -0.295 OA
ATOM      9  C   UNL     1      34.973  15.237  43.337  1.00  0.00     0.093 C 
ENDBRANCH   6   7
ENDBRANCH   1   5
TORSDOF 4
ENDMDL
