MODEL 1
REMARK VINA RESULT:    -6.486      0.000      0.000
REMARK INTER + INTRA:          -8.683
REMARK INTER:                  -8.193
REMARK INTRA:                  -0.490
REMARK UNBOUND:                -0.490
REMARK SMILES O=C(C=Cc1ccc(O)cc1)c1ccc(O)cc1O
REMARK SMILES IDX 4 1 3 2 5 3 6 4 7 5 8 6 11 7 10 8 9 9 2 11 1 12 12 13 18 14
REMARK SMILES IDX 13 15 17 16 14 17 15 18 19 19 16 21
REMARK H PARENT 9 10 19 20 16 22
REMARK Flexibility Score: inf
ROOT
ATOM      1  C   UNL     1       5.542  10.720   6.201  1.00  0.00     0.012 C 
ATOM      2  C   UNL     1       5.619  10.103   7.388  1.00  0.00     0.053 C 
ENDROOT
BRANCH   1   3
ATOM      3  C   UNL     1       6.696  11.381   5.541  1.00  0.00    -0.025 A 
ATOM      4  C   UNL     1       6.542  12.466   4.654  1.00  0.00     0.012 A 
ATOM      5  C   UNL     1       7.660  13.047   4.047  1.00  0.00     0.047 A 
ATOM      6  C   UNL     1       8.943  12.551   4.310  1.00  0.00     0.115 A 
ATOM      7  C   UNL     1       7.987  10.882   5.784  1.00  0.00     0.012 A 
ATOM      8  C   UNL     1       9.102  11.467   5.177  1.00  0.00     0.047 A 
BRANCH   6   9
ATOM      9  O   UNL     1      10.063  13.125   3.712  1.00  0.00    -0.508 OA
ATOM     10  H   UNL     1      10.553  13.902   4.140  1.00  0.00     0.293 HD
ENDBRANCH   6   9
ENDBRANCH   1   3
BRANCH   2  11
ATOM     11  C   UNL     1       4.450   9.442   8.009  1.00  0.00     0.189 C 
ATOM     12  O   UNL     1       4.429   8.189   8.148  1.00  0.00    -0.289 OA
BRANCH  11  13
ATOM     13  C   UNL     1       3.283  10.243   8.444  1.00  0.00     0.064 A 
ATOM     14  C   UNL     1       3.138  10.689   9.781  1.00  0.00     0.130 A 
ATOM     15  C   UNL     1       2.271  10.537   7.513  1.00  0.00     0.020 A 
ATOM     16  C   UNL     1       1.981  11.380  10.160  1.00  0.00     0.093 A 
ATOM     17  C   UNL     1       1.129  11.240   7.902  1.00  0.00     0.047 A 
ATOM     18  C   UNL     1       0.979  11.658   9.228  1.00  0.00     0.119 A 
BRANCH  14  19
ATOM     19  O   UNL     1       4.128  10.490  10.746  1.00  0.00    -0.507 OA
ATOM     20  H   UNL     1       4.031  10.780  11.709  1.00  0.00     0.293 HD
ENDBRANCH  14  19
BRANCH  18  21
ATOM     21  O   UNL     1      -0.160  12.354   9.628  1.00  0.00    -0.508 OA
ATOM     22  H   UNL     1      -0.560  12.229  10.551  1.00  0.00     0.293 HD
ENDBRANCH  18  21
ENDBRANCH  11  13
ENDBRANCH   2  11
TORSDOF 6
ENDMDL
MODEL 2
REMARK VINA RESULT:    -6.300      1.882      7.528
REMARK INTER + INTRA:          -8.448
REMARK INTER:                  -7.871
REMARK INTRA:                  -0.577
REMARK UNBOUND:                -0.490
REMARK SMILES O=C(C=Cc1ccc(O)cc1)c1ccc(O)cc1O
REMARK SMILES IDX 4 1 3 2 5 3 6 4 7 5 8 6 11 7 10 8 9 9 2 11 1 12 12 13 18 14
REMARK SMILES IDX 13 15 17 16 14 17 15 18 19 19 16 21
REMARK H PARENT 9 10 19 20 16 22
REMARK Flexibility Score: inf
ROOT
ATOM      1  C   UNL     1       5.081  11.608   8.647  1.00  0.00     0.012 C 
ATOM      2  C   UNL     1       5.738  11.806   7.495  1.00  0.00     0.053 C 
ENDROOT
BRANCH   1   3
ATOM      3  C   UNL     1       3.613  11.774   8.796  1.00  0.00    -0.025 A 
ATOM      4  C   UNL     1       2.689  10.843   8.280  1.00  0.00     0.012 A 
ATOM      5  C   UNL     1       1.315  11.051   8.436  1.00  0.00     0.047 A 
ATOM      6  C   UNL     1       0.845  12.191   9.100  1.00  0.00     0.115 A 
ATOM      7  C   UNL     1       3.129  12.922   9.446  1.00  0.00     0.012 A 
ATOM      8  C   UNL     1       1.754  13.125   9.601  1.00  0.00     0.047 A 
BRANCH   6   9
ATOM      9  O   UNL     1      -0.522  12.406   9.261  1.00  0.00    -0.508 OA
ATOM     10  H   UNL     1      -1.040  13.017   8.640  1.00  0.00     0.293 HD
ENDBRANCH   6   9
ENDBRANCH   1   3
BRANCH   2  11
ATOM     11  C   UNL     1       7.201  11.617   7.381  1.00  0.00     0.189 C 
ATOM     12  O   UNL     1       7.863  11.180   8.362  1.00  0.00    -0.289 OA
BRANCH  11  13
ATOM     13  C   UNL     1       7.904  11.969   6.127  1.00  0.00     0.064 A 
ATOM     14  C   UNL     1       9.252  12.408   6.122  1.00  0.00     0.130 A 
ATOM     15  C   UNL     1       7.204  11.903   4.909  1.00  0.00     0.020 A 
ATOM     16  C   UNL     1       9.849  12.799   4.918  1.00  0.00     0.093 A 
ATOM     17  C   UNL     1       7.817  12.283   3.714  1.00  0.00     0.047 A 
ATOM     18  C   UNL     1       9.140  12.737   3.717  1.00  0.00     0.119 A 
BRANCH  14  19
ATOM     19  O   UNL     1      10.030  12.440   7.281  1.00  0.00    -0.507 OA
ATOM     20  H   UNL     1      10.864  11.883   7.406  1.00  0.00     0.293 HD
ENDBRANCH  14  19
BRANCH  18  21
ATOM     21  O   UNL     1       9.760  13.125   2.531  1.00  0.00    -0.508 OA
ATOM     22  H   UNL     1       9.225  13.324   1.694  1.00  0.00     0.293 HD
ENDBRANCH  18  21
ENDBRANCH  11  13
ENDBRANCH   2  11
TORSDOF 6
ENDMDL
MODEL 3
REMARK VINA RESULT:    -6.111      1.237      1.848
REMARK INTER + INTRA:          -8.208
REMARK INTER:                  -7.762
REMARK INTRA:                  -0.446
REMARK UNBOUND:                -0.490
REMARK SMILES O=C(C=Cc1ccc(O)cc1)c1ccc(O)cc1O
REMARK SMILES IDX 4 1 3 2 5 3 6 4 7 5 8 6 11 7 10 8 9 9 2 11 1 12 12 13 18 14
REMARK SMILES IDX 13 15 17 16 14 17 15 18 19 19 16 21
REMARK H PARENT 9 10 19 20 16 22
REMARK Flexibility Score: inf
ROOT
ATOM      1  C   UNL     1       6.349  11.176   7.216  1.00  0.00     0.012 C 
ATOM      2  C   UNL     1       5.345  11.883   7.754  1.00  0.00     0.053 C 
ENDROOT
BRANCH   1   3
ATOM      3  C   UNL     1       7.209  11.677   6.114  1.00  0.00    -0.025 A 
ATOM      4  C   UNL     1       6.691  12.380   5.008  1.00  0.00     0.012 A 
ATOM      5  C   UNL     1       7.541  12.820   3.989  1.00  0.00     0.047 A 
ATOM      6  C   UNL     1       8.916  12.559   4.055  1.00  0.00     0.115 A 
ATOM      7  C   UNL     1       8.588  11.406   6.161  1.00  0.00     0.012 A 
ATOM      8  C   UNL     1       9.434  11.850   5.140  1.00  0.00     0.047 A 
BRANCH   6   9
ATOM      9  O   UNL     1       9.771  12.995   3.045  1.00  0.00    -0.508 OA
ATOM     10  H   UNL     1      10.768  12.816   3.081  1.00  0.00     0.293 HD
ENDBRANCH   6   9
ENDBRANCH   1   3
BRANCH   2  11
ATOM     11  C   UNL     1       4.518  11.356   8.861  1.00  0.00     0.189 C 
ATOM     12  O   UNL     1       5.034  10.619   9.745  1.00  0.00    -0.289 OA
BRANCH  11  13
ATOM     13  C   UNL     1       3.071  11.664   8.924  1.00  0.00     0.064 A 
ATOM     14  C   UNL     1       2.112  10.903   8.210  1.00  0.00     0.130 A 
ATOM     15  C   UNL     1       2.639  12.766   9.684  1.00  0.00     0.020 A 
ATOM     16  C   UNL     1       0.764  11.279   8.244  1.00  0.00     0.093 A 
ATOM     17  C   UNL     1       1.288  13.120   9.720  1.00  0.00     0.047 A 
ATOM     18  C   UNL     1       0.349  12.380   8.995  1.00  0.00     0.119 A 
BRANCH  14  19
ATOM     19  O   UNL     1       2.456   9.759   7.486  1.00  0.00    -0.507 OA
ATOM     20  H   UNL     1       3.285   9.212   7.673  1.00  0.00     0.293 HD
ENDBRANCH  14  19
BRANCH  18  21
ATOM     21  O   UNL     1      -1.000  12.729   9.018  1.00  0.00    -0.508 OA
ATOM     22  H   UNL     1      -1.445  13.176   8.225  1.00  0.00     0.293 HD
ENDBRANCH  18  21
ENDBRANCH  11  13
ENDBRANCH   2  11
TORSDOF 6
ENDMDL
MODEL 4
REMARK VINA RESULT:    -5.809      1.761      2.585
REMARK INTER + INTRA:          -7.827
REMARK INTER:                  -7.401
REMARK INTRA:                  -0.426
REMARK UNBOUND:                -0.490
REMARK SMILES O=C(C=Cc1ccc(O)cc1)c1ccc(O)cc1O
REMARK SMILES IDX 4 1 3 2 5 3 6 4 7 5 8 6 11 7 10 8 9 9 2 11 1 12 12 13 18 14
REMARK SMILES IDX 13 15 17 16 14 17 15 18 19 19 16 21
REMARK H PARENT 9 10 19 20 16 22
REMARK Flexibility Score: inf
ROOT
ATOM      1  C   UNL     1       7.728  12.096   6.762  1.00  0.00     0.012 C 
ATOM      2  C   UNL     1       6.525  12.559   7.130  1.00  0.00     0.053 C 
ENDROOT
BRANCH   1   3
ATOM      3  C   UNL     1       8.329  12.335   5.425  1.00  0.00    -0.025 A 
ATOM      4  C   UNL     1       9.608  12.904   5.260  1.00  0.00     0.012 A 
ATOM      5  C   UNL     1      10.125  13.121   3.979  1.00  0.00     0.047 A 
ATOM      6  C   UNL     1       9.372  12.782   2.847  1.00  0.00     0.115 A 
ATOM      7  C   UNL     1       7.577  12.014   4.282  1.00  0.00     0.012 A 
ATOM      8  C   UNL     1       8.098  12.231   3.003  1.00  0.00     0.047 A 
BRANCH   6   9
ATOM      9  O   UNL     1       9.879  12.993   1.567  1.00  0.00    -0.508 OA
ATOM     10  H   UNL     1      10.742  12.557   1.260  1.00  0.00     0.293 HD
ENDBRANCH   6   9
ENDBRANCH   1   3
BRANCH   2  11
ATOM     11  C   UNL     1       5.965  12.312   8.476  1.00  0.00     0.189 C 
ATOM     12  O   UNL     1       6.713  12.346   9.491  1.00  0.00    -0.289 OA
BRANCH  11  13
ATOM     13  C   UNL     1       4.529  11.991   8.640  1.00  0.00     0.064 A 
ATOM     14  C   UNL     1       3.987  10.749   8.225  1.00  0.00     0.130 A 
ATOM     15  C   UNL     1       3.671  12.961   9.190  1.00  0.00     0.020 A 
ATOM     16  C   UNL     1       2.609  10.523   8.334  1.00  0.00     0.093 A 
ATOM     17  C   UNL     1       2.301  12.715   9.306  1.00  0.00     0.047 A 
ATOM     18  C   UNL     1       1.767  11.497   8.873  1.00  0.00     0.119 A 
BRANCH  14  19
ATOM     19  O   UNL     1       4.784   9.716   7.728  1.00  0.00    -0.507 OA
ATOM     20  H   UNL     1       5.304   9.082   8.320  1.00  0.00     0.293 HD
ENDBRANCH  14  19
BRANCH  18  21
ATOM     21  O   UNL     1       0.401  11.244   8.978  1.00  0.00    -0.508 OA
ATOM     22  H   UNL     1      -0.249  11.537   8.258  1.00  0.00     0.293 HD
ENDBRANCH  18  21
ENDBRANCH  11  13
ENDBRANCH   2  11
TORSDOF 6
ENDMDL
MODEL 5
REMARK VINA RESULT:    -5.796      1.845      7.506
REMARK INTER + INTRA:          -7.811
REMARK INTER:                  -7.659
REMARK INTRA:                  -0.152
REMARK UNBOUND:                -0.490
REMARK SMILES O=C(C=Cc1ccc(O)cc1)c1ccc(O)cc1O
REMARK SMILES IDX 4 1 3 2 5 3 6 4 7 5 8 6 11 7 10 8 9 9 2 11 1 12 12 13 18 14
REMARK SMILES IDX 13 15 17 16 14 17 15 18 19 19 16 21
REMARK H PARENT 9 10 19 20 16 22
REMARK Flexibility Score: inf
ROOT
ATOM      1  C   UNL     1       4.933  11.052   8.094  1.00  0.00     0.012 C 
ATOM      2  C   UNL     1       5.931  11.869   7.727  1.00  0.00     0.053 C 
ENDROOT
BRANCH   1   3
ATOM      3  C   UNL     1       3.577  11.526   8.466  1.00  0.00    -0.025 A 
ATOM      4  C   UNL     1       3.363  12.709   9.202  1.00  0.00     0.012 A 
ATOM      5  C   UNL     1       2.066  13.107   9.539  1.00  0.00     0.047 A 
ATOM      6  C   UNL     1       0.966  12.329   9.155  1.00  0.00     0.115 A 
ATOM      7  C   UNL     1       2.467  10.745   8.101  1.00  0.00     0.012 A 
ATOM      8  C   UNL     1       1.172  11.147   8.439  1.00  0.00     0.047 A 
BRANCH   6   9
ATOM      9  O   UNL     1      -0.330  12.718   9.485  1.00  0.00    -0.508 OA
ATOM     10  H   UNL     1      -1.011  12.051   9.831  1.00  0.00     0.293 HD
ENDBRANCH   6   9
ENDBRANCH   1   3
BRANCH   2  11
ATOM     11  C   UNL     1       7.267  11.359   7.349  1.00  0.00     0.189 C 
ATOM     12  O   UNL     1       7.855  10.515   8.081  1.00  0.00    -0.289 OA
BRANCH  11  13
ATOM     13  C   UNL     1       7.939  11.856   6.127  1.00  0.00     0.064 A 
ATOM     14  C   UNL     1       7.282  11.890   4.872  1.00  0.00     0.130 A 
ATOM     15  C   UNL     1       9.281  12.272   6.207  1.00  0.00     0.020 A 
ATOM     16  C   UNL     1       7.985  12.300   3.733  1.00  0.00     0.093 A 
ATOM     17  C   UNL     1       9.964  12.693   5.064  1.00  0.00     0.047 A 
ATOM     18  C   UNL     1       9.319  12.702   3.824  1.00  0.00     0.119 A 
BRANCH  14  19
ATOM     19  O   UNL     1       5.935  11.552   4.726  1.00  0.00    -0.507 OA
ATOM     20  H   UNL     1       5.544  10.678   5.051  1.00  0.00     0.293 HD
ENDBRANCH  14  19
BRANCH  18  21
ATOM     21  O   UNL     1       9.994  13.113   2.676  1.00  0.00    -0.508 OA
ATOM     22  H   UNL     1      10.897  12.727   2.425  1.00  0.00     0.293 HD
ENDBRANCH  18  21
ENDBRANCH  11  13
ENDBRANCH   2  11
TORSDOF 6
ENDMDL
