MODEL 1
REMARK VINA RESULT:    -5.003      0.000      0.000
REMARK INTER + INTRA:          -6.480
REMARK INTER:                  -6.173
REMARK INTRA:                  -0.307
REMARK UNBOUND:                -0.307
REMARK SMILES C=CC[C@@H](C)C(=O)CC
REMARK SMILES IDX 4 1 5 2 6 3 7 4 8 5 9 6 3 7 2 8 1 9
REMARK H PARENT
REMARK Flexibility Score: inf
ROOT
ATOM      1  C   UNL     1      -8.482  31.341  22.955  1.00  0.00     0.057 C 
ATOM      2  C   UNL     1      -8.279  32.203  24.208  1.00  0.00     0.016 C 
ENDROOT
BRANCH   1   3
ATOM      3  C   UNL     1      -8.906  32.199  21.778  1.00  0.00     0.135 C 
ATOM      4  O   UNL     1      -9.795  31.796  21.041  1.00  0.00    -0.299 OA
BRANCH   3   5
ATOM      5  C   UNL     1      -8.249  33.521  21.472  1.00  0.00     0.072 C 
ATOM      6  C   UNL     1      -7.357  33.414  20.239  1.00  0.00     0.012 C 
ENDBRANCH   3   5
ENDBRANCH   1   3
BRANCH   1   7
ATOM      7  C   UNL     1      -7.217  30.516  22.645  1.00  0.00     0.038 C 
BRANCH   7   8
ATOM      8  C   UNL     1      -7.519  29.041  22.602  1.00  0.00    -0.034 C 
ATOM      9  C   UNL     1      -8.668  28.571  22.110  1.00  0.00     0.004 C 
ENDBRANCH   7   8
ENDBRANCH   1   7
TORSDOF 4
ENDMDL
MODEL 2
REMARK VINA RESULT:    -4.857      1.709      1.780
REMARK INTER + INTRA:          -6.299
REMARK INTER:                  -5.946
REMARK INTRA:                  -0.353
REMARK UNBOUND:                -0.307
REMARK SMILES C=CC[C@@H](C)C(=O)CC
REMARK SMILES IDX 4 1 5 2 6 3 7 4 8 5 9 6 3 7 2 8 1 9
REMARK H PARENT
REMARK Flexibility Score: inf
ROOT
ATOM      1  C   UNL     1      -8.475  31.970  23.082  1.00  0.00     0.057 C 
ATOM      2  C   UNL     1      -9.780  32.016  23.888  1.00  0.00     0.016 C 
ENDROOT
BRANCH   1   3
ATOM      3  C   UNL     1      -7.885  33.360  22.940  1.00  0.00     0.135 C 
ATOM      4  O   UNL     1      -7.464  33.929  23.937  1.00  0.00    -0.299 OA
BRANCH   3   5
ATOM      5  C   UNL     1      -7.825  34.075  21.614  1.00  0.00     0.072 C 
ATOM      6  C   UNL     1      -7.424  33.117  20.496  1.00  0.00     0.012 C 
ENDBRANCH   3   5
ENDBRANCH   1   3
BRANCH   1   7
ATOM      7  C   UNL     1      -7.476  30.978  23.709  1.00  0.00     0.038 C 
BRANCH   7   8
ATOM      8  C   UNL     1      -7.124  29.871  22.750  1.00  0.00    -0.034 C 
ATOM      9  C   UNL     1      -8.009  28.934  22.400  1.00  0.00     0.004 C 
ENDBRANCH   7   8
ENDBRANCH   1   7
TORSDOF 4
ENDMDL
MODEL 3
REMARK VINA RESULT:    -4.807      1.694      3.702
REMARK INTER + INTRA:          -6.237
REMARK INTER:                  -5.842
REMARK INTRA:                  -0.395
REMARK UNBOUND:                -0.307
REMARK SMILES C=CC[C@@H](C)C(=O)CC
REMARK SMILES IDX 4 1 5 2 6 3 7 4 8 5 9 6 3 7 2 8 1 9
REMARK H PARENT
REMARK Flexibility Score: inf
ROOT
ATOM      1  C   UNL     1      -7.915  32.216  23.219  1.00  0.00     0.057 C 
ATOM      2  C   UNL     1      -8.149  33.126  24.432  1.00  0.00     0.016 C 
ENDROOT
BRANCH   1   3
ATOM      3  C   UNL     1      -7.615  30.798  23.665  1.00  0.00     0.135 C 
ATOM      4  O   UNL     1      -7.840  30.481  24.824  1.00  0.00    -0.299 OA
BRANCH   3   5
ATOM      5  C   UNL     1      -7.023  29.773  22.731  1.00  0.00     0.072 C 
ATOM      6  C   UNL     1      -8.036  28.680  22.407  1.00  0.00     0.012 C 
ENDBRANCH   3   5
ENDBRANCH   1   3
BRANCH   1   7
ATOM      7  C   UNL     1      -9.111  32.278  22.248  1.00  0.00     0.038 C 
BRANCH   7   8
ATOM      8  C   UNL     1      -8.684  32.734  20.878  1.00  0.00    -0.034 C 
ATOM      9  C   UNL     1      -7.441  33.154  20.631  1.00  0.00     0.004 C 
ENDBRANCH   7   8
ENDBRANCH   1   7
TORSDOF 4
ENDMDL
MODEL 4
REMARK VINA RESULT:    -4.707     16.650     17.702
REMARK INTER + INTRA:          -6.114
REMARK INTER:                  -6.107
REMARK INTRA:                  -0.007
REMARK UNBOUND:                -0.307
REMARK SMILES C=CC[C@@H](C)C(=O)CC
REMARK SMILES IDX 4 1 5 2 6 3 7 4 8 5 9 6 3 7 2 8 1 9
REMARK H PARENT
REMARK Flexibility Score: inf
ROOT
ATOM      1  C   UNL     1       7.418  31.809  28.511  1.00  0.00     0.057 C 
ATOM      2  C   UNL     1       5.896  31.981  28.418  1.00  0.00     0.016 C 
ENDROOT
BRANCH   1   3
ATOM      3  C   UNL     1       7.797  30.344  28.404  1.00  0.00     0.135 C 
ATOM      4  O   UNL     1       8.865  30.045  27.889  1.00  0.00    -0.299 OA
BRANCH   3   5
ATOM      5  C   UNL     1       6.888  29.243  28.889  1.00  0.00     0.072 C 
ATOM      6  C   UNL     1       6.603  28.241  27.774  1.00  0.00     0.012 C 
ENDBRANCH   3   5
ENDBRANCH   1   3
BRANCH   1   7
ATOM      7  C   UNL     1       8.134  32.671  27.453  1.00  0.00     0.038 C 
BRANCH   7   8
ATOM      8  C   UNL     1       9.536  33.015  27.880  1.00  0.00    -0.034 C 
ATOM      9  C   UNL     1       9.817  33.408  29.125  1.00  0.00     0.004 C 
ENDBRANCH   7   8
ENDBRANCH   1   7
TORSDOF 4
ENDMDL
MODEL 5
REMARK VINA RESULT:    -4.674      1.881      2.495
REMARK INTER + INTRA:          -6.074
REMARK INTER:                  -5.891
REMARK INTRA:                  -0.184
REMARK UNBOUND:                -0.307
REMARK SMILES C=CC[C@@H](C)C(=O)CC
REMARK SMILES IDX 4 1 5 2 6 3 7 4 8 5 9 6 3 7 2 8 1 9
REMARK H PARENT
REMARK Flexibility Score: inf
ROOT
ATOM      1  C   UNL     1      -7.809  31.891  22.224  1.00  0.00     0.057 C 
ATOM      2  C   UNL     1      -9.167  31.842  21.510  1.00  0.00     0.016 C 
ENDROOT
BRANCH   1   3
ATOM      3  C   UNL     1      -7.866  32.827  23.416  1.00  0.00     0.135 C 
ATOM      4  O   UNL     1      -8.167  32.374  24.511  1.00  0.00    -0.299 OA
BRANCH   3   5
ATOM      5  C   UNL     1      -7.587  34.304  23.290  1.00  0.00     0.072 C 
ATOM      6  C   UNL     1      -8.114  35.064  24.503  1.00  0.00     0.012 C 
ENDBRANCH   3   5
ENDBRANCH   1   3
BRANCH   1   7
ATOM      7  C   UNL     1      -7.345  30.476  22.620  1.00  0.00     0.038 C 
BRANCH   7   8
ATOM      8  C   UNL     1      -8.447  29.465  22.442  1.00  0.00    -0.034 C 
ATOM      9  C   UNL     1      -8.192  28.161  22.307  1.00  0.00     0.004 C 
ENDBRANCH   7   8
ENDBRANCH   1   7
TORSDOF 4
ENDMDL
MODEL 6
REMARK VINA RESULT:    -4.606      1.775      4.249
REMARK INTER + INTRA:          -5.990
REMARK INTER:                  -5.685
REMARK INTRA:                  -0.305
REMARK UNBOUND:                -0.307
REMARK SMILES C=CC[C@@H](C)C(=O)CC
REMARK SMILES IDX 4 1 5 2 6 3 7 4 8 5 9 6 3 7 2 8 1 9
REMARK H PARENT
REMARK Flexibility Score: inf
ROOT
ATOM      1  C   UNL     1      -8.269  33.690  21.901  1.00  0.00     0.057 C 
ATOM      2  C   UNL     1      -7.514  33.504  20.579  1.00  0.00     0.016 C 
ENDROOT
BRANCH   1   3
ATOM      3  C   UNL     1      -8.450  32.360  22.606  1.00  0.00     0.135 C 
ATOM      4  O   UNL     1      -9.569  31.873  22.674  1.00  0.00    -0.299 OA
BRANCH   3   5
ATOM      5  C   UNL     1      -7.297  31.629  23.248  1.00  0.00     0.072 C 
ATOM      6  C   UNL     1      -7.216  30.191  22.747  1.00  0.00     0.012 C 
ENDBRANCH   3   5
ENDBRANCH   1   3
BRANCH   1   7
ATOM      7  C   UNL     1      -7.562  34.728  22.796  1.00  0.00     0.038 C 
BRANCH   7   8
ATOM      8  C   UNL     1      -8.382  35.050  24.018  1.00  0.00    -0.034 C 
ATOM      9  C   UNL     1      -7.814  35.303  25.200  1.00  0.00     0.004 C 
ENDBRANCH   7   8
ENDBRANCH   1   7
TORSDOF 4
ENDMDL
MODEL 7
REMARK VINA RESULT:    -4.600      1.870      3.099
REMARK INTER + INTRA:          -5.982
REMARK INTER:                  -5.665
REMARK INTRA:                  -0.317
REMARK UNBOUND:                -0.307
REMARK SMILES C=CC[C@@H](C)C(=O)CC
REMARK SMILES IDX 4 1 5 2 6 3 7 4 8 5 9 6 3 7 2 8 1 9
REMARK H PARENT
REMARK Flexibility Score: inf
ROOT
ATOM      1  C   UNL     1      -7.655  32.761  21.700  1.00  0.00     0.057 C 
ATOM      2  C   UNL     1      -7.478  33.154  20.227  1.00  0.00     0.016 C 
ENDROOT
BRANCH   1   3
ATOM      3  C   UNL     1      -7.821  33.995  22.566  1.00  0.00     0.135 C 
ATOM      4  O   UNL     1      -7.887  35.091  22.029  1.00  0.00    -0.299 OA
BRANCH   3   5
ATOM      5  C   UNL     1      -7.881  33.916  24.071  1.00  0.00     0.072 C 
ATOM      6  C   UNL     1      -8.575  35.143  24.654  1.00  0.00     0.012 C 
ENDBRANCH   3   5
ENDBRANCH   1   3
BRANCH   1   7
ATOM      7  C   UNL     1      -8.828  31.774  21.867  1.00  0.00     0.038 C 
BRANCH   7   8
ATOM      8  C   UNL     1      -8.372  30.476  22.480  1.00  0.00    -0.034 C 
ATOM      9  C   UNL     1      -7.085  30.235  22.741  1.00  0.00     0.004 C 
ENDBRANCH   7   8
ENDBRANCH   1   7
TORSDOF 4
ENDMDL
MODEL 8
REMARK VINA RESULT:    -4.467      1.715      3.620
REMARK INTER + INTRA:          -5.818
REMARK INTER:                  -5.591
REMARK INTRA:                  -0.227
REMARK UNBOUND:                -0.307
REMARK SMILES C=CC[C@@H](C)C(=O)CC
REMARK SMILES IDX 4 1 5 2 6 3 7 4 8 5 9 6 3 7 2 8 1 9
REMARK H PARENT
REMARK Flexibility Score: inf
ROOT
ATOM      1  C   UNL     1      -7.751  32.542  23.525  1.00  0.00     0.057 C 
ATOM      2  C   UNL     1      -7.756  31.020  23.720  1.00  0.00     0.016 C 
ENDROOT
BRANCH   1   3
ATOM      3  C   UNL     1      -8.541  32.926  22.289  1.00  0.00     0.135 C 
ATOM      4  O   UNL     1      -9.647  32.434  22.117  1.00  0.00    -0.299 OA
BRANCH   3   5
ATOM      5  C   UNL     1      -7.997  33.875  21.251  1.00  0.00     0.072 C 
ATOM      6  C   UNL     1      -7.231  33.120  20.170  1.00  0.00     0.012 C 
ENDBRANCH   3   5
ENDBRANCH   1   3
BRANCH   1   7
ATOM      7  C   UNL     1      -8.268  33.259  24.788  1.00  0.00     0.038 C 
BRANCH   7   8
ATOM      8  C   UNL     1      -7.991  34.739  24.734  1.00  0.00    -0.034 C 
ATOM      9  C   UNL     1      -8.754  35.622  25.383  1.00  0.00     0.004 C 
ENDBRANCH   7   8
ENDBRANCH   1   7
TORSDOF 4
ENDMDL
