MODEL 1
REMARK VINA RESULT:    -3.614      0.000      0.000
REMARK INTER + INTRA:          -4.542
REMARK INTER:                  -4.248
REMARK INTRA:                  -0.293
REMARK UNBOUND:                -0.293
REMARK SMILES O=c1cc(-c2ccc(O)c(O)c2)oc2cc(O)cc(O)c12
REMARK SMILES IDX 4 1 3 2 2 3 1 4 21 5 19 6 18 7 16 8 15 9 14 10 13 11 5 12
REMARK SMILES IDX 6 13 7 14 8 15 12 16 10 17 9 18 11 20 20 22 17 24
REMARK H PARENT 9 19 11 21 20 23 17 25
REMARK Flexibility Score: inf
ROOT
ATOM      1  C   UNL     1      30.718  65.260  20.133  1.00  0.00     0.138 A 
ATOM      2  C   UNL     1      29.454  65.777  19.815  1.00  0.00     0.100 A 
ATOM      3  C   UNL     1      28.980  65.685  18.506  1.00  0.00     0.197 A 
ATOM      4  O   UNL     1      27.817  66.102  18.266  1.00  0.00    -0.289 OA
ATOM      5  C   UNL     1      29.789  65.099  17.503  1.00  0.00     0.107 A 
ATOM      6  C   UNL     1      29.425  64.988  16.128  1.00  0.00     0.134 A 
ATOM      7  C   UNL     1      30.258  64.284  15.249  1.00  0.00     0.093 A 
ATOM      8  C   UNL     1      31.470  63.740  15.684  1.00  0.00     0.123 A 
ATOM      9  C   UNL     1      31.859  63.891  17.013  1.00  0.00     0.094 A 
ATOM     10  C   UNL     1      31.033  64.557  17.922  1.00  0.00     0.146 A 
ATOM     11  O   UNL     1      31.436  64.666  19.184  1.00  0.00    -0.456 OA
ENDROOT
BRANCH   1  12
ATOM     12  C   UNL     1      31.272  65.332  21.508  1.00  0.00     0.021 A 
ATOM     13  C   UNL     1      32.617  65.022  21.781  1.00  0.00     0.016 A 
ATOM     14  C   UNL     1      33.109  65.089  23.087  1.00  0.00     0.051 A 
ATOM     15  C   UNL     1      32.266  65.458  24.143  1.00  0.00     0.157 A 
ATOM     16  C   UNL     1      30.429  65.690  22.576  1.00  0.00     0.062 A 
ATOM     17  C   UNL     1      30.919  65.758  23.885  1.00  0.00     0.158 A 
BRANCH  15  18
ATOM     18  O   UNL     1      32.761  65.526  25.445  1.00  0.00    -0.504 OA
ATOM     19  H   UNL     1      32.159  65.394  26.248  1.00  0.00     0.293 HD
ENDBRANCH  15  18
BRANCH  17  20
ATOM     20  O   UNL     1      30.053  66.125  24.914  1.00  0.00    -0.504 OA
ATOM     21  H   UNL     1      30.153  66.999  25.417  1.00  0.00     0.293 HD
ENDBRANCH  17  20
ENDBRANCH   1  12
BRANCH   6  22
ATOM     22  O   UNL     1      28.280  65.566  15.573  1.00  0.00    -0.507 OA
ATOM     23  H   UNL     1      27.347  65.473  15.948  1.00  0.00     0.293 HD
ENDBRANCH   6  22
BRANCH   8  24
ATOM     24  O   UNL     1      32.299  63.056  14.799  1.00  0.00    -0.508 OA
ATOM     25  H   UNL     1      31.923  62.527  14.020  1.00  0.00     0.293 HD
ENDBRANCH   8  24
TORSDOF 5
ENDMDL
MODEL 2
REMARK VINA RESULT:    -1.932      1.274      1.384
REMARK INTER + INTRA:          -2.563
REMARK INTER:                  -2.282
REMARK INTRA:                  -0.282
REMARK UNBOUND:                -0.293
REMARK SMILES O=c1cc(-c2ccc(O)c(O)c2)oc2cc(O)cc(O)c12
REMARK SMILES IDX 4 1 3 2 2 3 1 4 21 5 19 6 18 7 16 8 15 9 14 10 13 11 5 12
REMARK SMILES IDX 6 13 7 14 8 15 12 16 10 17 9 18 11 20 20 22 17 24
REMARK H PARENT 9 19 11 21 20 23 17 25
REMARK Flexibility Score: inf
ROOT
ATOM      1  C   UNL     1      31.190  64.292  19.484  1.00  0.00     0.138 A 
ATOM      2  C   UNL     1      29.948  64.887  19.224  1.00  0.00     0.100 A 
ATOM      3  C   UNL     1      29.505  65.013  17.907  1.00  0.00     0.197 A 
ATOM      4  O   UNL     1      28.359  65.494  17.709  1.00  0.00    -0.289 OA
ATOM      5  C   UNL     1      30.325  64.568  16.843  1.00  0.00     0.107 A 
ATOM      6  C   UNL     1      29.994  64.681  15.459  1.00  0.00     0.134 A 
ATOM      7  C   UNL     1      30.832  64.099  14.500  1.00  0.00     0.093 A 
ATOM      8  C   UNL     1      32.018  63.461  14.871  1.00  0.00     0.123 A 
ATOM      9  C   UNL     1      32.377  63.392  16.215  1.00  0.00     0.094 A 
ATOM     10  C   UNL     1      31.545  63.933  17.198  1.00  0.00     0.146 A 
ATOM     11  O   UNL     1      31.917  63.833  18.471  1.00  0.00    -0.456 OA
ENDROOT
BRANCH   1  12
ATOM     12  C   UNL     1      31.710  64.135  20.866  1.00  0.00     0.021 A 
ATOM     13  C   UNL     1      32.438  62.996  21.257  1.00  0.00     0.016 A 
ATOM     14  C   UNL     1      32.906  62.870  22.568  1.00  0.00     0.051 A 
ATOM     15  C   UNL     1      32.651  63.873  23.511  1.00  0.00     0.157 A 
ATOM     16  C   UNL     1      31.446  65.132  21.823  1.00  0.00     0.062 A 
ATOM     17  C   UNL     1      31.915  65.009  23.136  1.00  0.00     0.158 A 
BRANCH  15  18
ATOM     18  O   UNL     1      33.122  63.745  24.817  1.00  0.00    -0.504 OA
ATOM     19  H   UNL     1      33.221  62.838  25.258  1.00  0.00     0.293 HD
ENDBRANCH  15  18
BRANCH  17  20
ATOM     20  O   UNL     1      31.639  66.023  24.051  1.00  0.00    -0.504 OA
ATOM     21  H   UNL     1      30.965  66.755  23.858  1.00  0.00     0.293 HD
ENDBRANCH  17  20
ENDBRANCH   1  12
BRANCH   6  22
ATOM     22  O   UNL     1      28.878  65.370  14.977  1.00  0.00    -0.507 OA
ATOM     23  H   UNL     1      28.069  64.936  14.557  1.00  0.00     0.293 HD
ENDBRANCH   6  22
BRANCH   8  24
ATOM     24  O   UNL     1      32.854  62.899  13.908  1.00  0.00    -0.508 OA
ATOM     25  H   UNL     1      32.483  62.484  13.061  1.00  0.00     0.293 HD
ENDBRANCH   8  24
TORSDOF 5
ENDMDL
MODEL 3
REMARK VINA RESULT:    -1.665      1.271      2.736
REMARK INTER + INTRA:          -2.250
REMARK INTER:                  -1.934
REMARK INTRA:                  -0.315
REMARK UNBOUND:                -0.293
REMARK SMILES O=c1cc(-c2ccc(O)c(O)c2)oc2cc(O)cc(O)c12
REMARK SMILES IDX 4 1 3 2 2 3 1 4 21 5 19 6 18 7 16 8 15 9 14 10 13 11 5 12
REMARK SMILES IDX 6 13 7 14 8 15 12 16 10 17 9 18 11 20 20 22 17 24
REMARK H PARENT 9 19 11 21 20 23 17 25
REMARK Flexibility Score: inf
ROOT
ATOM      1  C   UNL     1      30.938  65.370  20.079  1.00  0.00     0.138 A 
ATOM      2  C   UNL     1      31.824  64.923  19.088  1.00  0.00     0.100 A 
ATOM      3  C   UNL     1      31.370  64.760  17.780  1.00  0.00     0.197 A 
ATOM      4  O   UNL     1      32.203  64.417  16.901  1.00  0.00    -0.289 OA
ATOM      5  C   UNL     1      30.014  65.016  17.467  1.00  0.00     0.107 A 
ATOM      6  C   UNL     1      29.430  64.846  16.176  1.00  0.00     0.134 A 
ATOM      7  C   UNL     1      28.104  65.243  15.960  1.00  0.00     0.093 A 
ATOM      8  C   UNL     1      27.324  65.747  17.003  1.00  0.00     0.123 A 
ATOM      9  C   UNL     1      27.869  65.868  18.280  1.00  0.00     0.094 A 
ATOM     10  C   UNL     1      29.198  65.512  18.519  1.00  0.00     0.146 A 
ATOM     11  O   UNL     1      29.683  65.656  19.749  1.00  0.00    -0.456 OA
ENDROOT
BRANCH   1  12
ATOM     12  C   UNL     1      31.368  65.559  21.487  1.00  0.00     0.021 A 
ATOM     13  C   UNL     1      32.727  65.557  21.853  1.00  0.00     0.016 A 
ATOM     14  C   UNL     1      33.102  65.726  23.189  1.00  0.00     0.051 A 
ATOM     15  C   UNL     1      32.129  65.895  24.181  1.00  0.00     0.157 A 
ATOM     16  C   UNL     1      30.396  65.716  22.493  1.00  0.00     0.062 A 
ATOM     17  C   UNL     1      30.769  65.887  23.831  1.00  0.00     0.158 A 
BRANCH  15  18
ATOM     18  O   UNL     1      32.507  66.066  25.512  1.00  0.00    -0.504 OA
ATOM     19  H   UNL     1      32.371  65.335  26.200  1.00  0.00     0.293 HD
ENDBRANCH  15  18
BRANCH  17  20
ATOM     20  O   UNL     1      29.776  66.047  24.795  1.00  0.00    -0.504 OA
ATOM     21  H   UNL     1      29.051  65.354  24.943  1.00  0.00     0.293 HD
ENDBRANCH  17  20
ENDBRANCH   1  12
BRANCH   6  22
ATOM     22  O   UNL     1      30.095  64.273  15.088  1.00  0.00    -0.507 OA
ATOM     23  H   UNL     1      29.997  64.572  14.129  1.00  0.00     0.293 HD
ENDBRANCH   6  22
BRANCH   8  24
ATOM     24  O   UNL     1      26.002  66.125  16.783  1.00  0.00    -0.508 OA
ATOM     25  H   UNL     1      25.468  65.757  16.003  1.00  0.00     0.293 HD
ENDBRANCH   8  24
TORSDOF 5
ENDMDL
MODEL 4
REMARK VINA RESULT:    -1.453      2.371      7.325
REMARK INTER + INTRA:          -2.001
REMARK INTER:                  -1.730
REMARK INTRA:                  -0.271
REMARK UNBOUND:                -0.293
REMARK SMILES O=c1cc(-c2ccc(O)c(O)c2)oc2cc(O)cc(O)c12
REMARK SMILES IDX 4 1 3 2 2 3 1 4 21 5 19 6 18 7 16 8 15 9 14 10 13 11 5 12
REMARK SMILES IDX 6 13 7 14 8 15 12 16 10 17 9 18 11 20 20 22 17 24
REMARK H PARENT 9 19 11 21 20 23 17 25
REMARK Flexibility Score: inf
ROOT
ATOM      1  C   UNL     1      32.423  63.646  19.668  1.00  0.00     0.138 A 
ATOM      2  C   UNL     1      32.618  64.902  20.260  1.00  0.00     0.100 A 
ATOM      3  C   UNL     1      32.845  64.990  21.633  1.00  0.00     0.197 A 
ATOM      4  O   UNL     1      33.078  66.125  22.125  1.00  0.00    -0.289 OA
ATOM      5  C   UNL     1      32.846  63.816  22.423  1.00  0.00     0.107 A 
ATOM      6  C   UNL     1      33.027  63.789  23.839  1.00  0.00     0.134 A 
ATOM      7  C   UNL     1      33.125  62.556  24.498  1.00  0.00     0.093 A 
ATOM      8  C   UNL     1      32.989  61.354  23.801  1.00  0.00     0.123 A 
ATOM      9  C   UNL     1      32.758  61.371  22.427  1.00  0.00     0.094 A 
ATOM     10  C   UNL     1      32.690  62.583  21.736  1.00  0.00     0.146 A 
ATOM     11  O   UNL     1      32.483  62.554  20.423  1.00  0.00    -0.456 OA
ENDROOT
BRANCH   1  12
ATOM     12  C   UNL     1      32.176  63.496  18.212  1.00  0.00     0.021 A 
ATOM     13  C   UNL     1      32.961  62.644  17.412  1.00  0.00     0.016 A 
ATOM     14  C   UNL     1      32.714  62.529  16.042  1.00  0.00     0.051 A 
ATOM     15  C   UNL     1      31.684  63.267  15.445  1.00  0.00     0.157 A 
ATOM     16  C   UNL     1      31.152  64.243  17.602  1.00  0.00     0.062 A 
ATOM     17  C   UNL     1      30.901  64.130  16.229  1.00  0.00     0.158 A 
BRANCH  15  18
ATOM     18  O   UNL     1      31.438  63.149  14.078  1.00  0.00    -0.504 OA
ATOM     19  H   UNL     1      30.679  63.649  13.631  1.00  0.00     0.293 HD
ENDBRANCH  15  18
BRANCH  17  20
ATOM     20  O   UNL     1      29.872  64.882  15.665  1.00  0.00    -0.504 OA
ATOM     21  H   UNL     1      29.995  65.405  14.806  1.00  0.00     0.293 HD
ENDBRANCH  17  20
ENDBRANCH   1  12
BRANCH   6  22
ATOM     22  O   UNL     1      33.090  64.932  24.640  1.00  0.00    -0.507 OA
ATOM     23  H   UNL     1      33.910  65.508  24.760  1.00  0.00     0.293 HD
ENDBRANCH   6  22
BRANCH   8  24
ATOM     24  O   UNL     1      33.072  60.133  24.467  1.00  0.00    -0.508 OA
ATOM     25  H   UNL     1      32.778  60.035  25.433  1.00  0.00     0.293 HD
ENDBRANCH   8  24
TORSDOF 5
ENDMDL
MODEL 5
REMARK VINA RESULT:    -1.261     11.997     14.459
REMARK INTER + INTRA:          -1.775
REMARK INTER:                  -1.492
REMARK INTRA:                  -0.283
REMARK UNBOUND:                -0.293
REMARK SMILES O=c1cc(-c2ccc(O)c(O)c2)oc2cc(O)cc(O)c12
REMARK SMILES IDX 4 1 3 2 2 3 1 4 21 5 19 6 18 7 16 8 15 9 14 10 13 11 5 12
REMARK SMILES IDX 6 13 7 14 8 15 12 16 10 17 9 18 11 20 20 22 17 24
REMARK H PARENT 9 19 11 21 20 23 17 25
REMARK Flexibility Score: inf
ROOT
ATOM      1  C   UNL     1      18.030  65.578  15.266  1.00  0.00     0.138 A 
ATOM      2  C   UNL     1      17.109  65.557  16.322  1.00  0.00     0.100 A 
ATOM      3  C   UNL     1      15.744  65.644  16.049  1.00  0.00     0.197 A 
ATOM      4  O   UNL     1      14.939  65.560  17.013  1.00  0.00    -0.289 OA
ATOM      5  C   UNL     1      15.300  65.784  14.712  1.00  0.00     0.107 A 
ATOM      6  C   UNL     1      13.935  65.922  14.318  1.00  0.00     0.134 A 
ATOM      7  C   UNL     1      13.609  65.937  12.956  1.00  0.00     0.093 A 
ATOM      8  C   UNL     1      14.602  65.879  11.976  1.00  0.00     0.123 A 
ATOM      9  C   UNL     1      15.942  65.798  12.351  1.00  0.00     0.094 A 
ATOM     10  C   UNL     1      16.297  65.747  13.701  1.00  0.00     0.146 A 
ATOM     11  O   UNL     1      17.586  65.655  14.015  1.00  0.00    -0.456 OA
ENDROOT
BRANCH   1  12
ATOM     12  C   UNL     1      19.494  65.490  15.500  1.00  0.00     0.021 A 
ATOM     13  C   UNL     1      20.419  66.125  14.650  1.00  0.00     0.016 A 
ATOM     14  C   UNL     1      21.791  66.016  14.888  1.00  0.00     0.051 A 
ATOM     15  C   UNL     1      22.264  65.267  15.972  1.00  0.00     0.157 A 
ATOM     16  C   UNL     1      19.978  64.729  16.579  1.00  0.00     0.062 A 
ATOM     17  C   UNL     1      21.352  64.619  16.821  1.00  0.00     0.158 A 
BRANCH  15  18
ATOM     18  O   UNL     1      23.634  65.163  16.208  1.00  0.00    -0.504 OA
ATOM     19  H   UNL     1      24.186  64.414  15.807  1.00  0.00     0.293 HD
ENDBRANCH  15  18
BRANCH  17  20
ATOM     20  O   UNL     1      21.790  63.862  17.906  1.00  0.00    -0.504 OA
ATOM     21  H   UNL     1      21.450  64.023  18.847  1.00  0.00     0.293 HD
ENDBRANCH  17  20
ENDBRANCH   1  12
BRANCH   6  22
ATOM     22  O   UNL     1      12.875  66.073  15.216  1.00  0.00    -0.507 OA
ATOM     23  H   UNL     1      12.144  65.394  15.365  1.00  0.00     0.293 HD
ENDBRANCH   6  22
BRANCH   8  24
ATOM     24  O   UNL     1      14.269  65.909  10.624  1.00  0.00    -0.508 OA
ATOM     25  H   UNL     1      14.863  66.368   9.942  1.00  0.00     0.293 HD
ENDBRANCH   8  24
TORSDOF 5
ENDMDL
MODEL 6
REMARK VINA RESULT:    -0.780     11.909     14.545
REMARK INTER + INTRA:          -1.209
REMARK INTER:                  -0.905
REMARK INTRA:                  -0.305
REMARK UNBOUND:                -0.293
REMARK SMILES O=c1cc(-c2ccc(O)c(O)c2)oc2cc(O)cc(O)c12
REMARK SMILES IDX 4 1 3 2 2 3 1 4 21 5 19 6 18 7 16 8 15 9 14 10 13 11 5 12
REMARK SMILES IDX 6 13 7 14 8 15 12 16 10 17 9 18 11 20 20 22 17 24
REMARK H PARENT 9 19 11 21 20 23 17 25
REMARK Flexibility Score: inf
ROOT
ATOM      1  C   UNL     1      18.229  65.647  14.850  1.00  0.00     0.138 A 
ATOM      2  C   UNL     1      17.841  65.801  13.511  1.00  0.00     0.100 A 
ATOM      3  C   UNL     1      16.488  65.921  13.194  1.00  0.00     0.197 A 
ATOM      4  O   UNL     1      16.176  66.120  11.991  1.00  0.00    -0.289 OA
ATOM      5  C   UNL     1      15.516  65.856  14.220  1.00  0.00     0.107 A 
ATOM      6  C   UNL     1      14.106  65.926  14.009  1.00  0.00     0.134 A 
ATOM      7  C   UNL     1      13.245  65.968  15.114  1.00  0.00     0.093 A 
ATOM      8  C   UNL     1      13.740  65.881  16.417  1.00  0.00     0.123 A 
ATOM      9  C   UNL     1      15.111  65.758  16.631  1.00  0.00     0.094 A 
ATOM     10  C   UNL     1      15.998  65.748  15.551  1.00  0.00     0.146 A 
ATOM     11  O   UNL     1      17.300  65.644  15.800  1.00  0.00    -0.456 OA
ENDROOT
BRANCH   1  12
ATOM     12  C   UNL     1      19.654  65.513  15.243  1.00  0.00     0.021 A 
ATOM     13  C   UNL     1      20.686  66.124  14.506  1.00  0.00     0.016 A 
ATOM     14  C   UNL     1      22.020  65.972  14.893  1.00  0.00     0.051 A 
ATOM     15  C   UNL     1      22.348  65.203  16.016  1.00  0.00     0.157 A 
ATOM     16  C   UNL     1      19.993  64.731  16.362  1.00  0.00     0.062 A 
ATOM     17  C   UNL     1      21.329  64.579  16.753  1.00  0.00     0.158 A 
BRANCH  15  18
ATOM     18  O   UNL     1      23.680  65.056  16.401  1.00  0.00    -0.504 OA
ATOM     19  H   UNL     1      24.180  65.799  16.873  1.00  0.00     0.293 HD
ENDBRANCH  15  18
BRANCH  17  20
ATOM     20  O   UNL     1      21.621  63.803  17.873  1.00  0.00    -0.504 OA
ATOM     21  H   UNL     1      22.393  63.146  17.887  1.00  0.00     0.293 HD
ENDBRANCH  17  20
ENDBRANCH   1  12
BRANCH   6  22
ATOM     22  O   UNL     1      13.504  65.932  12.748  1.00  0.00    -0.507 OA
ATOM     23  H   UNL     1      13.999  65.866  11.872  1.00  0.00     0.293 HD
ENDBRANCH   6  22
BRANCH   8  24
ATOM     24  O   UNL     1      12.875  65.908  17.508  1.00  0.00    -0.508 OA
ATOM     25  H   UNL     1      13.088  66.446  18.341  1.00  0.00     0.293 HD
ENDBRANCH   8  24
TORSDOF 5
ENDMDL
MODEL 7
REMARK VINA RESULT:    -0.779      2.509      7.464
REMARK INTER + INTRA:          -1.209
REMARK INTER:                  -0.930
REMARK INTRA:                  -0.279
REMARK UNBOUND:                -0.293
REMARK SMILES O=c1cc(-c2ccc(O)c(O)c2)oc2cc(O)cc(O)c12
REMARK SMILES IDX 4 1 3 2 2 3 1 4 21 5 19 6 18 7 16 8 15 9 14 10 13 11 5 12
REMARK SMILES IDX 6 13 7 14 8 15 12 16 10 17 9 18 11 20 20 22 17 24
REMARK H PARENT 9 19 11 21 20 23 17 25
REMARK Flexibility Score: inf
ROOT
ATOM      1  C   UNL     1      28.383  65.479  18.042  1.00  0.00     0.138 A 
ATOM      2  C   UNL     1      29.640  65.425  17.423  1.00  0.00     0.100 A 
ATOM      3  C   UNL     1      30.795  65.555  18.194  1.00  0.00     0.197 A 
ATOM      4  O   UNL     1      31.909  65.441  17.619  1.00  0.00    -0.289 OA
ATOM      5  C   UNL     1      30.691  65.772  19.589  1.00  0.00     0.107 A 
ATOM      6  C   UNL     1      31.799  65.959  20.468  1.00  0.00     0.134 A 
ATOM      7  C   UNL     1      31.577  66.049  21.848  1.00  0.00     0.093 A 
ATOM      8  C   UNL     1      30.284  66.019  22.374  1.00  0.00     0.123 A 
ATOM      9  C   UNL     1      29.191  65.890  21.518  1.00  0.00     0.094 A 
ATOM     10  C   UNL     1      29.382  65.764  20.140  1.00  0.00     0.146 A 
ATOM     11  O   UNL     1      28.313  65.629  19.361  1.00  0.00    -0.456 OA
ENDROOT
BRANCH   1  12
ATOM     12  C   UNL     1      27.122  65.347  17.270  1.00  0.00     0.021 A 
ATOM     13  C   UNL     1      25.987  66.124  17.569  1.00  0.00     0.016 A 
ATOM     14  C   UNL     1      24.810  65.972  16.832  1.00  0.00     0.051 A 
ATOM     15  C   UNL     1      24.743  65.038  15.790  1.00  0.00     0.157 A 
ATOM     16  C   UNL     1      27.042  64.403  16.230  1.00  0.00     0.062 A 
ATOM     17  C   UNL     1      25.865  64.249  15.490  1.00  0.00     0.158 A 
BRANCH  15  18
ATOM     18  O   UNL     1      23.567  64.890  15.055  1.00  0.00    -0.504 OA
ATOM     19  H   UNL     1      22.949  64.101  15.198  1.00  0.00     0.293 HD
ENDBRANCH  15  18
BRANCH  17  20
ATOM     20  O   UNL     1      25.829  63.308  14.462  1.00  0.00    -0.504 OA
ATOM     21  H   UNL     1      25.963  63.565  13.491  1.00  0.00     0.293 HD
ENDBRANCH  17  20
ENDBRANCH   1  12
BRANCH   6  22
ATOM     22  O   UNL     1      33.123  66.088  20.039  1.00  0.00    -0.507 OA
ATOM     23  H   UNL     1      33.775  65.324  19.942  1.00  0.00     0.293 HD
ENDBRANCH   6  22
BRANCH   8  24
ATOM     24  O   UNL     1      30.072  66.125  23.746  1.00  0.00    -0.508 OA
ATOM     25  H   UNL     1      29.402  65.534  24.227  1.00  0.00     0.293 HD
ENDBRANCH   8  24
TORSDOF 5
ENDMDL
