MODEL 1
REMARK VINA RESULT:    -3.079      0.000      0.000
REMARK INTER + INTRA:          -3.708
REMARK INTER:                  -3.619
REMARK INTRA:                  -0.090
REMARK UNBOUND:                -0.090
REMARK SMILES CCCCC(=O)[O-]
REMARK SMILES IDX 4 1 5 2 6 3 7 4 3 5 2 6 1 7
REMARK H PARENT
REMARK Flexibility Score: inf
ROOT
ATOM      1  C   UNL     1      15.773  26.378  12.602  1.00  0.00     0.053 C 
ENDROOT
BRANCH   1   2
ATOM      2  C   UNL     1      17.173  26.691  13.027  1.00  0.00     0.041 C 
ATOM      3  O   UNL     1      18.033  27.034  12.174  1.00  0.00    -0.550 OA
ATOM      4  O   UNL     1      17.515  26.652  14.373  1.00  0.00    -0.550 OA
ENDBRANCH   1   2
BRANCH   1   5
ATOM      5  C   UNL     1      15.089  27.630  12.045  1.00  0.00     0.006 C 
BRANCH   5   6
ATOM      6  C   UNL     1      15.010  27.579  10.515  1.00  0.00    -0.003 C 
ATOM      7  C   UNL     1      14.876  26.142  10.019  1.00  0.00     0.004 C 
ENDBRANCH   5   6
ENDBRANCH   1   5
TORSDOF 3
ENDMDL
MODEL 2
REMARK VINA RESULT:    -2.872      1.437      1.761
REMARK INTER + INTRA:          -3.465
REMARK INTER:                  -3.433
REMARK INTRA:                  -0.032
REMARK UNBOUND:                -0.090
REMARK SMILES CCCCC(=O)[O-]
REMARK SMILES IDX 4 1 5 2 6 3 7 4 3 5 2 6 1 7
REMARK H PARENT
REMARK Flexibility Score: inf
ROOT
ATOM      1  C   UNL     1      17.275  27.089  12.699  1.00  0.00     0.053 C 
ENDROOT
BRANCH   1   2
ATOM      2  C   UNL     1      17.149  26.552  14.091  1.00  0.00     0.041 C 
ATOM      3  O   UNL     1      16.419  25.552  14.322  1.00  0.00    -0.550 OA
ATOM      4  O   UNL     1      17.879  27.126  15.125  1.00  0.00    -0.550 OA
ENDBRANCH   1   2
BRANCH   1   5
ATOM      5  C   UNL     1      16.275  26.398  11.767  1.00  0.00     0.006 C 
BRANCH   5   6
ATOM      6  C   UNL     1      14.986  27.217  11.641  1.00  0.00    -0.003 C 
ATOM      7  C   UNL     1      14.880  27.871  10.267  1.00  0.00     0.004 C 
ENDBRANCH   5   6
ENDBRANCH   1   5
TORSDOF 3
ENDMDL
MODEL 3
REMARK VINA RESULT:    -2.820     22.403     22.944
REMARK INTER + INTRA:          -3.405
REMARK INTER:                  -3.328
REMARK INTRA:                  -0.076
REMARK UNBOUND:                -0.090
REMARK SMILES CCCCC(=O)[O-]
REMARK SMILES IDX 4 1 5 2 6 3 7 4 3 5 2 6 1 7
REMARK H PARENT
REMARK Flexibility Score: inf
ROOT
ATOM      1  C   UNL     1      33.238  37.139   1.025  1.00  0.00     0.053 C 
ENDROOT
BRANCH   1   2
ATOM      2  C   UNL     1      33.143  35.717   1.482  1.00  0.00     0.041 C 
ATOM      3  O   UNL     1      34.152  35.136   1.962  1.00  0.00    -0.550 OA
ATOM      4  O   UNL     1      31.927  35.048   1.421  1.00  0.00    -0.550 OA
ENDBRANCH   1   2
BRANCH   1   5
ATOM      5  C   UNL     1      34.059  37.234  -0.265  1.00  0.00     0.006 C 
BRANCH   5   6
ATOM      6  C   UNL     1      33.274  36.674  -1.456  1.00  0.00    -0.003 C 
ATOM      7  C   UNL     1      33.030  37.750  -2.510  1.00  0.00     0.004 C 
ENDBRANCH   5   6
ENDBRANCH   1   5
TORSDOF 3
ENDMDL
MODEL 4
REMARK VINA RESULT:    -2.738     23.037     23.721
REMARK INTER + INTRA:          -3.308
REMARK INTER:                  -3.260
REMARK INTRA:                  -0.048
REMARK UNBOUND:                -0.090
REMARK SMILES CCCCC(=O)[O-]
REMARK SMILES IDX 4 1 5 2 6 3 7 4 3 5 2 6 1 7
REMARK H PARENT
REMARK Flexibility Score: inf
ROOT
ATOM      1  C   UNL     1      32.997  36.063  -1.040  1.00  0.00     0.053 C 
ENDROOT
BRANCH   1   2
ATOM      2  C   UNL     1      32.524  36.355  -2.429  1.00  0.00     0.041 C 
ATOM      3  O   UNL     1      32.835  37.439  -2.990  1.00  0.00    -0.550 OA
ATOM      4  O   UNL     1      31.779  35.409  -3.123  1.00  0.00    -0.550 OA
ENDBRANCH   1   2
BRANCH   1   5
ATOM      5  C   UNL     1      33.940  37.166  -0.551  1.00  0.00     0.006 C 
BRANCH   5   6
ATOM      6  C   UNL     1      33.872  37.311   0.973  1.00  0.00    -0.003 C 
ATOM      7  C   UNL     1      33.143  36.130   1.607  1.00  0.00     0.004 C 
ENDBRANCH   5   6
ENDBRANCH   1   5
TORSDOF 3
ENDMDL
MODEL 5
REMARK VINA RESULT:    -2.661      2.463      3.761
REMARK INTER + INTRA:          -3.217
REMARK INTER:                  -3.177
REMARK INTRA:                  -0.040
REMARK UNBOUND:                -0.090
REMARK SMILES CCCCC(=O)[O-]
REMARK SMILES IDX 4 1 5 2 6 3 7 4 3 5 2 6 1 7
REMARK H PARENT
REMARK Flexibility Score: inf
ROOT
ATOM      1  C   UNL     1      15.895  26.287  11.773  1.00  0.00     0.053 C 
ENDROOT
BRANCH   1   2
ATOM      2  C   UNL     1      15.218  26.815  10.547  1.00  0.00     0.041 C 
ATOM      3  O   UNL     1      14.995  28.048  10.427  1.00  0.00    -0.550 OA
ATOM      4  O   UNL     1      14.878  25.949   9.514  1.00  0.00    -0.550 OA
ENDBRANCH   1   2
BRANCH   1   5
ATOM      5  C   UNL     1      17.293  26.896  11.917  1.00  0.00     0.006 C 
BRANCH   5   6
ATOM      6  C   UNL     1      17.636  27.140  13.391  1.00  0.00    -0.003 C 
ATOM      7  C   UNL     1      17.124  26.003  14.270  1.00  0.00     0.004 C 
ENDBRANCH   5   6
ENDBRANCH   1   5
TORSDOF 3
ENDMDL
MODEL 6
REMARK VINA RESULT:    -2.482     21.939     22.602
REMARK INTER + INTRA:          -3.007
REMARK INTER:                  -2.990
REMARK INTRA:                  -0.017
REMARK UNBOUND:                -0.090
REMARK SMILES CCCCC(=O)[O-]
REMARK SMILES IDX 4 1 5 2 6 3 7 4 3 5 2 6 1 7
REMARK H PARENT
REMARK Flexibility Score: inf
ROOT
ATOM      1  C   UNL     1      32.925  37.168   2.190  1.00  0.00     0.053 C 
ENDROOT
BRANCH   1   2
ATOM      2  C   UNL     1      33.301  36.172   1.138  1.00  0.00     0.041 C 
ATOM      3  O   UNL     1      33.987  36.528   0.144  1.00  0.00    -0.550 OA
ATOM      4  O   UNL     1      32.935  34.839   1.280  1.00  0.00    -0.550 OA
ENDBRANCH   1   2
BRANCH   1   5
ATOM      5  C   UNL     1      34.087  37.385   3.163  1.00  0.00     0.006 C 
BRANCH   5   6
ATOM      6  C   UNL     1      33.862  38.638   4.016  1.00  0.00    -0.003 C 
ATOM      7  C   UNL     1      34.226  38.384   5.475  1.00  0.00     0.004 C 
ENDBRANCH   5   6
ENDBRANCH   1   5
TORSDOF 3
ENDMDL
MODEL 7
REMARK VINA RESULT:    -2.469     21.392     22.048
REMARK INTER + INTRA:          -2.991
REMARK INTER:                  -2.885
REMARK INTRA:                  -0.106
REMARK UNBOUND:                -0.090
REMARK SMILES CCCCC(=O)[O-]
REMARK SMILES IDX 4 1 5 2 6 3 7 4 3 5 2 6 1 7
REMARK H PARENT
REMARK Flexibility Score: inf
ROOT
ATOM      1  C   UNL     1      33.275  36.311   0.889  1.00  0.00     0.053 C 
ENDROOT
BRANCH   1   2
ATOM      2  C   UNL     1      32.526  35.123   1.407  1.00  0.00     0.041 C 
ATOM      3  O   UNL     1      33.124  34.032   1.600  1.00  0.00    -0.550 OA
ATOM      4  O   UNL     1      31.178  35.235   1.723  1.00  0.00    -0.550 OA
ENDBRANCH   1   2
BRANCH   1   5
ATOM      5  C   UNL     1      34.355  36.740   1.887  1.00  0.00     0.006 C 
BRANCH   5   6
ATOM      6  C   UNL     1      33.790  37.723   2.918  1.00  0.00    -0.003 C 
ATOM      7  C   UNL     1      32.810  38.698   2.271  1.00  0.00     0.004 C 
ENDBRANCH   5   6
ENDBRANCH   1   5
TORSDOF 3
ENDMDL
MODEL 8
REMARK VINA RESULT:    -2.377     23.734     24.426
REMARK INTER + INTRA:          -2.884
REMARK INTER:                  -2.826
REMARK INTRA:                  -0.058
REMARK UNBOUND:                -0.090
REMARK SMILES CCCCC(=O)[O-]
REMARK SMILES IDX 4 1 5 2 6 3 7 4 3 5 2 6 1 7
REMARK H PARENT
REMARK Flexibility Score: inf
ROOT
ATOM      1  C   UNL     1      32.872  37.587  -2.498  1.00  0.00     0.053 C 
ENDROOT
BRANCH   1   2
ATOM      2  C   UNL     1      32.500  36.187  -2.121  1.00  0.00     0.041 C 
ATOM      3  O   UNL     1      32.798  35.737  -0.984  1.00  0.00    -0.550 OA
ATOM      4  O   UNL     1      31.780  35.397  -3.008  1.00  0.00    -0.550 OA
ENDBRANCH   1   2
BRANCH   1   5
ATOM      5  C   UNL     1      33.193  38.412  -1.248  1.00  0.00     0.006 C 
BRANCH   5   6
ATOM      6  C   UNL     1      34.702  38.640  -1.114  1.00  0.00    -0.003 C 
ATOM      7  C   UNL     1      35.125  38.685   0.351  1.00  0.00     0.004 C 
ENDBRANCH   5   6
ENDBRANCH   1   5
TORSDOF 3
ENDMDL
MODEL 9
REMARK VINA RESULT:    -2.112     22.976     23.630
REMARK INTER + INTRA:          -2.572
REMARK INTER:                  -2.515
REMARK INTRA:                  -0.057
REMARK UNBOUND:                -0.090
REMARK SMILES CCCCC(=O)[O-]
REMARK SMILES IDX 4 1 5 2 6 3 7 4 3 5 2 6 1 7
REMARK H PARENT
REMARK Flexibility Score: inf
ROOT
ATOM      1  C   UNL     1      33.538  37.733   1.358  1.00  0.00     0.053 C 
ENDROOT
BRANCH   1   2
ATOM      2  C   UNL     1      33.624  37.590  -0.129  1.00  0.00     0.041 C 
ATOM      3  O   UNL     1      33.995  36.501  -0.641  1.00  0.00    -0.550 OA
ATOM      4  O   UNL     1      33.246  38.644  -0.951  1.00  0.00    -0.550 OA
ENDBRANCH   1   2
BRANCH   1   5
ATOM      5  C   UNL     1      33.844  36.398   2.044  1.00  0.00     0.006 C 
BRANCH   5   6
ATOM      6  C   UNL     1      35.078  36.515   2.946  1.00  0.00    -0.003 C 
ATOM      7  C   UNL     1      34.928  37.664   3.938  1.00  0.00     0.004 C 
ENDBRANCH   5   6
ENDBRANCH   1   5
TORSDOF 3
ENDMDL
