MODEL 1
REMARK VINA RESULT:    -4.356      0.000      0.000
REMARK INTER + INTRA:          -5.677
REMARK INTER:                  -5.375
REMARK INTRA:                  -0.302
REMARK UNBOUND:                -0.302
REMARK SMILES O=c1c(O)c(-c2cc(O)c(O)c(O)c2)oc2cc(O)cc(O)c12
REMARK SMILES IDX 5 1 3 2 2 3 1 4 23 5 21 6 20 7 18 8 17 9 16 10 15 11 6 12
REMARK SMILES IDX 7 13 8 14 14 15 10 16 12 17 9 18 11 20 13 22 4 24 22 26
REMARK SMILES IDX 19 28
REMARK H PARENT 9 19 11 21 13 23 4 25 22 27 19 29
REMARK Flexibility Score: inf
ROOT
ATOM      1  C   UNL     1     -23.816  12.296 -26.889  1.00  0.00     0.180 A 
ATOM      2  C   UNL     1     -23.038  11.597 -25.949  1.00  0.00     0.208 A 
ATOM      3  C   UNL     1     -21.660  11.455 -26.176  1.00  0.00     0.238 A 
ATOM      4  O   UNL     1     -20.961  10.875 -25.305  1.00  0.00    -0.285 OA
ATOM      5  C   UNL     1     -21.079  11.998 -27.348  1.00  0.00     0.111 A 
ATOM      6  C   UNL     1     -19.701  11.878 -27.698  1.00  0.00     0.134 A 
ATOM      7  C   UNL     1     -19.211  12.566 -28.815  1.00  0.00     0.093 A 
ATOM      8  C   UNL     1     -20.062  13.317 -29.629  1.00  0.00     0.123 A 
ATOM      9  C   UNL     1     -21.420  13.391 -29.329  1.00  0.00     0.094 A 
ATOM     10  C   UNL     1     -21.931  12.745 -28.201  1.00  0.00     0.146 A 
ATOM     11  O   UNL     1     -23.230  12.850 -27.944  1.00  0.00    -0.452 OA
ENDROOT
BRANCH   1  12
ATOM     12  C   UNL     1     -25.278  12.467 -26.731  1.00  0.00     0.029 A 
ATOM     13  C   UNL     1     -25.810  13.388 -25.814  1.00  0.00     0.062 A 
ATOM     14  C   UNL     1     -27.196  13.518 -25.663  1.00  0.00     0.162 A 
ATOM     15  C   UNL     1     -26.152  11.655 -27.466  1.00  0.00     0.062 A 
ATOM     16  C   UNL     1     -28.070  12.721 -26.416  1.00  0.00     0.200 A 
ATOM     17  C   UNL     1     -27.540  11.775 -27.326  1.00  0.00     0.162 A 
BRANCH  14  18
ATOM     18  O   UNL     1     -27.718  14.440 -24.756  1.00  0.00    -0.504 OA
ATOM     19  H   UNL     1     -28.121  14.147 -23.873  1.00  0.00     0.293 HD
ENDBRANCH  14  18
BRANCH  16  20
ATOM     20  O   UNL     1     -29.443  12.896 -26.232  1.00  0.00    -0.502 OA
ATOM     21  H   UNL     1     -29.852  13.667 -25.725  1.00  0.00     0.293 HD
ENDBRANCH  16  20
BRANCH  17  22
ATOM     22  O   UNL     1     -28.346  10.939 -28.101  1.00  0.00    -0.504 OA
ATOM     23  H   UNL     1     -28.562  11.104 -29.073  1.00  0.00     0.293 HD
ENDBRANCH  17  22
ENDBRANCH   1  12
BRANCH   2  24
ATOM     24  O   UNL     1     -23.629  11.088 -24.789  1.00  0.00    -0.502 OA
ATOM     25  H   UNL     1     -23.550  10.114 -24.521  1.00  0.00     0.293 HD
ENDBRANCH   2  24
BRANCH   6  26
ATOM     26  O   UNL     1     -18.785  11.080 -27.006  1.00  0.00    -0.507 OA
ATOM     27  H   UNL     1     -18.052  11.433 -26.411  1.00  0.00     0.293 HD
ENDBRANCH   6  26
BRANCH   8  28
ATOM     28  O   UNL     1     -19.568  13.986 -30.748  1.00  0.00    -0.508 OA
ATOM     29  H   UNL     1     -20.007  14.831 -31.097  1.00  0.00     0.293 HD
ENDBRANCH   8  28
TORSDOF 7
ENDMDL
MODEL 2
REMARK VINA RESULT:    -4.031      2.038      3.390
REMARK INTER + INTRA:          -5.276
REMARK INTER:                  -4.940
REMARK INTRA:                  -0.335
REMARK UNBOUND:                -0.302
REMARK SMILES O=c1c(O)c(-c2cc(O)c(O)c(O)c2)oc2cc(O)cc(O)c12
REMARK SMILES IDX 5 1 3 2 2 3 1 4 23 5 21 6 20 7 18 8 17 9 16 10 15 11 6 12
REMARK SMILES IDX 7 13 8 14 14 15 10 16 12 17 9 18 11 20 13 22 4 24 22 26
REMARK SMILES IDX 19 28
REMARK H PARENT 9 19 11 21 13 23 4 25 22 27 19 29
REMARK Flexibility Score: inf
ROOT
ATOM      1  C   UNL     1     -25.456  12.997 -26.909  1.00  0.00     0.180 A 
ATOM      2  C   UNL     1     -25.434  12.842 -25.512  1.00  0.00     0.208 A 
ATOM      3  C   UNL     1     -24.242  12.433 -24.891  1.00  0.00     0.238 A 
ATOM      4  O   UNL     1     -24.214  12.348 -23.636  1.00  0.00    -0.285 OA
ATOM      5  C   UNL     1     -23.094  12.169 -25.676  1.00  0.00     0.111 A 
ATOM      6  C   UNL     1     -21.846  11.711 -25.155  1.00  0.00     0.134 A 
ATOM      7  C   UNL     1     -20.740  11.608 -26.007  1.00  0.00     0.093 A 
ATOM      8  C   UNL     1     -20.853  11.885 -27.372  1.00  0.00     0.123 A 
ATOM      9  C   UNL     1     -22.081  12.274 -27.899  1.00  0.00     0.094 A 
ATOM     10  C   UNL     1     -23.194  12.421 -27.068  1.00  0.00     0.146 A 
ATOM     11  O   UNL     1     -24.345  12.806 -27.609  1.00  0.00    -0.452 OA
ENDROOT
BRANCH   1  12
ATOM     12  C   UNL     1     -26.680  13.401 -27.637  1.00  0.00     0.029 A 
ATOM     13  C   UNL     1     -27.480  12.457 -28.300  1.00  0.00     0.062 A 
ATOM     14  C   UNL     1     -28.621  12.862 -29.003  1.00  0.00     0.162 A 
ATOM     15  C   UNL     1     -27.020  14.759 -27.719  1.00  0.00     0.062 A 
ATOM     16  C   UNL     1     -28.972  14.218 -29.064  1.00  0.00     0.200 A 
ATOM     17  C   UNL     1     -28.158  15.178 -28.417  1.00  0.00     0.162 A 
BRANCH  14  18
ATOM     18  O   UNL     1     -29.416  11.918 -29.653  1.00  0.00    -0.504 OA
ATOM     19  H   UNL     1     -29.040  11.316 -30.378  1.00  0.00     0.293 HD
ENDBRANCH  14  18
BRANCH  16  20
ATOM     20  O   UNL     1     -30.125  14.567 -29.772  1.00  0.00    -0.502 OA
ATOM     21  H   UNL     1     -30.212  14.509 -30.776  1.00  0.00     0.293 HD
ENDBRANCH  16  20
BRANCH  17  22
ATOM     22  O   UNL     1     -28.437  16.546 -28.443  1.00  0.00    -0.504 OA
ATOM     23  H   UNL     1     -29.208  16.975 -27.952  1.00  0.00     0.293 HD
ENDBRANCH  17  22
ENDBRANCH   1  12
BRANCH   2  24
ATOM     24  O   UNL     1     -26.573  13.129 -24.755  1.00  0.00    -0.502 OA
ATOM     25  H   UNL     1     -27.454  13.396 -25.179  1.00  0.00     0.293 HD
ENDBRANCH   2  24
BRANCH   6  26
ATOM     26  O   UNL     1     -21.649  11.321 -23.827  1.00  0.00    -0.507 OA
ATOM     27  H   UNL     1     -22.356  10.906 -23.240  1.00  0.00     0.293 HD
ENDBRANCH   6  26
BRANCH   8  28
ATOM     28  O   UNL     1     -19.750  11.765 -28.216  1.00  0.00    -0.508 OA
ATOM     29  H   UNL     1     -19.633  10.962 -28.825  1.00  0.00     0.293 HD
ENDBRANCH   8  28
TORSDOF 7
ENDMDL
MODEL 3
REMARK VINA RESULT:    -3.960      1.274      7.285
REMARK INTER + INTRA:          -5.188
REMARK INTER:                  -4.955
REMARK INTRA:                  -0.233
REMARK UNBOUND:                -0.302
REMARK SMILES O=c1c(O)c(-c2cc(O)c(O)c(O)c2)oc2cc(O)cc(O)c12
REMARK SMILES IDX 5 1 3 2 2 3 1 4 23 5 21 6 20 7 18 8 17 9 16 10 15 11 6 12
REMARK SMILES IDX 7 13 8 14 14 15 10 16 12 17 9 18 11 20 13 22 4 24 22 26
REMARK SMILES IDX 19 28
REMARK H PARENT 9 19 11 21 13 23 4 25 22 27 19 29
REMARK Flexibility Score: inf
ROOT
ATOM      1  C   UNL     1     -24.041  12.394 -27.956  1.00  0.00     0.180 A 
ATOM      2  C   UNL     1     -24.838  11.745 -28.916  1.00  0.00     0.208 A 
ATOM      3  C   UNL     1     -26.233  11.748 -28.757  1.00  0.00     0.238 A 
ATOM      4  O   UNL     1     -26.943  11.212 -29.647  1.00  0.00    -0.285 OA
ATOM      5  C   UNL     1     -26.813  12.384 -27.633  1.00  0.00     0.111 A 
ATOM      6  C   UNL     1     -28.212  12.414 -27.352  1.00  0.00     0.134 A 
ATOM      7  C   UNL     1     -28.684  13.184 -26.282  1.00  0.00     0.093 A 
ATOM      8  C   UNL     1     -27.803  13.874 -25.446  1.00  0.00     0.123 A 
ATOM      9  C   UNL     1     -26.432  13.802 -25.677  1.00  0.00     0.094 A 
ATOM     10  C   UNL     1     -25.933  13.071 -26.758  1.00  0.00     0.146 A 
ATOM     11  O   UNL     1     -24.619  13.039 -26.950  1.00  0.00    -0.452 OA
ENDROOT
BRANCH   1  12
ATOM     12  C   UNL     1     -22.563  12.414 -28.042  1.00  0.00     0.029 A 
ATOM     13  C   UNL     1     -21.900  13.125 -29.055  1.00  0.00     0.062 A 
ATOM     14  C   UNL     1     -20.503  13.112 -29.134  1.00  0.00     0.162 A 
ATOM     15  C   UNL     1     -21.808  11.661 -27.133  1.00  0.00     0.062 A 
ATOM     16  C   UNL     1     -19.748  12.377 -28.208  1.00  0.00     0.200 A 
ATOM     17  C   UNL     1     -20.410  11.639 -27.198  1.00  0.00     0.162 A 
BRANCH  14  18
ATOM     18  O   UNL     1     -19.850  13.827 -30.138  1.00  0.00    -0.504 OA
ATOM     19  H   UNL     1     -19.674  14.822 -30.052  1.00  0.00     0.293 HD
ENDBRANCH  14  18
BRANCH  16  20
ATOM     20  O   UNL     1     -18.356  12.404 -28.327  1.00  0.00    -0.502 OA
ATOM     21  H   UNL     1     -17.728  11.857 -27.756  1.00  0.00     0.293 HD
ENDBRANCH  16  20
BRANCH  17  22
ATOM     22  O   UNL     1     -19.726  10.875 -26.250  1.00  0.00    -0.504 OA
ATOM     23  H   UNL     1     -19.139  11.265 -25.527  1.00  0.00     0.293 HD
ENDBRANCH  17  22
ENDBRANCH   1  12
BRANCH   2  24
ATOM     24  O   UNL     1     -24.245  11.142 -30.028  1.00  0.00    -0.502 OA
ATOM     25  H   UNL     1     -24.323  10.148 -30.214  1.00  0.00     0.293 HD
ENDBRANCH   2  24
BRANCH   6  26
ATOM     26  O   UNL     1     -29.168  11.688 -28.068  1.00  0.00    -0.507 OA
ATOM     27  H   UNL     1     -29.412  10.726 -27.888  1.00  0.00     0.293 HD
ENDBRANCH   6  26
BRANCH   8  28
ATOM     28  O   UNL     1     -28.281  14.625 -24.374  1.00  0.00    -0.508 OA
ATOM     29  H   UNL     1     -27.651  15.101 -23.737  1.00  0.00     0.293 HD
ENDBRANCH   8  28
TORSDOF 7
ENDMDL
MODEL 4
REMARK VINA RESULT:    -3.957      1.277      7.259
REMARK INTER + INTRA:          -5.184
REMARK INTER:                  -4.934
REMARK INTRA:                  -0.250
REMARK UNBOUND:                -0.302
REMARK SMILES O=c1c(O)c(-c2cc(O)c(O)c(O)c2)oc2cc(O)cc(O)c12
REMARK SMILES IDX 5 1 3 2 2 3 1 4 23 5 21 6 20 7 18 8 17 9 16 10 15 11 6 12
REMARK SMILES IDX 7 13 8 14 14 15 10 16 12 17 9 18 11 20 13 22 4 24 22 26
REMARK SMILES IDX 19 28
REMARK H PARENT 9 19 11 21 13 23 4 25 22 27 19 29
REMARK Flexibility Score: inf
ROOT
ATOM      1  C   UNL     1     -24.035  12.368 -27.939  1.00  0.00     0.180 A 
ATOM      2  C   UNL     1     -24.841  11.749 -28.911  1.00  0.00     0.208 A 
ATOM      3  C   UNL     1     -26.237  11.791 -28.764  1.00  0.00     0.238 A 
ATOM      4  O   UNL     1     -26.955  11.282 -29.664  1.00  0.00    -0.285 OA
ATOM      5  C   UNL     1     -26.809  12.434 -27.640  1.00  0.00     0.111 A 
ATOM      6  C   UNL     1     -28.209  12.502 -27.371  1.00  0.00     0.134 A 
ATOM      7  C   UNL     1     -28.669  13.276 -26.299  1.00  0.00     0.093 A 
ATOM      8  C   UNL     1     -27.775  13.934 -25.449  1.00  0.00     0.123 A 
ATOM      9  C   UNL     1     -26.405  13.825 -25.669  1.00  0.00     0.094 A 
ATOM     10  C   UNL     1     -25.917  13.089 -26.752  1.00  0.00     0.146 A 
ATOM     11  O   UNL     1     -24.603  13.020 -26.933  1.00  0.00    -0.452 OA
ENDROOT
BRANCH   1  12
ATOM     12  C   UNL     1     -22.556  12.346 -28.013  1.00  0.00     0.029 A 
ATOM     13  C   UNL     1     -21.791  11.607 -27.096  1.00  0.00     0.062 A 
ATOM     14  C   UNL     1     -20.393  11.618 -27.168  1.00  0.00     0.162 A 
ATOM     15  C   UNL     1     -21.900  13.122 -28.978  1.00  0.00     0.062 A 
ATOM     16  C   UNL     1     -19.739  12.377 -28.149  1.00  0.00     0.200 A 
ATOM     17  C   UNL     1     -20.503  13.142 -29.062  1.00  0.00     0.162 A 
BRANCH  14  18
ATOM     18  O   UNL     1     -19.639  10.875 -26.259  1.00  0.00    -0.504 OA
ATOM     19  H   UNL     1     -18.651  10.703 -26.404  1.00  0.00     0.293 HD
ENDBRANCH  14  18
BRANCH  16  20
ATOM     20  O   UNL     1     -18.343  12.346 -28.181  1.00  0.00    -0.502 OA
ATOM     21  H   UNL     1     -17.792  12.500 -29.012  1.00  0.00     0.293 HD
ENDBRANCH  16  20
BRANCH  17  22
ATOM     22  O   UNL     1     -19.923  13.930 -30.057  1.00  0.00    -0.504 OA
ATOM     23  H   UNL     1     -19.441  13.559 -30.864  1.00  0.00     0.293 HD
ENDBRANCH  17  22
ENDBRANCH   1  12
BRANCH   2  24
ATOM     24  O   UNL     1     -24.257  11.138 -30.023  1.00  0.00    -0.502 OA
ATOM     25  H   UNL     1     -24.791  10.584 -30.683  1.00  0.00     0.293 HD
ENDBRANCH   2  24
BRANCH   6  26
ATOM     26  O   UNL     1     -29.179  11.809 -28.101  1.00  0.00    -0.507 OA
ATOM     27  H   UNL     1     -30.099  11.578 -27.758  1.00  0.00     0.293 HD
ENDBRANCH   6  26
BRANCH   8  28
ATOM     28  O   UNL     1     -28.241  14.690 -24.376  1.00  0.00    -0.508 OA
ATOM     29  H   UNL     1     -29.077  14.428 -23.865  1.00  0.00     0.293 HD
ENDBRANCH   8  28
TORSDOF 7
ENDMDL
MODEL 5
REMARK VINA RESULT:    -3.820      2.103      6.982
REMARK INTER + INTRA:          -5.016
REMARK INTER:                  -4.859
REMARK INTRA:                  -0.157
REMARK UNBOUND:                -0.302
REMARK SMILES O=c1c(O)c(-c2cc(O)c(O)c(O)c2)oc2cc(O)cc(O)c12
REMARK SMILES IDX 5 1 3 2 2 3 1 4 23 5 21 6 20 7 18 8 17 9 16 10 15 11 6 12
REMARK SMILES IDX 7 13 8 14 14 15 10 16 12 17 9 18 11 20 13 22 4 24 22 26
REMARK SMILES IDX 19 28
REMARK H PARENT 9 19 11 21 13 23 4 25 22 27 19 29
REMARK Flexibility Score: inf
ROOT
ATOM      1  C   UNL     1     -25.296  12.604 -27.000  1.00  0.00     0.180 A 
ATOM      2  C   UNL     1     -25.780  11.906 -25.880  1.00  0.00     0.208 A 
ATOM      3  C   UNL     1     -27.046  12.234 -25.368  1.00  0.00     0.238 A 
ATOM      4  O   UNL     1     -27.495  11.569 -24.398  1.00  0.00    -0.285 OA
ATOM      5  C   UNL     1     -27.803  13.267 -25.970  1.00  0.00     0.111 A 
ATOM      6  C   UNL     1     -29.079  13.709 -25.509  1.00  0.00     0.134 A 
ATOM      7  C   UNL     1     -29.797  14.648 -26.259  1.00  0.00     0.093 A 
ATOM      8  C   UNL     1     -29.256  15.209 -27.419  1.00  0.00     0.123 A 
ATOM      9  C   UNL     1     -27.987  14.827 -27.844  1.00  0.00     0.094 A 
ATOM     10  C   UNL     1     -27.262  13.865 -27.136  1.00  0.00     0.146 A 
ATOM     11  O   UNL     1     -26.059  13.521 -27.583  1.00  0.00    -0.452 OA
ENDROOT
BRANCH   1  12
ATOM     12  C   UNL     1     -23.962  12.332 -27.583  1.00  0.00     0.029 A 
ATOM     13  C   UNL     1     -22.792  12.462 -26.819  1.00  0.00     0.062 A 
ATOM     14  C   UNL     1     -21.538  12.222 -27.394  1.00  0.00     0.162 A 
ATOM     15  C   UNL     1     -23.856  11.994 -28.939  1.00  0.00     0.062 A 
ATOM     16  C   UNL     1     -21.436  11.861 -28.746  1.00  0.00     0.200 A 
ATOM     17  C   UNL     1     -22.610  11.751 -29.528  1.00  0.00     0.162 A 
BRANCH  14  18
ATOM     18  O   UNL     1     -20.380  12.345 -26.627  1.00  0.00    -0.504 OA
ATOM     19  H   UNL     1     -19.935  11.539 -26.204  1.00  0.00     0.293 HD
ENDBRANCH  14  18
BRANCH  16  20
ATOM     20  O   UNL     1     -20.162  11.627 -29.268  1.00  0.00    -0.502 OA
ATOM     21  H   UNL     1     -19.952  10.911 -29.948  1.00  0.00     0.293 HD
ENDBRANCH  16  20
BRANCH  17  22
ATOM     22  O   UNL     1     -22.586  11.408 -30.881  1.00  0.00    -0.504 OA
ATOM     23  H   UNL     1     -22.082  11.925 -31.587  1.00  0.00     0.293 HD
ENDBRANCH  17  22
ENDBRANCH   1  12
BRANCH   2  24
ATOM     24  O   UNL     1     -25.024  10.875 -25.315  1.00  0.00    -0.502 OA
ATOM     25  H   UNL     1     -25.023  10.685 -24.319  1.00  0.00     0.293 HD
ENDBRANCH   2  24
BRANCH   6  26
ATOM     26  O   UNL     1     -29.670  13.282 -24.315  1.00  0.00    -0.507 OA
ATOM     27  H   UNL     1     -29.202  13.253 -23.422  1.00  0.00     0.293 HD
ENDBRANCH   6  26
BRANCH   8  28
ATOM     28  O   UNL     1     -29.971  16.154 -28.151  1.00  0.00    -0.508 OA
ATOM     29  H   UNL     1     -29.573  17.058 -28.381  1.00  0.00     0.293 HD
ENDBRANCH   8  28
TORSDOF 7
ENDMDL
MODEL 6
REMARK VINA RESULT:    -3.778      2.680      4.863
REMARK INTER + INTRA:          -4.964
REMARK INTER:                  -4.609
REMARK INTRA:                  -0.355
REMARK UNBOUND:                -0.302
REMARK SMILES O=c1c(O)c(-c2cc(O)c(O)c(O)c2)oc2cc(O)cc(O)c12
REMARK SMILES IDX 5 1 3 2 2 3 1 4 23 5 21 6 20 7 18 8 17 9 16 10 15 11 6 12
REMARK SMILES IDX 7 13 8 14 14 15 10 16 12 17 9 18 11 20 13 22 4 24 22 26
REMARK SMILES IDX 19 28
REMARK H PARENT 9 19 11 21 13 23 4 25 22 27 19 29
REMARK Flexibility Score: inf
ROOT
ATOM      1  C   UNL     1     -25.652  12.714 -26.920  1.00  0.00     0.180 A 
ATOM      2  C   UNL     1     -24.398  12.516 -27.526  1.00  0.00     0.208 A 
ATOM      3  C   UNL     1     -23.327  12.061 -26.740  1.00  0.00     0.238 A 
ATOM      4  O   UNL     1     -22.222  11.835 -27.299  1.00  0.00    -0.285 OA
ATOM      5  C   UNL     1     -23.517  11.828 -25.357  1.00  0.00     0.111 A 
ATOM      6  C   UNL     1     -22.491  11.405 -24.460  1.00  0.00     0.134 A 
ATOM      7  C   UNL     1     -22.821  11.079 -23.139  1.00  0.00     0.093 A 
ATOM      8  C   UNL     1     -24.129  11.221 -22.667  1.00  0.00     0.123 A 
ATOM      9  C   UNL     1     -25.124  11.690 -23.519  1.00  0.00     0.094 A 
ATOM     10  C   UNL     1     -24.832  11.989 -24.853  1.00  0.00     0.146 A 
ATOM     11  O   UNL     1     -25.814  12.423 -25.636  1.00  0.00    -0.452 OA
ENDROOT
BRANCH   1  12
ATOM     12  C   UNL     1     -26.822  13.214 -27.677  1.00  0.00     0.029 A 
ATOM     13  C   UNL     1     -27.679  12.336 -28.359  1.00  0.00     0.062 A 
ATOM     14  C   UNL     1     -28.767  12.829 -29.089  1.00  0.00     0.162 A 
ATOM     15  C   UNL     1     -27.050  14.594 -27.766  1.00  0.00     0.062 A 
ATOM     16  C   UNL     1     -29.007  14.210 -29.157  1.00  0.00     0.200 A 
ATOM     17  C   UNL     1     -28.134  15.102 -28.491  1.00  0.00     0.162 A 
BRANCH  14  18
ATOM     18  O   UNL     1     -29.619  11.951 -29.758  1.00  0.00    -0.504 OA
ATOM     19  H   UNL     1     -29.530  10.946 -29.658  1.00  0.00     0.293 HD
ENDBRANCH  14  18
BRANCH  16  20
ATOM     20  O   UNL     1     -30.111  14.649 -29.893  1.00  0.00    -0.502 OA
ATOM     21  H   UNL     1     -30.066  14.950 -30.855  1.00  0.00     0.293 HD
ENDBRANCH  16  20
BRANCH  17  22
ATOM     22  O   UNL     1     -28.302  16.488 -28.524  1.00  0.00    -0.504 OA
ATOM     23  H   UNL     1     -28.280  17.080 -27.706  1.00  0.00     0.293 HD
ENDBRANCH  17  22
ENDBRANCH   1  12
BRANCH   2  24
ATOM     24  O   UNL     1     -24.239  12.732 -28.897  1.00  0.00    -0.502 OA
ATOM     25  H   UNL     1     -24.999  12.614 -29.558  1.00  0.00     0.293 HD
ENDBRANCH   2  24
BRANCH   6  26
ATOM     26  O   UNL     1     -21.138  11.317 -24.804  1.00  0.00    -0.507 OA
ATOM     27  H   UNL     1     -20.470  10.711 -24.354  1.00  0.00     0.293 HD
ENDBRANCH   6  26
BRANCH   8  28
ATOM     28  O   UNL     1     -24.446  10.909 -21.346  1.00  0.00    -0.508 OA
ATOM     29  H   UNL     1     -25.360  11.113 -20.957  1.00  0.00     0.293 HD
ENDBRANCH   8  28
TORSDOF 7
ENDMDL
MODEL 7
REMARK VINA RESULT:    -3.655      1.620      7.102
REMARK INTER + INTRA:          -4.812
REMARK INTER:                  -4.783
REMARK INTRA:                  -0.029
REMARK UNBOUND:                -0.302
REMARK SMILES O=c1c(O)c(-c2cc(O)c(O)c(O)c2)oc2cc(O)cc(O)c12
REMARK SMILES IDX 5 1 3 2 2 3 1 4 23 5 21 6 20 7 18 8 17 9 16 10 15 11 6 12
REMARK SMILES IDX 7 13 8 14 14 15 10 16 12 17 9 18 11 20 13 22 4 24 22 26
REMARK SMILES IDX 19 28
REMARK H PARENT 9 19 11 21 13 23 4 25 22 27 19 29
REMARK Flexibility Score: inf
ROOT
ATOM      1  C   UNL     1     -24.926  12.886 -27.012  1.00  0.00     0.180 A 
ATOM      2  C   UNL     1     -25.504  13.659 -25.990  1.00  0.00     0.208 A 
ATOM      3  C   UNL     1     -26.867  13.987 -26.074  1.00  0.00     0.238 A 
ATOM      4  O   UNL     1     -27.392  14.634 -25.130  1.00  0.00    -0.285 OA
ATOM      5  C   UNL     1     -27.629  13.554 -27.185  1.00  0.00     0.111 A 
ATOM      6  C   UNL     1     -29.007  13.863 -27.392  1.00  0.00     0.134 A 
ATOM      7  C   UNL     1     -29.694  13.273 -28.460  1.00  0.00     0.093 A 
ATOM      8  C   UNL     1     -29.036  12.436 -29.365  1.00  0.00     0.123 A 
ATOM      9  C   UNL     1     -27.678  12.176 -29.205  1.00  0.00     0.094 A 
ATOM     10  C   UNL     1     -26.974  12.722 -28.129  1.00  0.00     0.146 A 
ATOM     11  O   UNL     1     -25.682  12.440 -28.007  1.00  0.00    -0.452 OA
ENDROOT
BRANCH   1  12
ATOM     12  C   UNL     1     -23.490  12.520 -27.005  1.00  0.00     0.029 A 
ATOM     13  C   UNL     1     -22.674  12.750 -28.124  1.00  0.00     0.062 A 
ATOM     14  C   UNL     1     -21.325  12.375 -28.107  1.00  0.00     0.162 A 
ATOM     15  C   UNL     1     -22.946  11.878 -25.885  1.00  0.00     0.062 A 
ATOM     16  C   UNL     1     -20.776  11.754 -26.976  1.00  0.00     0.200 A 
ATOM     17  C   UNL     1     -21.599  11.499 -25.853  1.00  0.00     0.162 A 
BRANCH  14  18
ATOM     18  O   UNL     1     -20.518  12.613 -29.219  1.00  0.00    -0.504 OA
ATOM     19  H   UNL     1     -20.896  12.613 -30.160  1.00  0.00     0.293 HD
ENDBRANCH  14  18
BRANCH  16  20
ATOM     20  O   UNL     1     -19.423  11.408 -27.009  1.00  0.00    -0.502 OA
ATOM     21  H   UNL     1     -18.718  11.822 -26.417  1.00  0.00     0.293 HD
ENDBRANCH  16  20
BRANCH  17  22
ATOM     22  O   UNL     1     -21.126  10.875 -24.697  1.00  0.00    -0.504 OA
ATOM     23  H   UNL     1     -20.714  11.367 -23.917  1.00  0.00     0.293 HD
ENDBRANCH  17  22
ENDBRANCH   1  12
BRANCH   2  24
ATOM     24  O   UNL     1     -24.738  14.058 -24.891  1.00  0.00    -0.502 OA
ATOM     25  H   UNL     1     -24.591  15.033 -24.656  1.00  0.00     0.293 HD
ENDBRANCH   2  24
BRANCH   6  26
ATOM     26  O   UNL     1     -29.734  14.759 -26.602  1.00  0.00    -0.507 OA
ATOM     27  H   UNL     1     -30.100  14.549 -25.685  1.00  0.00     0.293 HD
ENDBRANCH   6  26
BRANCH   8  28
ATOM     28  O   UNL     1     -29.724  11.864 -30.433  1.00  0.00    -0.508 OA
ATOM     29  H   UNL     1     -29.536  10.916 -30.739  1.00  0.00     0.293 HD
ENDBRANCH   8  28
TORSDOF 7
ENDMDL
MODEL 8
REMARK VINA RESULT:    -3.640      2.439      4.105
REMARK INTER + INTRA:          -4.794
REMARK INTER:                  -4.738
REMARK INTRA:                  -0.056
REMARK UNBOUND:                -0.302
REMARK SMILES O=c1c(O)c(-c2cc(O)c(O)c(O)c2)oc2cc(O)cc(O)c12
REMARK SMILES IDX 5 1 3 2 2 3 1 4 23 5 21 6 20 7 18 8 17 9 16 10 15 11 6 12
REMARK SMILES IDX 7 13 8 14 14 15 10 16 12 17 9 18 11 20 13 22 4 24 22 26
REMARK SMILES IDX 19 28
REMARK H PARENT 9 19 11 21 13 23 4 25 22 27 19 29
REMARK Flexibility Score: inf
ROOT
ATOM      1  C   UNL     1     -25.109  12.889 -26.151  1.00  0.00     0.180 A 
ATOM      2  C   UNL     1     -24.269  12.452 -27.191  1.00  0.00     0.208 A 
ATOM      3  C   UNL     1     -23.034  11.869 -26.868  1.00  0.00     0.238 A 
ATOM      4  O   UNL     1     -22.311  11.431 -27.801  1.00  0.00    -0.285 OA
ATOM      5  C   UNL     1     -22.646  11.744 -25.513  1.00  0.00     0.111 A 
ATOM      6  C   UNL     1     -21.399  11.205 -25.074  1.00  0.00     0.134 A 
ATOM      7  C   UNL     1     -21.176  11.010 -23.705  1.00  0.00     0.093 A 
ATOM      8  C   UNL     1     -22.128  11.394 -22.757  1.00  0.00     0.123 A 
ATOM      9  C   UNL     1     -23.323  11.975 -23.174  1.00  0.00     0.094 A 
ATOM     10  C   UNL     1     -23.589  12.150 -24.534  1.00  0.00     0.146 A 
ATOM     11  O   UNL     1     -24.746  12.698 -24.889  1.00  0.00    -0.452 OA
ENDROOT
BRANCH   1  12
ATOM     12  C   UNL     1     -26.416  13.536 -26.413  1.00  0.00     0.029 A 
ATOM     13  C   UNL     1     -26.531  14.613 -27.305  1.00  0.00     0.062 A 
ATOM     14  C   UNL     1     -27.771  15.227 -27.521  1.00  0.00     0.162 A 
ATOM     15  C   UNL     1     -27.552  13.105 -25.714  1.00  0.00     0.062 A 
ATOM     16  C   UNL     1     -28.911  14.779 -26.839  1.00  0.00     0.200 A 
ATOM     17  C   UNL     1     -28.798  13.708 -25.921  1.00  0.00     0.162 A 
BRANCH  14  18
ATOM     18  O   UNL     1     -27.879  16.292 -28.414  1.00  0.00    -0.504 OA
ATOM     19  H   UNL     1     -28.162  16.150 -29.378  1.00  0.00     0.293 HD
ENDBRANCH  14  18
BRANCH  16  20
ATOM     20  O   UNL     1     -30.125  15.421 -27.096  1.00  0.00    -0.502 OA
ATOM     21  H   UNL     1     -30.607  15.385 -27.982  1.00  0.00     0.293 HD
ENDBRANCH  16  20
BRANCH  17  22
ATOM     22  O   UNL     1     -29.886  13.216 -25.197  1.00  0.00    -0.504 OA
ATOM     23  H   UNL     1     -30.710  12.812 -25.619  1.00  0.00     0.293 HD
ENDBRANCH  17  22
ENDBRANCH   1  12
BRANCH   2  24
ATOM     24  O   UNL     1     -24.682  12.566 -28.521  1.00  0.00    -0.502 OA
ATOM     25  H   UNL     1     -25.093  13.414 -28.893  1.00  0.00     0.293 HD
ENDBRANCH   2  24
BRANCH   6  26
ATOM     26  O   UNL     1     -20.345  10.875 -25.931  1.00  0.00    -0.507 OA
ATOM     27  H   UNL     1     -20.454  10.607 -26.897  1.00  0.00     0.293 HD
ENDBRANCH   6  26
BRANCH   8  28
ATOM     28  O   UNL     1     -21.891  11.210 -21.397  1.00  0.00    -0.508 OA
ATOM     29  H   UNL     1     -21.052  10.751 -21.062  1.00  0.00     0.293 HD
ENDBRANCH   8  28
TORSDOF 7
ENDMDL
