MODEL 1
REMARK VINA RESULT:    -5.628      0.000      0.000
REMARK INTER + INTRA:          -6.505
REMARK INTER:                  -6.286
REMARK INTRA:                  -0.219
REMARK UNBOUND:                -0.219
REMARK SMILES O=C([O-])c1ccccc1C(=O)[O-]
REMARK SMILES IDX 4 1 9 2 5 3 8 4 6 5 7 6 2 7 1 8 3 9 10 10 11 11 12 12
REMARK H PARENT
REMARK Flexibility Score: inf
ROOT
ATOM      1  C   UNL     1     -14.388  -5.211  30.315  1.00  0.00     0.006 A 
ATOM      2  C   UNL     1     -13.947  -4.115  29.523  1.00  0.00     0.006 A 
ATOM      3  C   UNL     1     -15.128  -6.242  29.705  1.00  0.00     0.010 A 
ATOM      4  C   UNL     1     -14.318  -4.058  28.166  1.00  0.00     0.010 A 
ATOM      5  C   UNL     1     -15.465  -6.176  28.353  1.00  0.00     0.001 A 
ATOM      6  C   UNL     1     -15.071  -5.080  27.589  1.00  0.00     0.001 A 
ENDROOT
BRANCH   1   7
ATOM      7  C   UNL     1     -14.166  -5.290  31.778  1.00  0.00     0.072 C 
ATOM      8  O   UNL     1     -15.021  -4.840  32.585  1.00  0.00    -0.545 OA
ATOM      9  O   UNL     1     -13.035  -5.926  32.278  1.00  0.00    -0.545 OA
ENDBRANCH   1   7
BRANCH   2  10
ATOM     10  C   UNL     1     -13.050  -3.059  30.047  1.00  0.00     0.072 C 
ATOM     11  O   UNL     1     -13.526  -1.965  30.448  1.00  0.00    -0.545 OA
ATOM     12  O   UNL     1     -11.670  -3.233  30.040  1.00  0.00    -0.545 OA
ENDBRANCH   2  10
TORSDOF 2
ENDMDL
MODEL 2
REMARK VINA RESULT:    -5.608      0.065      3.029
REMARK INTER + INTRA:          -6.482
REMARK INTER:                  -6.268
REMARK INTRA:                  -0.215
REMARK UNBOUND:                -0.219
REMARK SMILES O=C([O-])c1ccccc1C(=O)[O-]
REMARK SMILES IDX 4 1 9 2 5 3 8 4 6 5 7 6 2 7 1 8 3 9 10 10 11 11 12 12
REMARK H PARENT
REMARK Flexibility Score: inf
ROOT
ATOM      1  C   UNL     1     -13.962  -4.136  29.516  1.00  0.00     0.006 A 
ATOM      2  C   UNL     1     -14.390  -5.231  30.317  1.00  0.00     0.006 A 
ATOM      3  C   UNL     1     -14.346  -4.088  28.163  1.00  0.00     0.010 A 
ATOM      4  C   UNL     1     -15.129  -6.270  29.719  1.00  0.00     0.010 A 
ATOM      5  C   UNL     1     -15.097  -5.117  27.596  1.00  0.00     0.001 A 
ATOM      6  C   UNL     1     -15.478  -6.211  28.370  1.00  0.00     0.001 A 
ENDROOT
BRANCH   1   7
ATOM      7  C   UNL     1     -13.067  -3.069  30.021  1.00  0.00     0.072 C 
ATOM      8  O   UNL     1     -13.540  -2.005  30.502  1.00  0.00    -0.545 OA
ATOM      9  O   UNL     1     -11.690  -3.259  30.029  1.00  0.00    -0.545 OA
ENDBRANCH   1   7
BRANCH   2  10
ATOM     10  C   UNL     1     -14.151  -5.295  31.777  1.00  0.00     0.072 C 
ATOM     11  O   UNL     1     -13.093  -5.812  32.225  1.00  0.00    -0.545 OA
ATOM     12  O   UNL     1     -15.116  -4.850  32.674  1.00  0.00    -0.545 OA
ENDBRANCH   2  10
TORSDOF 2
ENDMDL
MODEL 3
REMARK VINA RESULT:    -5.209      1.628      3.447
REMARK INTER + INTRA:          -6.036
REMARK INTER:                  -5.877
REMARK INTRA:                  -0.160
REMARK UNBOUND:                -0.219
REMARK SMILES O=C([O-])c1ccccc1C(=O)[O-]
REMARK SMILES IDX 4 1 9 2 5 3 8 4 6 5 7 6 2 7 1 8 3 9 10 10 11 11 12 12
REMARK H PARENT
REMARK Flexibility Score: inf
ROOT
ATOM      1  C   UNL     1     -14.503  -5.248  30.321  1.00  0.00     0.006 A 
ATOM      2  C   UNL     1     -15.138  -6.300  29.604  1.00  0.00     0.006 A 
ATOM      3  C   UNL     1     -14.126  -4.082  29.630  1.00  0.00     0.010 A 
ATOM      4  C   UNL     1     -15.312  -6.175  28.214  1.00  0.00     0.010 A 
ATOM      5  C   UNL     1     -14.328  -3.968  28.254  1.00  0.00     0.001 A 
ATOM      6  C   UNL     1     -14.909  -5.018  27.546  1.00  0.00     0.001 A 
ENDROOT
BRANCH   1   7
ATOM      7  C   UNL     1     -14.153  -5.346  31.757  1.00  0.00     0.072 C 
ATOM      8  O   UNL     1     -14.926  -4.892  32.641  1.00  0.00    -0.545 OA
ATOM      9  O   UNL     1     -12.993  -6.004  32.148  1.00  0.00    -0.545 OA
ENDBRANCH   1   7
BRANCH   2  10
ATOM     10  C   UNL     1     -15.692  -7.502  30.272  1.00  0.00     0.072 C 
ATOM     11  O   UNL     1     -15.255  -8.647  29.980  1.00  0.00    -0.545 OA
ATOM     12  O   UNL     1     -16.743  -7.390  31.175  1.00  0.00    -0.545 OA
ENDBRANCH   2  10
TORSDOF 2
ENDMDL
MODEL 4
REMARK VINA RESULT:    -5.198      1.642      2.909
REMARK INTER + INTRA:          -6.025
REMARK INTER:                  -5.871
REMARK INTRA:                  -0.154
REMARK UNBOUND:                -0.219
REMARK SMILES O=C([O-])c1ccccc1C(=O)[O-]
REMARK SMILES IDX 4 1 9 2 5 3 8 4 6 5 7 6 2 7 1 8 3 9 10 10 11 11 12 12
REMARK H PARENT
REMARK Flexibility Score: inf
ROOT
ATOM      1  C   UNL     1     -15.160  -6.331  29.622  1.00  0.00     0.006 A 
ATOM      2  C   UNL     1     -14.532  -5.283  30.351  1.00  0.00     0.006 A 
ATOM      3  C   UNL     1     -15.317  -6.195  28.229  1.00  0.00     0.010 A 
ATOM      4  C   UNL     1     -14.146  -4.112  29.673  1.00  0.00     0.010 A 
ATOM      5  C   UNL     1     -14.907  -5.034  27.573  1.00  0.00     0.001 A 
ATOM      6  C   UNL     1     -14.333  -3.990  28.296  1.00  0.00     0.001 A 
ENDROOT
BRANCH   1   7
ATOM      7  C   UNL     1     -15.723  -7.539  30.268  1.00  0.00     0.072 C 
ATOM      8  O   UNL     1     -15.216  -8.674  30.064  1.00  0.00    -0.545 OA
ATOM      9  O   UNL     1     -16.781  -7.423  31.162  1.00  0.00    -0.545 OA
ENDBRANCH   1   7
BRANCH   2  10
ATOM     10  C   UNL     1     -14.200  -5.398  31.791  1.00  0.00     0.072 C 
ATOM     11  O   UNL     1     -14.973  -4.914  32.660  1.00  0.00    -0.545 OA
ATOM     12  O   UNL     1     -13.005  -5.979  32.199  1.00  0.00    -0.545 OA
ENDBRANCH   2  10
TORSDOF 2
ENDMDL
MODEL 5
REMARK VINA RESULT:    -4.904      2.475      4.536
REMARK INTER + INTRA:          -5.697
REMARK INTER:                  -5.485
REMARK INTRA:                  -0.211
REMARK UNBOUND:                -0.219
REMARK SMILES O=C([O-])c1ccccc1C(=O)[O-]
REMARK SMILES IDX 4 1 9 2 5 3 8 4 6 5 7 6 2 7 1 8 3 9 10 10 11 11 12 12
REMARK H PARENT
REMARK Flexibility Score: inf
ROOT
ATOM      1  C   UNL     1     -15.380  -6.729  30.894  1.00  0.00     0.006 A 
ATOM      2  C   UNL     1     -16.217  -7.862  31.093  1.00  0.00     0.006 A 
ATOM      3  C   UNL     1     -15.103  -6.307  29.580  1.00  0.00     0.010 A 
ATOM      4  C   UNL     1     -16.692  -8.569  29.972  1.00  0.00     0.010 A 
ATOM      5  C   UNL     1     -15.602  -7.009  28.483  1.00  0.00     0.001 A 
ATOM      6  C   UNL     1     -16.385  -8.145  28.679  1.00  0.00     0.001 A 
ENDROOT
BRANCH   1   7
ATOM      7  C   UNL     1     -14.722  -6.006  32.007  1.00  0.00     0.072 C 
ATOM      8  O   UNL     1     -13.514  -6.220  32.290  1.00  0.00    -0.545 OA
ATOM      9  O   UNL     1     -15.418  -5.030  32.711  1.00  0.00    -0.545 OA
ENDBRANCH   1   7
BRANCH   2  10
ATOM     10  C   UNL     1     -16.673  -8.293  32.435  1.00  0.00     0.072 C 
ATOM     11  O   UNL     1     -17.766  -7.873  32.898  1.00  0.00    -0.545 OA
ATOM     12  O   UNL     1     -15.874  -9.111  33.227  1.00  0.00    -0.545 OA
ENDBRANCH   2  10
TORSDOF 2
ENDMDL
MODEL 6
REMARK VINA RESULT:    -4.899      2.162      3.316
REMARK INTER + INTRA:          -5.690
REMARK INTER:                  -5.476
REMARK INTRA:                  -0.214
REMARK UNBOUND:                -0.219
REMARK SMILES O=C([O-])c1ccccc1C(=O)[O-]
REMARK SMILES IDX 4 1 9 2 5 3 8 4 6 5 7 6 2 7 1 8 3 9 10 10 11 11 12 12
REMARK H PARENT
REMARK Flexibility Score: inf
ROOT
ATOM      1  C   UNL     1     -15.824  -7.529  30.826  1.00  0.00     0.006 A 
ATOM      2  C   UNL     1     -15.147  -6.279  30.868  1.00  0.00     0.006 A 
ATOM      3  C   UNL     1     -16.148  -8.089  29.575  1.00  0.00     0.010 A 
ATOM      4  C   UNL     1     -14.878  -5.604  29.663  1.00  0.00     0.010 A 
ATOM      5  C   UNL     1     -15.853  -7.413  28.391  1.00  0.00     0.001 A 
ATOM      6  C   UNL     1     -15.230  -6.167  28.436  1.00  0.00     0.001 A 
ENDROOT
BRANCH   1   7
ATOM      7  C   UNL     1     -16.270  -8.247  32.042  1.00  0.00     0.072 C 
ATOM      8  O   UNL     1     -15.551  -9.137  32.567  1.00  0.00    -0.545 OA
ATOM      9  O   UNL     1     -17.466  -7.896  32.659  1.00  0.00    -0.545 OA
ENDBRANCH   1   7
BRANCH   2  10
ATOM     10  C   UNL     1     -14.644  -5.684  32.129  1.00  0.00     0.072 C 
ATOM     11  O   UNL     1     -15.388  -4.935  32.816  1.00  0.00    -0.545 OA
ATOM     12  O   UNL     1     -13.330  -5.887  32.535  1.00  0.00    -0.545 OA
ENDBRANCH   2  10
TORSDOF 2
ENDMDL
MODEL 7
REMARK VINA RESULT:    -4.841      1.866      3.330
REMARK INTER + INTRA:          -5.626
REMARK INTER:                  -5.674
REMARK INTRA:                   0.048
REMARK UNBOUND:                -0.219
REMARK SMILES O=C([O-])c1ccccc1C(=O)[O-]
REMARK SMILES IDX 4 1 9 2 5 3 8 4 6 5 7 6 2 7 1 8 3 9 10 10 11 11 12 12
REMARK H PARENT
REMARK Flexibility Score: inf
ROOT
ATOM      1  C   UNL     1     -14.440  -5.020  29.662  1.00  0.00     0.006 A 
ATOM      2  C   UNL     1     -13.471  -4.371  30.477  1.00  0.00     0.006 A 
ATOM      3  C   UNL     1     -15.263  -6.008  30.235  1.00  0.00     0.010 A 
ATOM      4  C   UNL     1     -13.316  -4.780  31.815  1.00  0.00     0.010 A 
ATOM      5  C   UNL     1     -15.108  -6.383  31.569  1.00  0.00     0.001 A 
ATOM      6  C   UNL     1     -14.128  -5.778  32.354  1.00  0.00     0.001 A 
ENDROOT
BRANCH   1   7
ATOM      7  C   UNL     1     -14.583  -4.755  28.212  1.00  0.00     0.072 C 
ATOM      8  O   UNL     1     -14.632  -5.704  27.385  1.00  0.00    -0.545 OA
ATOM      9  O   UNL     1     -14.731  -3.452  27.752  1.00  0.00    -0.545 OA
ENDBRANCH   1   7
BRANCH   2  10
ATOM     10  C   UNL     1     -12.660  -3.228  29.998  1.00  0.00     0.072 C 
ATOM     11  O   UNL     1     -11.539  -3.428  29.461  1.00  0.00    -0.545 OA
ATOM     12  O   UNL     1     -13.092  -1.921  30.194  1.00  0.00    -0.545 OA
ENDBRANCH   2  10
TORSDOF 2
ENDMDL
MODEL 8
REMARK VINA RESULT:    -4.803      1.844      3.635
REMARK INTER + INTRA:          -5.583
REMARK INTER:                  -5.685
REMARK INTRA:                   0.102
REMARK UNBOUND:                -0.219
REMARK SMILES O=C([O-])c1ccccc1C(=O)[O-]
REMARK SMILES IDX 4 1 9 2 5 3 8 4 6 5 7 6 2 7 1 8 3 9 10 10 11 11 12 12
REMARK H PARENT
REMARK Flexibility Score: inf
ROOT
ATOM      1  C   UNL     1     -13.537  -4.410  30.517  1.00  0.00     0.006 A 
ATOM      2  C   UNL     1     -14.508  -5.066  29.710  1.00  0.00     0.006 A 
ATOM      3  C   UNL     1     -13.361  -4.829  31.850  1.00  0.00     0.010 A 
ATOM      4  C   UNL     1     -15.312  -6.069  30.284  1.00  0.00     0.010 A 
ATOM      5  C   UNL     1     -14.153  -5.840  32.392  1.00  0.00     0.001 A 
ATOM      6  C   UNL     1     -15.135  -6.451  31.614  1.00  0.00     0.001 A 
ENDROOT
BRANCH   1   7
ATOM      7  C   UNL     1     -12.742  -3.254  30.044  1.00  0.00     0.072 C 
ATOM      8  O   UNL     1     -11.661  -3.426  29.421  1.00  0.00    -0.545 OA
ATOM      9  O   UNL     1     -13.217  -1.960  30.225  1.00  0.00    -0.545 OA
ENDBRANCH   1   7
BRANCH   2  10
ATOM     10  C   UNL     1     -14.665  -4.788  28.264  1.00  0.00     0.072 C 
ATOM     11  O   UNL     1     -14.659  -5.734  27.432  1.00  0.00    -0.545 OA
ATOM     12  O   UNL     1     -14.753  -3.480  27.798  1.00  0.00    -0.545 OA
ENDBRANCH   2  10
TORSDOF 2
ENDMDL
MODEL 9
REMARK VINA RESULT:    -4.784      3.354      4.854
REMARK INTER + INTRA:          -5.563
REMARK INTER:                  -5.351
REMARK INTRA:                  -0.211
REMARK UNBOUND:                -0.219
REMARK SMILES O=C([O-])c1ccccc1C(=O)[O-]
REMARK SMILES IDX 4 1 9 2 5 3 8 4 6 5 7 6 2 7 1 8 3 9 10 10 11 11 12 12
REMARK H PARENT
REMARK Flexibility Score: inf
ROOT
ATOM      1  C   UNL     1     -15.702  -7.276  30.673  1.00  0.00     0.006 A 
ATOM      2  C   UNL     1     -15.974  -7.978  29.466  1.00  0.00     0.006 A 
ATOM      3  C   UNL     1     -15.191  -5.966  30.602  1.00  0.00     0.010 A 
ATOM      4  C   UNL     1     -15.664  -7.369  28.235  1.00  0.00     0.010 A 
ATOM      5  C   UNL     1     -14.912  -5.373  29.371  1.00  0.00     0.001 A 
ATOM      6  C   UNL     1     -15.137  -6.078  28.190  1.00  0.00     0.001 A 
ENDROOT
BRANCH   1   7
ATOM      7  C   UNL     1     -15.864  -7.884  32.014  1.00  0.00     0.072 C 
ATOM      8  O   UNL     1     -14.878  -8.377  32.623  1.00  0.00    -0.545 OA
ATOM      9  O   UNL     1     -17.102  -7.858  32.646  1.00  0.00    -0.545 OA
ENDBRANCH   1   7
BRANCH   2  10
ATOM     10  C   UNL     1     -16.639  -9.301  29.443  1.00  0.00     0.072 C 
ATOM     11  O   UNL     1     -17.887  -9.381  29.291  1.00  0.00    -0.545 OA
ATOM     12  O   UNL     1     -15.909 -10.466  29.654  1.00  0.00    -0.545 OA
ENDBRANCH   2  10
TORSDOF 2
ENDMDL
