MODEL 1
REMARK VINA RESULT:    19.186      0.000      0.000
REMARK INTER + INTRA:          50.153
REMARK INTER:                  50.592
REMARK INTRA:                  -0.439
REMARK UNBOUND:                -0.439
REMARK SMILES CCCCCCCCCCCCCCCCCCCCCCCCCCCCCC(=O)[O-]
REMARK SMILES IDX 16 1 17 2 18 3 19 4 20 5 21 6 22 7 23 8 24 9 25 10 26 11
REMARK SMILES IDX 27 12 28 13 29 14 30 15 31 16 32 17 15 18 14 19 13 20 12 21
REMARK SMILES IDX 11 22 10 23 9 24 8 25 7 26 6 27 5 28 4 29 3 30 2 31 1 32
REMARK H PARENT
REMARK Flexibility Score: inf
ROOT
ATOM      1  C   UNL     1      -2.729  16.272  -9.909  1.00  0.00     0.000 C 
ENDROOT
BRANCH   1   2
ATOM      2  C   UNL     1      -3.704  17.112 -10.754  1.00  0.00     0.000 C 
BRANCH   2   3
ATOM      3  C   UNL     1      -3.122  18.482 -11.141  1.00  0.00     0.000 C 
BRANCH   3   4
ATOM      4  C   UNL     1      -4.066  19.644 -10.795  1.00  0.00     0.000 C 
BRANCH   4   5
ATOM      5  C   UNL     1      -5.530  19.188 -10.822  1.00  0.00     0.000 C 
BRANCH   5   6
ATOM      6  C   UNL     1      -6.268  19.772 -12.036  1.00  0.00     0.000 C 
BRANCH   6   7
ATOM      7  C   UNL     1      -6.988  21.097 -11.724  1.00  0.00     0.000 C 
BRANCH   7   8
ATOM      8  C   UNL     1      -6.072  22.241 -11.246  1.00  0.00     0.000 C 
BRANCH   8   9
ATOM      9  C   UNL     1      -4.857  22.458 -12.160  1.00  0.00     0.000 C 
BRANCH   9  10
ATOM     10  C   UNL     1      -3.836  23.398 -11.500  1.00  0.00     0.000 C 
BRANCH  10  11
ATOM     11  C   UNL     1      -4.274  24.873 -11.532  1.00  0.00     0.000 C 
BRANCH  11  12
ATOM     12  C   UNL     1      -3.261  25.861 -10.927  1.00  0.00     0.000 C 
BRANCH  12  13
ATOM     13  C   UNL     1      -3.916  27.171 -10.454  1.00  0.00     0.006 C 
BRANCH  13  14
ATOM     14  C   UNL     1      -5.445  27.060 -10.373  1.00  0.00     0.053 C 
BRANCH  14  15
ATOM     15  C   UNL     1      -6.122  27.844 -11.456  1.00  0.00     0.041 C 
ATOM     16  O   UNL     1      -5.584  28.886 -11.915  1.00  0.00    -0.550 OA
ATOM     17  O   UNL     1      -7.345  27.420 -11.964  1.00  0.00    -0.550 OA
ENDBRANCH  14  15
ENDBRANCH  13  14
ENDBRANCH  12  13
ENDBRANCH  11  12
ENDBRANCH  10  11
ENDBRANCH   9  10
ENDBRANCH   8   9
ENDBRANCH   7   8
ENDBRANCH   6   7
ENDBRANCH   5   6
ENDBRANCH   4   5
ENDBRANCH   3   4
ENDBRANCH   2   3
ENDBRANCH   1   2
BRANCH   1  18
ATOM     18  C   UNL     1      -2.861  14.766 -10.182  1.00  0.00     0.000 C 
BRANCH  18  19
ATOM     19  C   UNL     1      -4.018  14.435 -11.143  1.00  0.00     0.000 C 
BRANCH  19  20
ATOM     20  C   UNL     1      -5.394  14.807 -10.566  1.00  0.00     0.000 C 
BRANCH  20  21
ATOM     21  C   UNL     1      -6.140  15.831 -11.438  1.00  0.00     0.000 C 
BRANCH  21  22
ATOM     22  C   UNL     1      -7.192  15.180 -12.354  1.00  0.00     0.000 C 
BRANCH  22  23
ATOM     23  C   UNL     1      -8.494  15.987 -12.536  1.00  0.00     0.000 C 
BRANCH  23  24
ATOM     24  C   UNL     1      -9.798  15.176 -12.390  1.00  0.00    -0.000 C 
BRANCH  24  25
ATOM     25  C   UNL     1      -9.842  14.226 -11.177  1.00  0.00    -0.000 C 
BRANCH  25  26
ATOM     26  C   UNL     1     -10.418  14.851  -9.893  1.00  0.00    -0.000 C 
BRANCH  26  27
ATOM     27  C   UNL     1      -9.537  15.974  -9.302  1.00  0.00    -0.000 C 
BRANCH  27  28
ATOM     28  C   UNL     1      -9.795  16.190  -7.801  1.00  0.00    -0.000 C 
BRANCH  28  29
ATOM     29  C   UNL     1     -11.166  16.822  -7.518  1.00  0.00    -0.000 C 
BRANCH  29  30
ATOM     30  C   UNL     1     -11.698  16.489  -6.116  1.00  0.00    -0.000 C 
BRANCH  30  31
ATOM     31  C   UNL     1     -12.977  15.647  -6.199  1.00  0.00    -0.003 C 
ATOM     32  C   UNL     1     -12.932  14.476  -5.221  1.00  0.00     0.004 C 
ENDBRANCH  30  31
ENDBRANCH  29  30
ENDBRANCH  28  29
ENDBRANCH  27  28
ENDBRANCH  26  27
ENDBRANCH  25  26
ENDBRANCH  24  25
ENDBRANCH  23  24
ENDBRANCH  22  23
ENDBRANCH  21  22
ENDBRANCH  20  21
ENDBRANCH  19  20
ENDBRANCH  18  19
ENDBRANCH   1  18
TORSDOF 28
ENDMDL
MODEL 2
REMARK VINA RESULT:    19.330      4.509      9.664
REMARK INTER + INTRA:          50.531
REMARK INTER:                  50.188
REMARK INTRA:                   0.343
REMARK UNBOUND:                -0.439
REMARK SMILES CCCCCCCCCCCCCCCCCCCCCCCCCCCCCC(=O)[O-]
REMARK SMILES IDX 16 1 17 2 18 3 19 4 20 5 21 6 22 7 23 8 24 9 25 10 26 11
REMARK SMILES IDX 27 12 28 13 29 14 30 15 31 16 32 17 15 18 14 19 13 20 12 21
REMARK SMILES IDX 11 22 10 23 9 24 8 25 7 26 6 27 5 28 4 29 3 30 2 31 1 32
REMARK H PARENT
REMARK Flexibility Score: inf
ROOT
ATOM      1  C   UNL     1      -2.988  15.929  -9.824  1.00  0.00     0.000 C 
ENDROOT
BRANCH   1   2
ATOM      2  C   UNL     1      -3.011  14.474 -10.328  1.00  0.00     0.000 C 
BRANCH   2   3
ATOM      3  C   UNL     1      -4.438  13.939 -10.525  1.00  0.00     0.000 C 
BRANCH   3   4
ATOM      4  C   UNL     1      -5.248  14.770 -11.533  1.00  0.00     0.000 C 
BRANCH   4   5
ATOM      5  C   UNL     1      -5.885  15.987 -10.852  1.00  0.00     0.000 C 
BRANCH   5   6
ATOM      6  C   UNL     1      -7.046  16.544 -11.691  1.00  0.00     0.000 C 
BRANCH   6   7
ATOM      7  C   UNL     1      -7.970  15.445 -12.246  1.00  0.00     0.000 C 
BRANCH   7   8
ATOM      8  C   UNL     1      -9.453  15.845 -12.379  1.00  0.00     0.000 C 
BRANCH   8   9
ATOM      9  C   UNL     1     -10.415  14.764 -11.866  1.00  0.00     0.000 C 
BRANCH   9  10
ATOM     10  C   UNL     1     -10.030  14.316 -10.448  1.00  0.00     0.000 C 
BRANCH  10  11
ATOM     11  C   UNL     1      -9.955  15.486  -9.451  1.00  0.00     0.000 C 
BRANCH  11  12
ATOM     12  C   UNL     1     -10.970  15.417  -8.296  1.00  0.00     0.000 C 
BRANCH  12  13
ATOM     13  C   UNL     1     -10.998  16.703  -7.450  1.00  0.00     0.006 C 
BRANCH  13  14
ATOM     14  C   UNL     1     -11.531  16.454  -6.032  1.00  0.00     0.053 C 
BRANCH  14  15
ATOM     15  C   UNL     1     -12.793  15.646  -6.042  1.00  0.00     0.041 C 
ATOM     16  O   UNL     1     -12.947  14.701  -5.222  1.00  0.00    -0.550 OA
ATOM     17  O   UNL     1     -13.804  15.939  -6.950  1.00  0.00    -0.550 OA
ENDBRANCH  14  15
ENDBRANCH  13  14
ENDBRANCH  12  13
ENDBRANCH  11  12
ENDBRANCH  10  11
ENDBRANCH   9  10
ENDBRANCH   8   9
ENDBRANCH   7   8
ENDBRANCH   6   7
ENDBRANCH   5   6
ENDBRANCH   4   5
ENDBRANCH   3   4
ENDBRANCH   2   3
ENDBRANCH   1   2
BRANCH   1  18
ATOM     18  C   UNL     1      -3.348  16.938 -10.926  1.00  0.00     0.000 C 
BRANCH  18  19
ATOM     19  C   UNL     1      -2.972  18.384 -10.554  1.00  0.00     0.000 C 
BRANCH  19  20
ATOM     20  C   UNL     1      -3.902  19.424 -11.202  1.00  0.00     0.000 C 
BRANCH  20  21
ATOM     21  C   UNL     1      -3.823  20.795 -10.510  1.00  0.00     0.000 C 
BRANCH  21  22
ATOM     22  C   UNL     1      -4.608  21.887 -11.258  1.00  0.00     0.000 C 
BRANCH  22  23
ATOM     23  C   UNL     1      -6.131  21.658 -11.347  1.00  0.00     0.000 C 
BRANCH  23  24
ATOM     24  C   UNL     1      -6.560  20.285 -11.902  1.00  0.00    -0.000 C 
BRANCH  24  25
ATOM     25  C   UNL     1      -7.306  20.331 -13.250  1.00  0.00    -0.000 C 
BRANCH  25  26
ATOM     26  C   UNL     1      -6.572  21.098 -14.365  1.00  0.00    -0.000 C 
BRANCH  26  27
ATOM     27  C   UNL     1      -6.786  20.497 -15.772  1.00  0.00    -0.000 C 
BRANCH  27  28
ATOM     28  C   UNL     1      -5.481  20.440 -16.586  1.00  0.00    -0.000 C 
BRANCH  28  29
ATOM     29  C   UNL     1      -5.658  19.753 -17.948  1.00  0.00    -0.000 C 
BRANCH  29  30
ATOM     30  C   UNL     1      -5.396  18.240 -17.891  1.00  0.00    -0.000 C 
BRANCH  30  31
ATOM     31  C   UNL     1      -6.298  17.489 -18.878  1.00  0.00    -0.003 C 
ATOM     32  C   UNL     1      -7.326  16.632 -18.144  1.00  0.00     0.004 C 
ENDBRANCH  30  31
ENDBRANCH  29  30
ENDBRANCH  28  29
ENDBRANCH  27  28
ENDBRANCH  26  27
ENDBRANCH  25  26
ENDBRANCH  24  25
ENDBRANCH  23  24
ENDBRANCH  22  23
ENDBRANCH  21  22
ENDBRANCH  20  21
ENDBRANCH  19  20
ENDBRANCH  18  19
ENDBRANCH   1  18
TORSDOF 28
ENDMDL
MODEL 3
REMARK VINA RESULT:    19.533      3.996      5.528
REMARK INTER + INTRA:          51.068
REMARK INTER:                  51.218
REMARK INTRA:                  -0.150
REMARK UNBOUND:                -0.439
REMARK SMILES CCCCCCCCCCCCCCCCCCCCCCCCCCCCCC(=O)[O-]
REMARK SMILES IDX 16 1 17 2 18 3 19 4 20 5 21 6 22 7 23 8 24 9 25 10 26 11
REMARK SMILES IDX 27 12 28 13 29 14 30 15 31 16 32 17 15 18 14 19 13 20 12 21
REMARK SMILES IDX 11 22 10 23 9 24 8 25 7 26 6 27 5 28 4 29 3 30 2 31 1 32
REMARK H PARENT
REMARK Flexibility Score: inf
ROOT
ATOM      1  C   UNL     1      -3.530  17.028 -11.034  1.00  0.00     0.000 C 
ENDROOT
BRANCH   1   2
ATOM      2  C   UNL     1      -3.106  18.480 -10.749  1.00  0.00     0.000 C 
BRANCH   2   3
ATOM      3  C   UNL     1      -4.258  19.480 -10.939  1.00  0.00     0.000 C 
BRANCH   3   4
ATOM      4  C   UNL     1      -3.827  20.934 -10.684  1.00  0.00     0.000 C 
BRANCH   4   5
ATOM      5  C   UNL     1      -4.819  21.917 -11.317  1.00  0.00     0.000 C 
BRANCH   5   6
ATOM      6  C   UNL     1      -6.256  21.381 -11.233  1.00  0.00     0.000 C 
BRANCH   6   7
ATOM      7  C   UNL     1      -6.438  20.031 -11.950  1.00  0.00     0.000 C 
BRANCH   7   8
ATOM      8  C   UNL     1      -6.935  20.126 -13.406  1.00  0.00     0.000 C 
BRANCH   8   9
ATOM      9  C   UNL     1      -6.947  21.565 -13.943  1.00  0.00     0.000 C 
BRANCH   9  10
ATOM     10  C   UNL     1      -6.289  21.637 -15.330  1.00  0.00     0.000 C 
BRANCH  10  11
ATOM     11  C   UNL     1      -6.257  20.276 -16.048  1.00  0.00     0.000 C 
BRANCH  11  12
ATOM     12  C   UNL     1      -5.163  20.137 -17.121  1.00  0.00     0.000 C 
BRANCH  12  13
ATOM     13  C   UNL     1      -5.585  19.224 -18.286  1.00  0.00     0.006 C 
BRANCH  13  14
ATOM     14  C   UNL     1      -6.942  18.552 -18.037  1.00  0.00     0.053 C 
BRANCH  14  15
ATOM     15  C   UNL     1      -6.837  17.056 -18.044  1.00  0.00     0.041 C 
ATOM     16  O   UNL     1      -5.920  16.482 -17.398  1.00  0.00    -0.550 OA
ATOM     17  O   UNL     1      -7.755  16.296 -18.759  1.00  0.00    -0.550 OA
ENDBRANCH  14  15
ENDBRANCH  13  14
ENDBRANCH  12  13
ENDBRANCH  11  12
ENDBRANCH  10  11
ENDBRANCH   9  10
ENDBRANCH   8   9
ENDBRANCH   7   8
ENDBRANCH   6   7
ENDBRANCH   5   6
ENDBRANCH   4   5
ENDBRANCH   3   4
ENDBRANCH   2   3
ENDBRANCH   1   2
BRANCH   1  18
ATOM     18  C   UNL     1      -2.985  16.040  -9.990  1.00  0.00     0.000 C 
BRANCH  18  19
ATOM     19  C   UNL     1      -3.730  14.693  -9.999  1.00  0.00     0.000 C 
BRANCH  19  20
ATOM     20  C   UNL     1      -4.779  14.602 -11.120  1.00  0.00     0.000 C 
BRANCH  20  21
ATOM     21  C   UNL     1      -5.890  15.655 -10.971  1.00  0.00     0.000 C 
BRANCH  21  22
ATOM     22  C   UNL     1      -6.478  16.099 -12.323  1.00  0.00     0.000 C 
BRANCH  22  23
ATOM     23  C   UNL     1      -8.016  16.206 -12.367  1.00  0.00     0.000 C 
BRANCH  23  24
ATOM     24  C   UNL     1      -8.761  14.888 -12.662  1.00  0.00    -0.000 C 
BRANCH  24  25
ATOM     25  C   UNL     1     -10.097  14.714 -11.914  1.00  0.00    -0.000 C 
BRANCH  25  26
ATOM     26  C   UNL     1      -9.986  13.991 -10.560  1.00  0.00    -0.000 C 
BRANCH  26  27
ATOM     27  C   UNL     1     -10.979  14.512  -9.497  1.00  0.00    -0.000 C 
BRANCH  27  28
ATOM     28  C   UNL     1     -10.545  15.866  -8.909  1.00  0.00    -0.000 C 
BRANCH  28  29
ATOM     29  C   UNL     1     -11.008  16.061  -7.457  1.00  0.00    -0.000 C 
BRANCH  29  30
ATOM     30  C   UNL     1     -12.537  16.087  -7.317  1.00  0.00    -0.000 C 
BRANCH  30  31
ATOM     31  C   UNL     1     -12.953  16.110  -5.841  1.00  0.00    -0.003 C 
ATOM     32  C   UNL     1     -12.900  14.711  -5.231  1.00  0.00     0.004 C 
ENDBRANCH  30  31
ENDBRANCH  29  30
ENDBRANCH  28  29
ENDBRANCH  27  28
ENDBRANCH  26  27
ENDBRANCH  25  26
ENDBRANCH  24  25
ENDBRANCH  23  24
ENDBRANCH  22  23
ENDBRANCH  21  22
ENDBRANCH  20  21
ENDBRANCH  19  20
ENDBRANCH  18  19
ENDBRANCH   1  18
TORSDOF 28
ENDMDL
MODEL 4
REMARK VINA RESULT:    20.199      1.237      2.202
REMARK INTER + INTRA:          52.823
REMARK INTER:                  51.368
REMARK INTRA:                   1.455
REMARK UNBOUND:                -0.439
REMARK SMILES CCCCCCCCCCCCCCCCCCCCCCCCCCCCCC(=O)[O-]
REMARK SMILES IDX 16 1 17 2 18 3 19 4 20 5 21 6 22 7 23 8 24 9 25 10 26 11
REMARK SMILES IDX 27 12 28 13 29 14 30 15 31 16 32 17 15 18 14 19 13 20 12 21
REMARK SMILES IDX 11 22 10 23 9 24 8 25 7 26 6 27 5 28 4 29 3 30 2 31 1 32
REMARK H PARENT
REMARK Flexibility Score: inf
ROOT
ATOM      1  C   UNL     1      -3.764  19.293 -10.764  1.00  0.00     0.000 C 
ENDROOT
BRANCH   1   2
ATOM      2  C   UNL     1      -5.129  18.699 -11.156  1.00  0.00     0.000 C 
BRANCH   2   3
ATOM      3  C   UNL     1      -6.306  19.435 -10.495  1.00  0.00     0.000 C 
BRANCH   3   4
ATOM      4  C   UNL     1      -7.104  20.291 -11.491  1.00  0.00     0.000 C 
BRANCH   4   5
ATOM      5  C   UNL     1      -6.998  19.719 -12.910  1.00  0.00     0.000 C 
BRANCH   5   6
ATOM      6  C   UNL     1      -6.746  20.835 -13.937  1.00  0.00     0.000 C 
BRANCH   6   7
ATOM      7  C   UNL     1      -6.519  22.212 -13.287  1.00  0.00     0.000 C 
BRANCH   7   8
ATOM      8  C   UNL     1      -6.053  22.171 -11.818  1.00  0.00     0.000 C 
BRANCH   8   9
ATOM      9  C   UNL     1      -4.667  22.797 -11.610  1.00  0.00     0.000 C 
BRANCH   9  10
ATOM     10  C   UNL     1      -4.768  24.324 -11.480  1.00  0.00     0.000 C 
BRANCH  10  11
ATOM     11  C   UNL     1      -3.468  25.045 -11.880  1.00  0.00     0.000 C 
BRANCH  11  12
ATOM     12  C   UNL     1      -3.187  26.345 -11.107  1.00  0.00     0.000 C 
BRANCH  12  13
ATOM     13  C   UNL     1      -4.126  26.536  -9.902  1.00  0.00     0.006 C 
BRANCH  13  14
ATOM     14  C   UNL     1      -4.924  27.844  -9.988  1.00  0.00     0.053 C 
BRANCH  14  15
ATOM     15  C   UNL     1      -5.729  27.928 -11.250  1.00  0.00     0.041 C 
ATOM     16  O   UNL     1      -5.471  28.813 -12.109  1.00  0.00    -0.550 OA
ATOM     17  O   UNL     1      -6.760  27.025 -11.481  1.00  0.00    -0.550 OA
ENDBRANCH  14  15
ENDBRANCH  13  14
ENDBRANCH  12  13
ENDBRANCH  11  12
ENDBRANCH  10  11
ENDBRANCH   9  10
ENDBRANCH   8   9
ENDBRANCH   7   8
ENDBRANCH   6   7
ENDBRANCH   5   6
ENDBRANCH   4   5
ENDBRANCH   3   4
ENDBRANCH   2   3
ENDBRANCH   1   2
BRANCH   1  18
ATOM     18  C   UNL     1      -2.728  18.210 -10.421  1.00  0.00     0.000 C 
BRANCH  18  19
ATOM     19  C   UNL     1      -3.157  16.807 -10.889  1.00  0.00     0.000 C 
BRANCH  19  20
ATOM     20  C   UNL     1      -2.513  15.683 -10.061  1.00  0.00     0.000 C 
BRANCH  20  21
ATOM     21  C   UNL     1      -3.309  14.369 -10.133  1.00  0.00     0.000 C 
BRANCH  21  22
ATOM     22  C   UNL     1      -4.679  14.539 -10.816  1.00  0.00     0.000 C 
BRANCH  22  23
ATOM     23  C   UNL     1      -5.499  15.759 -10.351  1.00  0.00     0.000 C 
BRANCH  23  24
ATOM     24  C   UNL     1      -6.904  15.887 -10.975  1.00  0.00    -0.000 C 
BRANCH  24  25
ATOM     25  C   UNL     1      -7.972  16.508 -10.054  1.00  0.00    -0.000 C 
BRANCH  25  26
ATOM     26  C   UNL     1      -8.418  15.606  -8.888  1.00  0.00    -0.000 C 
BRANCH  26  27
ATOM     27  C   UNL     1      -8.887  16.392  -7.643  1.00  0.00    -0.000 C 
BRANCH  27  28
ATOM     28  C   UNL     1     -10.253  17.066  -7.860  1.00  0.00    -0.000 C 
BRANCH  28  29
ATOM     29  C   UNL     1     -11.222  16.837  -6.691  1.00  0.00    -0.000 C 
BRANCH  29  30
ATOM     30  C   UNL     1     -12.438  15.984  -7.082  1.00  0.00    -0.000 C 
BRANCH  30  31
ATOM     31  C   UNL     1     -13.296  15.654  -5.855  1.00  0.00    -0.003 C 
ATOM     32  C   UNL     1     -12.767  14.421  -5.127  1.00  0.00     0.004 C 
ENDBRANCH  30  31
ENDBRANCH  29  30
ENDBRANCH  28  29
ENDBRANCH  27  28
ENDBRANCH  26  27
ENDBRANCH  25  26
ENDBRANCH  24  25
ENDBRANCH  23  24
ENDBRANCH  22  23
ENDBRANCH  21  22
ENDBRANCH  20  21
ENDBRANCH  19  20
ENDBRANCH  18  19
ENDBRANCH   1  18
TORSDOF 28
ENDMDL
MODEL 5
REMARK VINA RESULT:    20.343      3.877     10.239
REMARK INTER + INTRA:          53.203
REMARK INTER:                  51.709
REMARK INTRA:                   1.493
REMARK UNBOUND:                -0.439
REMARK SMILES CCCCCCCCCCCCCCCCCCCCCCCCCCCCCC(=O)[O-]
REMARK SMILES IDX 16 1 17 2 18 3 19 4 20 5 21 6 22 7 23 8 24 9 25 10 26 11
REMARK SMILES IDX 27 12 28 13 29 14 30 15 31 16 32 17 15 18 14 19 13 20 12 21
REMARK SMILES IDX 11 22 10 23 9 24 8 25 7 26 6 27 5 28 4 29 3 30 2 31 1 32
REMARK H PARENT
REMARK Flexibility Score: inf
ROOT
ATOM      1  C   UNL     1      -3.900  17.569 -10.390  1.00  0.00     0.000 C 
ENDROOT
BRANCH   1   2
ATOM      2  C   UNL     1      -3.051  16.356 -10.811  1.00  0.00     0.000 C 
BRANCH   2   3
ATOM      3  C   UNL     1      -3.075  15.227  -9.768  1.00  0.00     0.000 C 
BRANCH   3   4
ATOM      4  C   UNL     1      -4.142  14.163 -10.073  1.00  0.00     0.000 C 
BRANCH   4   5
ATOM      5  C   UNL     1      -4.729  14.363 -11.475  1.00  0.00     0.000 C 
BRANCH   5   6
ATOM      6  C   UNL     1      -5.682  15.569 -11.508  1.00  0.00     0.000 C 
BRANCH   6   7
ATOM      7  C   UNL     1      -6.934  15.325 -12.368  1.00  0.00     0.000 C 
BRANCH   7   8
ATOM      8  C   UNL     1      -8.277  15.542 -11.643  1.00  0.00     0.000 C 
BRANCH   8   9
ATOM      9  C   UNL     1      -9.308  14.445 -11.948  1.00  0.00     0.000 C 
BRANCH   9  10
ATOM     10  C   UNL     1     -10.604  14.677 -11.158  1.00  0.00     0.000 C 
BRANCH  10  11
ATOM     11  C   UNL     1     -10.558  15.950 -10.293  1.00  0.00     0.000 C 
BRANCH  11  12
ATOM     12  C   UNL     1     -10.397  15.700  -8.784  1.00  0.00     0.000 C 
BRANCH  12  13
ATOM     13  C   UNL     1     -11.336  16.574  -7.932  1.00  0.00     0.006 C 
BRANCH  13  14
ATOM     14  C   UNL     1     -11.385  16.118  -6.467  1.00  0.00     0.053 C 
BRANCH  14  15
ATOM     15  C   UNL     1     -12.768  15.716  -6.052  1.00  0.00     0.041 C 
ATOM     16  O   UNL     1     -12.960  15.169  -4.933  1.00  0.00    -0.550 OA
ATOM     17  O   UNL     1     -13.847  15.952  -6.896  1.00  0.00    -0.550 OA
ENDBRANCH  14  15
ENDBRANCH  13  14
ENDBRANCH  12  13
ENDBRANCH  11  12
ENDBRANCH  10  11
ENDBRANCH   9  10
ENDBRANCH   8   9
ENDBRANCH   7   8
ENDBRANCH   6   7
ENDBRANCH   5   6
ENDBRANCH   4   5
ENDBRANCH   3   4
ENDBRANCH   2   3
ENDBRANCH   1   2
BRANCH   1  18
ATOM     18  C   UNL     1      -3.411  18.879 -11.027  1.00  0.00     0.000 C 
BRANCH  18  19
ATOM     19  C   UNL     1      -4.525  19.936 -11.147  1.00  0.00     0.000 C 
BRANCH  19  20
ATOM     20  C   UNL     1      -5.897  19.404 -10.698  1.00  0.00     0.000 C 
BRANCH  20  21
ATOM     21  C   UNL     1      -6.886  19.271 -11.868  1.00  0.00     0.000 C 
BRANCH  21  22
ATOM     22  C   UNL     1      -6.535  20.189 -13.054  1.00  0.00     0.000 C 
BRANCH  22  23
ATOM     23  C   UNL     1      -6.688  21.700 -12.784  1.00  0.00     0.000 C 
BRANCH  23  24
ATOM     24  C   UNL     1      -5.970  22.221 -11.523  1.00  0.00    -0.000 C 
BRANCH  24  25
ATOM     25  C   UNL     1      -4.669  23.003 -11.791  1.00  0.00    -0.000 C 
BRANCH  25  26
ATOM     26  C   UNL     1      -4.784  24.526 -11.601  1.00  0.00    -0.000 C 
BRANCH  26  27
ATOM     27  C   UNL     1      -3.418  25.238 -11.474  1.00  0.00    -0.000 C 
BRANCH  27  28
ATOM     28  C   UNL     1      -3.548  26.642 -10.857  1.00  0.00    -0.000 C 
BRANCH  28  29
ATOM     29  C   UNL     1      -4.928  26.891 -10.229  1.00  0.00    -0.000 C 
BRANCH  29  30
ATOM     30  C   UNL     1      -5.948  27.450 -11.233  1.00  0.00    -0.000 C 
BRANCH  30  31
ATOM     31  C   UNL     1      -5.343  28.599 -12.048  1.00  0.00    -0.003 C 
ATOM     32  C   UNL     1      -6.329  29.756 -12.185  1.00  0.00     0.004 C 
ENDBRANCH  30  31
ENDBRANCH  29  30
ENDBRANCH  28  29
ENDBRANCH  27  28
ENDBRANCH  26  27
ENDBRANCH  25  26
ENDBRANCH  24  25
ENDBRANCH  23  24
ENDBRANCH  22  23
ENDBRANCH  21  22
ENDBRANCH  20  21
ENDBRANCH  19  20
ENDBRANCH  18  19
ENDBRANCH   1  18
TORSDOF 28
ENDMDL
MODEL 6
REMARK VINA RESULT:    20.358      3.616      4.877
REMARK INTER + INTRA:          53.241
REMARK INTER:                  54.362
REMARK INTRA:                  -1.121
REMARK UNBOUND:                -0.439
REMARK SMILES CCCCCCCCCCCCCCCCCCCCCCCCCCCCCC(=O)[O-]
REMARK SMILES IDX 16 1 17 2 18 3 19 4 20 5 21 6 22 7 23 8 24 9 25 10 26 11
REMARK SMILES IDX 27 12 28 13 29 14 30 15 31 16 32 17 15 18 14 19 13 20 12 21
REMARK SMILES IDX 11 22 10 23 9 24 8 25 7 26 6 27 5 28 4 29 3 30 2 31 1 32
REMARK H PARENT
REMARK Flexibility Score: inf
ROOT
ATOM      1  C   UNL     1      -4.480  14.167 -10.856  1.00  0.00     0.000 C 
ENDROOT
BRANCH   1   2
ATOM      2  C   UNL     1      -3.045  14.588 -10.492  1.00  0.00     0.000 C 
BRANCH   2   3
ATOM      3  C   UNL     1      -2.968  16.030  -9.963  1.00  0.00     0.000 C 
BRANCH   3   4
ATOM      4  C   UNL     1      -3.843  17.003 -10.769  1.00  0.00     0.000 C 
BRANCH   4   5
ATOM      5  C   UNL     1      -3.117  18.335 -10.994  1.00  0.00     0.000 C 
BRANCH   5   6
ATOM      6  C   UNL     1      -4.100  19.514 -10.952  1.00  0.00     0.000 C 
BRANCH   6   7
ATOM      7  C   UNL     1      -5.556  19.077 -10.712  1.00  0.00     0.000 C 
BRANCH   7   8
ATOM      8  C   UNL     1      -6.608  19.805 -11.572  1.00  0.00     0.000 C 
BRANCH   8   9
ATOM      9  C   UNL     1      -6.419  21.329 -11.589  1.00  0.00     0.000 C 
BRANCH   9  10
ATOM     10  C   UNL     1      -5.939  21.806 -12.968  1.00  0.00     0.000 C 
BRANCH  10  11
ATOM     11  C   UNL     1      -7.099  22.183 -13.907  1.00  0.00     0.000 C 
BRANCH  11  12
ATOM     12  C   UNL     1      -6.883  21.805 -15.383  1.00  0.00     0.000 C 
BRANCH  12  13
ATOM     13  C   UNL     1      -6.235  20.420 -15.554  1.00  0.00     0.006 C 
BRANCH  13  14
ATOM     14  C   UNL     1      -5.274  20.371 -16.751  1.00  0.00     0.053 C 
BRANCH  14  15
ATOM     15  C   UNL     1      -5.619  19.265 -17.702  1.00  0.00     0.041 C 
ATOM     16  O   UNL     1      -4.748  18.414 -18.027  1.00  0.00    -0.550 OA
ATOM     17  O   UNL     1      -6.904  19.167 -18.223  1.00  0.00    -0.550 OA
ENDBRANCH  14  15
ENDBRANCH  13  14
ENDBRANCH  12  13
ENDBRANCH  11  12
ENDBRANCH  10  11
ENDBRANCH   9  10
ENDBRANCH   8   9
ENDBRANCH   7   8
ENDBRANCH   6   7
ENDBRANCH   5   6
ENDBRANCH   4   5
ENDBRANCH   3   4
ENDBRANCH   2   3
ENDBRANCH   1   2
BRANCH   1  18
ATOM     18  C   UNL     1      -5.401  15.372 -11.107  1.00  0.00     0.000 C 
BRANCH  18  19
ATOM     19  C   UNL     1      -6.404  15.127 -12.249  1.00  0.00     0.000 C 
BRANCH  19  20
ATOM     20  C   UNL     1      -7.434  16.261 -12.388  1.00  0.00     0.000 C 
BRANCH  20  21
ATOM     21  C   UNL     1      -8.787  15.764 -12.920  1.00  0.00     0.000 C 
BRANCH  21  22
ATOM     22  C   UNL     1      -9.917  15.878 -11.880  1.00  0.00     0.000 C 
BRANCH  22  23
ATOM     23  C   UNL     1     -10.305  14.557 -11.184  1.00  0.00     0.000 C 
BRANCH  23  24
ATOM     24  C   UNL     1     -10.245  14.581  -9.643  1.00  0.00    -0.000 C 
BRANCH  24  25
ATOM     25  C   UNL     1      -9.045  15.344  -9.050  1.00  0.00    -0.000 C 
BRANCH  25  26
ATOM     26  C   UNL     1      -9.419  16.468  -8.067  1.00  0.00    -0.000 C 
BRANCH  26  27
ATOM     27  C   UNL     1     -10.936  16.565  -7.787  1.00  0.00    -0.000 C 
BRANCH  27  28
ATOM     28  C   UNL     1     -11.236  17.168  -6.404  1.00  0.00    -0.000 C 
BRANCH  28  29
ATOM     29  C   UNL     1     -12.523  16.611  -5.778  1.00  0.00    -0.000 C 
BRANCH  29  30
ATOM     30  C   UNL     1     -13.164  15.499  -6.621  1.00  0.00    -0.000 C 
BRANCH  30  31
ATOM     31  C   UNL     1     -12.736  14.114  -6.122  1.00  0.00    -0.003 C 
ATOM     32  C   UNL     1     -13.205  13.875  -4.689  1.00  0.00     0.004 C 
ENDBRANCH  30  31
ENDBRANCH  29  30
ENDBRANCH  28  29
ENDBRANCH  27  28
ENDBRANCH  26  27
ENDBRANCH  25  26
ENDBRANCH  24  25
ENDBRANCH  23  24
ENDBRANCH  22  23
ENDBRANCH  21  22
ENDBRANCH  20  21
ENDBRANCH  19  20
ENDBRANCH  18  19
ENDBRANCH   1  18
TORSDOF 28
ENDMDL
MODEL 7
REMARK VINA RESULT:    20.456      3.758     10.303
REMARK INTER + INTRA:          53.500
REMARK INTER:                  52.659
REMARK INTRA:                   0.841
REMARK UNBOUND:                -0.439
REMARK SMILES CCCCCCCCCCCCCCCCCCCCCCCCCCCCCC(=O)[O-]
REMARK SMILES IDX 16 1 17 2 18 3 19 4 20 5 21 6 22 7 23 8 24 9 25 10 26 11
REMARK SMILES IDX 27 12 28 13 29 14 30 15 31 16 32 17 15 18 14 19 13 20 12 21
REMARK SMILES IDX 11 22 10 23 9 24 8 25 7 26 6 27 5 28 4 29 3 30 2 31 1 32
REMARK H PARENT
REMARK Flexibility Score: inf
ROOT
ATOM      1  C   UNL     1      -4.235  19.472 -10.993  1.00  0.00     0.000 C 
ENDROOT
BRANCH   1   2
ATOM      2  C   UNL     1      -3.019  18.535 -10.879  1.00  0.00     0.000 C 
BRANCH   2   3
ATOM      3  C   UNL     1      -3.416  17.050 -10.870  1.00  0.00     0.000 C 
BRANCH   3   4
ATOM      4  C   UNL     1      -2.693  16.250  -9.774  1.00  0.00     0.000 C 
BRANCH   4   5
ATOM      5  C   UNL     1      -2.410  14.817 -10.239  1.00  0.00     0.000 C 
BRANCH   5   6
ATOM      6  C   UNL     1      -3.702  14.116 -10.685  1.00  0.00     0.000 C 
BRANCH   6   7
ATOM      7  C   UNL     1      -4.784  15.097 -11.170  1.00  0.00     0.000 C 
BRANCH   7   8
ATOM      8  C   UNL     1      -6.055  15.150 -10.299  1.00  0.00     0.000 C 
BRANCH   8   9
ATOM      9  C   UNL     1      -7.062  16.208 -10.770  1.00  0.00     0.000 C 
BRANCH   9  10
ATOM     10  C   UNL     1      -8.190  16.387  -9.742  1.00  0.00     0.000 C 
BRANCH  10  11
ATOM     11  C   UNL     1      -7.822  15.843  -8.349  1.00  0.00     0.000 C 
BRANCH  11  12
ATOM     12  C   UNL     1      -8.876  16.097  -7.258  1.00  0.00     0.000 C 
BRANCH  12  13
ATOM     13  C   UNL     1      -9.852  17.229  -7.625  1.00  0.00     0.006 C 
BRANCH  13  14
ATOM     14  C   UNL     1     -11.295  16.728  -7.775  1.00  0.00     0.053 C 
BRANCH  14  15
ATOM     15  C   UNL     1     -11.869  16.272  -6.468  1.00  0.00     0.041 C 
ATOM     16  O   UNL     1     -11.513  16.824  -5.392  1.00  0.00    -0.550 OA
ATOM     17  O   UNL     1     -12.803  15.243  -6.436  1.00  0.00    -0.550 OA
ENDBRANCH  14  15
ENDBRANCH  13  14
ENDBRANCH  12  13
ENDBRANCH  11  12
ENDBRANCH  10  11
ENDBRANCH   9  10
ENDBRANCH   8   9
ENDBRANCH   7   8
ENDBRANCH   6   7
ENDBRANCH   5   6
ENDBRANCH   4   5
ENDBRANCH   3   4
ENDBRANCH   2   3
ENDBRANCH   1   2
BRANCH   1  18
ATOM     18  C   UNL     1      -5.568  18.733 -10.798  1.00  0.00     0.000 C 
BRANCH  18  19
ATOM     19  C   UNL     1      -6.782  19.566 -11.248  1.00  0.00     0.000 C 
BRANCH  19  20
ATOM     20  C   UNL     1      -6.760  19.881 -12.753  1.00  0.00     0.000 C 
BRANCH  20  21
ATOM     21  C   UNL     1      -6.511  21.372 -13.038  1.00  0.00     0.000 C 
BRANCH  21  22
ATOM     22  C   UNL     1      -6.335  22.203 -11.754  1.00  0.00     0.000 C 
BRANCH  22  23
ATOM     23  C   UNL     1      -4.884  22.332 -11.247  1.00  0.00     0.000 C 
BRANCH  23  24
ATOM     24  C   UNL     1      -4.079  23.505 -11.843  1.00  0.00    -0.000 C 
BRANCH  24  25
ATOM     25  C   UNL     1      -4.630  24.906 -11.515  1.00  0.00    -0.000 C 
BRANCH  25  26
ATOM     26  C   UNL     1      -3.560  25.945 -11.135  1.00  0.00    -0.000 C 
BRANCH  26  27
ATOM     27  C   UNL     1      -4.112  27.127 -10.307  1.00  0.00    -0.000 C 
BRANCH  27  28
ATOM     28  C   UNL     1      -5.567  26.898  -9.862  1.00  0.00    -0.000 C 
BRANCH  28  29
ATOM     29  C   UNL     1      -6.591  27.461 -10.859  1.00  0.00    -0.000 C 
BRANCH  29  30
ATOM     30  C   UNL     1      -5.934  28.083 -12.101  1.00  0.00    -0.000 C 
BRANCH  30  31
ATOM     31  C   UNL     1      -6.159  29.600 -12.140  1.00  0.00    -0.003 C 
ATOM     32  C   UNL     1      -4.832  30.354 -12.172  1.00  0.00     0.004 C 
ENDBRANCH  30  31
ENDBRANCH  29  30
ENDBRANCH  28  29
ENDBRANCH  27  28
ENDBRANCH  26  27
ENDBRANCH  25  26
ENDBRANCH  24  25
ENDBRANCH  23  24
ENDBRANCH  22  23
ENDBRANCH  21  22
ENDBRANCH  20  21
ENDBRANCH  19  20
ENDBRANCH  18  19
ENDBRANCH   1  18
TORSDOF 28
ENDMDL
MODEL 8
REMARK VINA RESULT:    20.895      4.290      5.303
REMARK INTER + INTRA:          54.658
REMARK INTER:                  53.550
REMARK INTRA:                   1.109
REMARK UNBOUND:                -0.439
REMARK SMILES CCCCCCCCCCCCCCCCCCCCCCCCCCCCCC(=O)[O-]
REMARK SMILES IDX 16 1 17 2 18 3 19 4 20 5 21 6 22 7 23 8 24 9 25 10 26 11
REMARK SMILES IDX 27 12 28 13 29 14 30 15 31 16 32 17 15 18 14 19 13 20 12 21
REMARK SMILES IDX 11 22 10 23 9 24 8 25 7 26 6 27 5 28 4 29 3 30 2 31 1 32
REMARK H PARENT
REMARK Flexibility Score: inf
ROOT
ATOM      1  C   UNL     1      -3.390  19.679 -11.176  1.00  0.00     0.000 C 
ENDROOT
BRANCH   1   2
ATOM      2  C   UNL     1      -3.938  21.003 -10.613  1.00  0.00     0.000 C 
BRANCH   2   3
ATOM      3  C   UNL     1      -5.075  21.585 -11.470  1.00  0.00     0.000 C 
BRANCH   3   4
ATOM      4  C   UNL     1      -6.292  20.649 -11.552  1.00  0.00     0.000 C 
BRANCH   4   5
ATOM      5  C   UNL     1      -6.802  20.541 -12.994  1.00  0.00     0.000 C 
BRANCH   5   6
ATOM      6  C   UNL     1      -6.403  21.778 -13.815  1.00  0.00     0.000 C 
BRANCH   6   7
ATOM      7  C   UNL     1      -7.468  22.184 -14.849  1.00  0.00     0.000 C 
BRANCH   7   8
ATOM      8  C   UNL     1      -7.915  23.657 -14.782  1.00  0.00     0.000 C 
BRANCH   8   9
ATOM      9  C   UNL     1      -9.211  23.927 -15.560  1.00  0.00     0.000 C 
BRANCH   9  10
ATOM     10  C   UNL     1     -10.118  24.902 -14.792  1.00  0.00     0.000 C 
BRANCH  10  11
ATOM     11  C   UNL     1     -11.439  25.195 -15.528  1.00  0.00     0.000 C 
BRANCH  11  12
ATOM     12  C   UNL     1     -11.777  26.688 -15.678  1.00  0.00     0.000 C 
BRANCH  12  13
ATOM     13  C   UNL     1     -12.438  27.016 -17.029  1.00  0.00     0.006 C 
BRANCH  13  14
ATOM     14  C   UNL     1     -13.391  28.216 -16.934  1.00  0.00     0.053 C 
BRANCH  14  15
ATOM     15  C   UNL     1     -14.342  28.087 -15.782  1.00  0.00     0.041 C 
ATOM     16  O   UNL     1     -14.002  28.479 -14.633  1.00  0.00    -0.550 OA
ATOM     17  O   UNL     1     -15.605  27.541 -15.977  1.00  0.00    -0.550 OA
ENDBRANCH  14  15
ENDBRANCH  13  14
ENDBRANCH  12  13
ENDBRANCH  11  12
ENDBRANCH  10  11
ENDBRANCH   9  10
ENDBRANCH   8   9
ENDBRANCH   7   8
ENDBRANCH   6   7
ENDBRANCH   5   6
ENDBRANCH   4   5
ENDBRANCH   3   4
ENDBRANCH   2   3
ENDBRANCH   1   2
BRANCH   1  18
ATOM     18  C   UNL     1      -3.968  18.450 -10.457  1.00  0.00     0.000 C 
BRANCH  18  19
ATOM     19  C   UNL     1      -3.674  17.134 -11.199  1.00  0.00     0.000 C 
BRANCH  19  20
ATOM     20  C   UNL     1      -3.155  16.028 -10.264  1.00  0.00     0.000 C 
BRANCH  20  21
ATOM     21  C   UNL     1      -3.891  14.694 -10.467  1.00  0.00     0.000 C 
BRANCH  21  22
ATOM     22  C   UNL     1      -5.354  14.880 -10.910  1.00  0.00     0.000 C 
BRANCH  22  23
ATOM     23  C   UNL     1      -5.839  16.343 -10.977  1.00  0.00     0.000 C 
BRANCH  23  24
ATOM     24  C   UNL     1      -7.200  16.555 -11.670  1.00  0.00    -0.000 C 
BRANCH  24  25
ATOM     25  C   UNL     1      -8.056  15.283 -11.829  1.00  0.00    -0.000 C 
BRANCH  25  26
ATOM     26  C   UNL     1      -9.576  15.522 -11.796  1.00  0.00    -0.000 C 
BRANCH  26  27
ATOM     27  C   UNL     1     -10.170  15.528 -10.370  1.00  0.00    -0.000 C 
BRANCH  27  28
ATOM     28  C   UNL     1      -9.097  15.758  -9.292  1.00  0.00    -0.000 C 
BRANCH  28  29
ATOM     29  C   UNL     1      -9.645  16.477  -8.050  1.00  0.00    -0.000 C 
BRANCH  29  30
ATOM     30  C   UNL     1     -11.129  16.178  -7.793  1.00  0.00    -0.000 C 
BRANCH  30  31
ATOM     31  C   UNL     1     -11.489  16.407  -6.321  1.00  0.00    -0.003 C 
ATOM     32  C   UNL     1     -12.801  15.715  -5.959  1.00  0.00     0.004 C 
ENDBRANCH  30  31
ENDBRANCH  29  30
ENDBRANCH  28  29
ENDBRANCH  27  28
ENDBRANCH  26  27
ENDBRANCH  25  26
ENDBRANCH  24  25
ENDBRANCH  23  24
ENDBRANCH  22  23
ENDBRANCH  21  22
ENDBRANCH  20  21
ENDBRANCH  19  20
ENDBRANCH  18  19
ENDBRANCH   1  18
TORSDOF 28
ENDMDL
MODEL 9
REMARK VINA RESULT:    20.908      2.039      3.681
REMARK INTER + INTRA:          54.692
REMARK INTER:                  54.607
REMARK INTRA:                   0.086
REMARK UNBOUND:                -0.439
REMARK SMILES CCCCCCCCCCCCCCCCCCCCCCCCCCCCCC(=O)[O-]
REMARK SMILES IDX 16 1 17 2 18 3 19 4 20 5 21 6 22 7 23 8 24 9 25 10 26 11
REMARK SMILES IDX 27 12 28 13 29 14 30 15 31 16 32 17 15 18 14 19 13 20 12 21
REMARK SMILES IDX 11 22 10 23 9 24 8 25 7 26 6 27 5 28 4 29 3 30 2 31 1 32
REMARK H PARENT
REMARK Flexibility Score: inf
ROOT
ATOM      1  C   UNL     1      -4.057  19.703 -10.807  1.00  0.00     0.000 C 
ENDROOT
BRANCH   1   2
ATOM      2  C   UNL     1      -5.408  19.062 -11.173  1.00  0.00     0.000 C 
BRANCH   2   3
ATOM      3  C   UNL     1      -6.559  20.082 -11.197  1.00  0.00     0.000 C 
BRANCH   3   4
ATOM      4  C   UNL     1      -6.194  21.368 -11.955  1.00  0.00     0.000 C 
BRANCH   4   5
ATOM      5  C   UNL     1      -4.972  22.047 -11.324  1.00  0.00     0.000 C 
BRANCH   5   6
ATOM      6  C   UNL     1      -5.086  23.577 -11.409  1.00  0.00     0.000 C 
BRANCH   6   7
ATOM      7  C   UNL     1      -3.718  24.280 -11.477  1.00  0.00     0.000 C 
BRANCH   7   8
ATOM      8  C   UNL     1      -3.766  25.762 -11.896  1.00  0.00     0.000 C 
BRANCH   8   9
ATOM      9  C   UNL     1      -4.332  26.678 -10.802  1.00  0.00     0.000 C 
BRANCH   9  10
ATOM     10  C   UNL     1      -5.817  26.981 -11.055  1.00  0.00     0.000 C 
BRANCH  10  11
ATOM     11  C   UNL     1      -6.043  28.355 -11.713  1.00  0.00     0.000 C 
BRANCH  11  12
ATOM     12  C   UNL     1      -4.778  29.219 -11.853  1.00  0.00     0.000 C 
BRANCH  12  13
ATOM     13  C   UNL     1      -5.061  30.587 -12.501  1.00  0.00     0.006 C 
BRANCH  13  14
ATOM     14  C   UNL     1      -3.825  31.497 -12.500  1.00  0.00     0.053 C 
BRANCH  14  15
ATOM     15  C   UNL     1      -3.494  31.994 -13.875  1.00  0.00     0.041 C 
ATOM     16  O   UNL     1      -4.134  31.569 -14.874  1.00  0.00    -0.550 OA
ATOM     17  O   UNL     1      -2.484  32.933 -14.054  1.00  0.00    -0.550 OA
ENDBRANCH  14  15
ENDBRANCH  13  14
ENDBRANCH  12  13
ENDBRANCH  11  12
ENDBRANCH  10  11
ENDBRANCH   9  10
ENDBRANCH   8   9
ENDBRANCH   7   8
ENDBRANCH   6   7
ENDBRANCH   5   6
ENDBRANCH   4   5
ENDBRANCH   3   4
ENDBRANCH   2   3
ENDBRANCH   1   2
BRANCH   1  18
ATOM     18  C   UNL     1      -2.944  18.661 -10.616  1.00  0.00     0.000 C 
BRANCH  18  19
ATOM     19  C   UNL     1      -3.460  17.214 -10.719  1.00  0.00     0.000 C 
BRANCH  19  20
ATOM     20  C   UNL     1      -2.480  16.190 -10.121  1.00  0.00     0.000 C 
BRANCH  20  21
ATOM     21  C   UNL     1      -3.076  14.774 -10.059  1.00  0.00     0.000 C 
BRANCH  21  22
ATOM     22  C   UNL     1      -4.615  14.773 -10.067  1.00  0.00     0.000 C 
BRANCH  22  23
ATOM     23  C   UNL     1      -5.266  14.868 -11.462  1.00  0.00     0.000 C 
BRANCH  23  24
ATOM     24  C   UNL     1      -6.293  16.005 -11.635  1.00  0.00    -0.000 C 
BRANCH  24  25
ATOM     25  C   UNL     1      -7.622  15.802 -10.882  1.00  0.00    -0.000 C 
BRANCH  25  26
ATOM     26  C   UNL     1      -7.808  16.707  -9.650  1.00  0.00    -0.000 C 
BRANCH  26  27
ATOM     27  C   UNL     1      -8.672  16.070  -8.539  1.00  0.00    -0.000 C 
BRANCH  27  28
ATOM     28  C   UNL     1      -9.047  17.080  -7.441  1.00  0.00    -0.000 C 
BRANCH  28  29
ATOM     29  C   UNL     1     -10.563  17.289  -7.315  1.00  0.00    -0.000 C 
BRANCH  29  30
ATOM     30  C   UNL     1     -11.191  16.446  -6.195  1.00  0.00    -0.000 C 
BRANCH  30  31
ATOM     31  C   UNL     1     -12.447  15.720  -6.691  1.00  0.00    -0.003 C 
ATOM     32  C   UNL     1     -13.334  15.292  -5.524  1.00  0.00     0.004 C 
ENDBRANCH  30  31
ENDBRANCH  29  30
ENDBRANCH  28  29
ENDBRANCH  27  28
ENDBRANCH  26  27
ENDBRANCH  25  26
ENDBRANCH  24  25
ENDBRANCH  23  24
ENDBRANCH  22  23
ENDBRANCH  21  22
ENDBRANCH  20  21
ENDBRANCH  19  20
ENDBRANCH  18  19
ENDBRANCH   1  18
TORSDOF 28
ENDMDL
