MODEL 1
REMARK VINA RESULT:    -3.854      0.000      0.000
REMARK INTER + INTRA:          -5.439
REMARK INTER:                  -4.981
REMARK INTRA:                  -0.459
REMARK UNBOUND:                -0.459
REMARK SMILES CCO[C@H]1O[C@@H](CO)[C@H](O)[C@@H](O)[C@@H]1O
REMARK SMILES IDX 4 1 13 2 11 3 9 4 6 5 5 6 3 7 2 8 1 9 14 10 12 12 7 14 8 15
REMARK SMILES IDX 10 17
REMARK H PARENT 14 11 12 13 8 16 10 18
REMARK Flexibility Score: inf
ROOT
ATOM      1  C   UNL     1       8.700  -3.836  -2.965  1.00  0.00     0.281 C 
ATOM      2  C   UNL     1       8.752  -2.815  -1.813  1.00  0.00     0.202 C 
ATOM      3  C   UNL     1       8.270  -3.425  -0.486  1.00  0.00     0.179 C 
ATOM      4  C   UNL     1       6.946  -4.192  -0.662  1.00  0.00     0.177 C 
ATOM      5  C   UNL     1       6.896  -5.049  -1.964  1.00  0.00     0.178 C 
ATOM      6  O   UNL     1       7.409  -4.405  -3.125  1.00  0.00    -0.341 OA
ENDROOT
BRANCH   1   7
ATOM      7  O   UNL     1       9.688  -4.835  -2.783  1.00  0.00    -0.350 OA
BRANCH   7   8
ATOM      8  C   UNL     1      10.969  -4.321  -3.087  1.00  0.00     0.160 C 
ATOM      9  C   UNL     1      12.029  -5.276  -2.560  1.00  0.00     0.035 C 
ENDBRANCH   7   8
ENDBRANCH   1   7
BRANCH   2  10
ATOM     10  O   UNL     1       8.022  -1.652  -2.126  1.00  0.00    -0.385 OA
ATOM     11  H   UNL     1       8.253  -1.376  -3.049  1.00  0.00     0.211 HD
ENDBRANCH   2  10
BRANCH   3  12
ATOM     12  O   UNL     1       9.253  -4.279   0.042  1.00  0.00    -0.387 OA
ATOM     13  H   UNL     1       8.820  -4.811   0.760  1.00  0.00     0.211 HD
ENDBRANCH   3  12
BRANCH   5  14
ATOM     14  C   UNL     1       7.389  -6.506  -1.810  1.00  0.00     0.191 C 
BRANCH  14  15
ATOM     15  O   UNL     1       8.546  -6.593  -1.030  1.00  0.00    -0.394 OA
ATOM     16  H   UNL     1       9.275  -6.867  -1.645  1.00  0.00     0.210 HD
ENDBRANCH  14  15
ENDBRANCH   5  14
BRANCH   4  17
ATOM     17  O   UNL     1       5.888  -3.266  -0.665  1.00  0.00    -0.387 OA
ATOM     18  H   UNL     1       5.043  -3.788  -0.639  1.00  0.00     0.211 HD
ENDBRANCH   4  17
TORSDOF 7
ENDMDL
MODEL 2
REMARK VINA RESULT:    -3.640      1.597      2.853
REMARK INTER + INTRA:          -5.163
REMARK INTER:                  -4.939
REMARK INTRA:                  -0.224
REMARK UNBOUND:                -0.459
REMARK SMILES CCO[C@H]1O[C@@H](CO)[C@H](O)[C@@H](O)[C@@H]1O
REMARK SMILES IDX 4 1 13 2 11 3 9 4 6 5 5 6 3 7 2 8 1 9 14 10 12 12 7 14 8 15
REMARK SMILES IDX 10 17
REMARK H PARENT 14 11 12 13 8 16 10 18
REMARK Flexibility Score: inf
ROOT
ATOM      1  C   UNL     1       7.337  -5.360  -2.330  1.00  0.00     0.281 C 
ATOM      2  C   UNL     1       6.332  -4.504  -3.124  1.00  0.00     0.202 C 
ATOM      3  C   UNL     1       6.327  -3.041  -2.649  1.00  0.00     0.179 C 
ATOM      4  C   UNL     1       6.245  -2.944  -1.114  1.00  0.00     0.177 C 
ATOM      5  C   UNL     1       7.143  -3.985  -0.380  1.00  0.00     0.178 C 
ATOM      6  O   UNL     1       7.110  -5.297  -0.929  1.00  0.00    -0.341 OA
ENDROOT
BRANCH   1   7
ATOM      7  O   UNL     1       8.665  -4.991  -2.657  1.00  0.00    -0.350 OA
BRANCH   7   8
ATOM      8  C   UNL     1       9.465  -6.142  -2.835  1.00  0.00     0.160 C 
ATOM      9  C   UNL     1      10.452  -6.250  -1.683  1.00  0.00     0.035 C 
ENDBRANCH   7   8
ENDBRANCH   1   7
BRANCH   2  10
ATOM     10  O   UNL     1       5.037  -5.054  -3.073  1.00  0.00    -0.385 OA
ATOM     11  H   UNL     1       4.981  -5.787  -3.738  1.00  0.00     0.211 HD
ENDBRANCH   2  10
BRANCH   3  12
ATOM     12  O   UNL     1       7.472  -2.374  -3.113  1.00  0.00    -0.387 OA
ATOM     13  H   UNL     1       7.979  -2.078  -2.312  1.00  0.00     0.211 HD
ENDBRANCH   3  12
BRANCH   5  14
ATOM     14  C   UNL     1       8.574  -3.501  -0.049  1.00  0.00     0.191 C 
BRANCH  14  15
ATOM     15  O   UNL     1       8.832  -3.515   1.326  1.00  0.00    -0.394 OA
ATOM     16  H   UNL     1       8.841  -4.470   1.596  1.00  0.00     0.210 HD
ENDBRANCH  14  15
ENDBRANCH   5  14
BRANCH   4  17
ATOM     17  O   UNL     1       4.905  -3.116  -0.723  1.00  0.00    -0.387 OA
ATOM     18  H   UNL     1       4.908  -3.314   0.250  1.00  0.00     0.211 HD
ENDBRANCH   4  17
TORSDOF 7
ENDMDL
MODEL 3
REMARK VINA RESULT:    -3.436      1.625      3.185
REMARK INTER + INTRA:          -4.899
REMARK INTER:                  -4.465
REMARK INTRA:                  -0.434
REMARK UNBOUND:                -0.459
REMARK SMILES CCO[C@H]1O[C@@H](CO)[C@H](O)[C@@H](O)[C@@H]1O
REMARK SMILES IDX 4 1 13 2 11 3 9 4 6 5 5 6 3 7 2 8 1 9 14 10 12 12 7 14 8 15
REMARK SMILES IDX 10 17
REMARK H PARENT 14 11 12 13 8 16 10 18
REMARK Flexibility Score: inf
ROOT
ATOM      1  C   UNL     1       7.987  -5.404  -2.066  1.00  0.00     0.281 C 
ATOM      2  C   UNL     1       9.030  -4.641  -1.227  1.00  0.00     0.202 C 
ATOM      3  C   UNL     1       8.413  -3.426  -0.515  1.00  0.00     0.179 C 
ATOM      4  C   UNL     1       7.557  -2.580  -1.477  1.00  0.00     0.177 C 
ATOM      5  C   UNL     1       6.675  -3.436  -2.435  1.00  0.00     0.178 C 
ATOM      6  O   UNL     1       7.331  -4.564  -3.004  1.00  0.00    -0.341 OA
ENDROOT
BRANCH   1   7
ATOM      7  O   UNL     1       7.060  -6.061  -1.220  1.00  0.00    -0.350 OA
BRANCH   7   8
ATOM      8  C   UNL     1       6.908  -7.410  -1.611  1.00  0.00     0.160 C 
ATOM      9  C   UNL     1       8.130  -8.200  -1.166  1.00  0.00     0.035 C 
ENDBRANCH   7   8
ENDBRANCH   1   7
BRANCH   2  10
ATOM     10  O   UNL     1      10.136  -4.257  -2.010  1.00  0.00    -0.385 OA
ATOM     11  H   UNL     1      10.006  -3.316  -2.295  1.00  0.00     0.211 HD
ENDBRANCH   2  10
BRANCH   3  12
ATOM     12  O   UNL     1       7.637  -3.844   0.578  1.00  0.00    -0.387 OA
ATOM     13  H   UNL     1       8.064  -3.475   1.395  1.00  0.00     0.211 HD
ENDBRANCH   3  12
BRANCH   5  14
ATOM     14  C   UNL     1       5.257  -3.759  -1.911  1.00  0.00     0.191 C 
BRANCH  14  15
ATOM     15  O   UNL     1       4.951  -3.051  -0.745  1.00  0.00    -0.394 OA
ATOM     16  H   UNL     1       3.976  -2.870  -0.778  1.00  0.00     0.210 HD
ENDBRANCH  14  15
ENDBRANCH   5  14
BRANCH   4  17
ATOM     17  O   UNL     1       8.410  -1.754  -2.230  1.00  0.00    -0.387 OA
ATOM     18  H   UNL     1       8.238  -1.953  -3.188  1.00  0.00     0.211 HD
ENDBRANCH   4  17
TORSDOF 7
ENDMDL
MODEL 4
REMARK VINA RESULT:    -3.151      1.771      3.782
REMARK INTER + INTRA:          -4.530
REMARK INTER:                  -4.105
REMARK INTRA:                  -0.426
REMARK UNBOUND:                -0.459
REMARK SMILES CCO[C@H]1O[C@@H](CO)[C@H](O)[C@@H](O)[C@@H]1O
REMARK SMILES IDX 4 1 13 2 11 3 9 4 6 5 5 6 3 7 2 8 1 9 14 10 12 12 7 14 8 15
REMARK SMILES IDX 10 17
REMARK H PARENT 14 11 12 13 8 16 10 18
REMARK Flexibility Score: inf
ROOT
ATOM      1  C   UNL     1       6.955  -4.374  -1.027  1.00  0.00     0.281 C 
ATOM      2  C   UNL     1       8.192  -3.490  -0.786  1.00  0.00     0.202 C 
ATOM      3  C   UNL     1       9.371  -3.899  -1.686  1.00  0.00     0.179 C 
ATOM      4  C   UNL     1       9.602  -5.422  -1.661  1.00  0.00     0.177 C 
ATOM      5  C   UNL     1       8.281  -6.248  -1.703  1.00  0.00     0.178 C 
ATOM      6  O   UNL     1       7.239  -5.756  -0.868  1.00  0.00    -0.341 OA
ENDROOT
BRANCH   1   7
ATOM      7  O   UNL     1       6.396  -4.103  -2.300  1.00  0.00    -0.350 OA
BRANCH   7   8
ATOM      8  C   UNL     1       5.107  -3.538  -2.162  1.00  0.00     0.160 C 
ATOM      9  C   UNL     1       4.151  -4.233  -3.119  1.00  0.00     0.035 C 
ENDBRANCH   7   8
ENDBRANCH   1   7
BRANCH   2  10
ATOM     10  O   UNL     1       8.571  -3.495   0.570  1.00  0.00    -0.385 OA
ATOM     11  H   UNL     1       8.741  -4.433   0.844  1.00  0.00     0.211 HD
ENDBRANCH   2  10
BRANCH   3  12
ATOM     12  O   UNL     1       9.149  -3.468  -3.005  1.00  0.00    -0.387 OA
ATOM     13  H   UNL     1       8.809  -2.537  -2.952  1.00  0.00     0.211 HD
ENDBRANCH   3  12
BRANCH   5  14
ATOM     14  C   UNL     1       7.793  -6.633  -3.119  1.00  0.00     0.191 C 
BRANCH  14  15
ATOM     15  O   UNL     1       6.452  -7.033  -3.125  1.00  0.00    -0.394 OA
ATOM     16  H   UNL     1       6.206  -7.190  -2.177  1.00  0.00     0.210 HD
ENDBRANCH  14  15
ENDBRANCH   5  14
BRANCH   4  17
ATOM     17  O   UNL     1      10.325  -5.747  -0.499  1.00  0.00    -0.387 OA
ATOM     18  H   UNL     1       9.731  -6.305   0.068  1.00  0.00     0.211 HD
ENDBRANCH   4  17
TORSDOF 7
ENDMDL
MODEL 5
REMARK VINA RESULT:    -3.104      1.481      1.960
REMARK INTER + INTRA:          -4.470
REMARK INTER:                  -4.115
REMARK INTRA:                  -0.355
REMARK UNBOUND:                -0.459
REMARK SMILES CCO[C@H]1O[C@@H](CO)[C@H](O)[C@@H](O)[C@@H]1O
REMARK SMILES IDX 4 1 13 2 11 3 9 4 6 5 5 6 3 7 2 8 1 9 14 10 12 12 7 14 8 15
REMARK SMILES IDX 10 17
REMARK H PARENT 14 11 12 13 8 16 10 18
REMARK Flexibility Score: inf
ROOT
ATOM      1  C   UNL     1      10.155  -4.735  -2.775  1.00  0.00     0.281 C 
ATOM      2  C   UNL     1       9.171  -3.720  -2.162  1.00  0.00     0.202 C 
ATOM      3  C   UNL     1       8.430  -4.304  -0.948  1.00  0.00     0.179 C 
ATOM      4  C   UNL     1       7.868  -5.707  -1.247  1.00  0.00     0.177 C 
ATOM      5  C   UNL     1       8.854  -6.609  -2.051  1.00  0.00     0.178 C 
ATOM      6  O   UNL     1       9.522  -5.957  -3.125  1.00  0.00    -0.341 OA
ENDROOT
BRANCH   1   7
ATOM      7  O   UNL     1      11.249  -4.950  -1.901  1.00  0.00    -0.350 OA
BRANCH   7   8
ATOM      8  C   UNL     1      12.387  -5.362  -2.630  1.00  0.00     0.160 C 
ATOM      9  C   UNL     1      13.612  -4.634  -2.099  1.00  0.00     0.035 C 
ENDBRANCH   7   8
ENDBRANCH   1   7
BRANCH   2  10
ATOM     10  O   UNL     1       8.261  -3.243  -3.125  1.00  0.00    -0.385 OA
ATOM     11  H   UNL     1       8.326  -2.255  -3.155  1.00  0.00     0.211 HD
ENDBRANCH   2  10
BRANCH   3  12
ATOM     12  O   UNL     1       9.285  -4.356   0.166  1.00  0.00    -0.387 OA
ATOM     13  H   UNL     1       9.342  -3.435   0.530  1.00  0.00     0.211 HD
ENDBRANCH   3  12
BRANCH   5  14
ATOM     14  C   UNL     1       9.796  -7.482  -1.191  1.00  0.00     0.191 C 
BRANCH  14  15
ATOM     15  O   UNL     1      10.346  -6.769  -0.120  1.00  0.00    -0.394 OA
ATOM     16  H   UNL     1       9.973  -5.851  -0.178  1.00  0.00     0.210 HD
ENDBRANCH  14  15
ENDBRANCH   5  14
BRANCH   4  17
ATOM     17  O   UNL     1       6.666  -5.566  -1.962  1.00  0.00    -0.387 OA
ATOM     18  H   UNL     1       6.904  -5.491  -2.923  1.00  0.00     0.211 HD
ENDBRANCH   4  17
TORSDOF 7
ENDMDL
MODEL 6
REMARK VINA RESULT:    -3.100      1.449      3.483
REMARK INTER + INTRA:          -4.465
REMARK INTER:                  -4.251
REMARK INTRA:                  -0.214
REMARK UNBOUND:                -0.459
REMARK SMILES CCO[C@H]1O[C@@H](CO)[C@H](O)[C@@H](O)[C@@H]1O
REMARK SMILES IDX 4 1 13 2 11 3 9 4 6 5 5 6 3 7 2 8 1 9 14 10 12 12 7 14 8 15
REMARK SMILES IDX 10 17
REMARK H PARENT 14 11 12 13 8 16 10 18
REMARK Flexibility Score: inf
ROOT
ATOM      1  C   UNL     1       6.698  -5.311  -1.527  1.00  0.00     0.281 C 
ATOM      2  C   UNL     1       6.221  -3.890  -1.173  1.00  0.00     0.202 C 
ATOM      3  C   UNL     1       7.161  -2.813  -1.739  1.00  0.00     0.179 C 
ATOM      4  C   UNL     1       8.637  -3.134  -1.438  1.00  0.00     0.177 C 
ATOM      5  C   UNL     1       8.994  -4.640  -1.627  1.00  0.00     0.178 C 
ATOM      6  O   UNL     1       8.033  -5.552  -1.107  1.00  0.00    -0.341 OA
ENDROOT
BRANCH   1   7
ATOM      7  O   UNL     1       6.540  -5.552  -2.914  1.00  0.00    -0.350 OA
BRANCH   7   8
ATOM      8  C   UNL     1       5.782  -6.726  -3.125  1.00  0.00     0.160 C 
ATOM      9  C   UNL     1       6.708  -7.932  -3.099  1.00  0.00     0.035 C 
ENDBRANCH   7   8
ENDBRANCH   1   7
BRANCH   2  10
ATOM     10  O   UNL     1       6.059  -3.735   0.218  1.00  0.00    -0.385 OA
ATOM     11  H   UNL     1       6.056  -2.766   0.427  1.00  0.00     0.211 HD
ENDBRANCH   2  10
BRANCH   3  12
ATOM     12  O   UNL     1       6.971  -2.680  -3.124  1.00  0.00    -0.387 OA
ATOM     13  H   UNL     1       6.903  -1.708  -3.316  1.00  0.00     0.211 HD
ENDBRANCH   3  12
BRANCH   5  14
ATOM     14  C   UNL     1       9.495  -5.024  -3.038  1.00  0.00     0.191 C 
BRANCH  14  15
ATOM     15  O   UNL     1      10.302  -6.167  -3.019  1.00  0.00    -0.394 OA
ATOM     16  H   UNL     1      11.219  -5.861  -3.242  1.00  0.00     0.210 HD
ENDBRANCH  14  15
ENDBRANCH   5  14
BRANCH   4  17
ATOM     17  O   UNL     1       8.922  -2.742  -0.117  1.00  0.00    -0.387 OA
ATOM     18  H   UNL     1       9.895  -2.547  -0.074  1.00  0.00     0.211 HD
ENDBRANCH   4  17
TORSDOF 7
ENDMDL
MODEL 7
REMARK VINA RESULT:    -3.090      2.081      4.811
REMARK INTER + INTRA:          -4.452
REMARK INTER:                  -3.952
REMARK INTRA:                  -0.500
REMARK UNBOUND:                -0.459
REMARK SMILES CCO[C@H]1O[C@@H](CO)[C@H](O)[C@@H](O)[C@@H]1O
REMARK SMILES IDX 4 1 13 2 11 3 9 4 6 5 5 6 3 7 2 8 1 9 14 10 12 12 7 14 8 15
REMARK SMILES IDX 10 17
REMARK H PARENT 14 11 12 13 8 16 10 18
REMARK Flexibility Score: inf
ROOT
ATOM      1  C   UNL     1       9.270  -7.268  -1.892  1.00  0.00     0.281 C 
ATOM      2  C   UNL     1      10.333  -7.677  -0.855  1.00  0.00     0.202 C 
ATOM      3  C   UNL     1      11.313  -6.530  -0.558  1.00  0.00     0.179 C 
ATOM      4  C   UNL     1      11.835  -5.879  -1.853  1.00  0.00     0.177 C 
ATOM      5  C   UNL     1      10.729  -5.684  -2.935  1.00  0.00     0.178 C 
ATOM      6  O   UNL     1       9.847  -6.788  -3.097  1.00  0.00    -0.341 OA
ENDROOT
BRANCH   1   7
ATOM      7  O   UNL     1       8.376  -6.321  -1.333  1.00  0.00    -0.350 OA
BRANCH   7   8
ATOM      8  C   UNL     1       7.059  -6.563  -1.785  1.00  0.00     0.160 C 
ATOM      9  C   UNL     1       6.474  -5.271  -2.336  1.00  0.00     0.035 C 
ENDBRANCH   7   8
ENDBRANCH   1   7
BRANCH   2  10
ATOM     10  O   UNL     1      11.024  -8.836  -1.260  1.00  0.00    -0.385 OA
ATOM     11  H   UNL     1      10.369  -9.472  -1.645  1.00  0.00     0.211 HD
ENDBRANCH   2  10
BRANCH   3  12
ATOM     12  O   UNL     1      10.698  -5.561   0.252  1.00  0.00    -0.387 OA
ATOM     13  H   UNL     1      11.424  -5.042   0.685  1.00  0.00     0.211 HD
ENDBRANCH   3  12
BRANCH   5  14
ATOM     14  C   UNL     1       9.996  -4.323  -2.886  1.00  0.00     0.191 C 
BRANCH  14  15
ATOM     15  O   UNL     1       9.737  -3.910  -1.575  1.00  0.00    -0.394 OA
ATOM     16  H   UNL     1       9.420  -4.715  -1.088  1.00  0.00     0.210 HD
ENDBRANCH  14  15
ENDBRANCH   5  14
BRANCH   4  17
ATOM     17  O   UNL     1      12.868  -6.679  -2.373  1.00  0.00    -0.387 OA
ATOM     18  H   UNL     1      13.527  -6.815  -1.643  1.00  0.00     0.211 HD
ENDBRANCH   4  17
TORSDOF 7
ENDMDL
MODEL 8
REMARK VINA RESULT:    -2.532      1.586      4.246
REMARK INTER + INTRA:          -3.730
REMARK INTER:                  -3.551
REMARK INTRA:                  -0.179
REMARK UNBOUND:                -0.459
REMARK SMILES CCO[C@H]1O[C@@H](CO)[C@H](O)[C@@H](O)[C@@H]1O
REMARK SMILES IDX 4 1 13 2 11 3 9 4 6 5 5 6 3 7 2 8 1 9 14 10 12 12 7 14 8 15
REMARK SMILES IDX 10 17
REMARK H PARENT 14 11 12 13 8 16 10 18
REMARK Flexibility Score: inf
ROOT
ATOM      1  C   UNL     1       7.073  -4.985  -2.725  1.00  0.00     0.281 C 
ATOM      2  C   UNL     1       6.862  -5.484  -1.284  1.00  0.00     0.202 C 
ATOM      3  C   UNL     1       7.005  -4.347  -0.259  1.00  0.00     0.179 C 
ATOM      4  C   UNL     1       8.272  -3.509  -0.514  1.00  0.00     0.177 C 
ATOM      5  C   UNL     1       8.526  -3.218  -2.024  1.00  0.00     0.178 C 
ATOM      6  O   UNL     1       8.321  -4.327  -2.891  1.00  0.00    -0.341 OA
ENDROOT
BRANCH   1   7
ATOM      7  O   UNL     1       5.994  -4.159  -3.125  1.00  0.00    -0.350 OA
BRANCH   7   8
ATOM      8  C   UNL     1       4.786  -4.893  -3.125  1.00  0.00     0.160 C 
ATOM      9  C   UNL     1       3.669  -4.019  -2.578  1.00  0.00     0.035 C 
ENDBRANCH   7   8
ENDBRANCH   1   7
BRANCH   2  10
ATOM     10  O   UNL     1       7.730  -6.549  -0.977  1.00  0.00    -0.385 OA
ATOM     11  H   UNL     1       7.789  -6.631   0.009  1.00  0.00     0.211 HD
ENDBRANCH   2  10
BRANCH   3  12
ATOM     12  O   UNL     1       5.869  -3.520  -0.286  1.00  0.00    -0.387 OA
ATOM     13  H   UNL     1       5.978  -2.854   0.442  1.00  0.00     0.211 HD
ENDBRANCH   3  12
BRANCH   5  14
ATOM     14  C   UNL     1       7.900  -1.908  -2.554  1.00  0.00     0.191 C 
BRANCH  14  15
ATOM     15  O   UNL     1       6.550  -1.789  -2.206  1.00  0.00    -0.394 OA
ATOM     16  H   UNL     1       6.097  -2.590  -2.576  1.00  0.00     0.210 HD
ENDBRANCH  14  15
ENDBRANCH   5  14
BRANCH   4  17
ATOM     17  O   UNL     1       9.377  -4.189   0.029  1.00  0.00    -0.387 OA
ATOM     18  H   UNL     1       9.689  -3.662   0.811  1.00  0.00     0.211 HD
ENDBRANCH   4  17
TORSDOF 7
ENDMDL
MODEL 9
REMARK VINA RESULT:    -2.421      1.997      3.690
REMARK INTER + INTRA:          -3.587
REMARK INTER:                  -3.558
REMARK INTRA:                  -0.029
REMARK UNBOUND:                -0.459
REMARK SMILES CCO[C@H]1O[C@@H](CO)[C@H](O)[C@@H](O)[C@@H]1O
REMARK SMILES IDX 4 1 13 2 11 3 9 4 6 5 5 6 3 7 2 8 1 9 14 10 12 12 7 14 8 15
REMARK SMILES IDX 10 17
REMARK H PARENT 14 11 12 13 8 16 10 18
REMARK Flexibility Score: inf
ROOT
ATOM      1  C   UNL     1       9.221  -4.905  -1.529  1.00  0.00     0.281 C 
ATOM      2  C   UNL     1      10.454  -5.754  -1.170  1.00  0.00     0.202 C 
ATOM      3  C   UNL     1      10.353  -7.179  -1.741  1.00  0.00     0.179 C 
ATOM      4  C   UNL     1       8.979  -7.811  -1.448  1.00  0.00     0.177 C 
ATOM      5  C   UNL     1       7.790  -6.821  -1.640  1.00  0.00     0.178 C 
ATOM      6  O   UNL     1       8.007  -5.515  -1.117  1.00  0.00    -0.341 OA
ENDROOT
BRANCH   1   7
ATOM      7  O   UNL     1       9.210  -4.613  -2.916  1.00  0.00    -0.350 OA
BRANCH   7   8
ATOM      8  C   UNL     1       9.050  -3.225  -3.124  1.00  0.00     0.160 C 
ATOM      9  C   UNL     1       7.767  -2.762  -2.452  1.00  0.00     0.035 C 
ENDBRANCH   7   8
ENDBRANCH   1   7
BRANCH   2  10
ATOM     10  O   UNL     1      10.670  -5.784   0.221  1.00  0.00    -0.385 OA
ATOM     11  H   UNL     1      11.289  -5.048   0.458  1.00  0.00     0.211 HD
ENDBRANCH   2  10
BRANCH   3  12
ATOM     12  O   UNL     1      10.592  -7.168  -3.125  1.00  0.00    -0.387 OA
ATOM     13  H   UNL     1      11.030  -6.303  -3.337  1.00  0.00     0.211 HD
ENDBRANCH   3  12
BRANCH   5  14
ATOM     14  C   UNL     1       7.166  -6.811  -3.055  1.00  0.00     0.191 C 
BRANCH  14  15
ATOM     15  O   UNL     1       5.883  -6.254  -3.062  1.00  0.00    -0.394 OA
ATOM     16  H   UNL     1       5.420  -6.614  -2.262  1.00  0.00     0.210 HD
ENDBRANCH  14  15
ENDBRANCH   5  14
BRANCH   4  17
ATOM     17  O   UNL     1       8.980  -8.297  -0.128  1.00  0.00    -0.387 OA
ATOM     18  H   UNL     1       8.243  -8.960  -0.061  1.00  0.00     0.211 HD
ENDBRANCH   4  17
TORSDOF 7
ENDMDL
