MODEL 1
REMARK VINA RESULT:    -4.257      0.000      0.000
REMARK INTER + INTRA:          -9.191
REMARK INTER:                  -7.492
REMARK INTRA:                  -1.699
REMARK UNBOUND:                -1.699
REMARK SMILES CCCCCCCCCCCCCCC(=O)[O-]
REMARK SMILES IDX 9 1 10 2 11 3 12 4 13 5 14 6 15 7 16 8 17 9 8 10 7 11 6 12
REMARK SMILES IDX 5 13 4 14 3 15 2 16 1 17
REMARK H PARENT
REMARK Flexibility Score: inf
ROOT
ATOM      1  C   UNL     1      28.194  25.490 -13.856  1.00  0.00     0.000 C 
ENDROOT
BRANCH   1   2
ATOM      2  C   UNL     1      27.047  26.037 -14.726  1.00  0.00     0.000 C 
BRANCH   2   3
ATOM      3  C   UNL     1      26.569  25.027 -15.783  1.00  0.00     0.000 C 
BRANCH   3   4
ATOM      4  C   UNL     1      27.723  24.117 -16.231  1.00  0.00     0.000 C 
BRANCH   4   5
ATOM      5  C   UNL     1      28.247  24.470 -17.632  1.00  0.00     0.006 C 
BRANCH   5   6
ATOM      6  C   UNL     1      27.755  23.494 -18.709  1.00  0.00     0.053 C 
BRANCH   6   7
ATOM      7  C   UNL     1      26.836  24.190 -19.663  1.00  0.00     0.041 C 
ATOM      8  O   UNL     1      27.007  24.075 -20.905  1.00  0.00    -0.550 OA
ATOM      9  O   UNL     1      25.759  24.923 -19.181  1.00  0.00    -0.550 OA
ENDBRANCH   6   7
ENDBRANCH   5   6
ENDBRANCH   4   5
ENDBRANCH   3   4
ENDBRANCH   2   3
ENDBRANCH   1   2
BRANCH   1  10
ATOM     10  C   UNL     1      29.380  26.461 -13.697  1.00  0.00     0.000 C 
BRANCH  10  11
ATOM     11  C   UNL     1      30.574  26.140 -14.628  1.00  0.00    -0.000 C 
BRANCH  11  12
ATOM     12  C   UNL     1      30.890  27.266 -15.630  1.00  0.00    -0.000 C 
BRANCH  12  13
ATOM     13  C   UNL     1      29.904  27.365 -16.810  1.00  0.00    -0.000 C 
BRANCH  13  14
ATOM     14  C   UNL     1      29.081  28.669 -16.864  1.00  0.00    -0.000 C 
BRANCH  14  15
ATOM     15  C   UNL     1      27.649  28.520 -17.416  1.00  0.00    -0.000 C 
BRANCH  15  16
ATOM     16  C   UNL     1      26.898  29.846 -17.633  1.00  0.00    -0.003 C 
ATOM     17  C   UNL     1      26.809  30.244 -19.106  1.00  0.00     0.004 C 
ENDBRANCH  15  16
ENDBRANCH  14  15
ENDBRANCH  13  14
ENDBRANCH  12  13
ENDBRANCH  11  12
ENDBRANCH  10  11
ENDBRANCH   1  10
TORSDOF 13
ENDMDL
MODEL 2
REMARK VINA RESULT:    -4.051      2.440      5.097
REMARK INTER + INTRA:          -8.829
REMARK INTER:                  -7.406
REMARK INTRA:                  -1.423
REMARK UNBOUND:                -1.699
REMARK SMILES CCCCCCCCCCCCCCC(=O)[O-]
REMARK SMILES IDX 9 1 10 2 11 3 12 4 13 5 14 6 15 7 16 8 17 9 8 10 7 11 6 12
REMARK SMILES IDX 5 13 4 14 3 15 2 16 1 17
REMARK H PARENT
REMARK Flexibility Score: inf
ROOT
ATOM      1  C   UNL     1      30.488  27.116 -15.241  1.00  0.00     0.000 C 
ENDROOT
BRANCH   1   2
ATOM      2  C   UNL     1      30.139  27.231 -16.737  1.00  0.00     0.000 C 
BRANCH   2   3
ATOM      3  C   UNL     1      29.489  28.578 -17.094  1.00  0.00     0.000 C 
BRANCH   3   4
ATOM      4  C   UNL     1      27.959  28.495 -16.979  1.00  0.00     0.000 C 
BRANCH   4   5
ATOM      5  C   UNL     1      27.261  29.793 -17.416  1.00  0.00     0.006 C 
BRANCH   5   6
ATOM      6  C   UNL     1      26.573  29.663 -18.781  1.00  0.00     0.053 C 
BRANCH   6   7
ATOM      7  C   UNL     1      26.638  30.960 -19.523  1.00  0.00     0.041 C 
ATOM      8  O   UNL     1      27.376  31.073 -20.538  1.00  0.00    -0.550 OA
ATOM      9  O   UNL     1      25.844  32.028 -19.128  1.00  0.00    -0.550 OA
ENDBRANCH   6   7
ENDBRANCH   5   6
ENDBRANCH   4   5
ENDBRANCH   3   4
ENDBRANCH   2   3
ENDBRANCH   1   2
BRANCH   1  10
ATOM     10  C   UNL     1      29.740  25.986 -14.507  1.00  0.00     0.000 C 
BRANCH  10  11
ATOM     11  C   UNL     1      28.406  26.439 -13.868  1.00  0.00    -0.000 C 
BRANCH  11  12
ATOM     12  C   UNL     1      27.290  25.381 -13.966  1.00  0.00    -0.000 C 
BRANCH  12  13
ATOM     13  C   UNL     1      26.594  25.315 -15.338  1.00  0.00    -0.000 C 
BRANCH  13  14
ATOM     14  C   UNL     1      27.248  24.357 -16.356  1.00  0.00    -0.000 C 
BRANCH  14  15
ATOM     15  C   UNL     1      27.631  24.992 -17.707  1.00  0.00    -0.000 C 
BRANCH  15  16
ATOM     16  C   UNL     1      28.650  24.189 -18.535  1.00  0.00    -0.003 C 
ATOM     17  C   UNL     1      28.047  23.601 -19.810  1.00  0.00     0.004 C 
ENDBRANCH  15  16
ENDBRANCH  14  15
ENDBRANCH  13  14
ENDBRANCH  12  13
ENDBRANCH  11  12
ENDBRANCH  10  11
ENDBRANCH   1  10
TORSDOF 13
ENDMDL
MODEL 3
REMARK VINA RESULT:    -3.916      2.634      5.421
REMARK INTER + INTRA:          -8.591
REMARK INTER:                  -6.962
REMARK INTRA:                  -1.629
REMARK UNBOUND:                -1.699
REMARK SMILES CCCCCCCCCCCCCCC(=O)[O-]
REMARK SMILES IDX 9 1 10 2 11 3 12 4 13 5 14 6 15 7 16 8 17 9 8 10 7 11 6 12
REMARK SMILES IDX 5 13 4 14 3 15 2 16 1 17
REMARK H PARENT
REMARK Flexibility Score: inf
ROOT
ATOM      1  C   UNL     1      28.584  26.762 -14.950  1.00  0.00     0.000 C 
ENDROOT
BRANCH   1   2
ATOM      2  C   UNL     1      28.473  27.243 -16.410  1.00  0.00     0.000 C 
BRANCH   2   3
ATOM      3  C   UNL     1      29.503  28.331 -16.756  1.00  0.00     0.000 C 
BRANCH   3   4
ATOM      4  C   UNL     1      28.902  29.365 -17.721  1.00  0.00     0.000 C 
BRANCH   4   5
ATOM      5  C   UNL     1      27.434  29.690 -17.403  1.00  0.00     0.006 C 
BRANCH   5   6
ATOM      6  C   UNL     1      26.533  29.625 -18.643  1.00  0.00     0.053 C 
BRANCH   6   7
ATOM      7  C   UNL     1      26.631  30.897 -19.425  1.00  0.00     0.041 C 
ATOM      8  O   UNL     1      25.994  31.918 -19.056  1.00  0.00    -0.550 OA
ATOM      9  O   UNL     1      27.468  30.970 -20.531  1.00  0.00    -0.550 OA
ENDBRANCH   6   7
ENDBRANCH   5   6
ENDBRANCH   4   5
ENDBRANCH   3   4
ENDBRANCH   2   3
ENDBRANCH   1   2
BRANCH   1  10
ATOM     10  C   UNL     1      27.380  25.928 -14.471  1.00  0.00     0.000 C 
BRANCH  10  11
ATOM     11  C   UNL     1      26.925  24.855 -15.489  1.00  0.00    -0.000 C 
BRANCH  11  12
ATOM     12  C   UNL     1      27.520  23.461 -15.217  1.00  0.00    -0.000 C 
BRANCH  12  13
ATOM     13  C   UNL     1      28.418  22.920 -16.345  1.00  0.00    -0.000 C 
BRANCH  13  14
ATOM     14  C   UNL     1      28.202  23.578 -17.724  1.00  0.00    -0.000 C 
BRANCH  14  15
ATOM     15  C   UNL     1      29.426  24.318 -18.300  1.00  0.00    -0.000 C 
BRANCH  15  16
ATOM     16  C   UNL     1      30.769  23.958 -17.640  1.00  0.00    -0.003 C 
ATOM     17  C   UNL     1      31.499  25.176 -17.075  1.00  0.00     0.004 C 
ENDBRANCH  15  16
ENDBRANCH  14  15
ENDBRANCH  13  14
ENDBRANCH  12  13
ENDBRANCH  11  12
ENDBRANCH  10  11
ENDBRANCH   1  10
TORSDOF 13
ENDMDL
MODEL 4
REMARK VINA RESULT:    -3.845      2.473      4.802
REMARK INTER + INTRA:          -8.466
REMARK INTER:                  -6.880
REMARK INTRA:                  -1.586
REMARK UNBOUND:                -1.699
REMARK SMILES CCCCCCCCCCCCCCC(=O)[O-]
REMARK SMILES IDX 9 1 10 2 11 3 12 4 13 5 14 6 15 7 16 8 17 9 8 10 7 11 6 12
REMARK SMILES IDX 5 13 4 14 3 15 2 16 1 17
REMARK H PARENT
REMARK Flexibility Score: inf
ROOT
ATOM      1  C   UNL     1      31.628  26.146 -16.110  1.00  0.00     0.000 C 
ENDROOT
BRANCH   1   2
ATOM      2  C   UNL     1      30.560  27.134 -15.605  1.00  0.00     0.000 C 
BRANCH   2   3
ATOM      3  C   UNL     1      29.730  27.745 -16.745  1.00  0.00     0.000 C 
BRANCH   3   4
ATOM      4  C   UNL     1      28.235  27.442 -16.558  1.00  0.00     0.000 C 
BRANCH   4   5
ATOM      5  C   UNL     1      27.984  26.056 -15.943  1.00  0.00     0.006 C 
BRANCH   5   6
ATOM      6  C   UNL     1      27.151  26.122 -14.656  1.00  0.00     0.053 C 
BRANCH   6   7
ATOM      7  C   UNL     1      26.360  24.865 -14.482  1.00  0.00     0.041 C 
ATOM      8  O   UNL     1      25.200  24.908 -13.995  1.00  0.00    -0.550 OA
ATOM      9  O   UNL     1      26.882  23.650 -14.908  1.00  0.00    -0.550 OA
ENDBRANCH   6   7
ENDBRANCH   5   6
ENDBRANCH   4   5
ENDBRANCH   3   4
ENDBRANCH   2   3
ENDBRANCH   1   2
BRANCH   1  10
ATOM     10  C   UNL     1      31.723  26.054 -17.646  1.00  0.00     0.000 C 
BRANCH  10  11
ATOM     11  C   UNL     1      31.277  24.686 -18.214  1.00  0.00    -0.000 C 
BRANCH  11  12
ATOM     12  C   UNL     1      30.429  23.861 -17.227  1.00  0.00    -0.000 C 
BRANCH  12  13
ATOM     13  C   UNL     1      29.521  22.809 -17.893  1.00  0.00    -0.000 C 
BRANCH  13  14
ATOM     14  C   UNL     1      28.117  23.313 -18.285  1.00  0.00    -0.000 C 
BRANCH  14  15
ATOM     15  C   UNL     1      27.870  23.465 -19.800  1.00  0.00    -0.000 C 
BRANCH  15  16
ATOM     16  C   UNL     1      26.704  24.396 -20.176  1.00  0.00    -0.003 C 
ATOM     17  C   UNL     1      25.963  24.943 -18.957  1.00  0.00     0.004 C 
ENDBRANCH  15  16
ENDBRANCH  14  15
ENDBRANCH  13  14
ENDBRANCH  12  13
ENDBRANCH  11  12
ENDBRANCH  10  11
ENDBRANCH   1  10
TORSDOF 13
ENDMDL
MODEL 5
REMARK VINA RESULT:    -3.826      1.741      3.484
REMARK INTER + INTRA:          -8.433
REMARK INTER:                  -6.021
REMARK INTRA:                  -2.412
REMARK UNBOUND:                -1.699
REMARK SMILES CCCCCCCCCCCCCCC(=O)[O-]
REMARK SMILES IDX 9 1 10 2 11 3 12 4 13 5 14 6 15 7 16 8 17 9 8 10 7 11 6 12
REMARK SMILES IDX 5 13 4 14 3 15 2 16 1 17
REMARK H PARENT
REMARK Flexibility Score: inf
ROOT
ATOM      1  C   UNL     1      28.758  23.748 -14.668  1.00  0.00     0.000 C 
ENDROOT
BRANCH   1   2
ATOM      2  C   UNL     1      29.425  22.628 -15.489  1.00  0.00     0.000 C 
BRANCH   2   3
ATOM      3  C   UNL     1      28.727  22.384 -16.837  1.00  0.00     0.000 C 
BRANCH   3   4
ATOM      4  C   UNL     1      29.638  22.790 -18.006  1.00  0.00     0.000 C 
BRANCH   4   5
ATOM      5  C   UNL     1      29.024  23.897 -18.879  1.00  0.00     0.006 C 
BRANCH   5   6
ATOM      6  C   UNL     1      27.568  24.205 -18.503  1.00  0.00     0.053 C 
BRANCH   6   7
ATOM      7  C   UNL     1      26.732  24.352 -19.735  1.00  0.00     0.041 C 
ATOM      8  O   UNL     1      25.720  25.100 -19.727  1.00  0.00    -0.550 OA
ATOM      9  O   UNL     1      27.101  23.705 -20.907  1.00  0.00    -0.550 OA
ENDBRANCH   6   7
ENDBRANCH   5   6
ENDBRANCH   4   5
ENDBRANCH   3   4
ENDBRANCH   2   3
ENDBRANCH   1   2
BRANCH   1  10
ATOM     10  C   UNL     1      27.243  23.888 -14.911  1.00  0.00     0.000 C 
BRANCH  10  11
ATOM     11  C   UNL     1      26.727  25.341 -14.788  1.00  0.00    -0.000 C 
BRANCH  11  12
ATOM     12  C   UNL     1      27.849  26.396 -14.837  1.00  0.00    -0.000 C 
BRANCH  12  13
ATOM     13  C   UNL     1      28.015  27.086 -16.204  1.00  0.00    -0.000 C 
BRANCH  13  14
ATOM     14  C   UNL     1      29.430  26.995 -16.813  1.00  0.00    -0.000 C 
BRANCH  14  15
ATOM     15  C   UNL     1      30.574  26.810 -15.795  1.00  0.00    -0.000 C 
BRANCH  15  16
ATOM     16  C   UNL     1      31.624  25.755 -16.186  1.00  0.00    -0.003 C 
ATOM     17  C   UNL     1      31.991  25.803 -17.669  1.00  0.00     0.004 C 
ENDBRANCH  15  16
ENDBRANCH  14  15
ENDBRANCH  13  14
ENDBRANCH  12  13
ENDBRANCH  11  12
ENDBRANCH  10  11
ENDBRANCH   1  10
TORSDOF 13
ENDMDL
MODEL 6
REMARK VINA RESULT:    -3.731      1.339      2.382
REMARK INTER + INTRA:          -8.267
REMARK INTER:                  -6.040
REMARK INTRA:                  -2.227
REMARK UNBOUND:                -1.699
REMARK SMILES CCCCCCCCCCCCCCC(=O)[O-]
REMARK SMILES IDX 9 1 10 2 11 3 12 4 13 5 14 6 15 7 16 8 17 9 8 10 7 11 6 12
REMARK SMILES IDX 5 13 4 14 3 15 2 16 1 17
REMARK H PARENT
REMARK Flexibility Score: inf
ROOT
ATOM      1  C   UNL     1      28.624  25.548 -13.590  1.00  0.00     0.000 C 
ENDROOT
BRANCH   1   2
ATOM      2  C   UNL     1      27.296  25.989 -14.234  1.00  0.00     0.000 C 
BRANCH   2   3
ATOM      3  C   UNL     1      27.010  25.266 -15.560  1.00  0.00     0.000 C 
BRANCH   3   4
ATOM      4  C   UNL     1      28.117  24.249 -15.879  1.00  0.00     0.000 C 
BRANCH   4   5
ATOM      5  C   UNL     1      27.920  23.567 -17.242  1.00  0.00     0.006 C 
BRANCH   5   6
ATOM      6  C   UNL     1      28.020  24.551 -18.415  1.00  0.00     0.053 C 
BRANCH   6   7
ATOM      7  C   UNL     1      26.772  24.510 -19.238  1.00  0.00     0.041 C 
ATOM      8  O   UNL     1      25.654  24.742 -18.705  1.00  0.00    -0.550 OA
ATOM      9  O   UNL     1      26.847  24.270 -20.603  1.00  0.00    -0.550 OA
ENDBRANCH   6   7
ENDBRANCH   5   6
ENDBRANCH   4   5
ENDBRANCH   3   4
ENDBRANCH   2   3
ENDBRANCH   1   2
BRANCH   1  10
ATOM     10  C   UNL     1      29.175  26.538 -12.546  1.00  0.00     0.000 C 
BRANCH  10  11
ATOM     11  C   UNL     1      30.720  26.552 -12.460  1.00  0.00    -0.000 C 
BRANCH  11  12
ATOM     12  C   UNL     1      31.401  25.669 -13.523  1.00  0.00    -0.000 C 
BRANCH  12  13
ATOM     13  C   UNL     1      32.067  26.452 -14.670  1.00  0.00    -0.000 C 
BRANCH  13  14
ATOM     14  C   UNL     1      31.814  25.883 -16.081  1.00  0.00    -0.000 C 
BRANCH  14  15
ATOM     15  C   UNL     1      30.717  26.601 -16.893  1.00  0.00    -0.000 C 
BRANCH  15  16
ATOM     16  C   UNL     1      30.061  27.797 -16.181  1.00  0.00    -0.003 C 
ATOM     17  C   UNL     1      28.787  28.277 -16.875  1.00  0.00     0.004 C 
ENDBRANCH  15  16
ENDBRANCH  14  15
ENDBRANCH  13  14
ENDBRANCH  12  13
ENDBRANCH  11  12
ENDBRANCH  10  11
ENDBRANCH   1  10
TORSDOF 13
ENDMDL
MODEL 7
REMARK VINA RESULT:    -3.722      1.279      1.776
REMARK INTER + INTRA:          -8.250
REMARK INTER:                  -6.749
REMARK INTRA:                  -1.502
REMARK UNBOUND:                -1.699
REMARK SMILES CCCCCCCCCCCCCCC(=O)[O-]
REMARK SMILES IDX 9 1 10 2 11 3 12 4 13 5 14 6 15 7 16 8 17 9 8 10 7 11 6 12
REMARK SMILES IDX 5 13 4 14 3 15 2 16 1 17
REMARK H PARENT
REMARK Flexibility Score: inf
ROOT
ATOM      1  C   UNL     1      30.217  23.608 -14.758  1.00  0.00     0.000 C 
ENDROOT
BRANCH   1   2
ATOM      2  C   UNL     1      28.844  22.933 -14.942  1.00  0.00     0.000 C 
BRANCH   2   3
ATOM      3  C   UNL     1      28.399  22.883 -16.413  1.00  0.00     0.000 C 
BRANCH   3   4
ATOM      4  C   UNL     1      29.456  23.522 -17.327  1.00  0.00     0.000 C 
BRANCH   4   5
ATOM      5  C   UNL     1      28.835  24.290 -18.505  1.00  0.00     0.006 C 
BRANCH   5   6
ATOM      6  C   UNL     1      27.302  24.302 -18.459  1.00  0.00     0.053 C 
BRANCH   6   7
ATOM      7  C   UNL     1      26.739  24.369 -19.843  1.00  0.00     0.041 C 
ATOM      8  O   UNL     1      27.187  23.615 -20.746  1.00  0.00    -0.550 OA
ATOM      9  O   UNL     1      25.683  25.227 -20.124  1.00  0.00    -0.550 OA
ENDBRANCH   6   7
ENDBRANCH   5   6
ENDBRANCH   4   5
ENDBRANCH   3   4
ENDBRANCH   2   3
ENDBRANCH   1   2
BRANCH   1  10
ATOM     10  C   UNL     1      30.245  24.685 -13.657  1.00  0.00     0.000 C 
BRANCH  10  11
ATOM     11  C   UNL     1      30.209  26.131 -14.204  1.00  0.00    -0.000 C 
BRANCH  11  12
ATOM     12  C   UNL     1      28.797  26.603 -14.599  1.00  0.00    -0.000 C 
BRANCH  12  13
ATOM     13  C   UNL     1      28.652  27.009 -16.078  1.00  0.00    -0.000 C 
BRANCH  13  14
ATOM     14  C   UNL     1      29.520  28.209 -16.513  1.00  0.00    -0.000 C 
BRANCH  14  15
ATOM     15  C   UNL     1      28.848  29.184 -17.501  1.00  0.00    -0.000 C 
BRANCH  15  16
ATOM     16  C   UNL     1      27.312  29.096 -17.554  1.00  0.00    -0.003 C 
ATOM     17  C   UNL     1      26.684  30.192 -18.414  1.00  0.00     0.004 C 
ENDBRANCH  15  16
ENDBRANCH  14  15
ENDBRANCH  13  14
ENDBRANCH  12  13
ENDBRANCH  11  12
ENDBRANCH  10  11
ENDBRANCH   1  10
TORSDOF 13
ENDMDL
MODEL 8
REMARK VINA RESULT:    -3.651      3.617      6.166
REMARK INTER + INTRA:          -8.124
REMARK INTER:                  -5.844
REMARK INTRA:                  -2.280
REMARK UNBOUND:                -1.699
REMARK SMILES CCCCCCCCCCCCCCC(=O)[O-]
REMARK SMILES IDX 9 1 10 2 11 3 12 4 13 5 14 6 15 7 16 8 17 9 8 10 7 11 6 12
REMARK SMILES IDX 5 13 4 14 3 15 2 16 1 17
REMARK H PARENT
REMARK Flexibility Score: inf
ROOT
ATOM      1  C   UNL     1      27.607  26.411 -15.709  1.00  0.00     0.000 C 
ENDROOT
BRANCH   1   2
ATOM      2  C   UNL     1      27.904  27.550 -16.703  1.00  0.00     0.000 C 
BRANCH   2   3
ATOM      3  C   UNL     1      29.399  27.904 -16.772  1.00  0.00     0.000 C 
BRANCH   3   4
ATOM      4  C   UNL     1      30.232  26.924 -15.931  1.00  0.00     0.000 C 
BRANCH   4   5
ATOM      5  C   UNL     1      31.510  26.464 -16.651  1.00  0.00     0.006 C 
BRANCH   5   6
ATOM      6  C   UNL     1      32.336  25.477 -15.814  1.00  0.00     0.053 C 
BRANCH   6   7
ATOM      7  C   UNL     1      33.605  26.121 -15.353  1.00  0.00     0.041 C 
ATOM      8  O   UNL     1      33.721  26.512 -14.162  1.00  0.00    -0.550 OA
ATOM      9  O   UNL     1      34.681  26.239 -16.224  1.00  0.00    -0.550 OA
ENDBRANCH   6   7
ENDBRANCH   5   6
ENDBRANCH   4   5
ENDBRANCH   3   4
ENDBRANCH   2   3
ENDBRANCH   1   2
BRANCH   1  10
ATOM     10  C   UNL     1      26.791  25.250 -16.310  1.00  0.00     0.000 C 
BRANCH  10  11
ATOM     11  C   UNL     1      26.696  25.293 -17.853  1.00  0.00    -0.000 C 
BRANCH  11  12
ATOM     12  C   UNL     1      27.508  24.184 -18.548  1.00  0.00    -0.000 C 
BRANCH  12  13
ATOM     13  C   UNL     1      29.033  24.296 -18.359  1.00  0.00    -0.000 C 
BRANCH  13  14
ATOM     14  C   UNL     1      29.680  23.132 -17.580  1.00  0.00    -0.000 C 
BRANCH  14  15
ATOM     15  C   UNL     1      28.693  22.105 -16.988  1.00  0.00    -0.000 C 
BRANCH  15  16
ATOM     16  C   UNL     1      28.574  22.130 -15.454  1.00  0.00    -0.003 C 
ATOM     17  C   UNL     1      29.473  23.182 -14.806  1.00  0.00     0.004 C 
ENDBRANCH  15  16
ENDBRANCH  14  15
ENDBRANCH  13  14
ENDBRANCH  12  13
ENDBRANCH  11  12
ENDBRANCH  10  11
ENDBRANCH   1  10
TORSDOF 13
ENDMDL
MODEL 9
REMARK VINA RESULT:    -3.624      3.006      5.078
REMARK INTER + INTRA:          -8.078
REMARK INTER:                  -6.114
REMARK INTRA:                  -1.964
REMARK UNBOUND:                -1.699
REMARK SMILES CCCCCCCCCCCCCCC(=O)[O-]
REMARK SMILES IDX 9 1 10 2 11 3 12 4 13 5 14 6 15 7 16 8 17 9 8 10 7 11 6 12
REMARK SMILES IDX 5 13 4 14 3 15 2 16 1 17
REMARK H PARENT
REMARK Flexibility Score: inf
ROOT
ATOM      1  C   UNL     1      28.032  27.240 -16.494  1.00  0.00     0.000 C 
ENDROOT
BRANCH   1   2
ATOM      2  C   UNL     1      29.508  27.601 -16.744  1.00  0.00     0.000 C 
BRANCH   2   3
ATOM      3  C   UNL     1      30.435  27.130 -15.612  1.00  0.00     0.000 C 
BRANCH   3   4
ATOM      4  C   UNL     1      31.494  26.151 -16.143  1.00  0.00     0.000 C 
BRANCH   4   5
ATOM      5  C   UNL     1      31.283  25.796 -17.623  1.00  0.00     0.006 C 
BRANCH   5   6
ATOM      6  C   UNL     1      32.205  24.665 -18.097  1.00  0.00     0.053 C 
BRANCH   6   7
ATOM      7  C   UNL     1      33.201  25.184 -19.085  1.00  0.00     0.041 C 
ATOM      8  O   UNL     1      33.936  24.385 -19.723  1.00  0.00    -0.550 OA
ATOM      9  O   UNL     1      33.281  26.547 -19.341  1.00  0.00    -0.550 OA
ENDBRANCH   6   7
ENDBRANCH   5   6
ENDBRANCH   4   5
ENDBRANCH   3   4
ENDBRANCH   2   3
ENDBRANCH   1   2
BRANCH   1  10
ATOM     10  C   UNL     1      27.795  26.422 -15.209  1.00  0.00     0.000 C 
BRANCH  10  11
ATOM     11  C   UNL     1      26.852  25.212 -15.411  1.00  0.00    -0.000 C 
BRANCH  11  12
ATOM     12  C   UNL     1      27.540  23.853 -15.179  1.00  0.00    -0.000 C 
BRANCH  12  13
ATOM     13  C   UNL     1      28.768  23.600 -16.073  1.00  0.00    -0.000 C 
BRANCH  13  14
ATOM     14  C   UNL     1      28.503  22.713 -17.308  1.00  0.00    -0.000 C 
BRANCH  14  15
ATOM     15  C   UNL     1      28.487  23.455 -18.660  1.00  0.00    -0.000 C 
BRANCH  15  16
ATOM     16  C   UNL     1      27.190  24.228 -18.958  1.00  0.00    -0.003 C 
ATOM     17  C   UNL     1      26.810  24.202 -20.438  1.00  0.00     0.004 C 
ENDBRANCH  15  16
ENDBRANCH  14  15
ENDBRANCH  13  14
ENDBRANCH  12  13
ENDBRANCH  11  12
ENDBRANCH  10  11
ENDBRANCH   1  10
TORSDOF 13
ENDMDL
