MODEL 1
REMARK VINA RESULT:    -4.218      0.000      0.000
REMARK INTER + INTRA:          -9.865
REMARK INTER:                  -7.670
REMARK INTRA:                  -2.194
REMARK UNBOUND:                -2.194
REMARK SMILES CCCCCCCCCCCCCC[C@@H](C)C(=O)[O-]
REMARK SMILES IDX 9 1 10 2 11 3 12 4 13 5 14 6 15 7 16 8 17 9 18 10 19 11 8 12
REMARK SMILES IDX 7 13 6 14 5 15 4 16 3 17 2 18 1 19
REMARK H PARENT
REMARK Flexibility Score: inf
ROOT
ATOM      1  C   UNL     1      23.557   4.362   8.844  1.00  0.00     0.000 C 
ENDROOT
BRANCH   1   2
ATOM      2  C   UNL     1      24.157   5.734   8.469  1.00  0.00     0.000 C 
BRANCH   2   3
ATOM      3  C   UNL     1      24.307   6.721   9.639  1.00  0.00     0.000 C 
BRANCH   3   4
ATOM      4  C   UNL     1      23.039   7.560   9.878  1.00  0.00     0.000 C 
BRANCH   4   5
ATOM      5  C   UNL     1      22.586   7.544  11.346  1.00  0.00     0.001 C 
BRANCH   5   6
ATOM      6  C   UNL     1      23.023   6.266  12.086  1.00  0.00     0.009 C 
BRANCH   6   7
ATOM      7  C   UNL     1      21.914   5.698  12.999  1.00  0.00     0.032 C 
ATOM      8  C   UNL     1      22.264   4.309  13.551  1.00  0.00     0.014 C 
BRANCH   7   9
ATOM      9  C   UNL     1      21.654   6.647  14.138  1.00  0.00     0.044 C 
ATOM     10  O   UNL     1      22.535   6.848  15.016  1.00  0.00    -0.550 OA
ATOM     11  O   UNL     1      20.440   7.316  14.221  1.00  0.00    -0.550 OA
ENDBRANCH   7   9
ENDBRANCH   6   7
ENDBRANCH   5   6
ENDBRANCH   4   5
ENDBRANCH   3   4
ENDBRANCH   2   3
ENDBRANCH   1   2
BRANCH   1  12
ATOM     12  C   UNL     1      22.096   4.147   8.407  1.00  0.00     0.000 C 
BRANCH  12  13
ATOM     13  C   UNL     1      21.062   4.237   9.546  1.00  0.00    -0.000 C 
BRANCH  13  14
ATOM     14  C   UNL     1      19.819   5.082   9.188  1.00  0.00    -0.000 C 
BRANCH  14  15
ATOM     15  C   UNL     1      19.548   6.190  10.220  1.00  0.00    -0.000 C 
BRANCH  15  16
ATOM     16  C   UNL     1      19.064   7.498   9.574  1.00  0.00    -0.000 C 
BRANCH  16  17
ATOM     17  C   UNL     1      17.563   7.747   9.789  1.00  0.00    -0.000 C 
BRANCH  17  18
ATOM     18  C   UNL     1      16.746   7.226   8.601  1.00  0.00    -0.003 C 
ATOM     19  C   UNL     1      17.270   7.787   7.282  1.00  0.00     0.004 C 
ENDBRANCH  17  18
ENDBRANCH  16  17
ENDBRANCH  15  16
ENDBRANCH  14  15
ENDBRANCH  13  14
ENDBRANCH  12  13
ENDBRANCH   1  12
TORSDOF 14
ENDMDL
MODEL 2
REMARK VINA RESULT:    -4.142      6.603     10.168
REMARK INTER + INTRA:          -9.726
REMARK INTER:                  -8.002
REMARK INTRA:                  -1.723
REMARK UNBOUND:                -2.194
REMARK SMILES CCCCCCCCCCCCCC[C@@H](C)C(=O)[O-]
REMARK SMILES IDX 9 1 10 2 11 3 12 4 13 5 14 6 15 7 16 8 17 9 18 10 19 11 8 12
REMARK SMILES IDX 7 13 6 14 5 15 4 16 3 17 2 18 1 19
REMARK H PARENT
REMARK Flexibility Score: inf
ROOT
ATOM      1  C   UNL     1      22.993   4.678  19.459  1.00  0.00     0.000 C 
ENDROOT
BRANCH   1   2
ATOM      2  C   UNL     1      23.194   6.048  18.777  1.00  0.00     0.000 C 
BRANCH   2   3
ATOM      3  C   UNL     1      22.840   6.090  17.281  1.00  0.00     0.000 C 
BRANCH   3   4
ATOM      4  C   UNL     1      23.782   6.997  16.469  1.00  0.00     0.000 C 
BRANCH   4   5
ATOM      5  C   UNL     1      24.340   6.303  15.217  1.00  0.00     0.001 C 
BRANCH   5   6
ATOM      6  C   UNL     1      25.623   5.503  15.507  1.00  0.00     0.009 C 
BRANCH   6   7
ATOM      7  C   UNL     1      26.905   6.268  15.109  1.00  0.00     0.032 C 
ATOM      8  C   UNL     1      28.153   5.732  15.826  1.00  0.00     0.014 C 
BRANCH   7   9
ATOM      9  C   UNL     1      27.103   6.193  13.620  1.00  0.00     0.044 C 
ATOM     10  O   UNL     1      26.763   5.162  12.980  1.00  0.00    -0.550 OA
ATOM     11  O   UNL     1      27.655   7.270  12.938  1.00  0.00    -0.550 OA
ENDBRANCH   7   9
ENDBRANCH   6   7
ENDBRANCH   5   6
ENDBRANCH   4   5
ENDBRANCH   3   4
ENDBRANCH   2   3
ENDBRANCH   1   2
BRANCH   1  12
ATOM     12  C   UNL     1      22.884   3.480  18.497  1.00  0.00     0.000 C 
BRANCH  12  13
ATOM     13  C   UNL     1      24.228   2.979  17.934  1.00  0.00    -0.000 C 
BRANCH  13  14
ATOM     14  C   UNL     1      25.344   2.874  18.997  1.00  0.00    -0.000 C 
BRANCH  14  15
ATOM     15  C   UNL     1      26.594   3.684  18.614  1.00  0.00    -0.000 C 
BRANCH  15  16
ATOM     16  C   UNL     1      27.878   2.839  18.637  1.00  0.00    -0.000 C 
BRANCH  16  17
ATOM     17  C   UNL     1      28.233   2.259  17.259  1.00  0.00    -0.000 C 
BRANCH  17  18
ATOM     18  C   UNL     1      29.555   1.485  17.316  1.00  0.00    -0.003 C 
ATOM     19  C   UNL     1      30.666   2.333  17.929  1.00  0.00     0.004 C 
ENDBRANCH  17  18
ENDBRANCH  16  17
ENDBRANCH  15  16
ENDBRANCH  14  15
ENDBRANCH  13  14
ENDBRANCH  12  13
ENDBRANCH   1  12
TORSDOF 14
ENDMDL
MODEL 3
REMARK VINA RESULT:    -4.052      6.122      9.362
REMARK INTER + INTRA:          -9.563
REMARK INTER:                  -7.275
REMARK INTRA:                  -2.288
REMARK UNBOUND:                -2.194
REMARK SMILES CCCCCCCCCCCCCC[C@@H](C)C(=O)[O-]
REMARK SMILES IDX 9 1 10 2 11 3 12 4 13 5 14 6 15 7 16 8 17 9 18 10 19 11 8 12
REMARK SMILES IDX 7 13 6 14 5 15 4 16 3 17 2 18 1 19
REMARK H PARENT
REMARK Flexibility Score: inf
ROOT
ATOM      1  C   UNL     1      30.595   4.317  16.883  1.00  0.00     0.000 C 
ENDROOT
BRANCH   1   2
ATOM      2  C   UNL     1      30.076   5.753  16.654  1.00  0.00     0.000 C 
BRANCH   2   3
ATOM      3  C   UNL     1      29.265   5.955  15.362  1.00  0.00     0.000 C 
BRANCH   3   4
ATOM      4  C   UNL     1      28.598   4.659  14.868  1.00  0.00     0.000 C 
BRANCH   4   5
ATOM      5  C   UNL     1      27.127   4.547  15.302  1.00  0.00     0.001 C 
BRANCH   5   6
ATOM      6  C   UNL     1      26.495   5.917  15.608  1.00  0.00     0.009 C 
BRANCH   6   7
ATOM      7  C   UNL     1      25.178   6.150  14.834  1.00  0.00     0.032 C 
ATOM      8  C   UNL     1      24.174   6.996  15.630  1.00  0.00     0.014 C 
BRANCH   7   9
ATOM      9  C   UNL     1      25.471   6.815  13.516  1.00  0.00     0.044 C 
ATOM     10  O   UNL     1      24.555   6.982  12.667  1.00  0.00    -0.550 OA
ATOM     11  O   UNL     1      26.756   7.258  13.233  1.00  0.00    -0.550 OA
ENDBRANCH   7   9
ENDBRANCH   6   7
ENDBRANCH   5   6
ENDBRANCH   4   5
ENDBRANCH   3   4
ENDBRANCH   2   3
ENDBRANCH   1   2
BRANCH   1  12
ATOM     12  C   UNL     1      30.149   3.665  18.205  1.00  0.00     0.000 C 
BRANCH  12  13
ATOM     13  C   UNL     1      28.756   4.098  18.701  1.00  0.00    -0.000 C 
BRANCH  13  14
ATOM     14  C   UNL     1      27.671   3.013  18.523  1.00  0.00    -0.000 C 
BRANCH  14  15
ATOM     15  C   UNL     1      26.262   3.537  18.850  1.00  0.00    -0.000 C 
BRANCH  15  16
ATOM     16  C   UNL     1      25.164   2.834  18.036  1.00  0.00    -0.000 C 
BRANCH  16  17
ATOM     17  C   UNL     1      24.068   3.800  17.559  1.00  0.00    -0.000 C 
BRANCH  17  18
ATOM     18  C   UNL     1      23.092   4.126  18.695  1.00  0.00    -0.003 C 
ATOM     19  C   UNL     1      23.143   5.607  19.059  1.00  0.00     0.004 C 
ENDBRANCH  17  18
ENDBRANCH  16  17
ENDBRANCH  15  16
ENDBRANCH  14  15
ENDBRANCH  13  14
ENDBRANCH  12  13
ENDBRANCH   1  12
TORSDOF 14
ENDMDL
MODEL 4
REMARK VINA RESULT:    -4.032      6.181      9.674
REMARK INTER + INTRA:          -9.526
REMARK INTER:                  -7.571
REMARK INTRA:                  -1.955
REMARK UNBOUND:                -2.194
REMARK SMILES CCCCCCCCCCCCCC[C@@H](C)C(=O)[O-]
REMARK SMILES IDX 9 1 10 2 11 3 12 4 13 5 14 6 15 7 16 8 17 9 18 10 19 11 8 12
REMARK SMILES IDX 7 13 6 14 5 15 4 16 3 17 2 18 1 19
REMARK H PARENT
REMARK Flexibility Score: inf
ROOT
ATOM      1  C   UNL     1      23.808   4.621  18.128  1.00  0.00     0.000 C 
ENDROOT
BRANCH   1   2
ATOM      2  C   UNL     1      22.864   4.249  16.965  1.00  0.00     0.000 C 
BRANCH   2   3
ATOM      3  C   UNL     1      22.529   5.403  16.003  1.00  0.00     0.000 C 
BRANCH   3   4
ATOM      4  C   UNL     1      22.984   6.773  16.534  1.00  0.00     0.000 C 
BRANCH   4   5
ATOM      5  C   UNL     1      24.373   7.179  16.016  1.00  0.00     0.001 C 
BRANCH   5   6
ATOM      6  C   UNL     1      24.631   6.696  14.577  1.00  0.00     0.009 C 
BRANCH   6   7
ATOM      7  C   UNL     1      25.992   5.981  14.424  1.00  0.00     0.032 C 
ATOM      8  C   UNL     1      25.870   4.456  14.548  1.00  0.00     0.014 C 
BRANCH   7   9
ATOM      9  C   UNL     1      26.609   6.336  13.097  1.00  0.00     0.044 C 
ATOM     10  O   UNL     1      27.543   7.178  13.031  1.00  0.00    -0.550 OA
ATOM     11  O   UNL     1      26.154   5.724  11.936  1.00  0.00    -0.550 OA
ENDBRANCH   7   9
ENDBRANCH   6   7
ENDBRANCH   5   6
ENDBRANCH   4   5
ENDBRANCH   3   4
ENDBRANCH   2   3
ENDBRANCH   1   2
BRANCH   1  12
ATOM     12  C   UNL     1      25.173   3.909  18.114  1.00  0.00     0.000 C 
BRANCH  12  13
ATOM     13  C   UNL     1      25.254   2.648  18.996  1.00  0.00    -0.000 C 
BRANCH  13  14
ATOM     14  C   UNL     1      26.639   1.966  18.975  1.00  0.00    -0.000 C 
BRANCH  14  15
ATOM     15  C   UNL     1      27.641   2.703  18.071  1.00  0.00    -0.000 C 
BRANCH  15  16
ATOM     16  C   UNL     1      28.796   3.340  18.859  1.00  0.00    -0.000 C 
BRANCH  16  17
ATOM     17  C   UNL     1      29.264   4.674  18.257  1.00  0.00    -0.000 C 
BRANCH  17  18
ATOM     18  C   UNL     1      28.670   4.882  16.860  1.00  0.00    -0.003 C 
ATOM     19  C   UNL     1      29.299   6.086  16.166  1.00  0.00     0.004 C 
ENDBRANCH  17  18
ENDBRANCH  16  17
ENDBRANCH  15  16
ENDBRANCH  14  15
ENDBRANCH  13  14
ENDBRANCH  12  13
ENDBRANCH   1  12
TORSDOF 14
ENDMDL
MODEL 5
REMARK VINA RESULT:    -4.031      6.289      9.171
REMARK INTER + INTRA:          -9.524
REMARK INTER:                  -7.371
REMARK INTRA:                  -2.153
REMARK UNBOUND:                -2.194
REMARK SMILES CCCCCCCCCCCCCC[C@@H](C)C(=O)[O-]
REMARK SMILES IDX 9 1 10 2 11 3 12 4 13 5 14 6 15 7 16 8 17 9 18 10 19 11 8 12
REMARK SMILES IDX 7 13 6 14 5 15 4 16 3 17 2 18 1 19
REMARK H PARENT
REMARK Flexibility Score: inf
ROOT
ATOM      1  C   UNL     1      25.458   1.797  18.766  1.00  0.00     0.000 C 
ENDROOT
BRANCH   1   2
ATOM      2  C   UNL     1      26.270   3.097  18.948  1.00  0.00     0.000 C 
BRANCH   2   3
ATOM      3  C   UNL     1      26.717   3.775  17.642  1.00  0.00     0.000 C 
BRANCH   3   4
ATOM      4  C   UNL     1      26.517   2.881  16.406  1.00  0.00     0.000 C 
BRANCH   4   5
ATOM      5  C   UNL     1      26.100   3.676  15.159  1.00  0.00     0.001 C 
BRANCH   5   6
ATOM      6  C   UNL     1      26.488   5.163  15.250  1.00  0.00     0.009 C 
BRANCH   6   7
ATOM      7  C   UNL     1      26.452   5.873  13.877  1.00  0.00     0.032 C 
ATOM      8  C   UNL     1      25.178   6.708  13.683  1.00  0.00     0.014 C 
BRANCH   7   9
ATOM      9  C   UNL     1      27.664   6.751  13.724  1.00  0.00     0.044 C 
ATOM     10  O   UNL     1      28.536   6.801  14.632  1.00  0.00    -0.550 OA
ATOM     11  O   UNL     1      27.831   7.507  12.571  1.00  0.00    -0.550 OA
ENDBRANCH   7   9
ENDBRANCH   6   7
ENDBRANCH   5   6
ENDBRANCH   4   5
ENDBRANCH   3   4
ENDBRANCH   2   3
ENDBRANCH   1   2
BRANCH   1  12
ATOM     12  C   UNL     1      24.954   1.153  20.070  1.00  0.00     0.000 C 
BRANCH  12  13
ATOM     13  C   UNL     1      23.913   1.987  20.842  1.00  0.00    -0.000 C 
BRANCH  13  14
ATOM     14  C   UNL     1      22.944   2.768  19.928  1.00  0.00    -0.000 C 
BRANCH  14  15
ATOM     15  C   UNL     1      22.930   4.274  20.241  1.00  0.00    -0.000 C 
BRANCH  15  16
ATOM     16  C   UNL     1      22.918   5.144  18.973  1.00  0.00    -0.000 C 
BRANCH  16  17
ATOM     17  C   UNL     1      22.866   4.313  17.682  1.00  0.00    -0.000 C 
BRANCH  17  18
ATOM     18  C   UNL     1      22.989   5.213  16.447  1.00  0.00    -0.003 C 
ATOM     19  C   UNL     1      23.114   6.681  16.844  1.00  0.00     0.004 C 
ENDBRANCH  17  18
ENDBRANCH  16  17
ENDBRANCH  15  16
ENDBRANCH  14  15
ENDBRANCH  13  14
ENDBRANCH  12  13
ENDBRANCH   1  12
TORSDOF 14
ENDMDL
MODEL 6
REMARK VINA RESULT:    -3.994      2.216      5.500
REMARK INTER + INTRA:          -9.457
REMARK INTER:                  -7.010
REMARK INTRA:                  -2.446
REMARK UNBOUND:                -2.194
REMARK SMILES CCCCCCCCCCCCCC[C@@H](C)C(=O)[O-]
REMARK SMILES IDX 9 1 10 2 11 3 12 4 13 5 14 6 15 7 16 8 17 9 18 10 19 11 8 12
REMARK SMILES IDX 7 13 6 14 5 15 4 16 3 17 2 18 1 19
REMARK H PARENT
REMARK Flexibility Score: inf
ROOT
ATOM      1  C   UNL     1      23.365   3.987   9.545  1.00  0.00     0.000 C 
ENDROOT
BRANCH   1   2
ATOM      2  C   UNL     1      23.815   5.242   8.767  1.00  0.00     0.000 C 
BRANCH   2   3
ATOM      3  C   UNL     1      24.261   6.426   9.643  1.00  0.00     0.000 C 
BRANCH   3   4
ATOM      4  C   UNL     1      23.156   7.481   9.829  1.00  0.00     0.000 C 
BRANCH   4   5
ATOM      5  C   UNL     1      22.664   7.574  11.282  1.00  0.00     0.001 C 
BRANCH   5   6
ATOM      6  C   UNL     1      21.502   6.608  11.575  1.00  0.00     0.009 C 
BRANCH   6   7
ATOM      7  C   UNL     1      20.456   6.573  10.438  1.00  0.00     0.032 C 
ATOM      8  C   UNL     1      19.952   5.151  10.150  1.00  0.00     0.014 C 
BRANCH   7   9
ATOM      9  C   UNL     1      19.294   7.464  10.783  1.00  0.00     0.044 C 
ATOM     10  O   UNL     1      18.907   8.351   9.978  1.00  0.00    -0.550 OA
ATOM     11  O   UNL     1      18.634   7.303  11.995  1.00  0.00    -0.550 OA
ENDBRANCH   7   9
ENDBRANCH   6   7
ENDBRANCH   5   6
ENDBRANCH   4   5
ENDBRANCH   3   4
ENDBRANCH   2   3
ENDBRANCH   1   2
BRANCH   1  12
ATOM     12  C   UNL     1      24.150   3.705  10.839  1.00  0.00     0.000 C 
BRANCH  12  13
ATOM     13  C   UNL     1      23.289   3.634  12.115  1.00  0.00    -0.000 C 
BRANCH  13  14
ATOM     14  C   UNL     1      23.934   4.324  13.337  1.00  0.00    -0.000 C 
BRANCH  14  15
ATOM     15  C   UNL     1      25.074   5.276  12.936  1.00  0.00    -0.000 C 
BRANCH  15  16
ATOM     16  C   UNL     1      25.483   6.224  14.074  1.00  0.00    -0.000 C 
BRANCH  16  17
ATOM     17  C   UNL     1      24.800   5.883  15.408  1.00  0.00    -0.000 C 
BRANCH  17  18
ATOM     18  C   UNL     1      23.858   7.010  15.844  1.00  0.00    -0.003 C 
ATOM     19  C   UNL     1      22.947   6.559  16.983  1.00  0.00     0.004 C 
ENDBRANCH  17  18
ENDBRANCH  16  17
ENDBRANCH  15  16
ENDBRANCH  14  15
ENDBRANCH  13  14
ENDBRANCH  12  13
ENDBRANCH   1  12
TORSDOF 14
ENDMDL
MODEL 7
REMARK VINA RESULT:    -3.980     11.257     13.572
REMARK INTER + INTRA:          -9.432
REMARK INTER:                  -7.322
REMARK INTRA:                  -2.111
REMARK UNBOUND:                -2.194
REMARK SMILES CCCCCCCCCCCCCC[C@@H](C)C(=O)[O-]
REMARK SMILES IDX 9 1 10 2 11 3 12 4 13 5 14 6 15 7 16 8 17 9 18 10 19 11 8 12
REMARK SMILES IDX 7 13 6 14 5 15 4 16 3 17 2 18 1 19
REMARK H PARENT
REMARK Flexibility Score: inf
ROOT
ATOM      1  C   UNL     1      28.542  -2.077   9.375  1.00  0.00     0.000 C 
ENDROOT
BRANCH   1   2
ATOM      2  C   UNL     1      28.050  -3.390   8.731  1.00  0.00     0.000 C 
BRANCH   2   3
ATOM      3  C   UNL     1      29.093  -4.123   7.868  1.00  0.00     0.000 C 
BRANCH   3   4
ATOM      4  C   UNL     1      30.516  -3.569   8.054  1.00  0.00     0.000 C 
BRANCH   4   5
ATOM      5  C   UNL     1      31.173  -3.161   6.726  1.00  0.00     0.001 C 
BRANCH   5   6
ATOM      6  C   UNL     1      30.837  -4.131   5.579  1.00  0.00     0.009 C 
BRANCH   6   7
ATOM      7  C   UNL     1      30.362  -3.401   4.302  1.00  0.00     0.032 C 
ATOM      8  C   UNL     1      29.209  -2.426   4.580  1.00  0.00     0.014 C 
BRANCH   7   9
ATOM      9  C   UNL     1      31.514  -2.661   3.678  1.00  0.00     0.044 C 
ATOM     10  O   UNL     1      31.366  -1.481   3.262  1.00  0.00    -0.550 OA
ATOM     11  O   UNL     1      32.754  -3.276   3.565  1.00  0.00    -0.550 OA
ENDBRANCH   7   9
ENDBRANCH   6   7
ENDBRANCH   5   6
ENDBRANCH   4   5
ENDBRANCH   3   4
ENDBRANCH   2   3
ENDBRANCH   1   2
BRANCH   1  12
ATOM     12  C   UNL     1      27.945  -0.791   8.774  1.00  0.00     0.000 C 
BRANCH  12  13
ATOM     13  C   UNL     1      28.615  -0.317   7.470  1.00  0.00    -0.000 C 
BRANCH  13  14
ATOM     14  C   UNL     1      30.062   0.188   7.665  1.00  0.00    -0.000 C 
BRANCH  14  15
ATOM     15  C   UNL     1      30.702   0.649   6.345  1.00  0.00    -0.000 C 
BRANCH  15  16
ATOM     16  C   UNL     1      29.664   1.125   5.315  1.00  0.00    -0.000 C 
BRANCH  16  17
ATOM     17  C   UNL     1      30.302   1.844   4.117  1.00  0.00    -0.000 C 
BRANCH  17  18
ATOM     18  C   UNL     1      30.048   3.354   4.186  1.00  0.00    -0.003 C 
ATOM     19  C   UNL     1      29.075   3.801   3.099  1.00  0.00     0.004 C 
ENDBRANCH  17  18
ENDBRANCH  16  17
ENDBRANCH  15  16
ENDBRANCH  14  15
ENDBRANCH  13  14
ENDBRANCH  12  13
ENDBRANCH   1  12
TORSDOF 14
ENDMDL
MODEL 8
REMARK VINA RESULT:    -3.965      6.416      9.805
REMARK INTER + INTRA:          -9.404
REMARK INTER:                  -7.467
REMARK INTRA:                  -1.936
REMARK UNBOUND:                -2.194
REMARK SMILES CCCCCCCCCCCCCC[C@@H](C)C(=O)[O-]
REMARK SMILES IDX 9 1 10 2 11 3 12 4 13 5 14 6 15 7 16 8 17 9 18 10 19 11 8 12
REMARK SMILES IDX 7 13 6 14 5 15 4 16 3 17 2 18 1 19
REMARK H PARENT
REMARK Flexibility Score: inf
ROOT
ATOM      1  C   UNL     1      24.278   3.713  17.940  1.00  0.00     0.000 C 
ENDROOT
BRANCH   1   2
ATOM      2  C   UNL     1      23.008   4.476  18.371  1.00  0.00     0.000 C 
BRANCH   2   3
ATOM      3  C   UNL     1      23.118   6.009  18.314  1.00  0.00     0.000 C 
BRANCH   3   4
ATOM      4  C   UNL     1      22.717   6.586  16.945  1.00  0.00     0.000 C 
BRANCH   4   5
ATOM      5  C   UNL     1      23.908   7.188  16.183  1.00  0.00     0.001 C 
BRANCH   5   6
ATOM      6  C   UNL     1      24.307   6.350  14.955  1.00  0.00     0.009 C 
BRANCH   6   7
ATOM      7  C   UNL     1      25.690   5.679  15.115  1.00  0.00     0.032 C 
ATOM      8  C   UNL     1      25.762   4.312  14.420  1.00  0.00     0.014 C 
BRANCH   7   9
ATOM      9  C   UNL     1      26.763   6.583  14.572  1.00  0.00     0.044 C 
ATOM     10  O   UNL     1      26.656   7.082  13.420  1.00  0.00    -0.550 OA
ATOM     11  O   UNL     1      27.877   6.881  15.346  1.00  0.00    -0.550 OA
ENDBRANCH   7   9
ENDBRANCH   6   7
ENDBRANCH   5   6
ENDBRANCH   4   5
ENDBRANCH   3   4
ENDBRANCH   2   3
ENDBRANCH   1   2
BRANCH   1  12
ATOM     12  C   UNL     1      24.026   2.430  17.127  1.00  0.00     0.000 C 
BRANCH  12  13
ATOM     13  C   UNL     1      24.104   1.124  17.941  1.00  0.00    -0.000 C 
BRANCH  13  14
ATOM     14  C   UNL     1      25.464   0.910  18.641  1.00  0.00    -0.000 C 
BRANCH  14  15
ATOM     15  C   UNL     1      25.368   1.069  20.167  1.00  0.00    -0.000 C 
BRANCH  15  16
ATOM     16  C   UNL     1      23.918   1.204  20.660  1.00  0.00    -0.000 C 
BRANCH  16  17
ATOM     17  C   UNL     1      23.806   1.999  21.970  1.00  0.00    -0.000 C 
BRANCH  17  18
ATOM     18  C   UNL     1      22.556   2.887  21.966  1.00  0.00    -0.003 C 
ATOM     19  C   UNL     1      21.483   2.327  21.038  1.00  0.00     0.004 C 
ENDBRANCH  17  18
ENDBRANCH  16  17
ENDBRANCH  15  16
ENDBRANCH  14  15
ENDBRANCH  13  14
ENDBRANCH  12  13
ENDBRANCH   1  12
TORSDOF 14
ENDMDL
