MODEL 1
REMARK VINA RESULT:    -4.847      0.000      0.000
REMARK INTER + INTRA:          -4.847
REMARK INTER:                  -4.847
REMARK INTRA:                   0.000
REMARK UNBOUND:                 0.000
REMARK SMILES CC1=CC(=O)[C@H]2C[C@@H]1C2(C)C
REMARK SMILES IDX 1 1 2 2 3 3 4 4 5 5 6 6 7 7 8 8 9 9 10 10 11 11
REMARK H PARENT
REMARK Flexibility Score: inf
ROOT
ATOM      1  C   UNL     1      19.007  12.160  25.625  1.00  0.00     0.040 C 
ATOM      2  C   UNL     1      18.505  13.520  25.261  1.00  0.00    -0.066 C 
ATOM      3  C   UNL     1      19.335  14.600  25.241  1.00  0.00     0.047 C 
ATOM      4  C   UNL     1      18.706  15.914  24.891  1.00  0.00     0.159 C 
ATOM      5  O   UNL     1      19.360  16.990  24.878  1.00  0.00    -0.295 OA
ATOM      6  C   UNL     1      17.215  15.857  24.553  1.00  0.00     0.067 C 
ATOM      7  C   UNL     1      17.090  14.646  23.603  1.00  0.00     0.021 C 
ATOM      8  C   UNL     1      17.031  13.767  24.873  1.00  0.00     0.022 C 
ATOM      9  C   UNL     1      16.495  15.009  25.640  1.00  0.00    -0.019 C 
ATOM     10  C   UNL     1      16.918  15.197  27.125  1.00  0.00     0.012 C 
ATOM     11  C   UNL     1      14.952  15.134  25.556  1.00  0.00     0.012 C 
ENDROOT
TORSDOF 0
ENDMDL
MODEL 2
REMARK VINA RESULT:    -4.815     10.371     11.533
REMARK INTER + INTRA:          -4.815
REMARK INTER:                  -4.815
REMARK INTRA:                   0.000
REMARK UNBOUND:                 0.000
REMARK SMILES CC1=CC(=O)[C@H]2C[C@@H]1C2(C)C
REMARK SMILES IDX 1 1 2 2 3 3 4 4 5 5 6 6 7 7 8 8 9 9 10 10 11 11
REMARK H PARENT
REMARK Flexibility Score: inf
ROOT
ATOM      1  C   UNL     1      14.798  14.781  14.775  1.00  0.00     0.040 C 
ATOM      2  C   UNL     1      15.769  15.882  14.494  1.00  0.00    -0.066 C 
ATOM      3  C   UNL     1      15.631  16.688  13.405  1.00  0.00     0.047 C 
ATOM      4  C   UNL     1      16.688  17.734  13.216  1.00  0.00     0.159 C 
ATOM      5  O   UNL     1      16.692  18.513  12.227  1.00  0.00    -0.295 OA
ATOM      6  C   UNL     1      17.759  17.788  14.306  1.00  0.00     0.067 C 
ATOM      7  C   UNL     1      16.959  17.705  15.624  1.00  0.00     0.021 C 
ATOM      8  C   UNL     1      16.963  16.172  15.429  1.00  0.00     0.022 C 
ATOM      9  C   UNL     1      18.257  16.340  14.581  1.00  0.00    -0.019 C 
ATOM     10  C   UNL     1      18.470  15.390  13.368  1.00  0.00     0.012 C 
ATOM     11  C   UNL     1      19.540  16.314  15.450  1.00  0.00     0.012 C 
ENDROOT
TORSDOF 0
ENDMDL
MODEL 3
REMARK VINA RESULT:    -4.806      0.857      3.156
REMARK INTER + INTRA:          -4.806
REMARK INTER:                  -4.806
REMARK INTRA:                   0.000
REMARK UNBOUND:                 0.000
REMARK SMILES CC1=CC(=O)[C@H]2C[C@@H]1C2(C)C
REMARK SMILES IDX 1 1 2 2 3 3 4 4 5 5 6 6 7 7 8 8 9 9 10 10 11 11
REMARK H PARENT
REMARK Flexibility Score: inf
ROOT
ATOM      1  C   UNL     1      14.371  15.107  25.249  1.00  0.00     0.040 C 
ATOM      2  C   UNL     1      15.861  15.223  25.253  1.00  0.00    -0.066 C 
ATOM      3  C   UNL     1      16.490  16.292  24.690  1.00  0.00     0.047 C 
ATOM      4  C   UNL     1      17.988  16.278  24.730  1.00  0.00     0.159 C 
ATOM      5  O   UNL     1      18.683  17.188  24.209  1.00  0.00    -0.295 OA
ATOM      6  C   UNL     1      18.612  15.079  25.447  1.00  0.00     0.067 C 
ATOM      7  C   UNL     1      17.788  14.946  26.746  1.00  0.00     0.021 C 
ATOM      8  C   UNL     1      16.760  14.152  25.909  1.00  0.00     0.022 C 
ATOM      9  C   UNL     1      17.919  13.783  24.939  1.00  0.00    -0.019 C 
ATOM     10  C   UNL     1      17.598  13.663  23.422  1.00  0.00     0.012 C 
ATOM     11  C   UNL     1      18.671  12.502  25.379  1.00  0.00     0.012 C 
ENDROOT
TORSDOF 0
ENDMDL
MODEL 4
REMARK VINA RESULT:    -4.721      1.703      3.014
REMARK INTER + INTRA:          -4.721
REMARK INTER:                  -4.721
REMARK INTRA:                   0.000
REMARK UNBOUND:                 0.000
REMARK SMILES CC1=CC(=O)[C@H]2C[C@@H]1C2(C)C
REMARK SMILES IDX 1 1 2 2 3 3 4 4 5 5 6 6 7 7 8 8 9 9 10 10 11 11
REMARK H PARENT
REMARK Flexibility Score: inf
ROOT
ATOM      1  C   UNL     1      19.778  16.981  24.874  1.00  0.00     0.040 C 
ATOM      2  C   UNL     1      19.071  15.725  25.271  1.00  0.00    -0.066 C 
ATOM      3  C   UNL     1      19.708  14.521  25.265  1.00  0.00     0.047 C 
ATOM      4  C   UNL     1      18.882  13.332  25.652  1.00  0.00     0.159 C 
ATOM      5  O   UNL     1      19.345  12.161  25.647  1.00  0.00    -0.295 OA
ATOM      6  C   UNL     1      17.438  13.639  26.053  1.00  0.00     0.067 C 
ATOM      7  C   UNL     1      17.560  14.855  26.996  1.00  0.00     0.021 C 
ATOM      8  C   UNL     1      17.595  15.730  25.723  1.00  0.00     0.022 C 
ATOM      9  C   UNL     1      16.824  14.595  24.990  1.00  0.00    -0.019 C 
ATOM     10  C   UNL     1      17.145  14.337  23.490  1.00  0.00     0.012 C 
ATOM     11  C   UNL     1      15.287  14.732  25.140  1.00  0.00     0.012 C 
ENDROOT
TORSDOF 0
ENDMDL
MODEL 5
REMARK VINA RESULT:    -4.685      1.879      3.250
REMARK INTER + INTRA:          -4.685
REMARK INTER:                  -4.685
REMARK INTRA:                   0.000
REMARK UNBOUND:                 0.000
REMARK SMILES CC1=CC(=O)[C@H]2C[C@@H]1C2(C)C
REMARK SMILES IDX 1 1 2 2 3 3 4 4 5 5 6 6 7 7 8 8 9 9 10 10 11 11
REMARK H PARENT
REMARK Flexibility Score: inf
ROOT
ATOM      1  C   UNL     1      18.840  17.349  23.613  1.00  0.00     0.040 C 
ATOM      2  C   UNL     1      17.859  16.285  23.985  1.00  0.00    -0.066 C 
ATOM      3  C   UNL     1      16.543  16.572  24.183  1.00  0.00     0.047 C 
ATOM      4  C   UNL     1      15.665  15.424  24.582  1.00  0.00     0.159 C 
ATOM      5  O   UNL     1      14.440  15.570  24.832  1.00  0.00    -0.295 OA
ATOM      6  C   UNL     1      16.363  14.065  24.666  1.00  0.00     0.067 C 
ATOM      7  C   UNL     1      17.212  13.997  23.378  1.00  0.00     0.021 C 
ATOM      8  C   UNL     1      18.281  14.808  24.144  1.00  0.00     0.022 C 
ATOM      9  C   UNL     1      17.687  14.238  25.464  1.00  0.00    -0.019 C 
ATOM     10  C   UNL     1      17.677  15.153  26.722  1.00  0.00     0.012 C 
ATOM     11  C   UNL     1      18.318  12.879  25.858  1.00  0.00     0.012 C 
ENDROOT
TORSDOF 0
ENDMDL
MODEL 6
REMARK VINA RESULT:    -4.661      4.497      5.980
REMARK INTER + INTRA:          -4.661
REMARK INTER:                  -4.661
REMARK INTRA:                   0.000
REMARK UNBOUND:                 0.000
REMARK SMILES CC1=CC(=O)[C@H]2C[C@@H]1C2(C)C
REMARK SMILES IDX 1 1 2 2 3 3 4 4 5 5 6 6 7 7 8 8 9 9 10 10 11 11
REMARK H PARENT
REMARK Flexibility Score: inf
ROOT
ATOM      1  C   UNL     1      17.082  17.752  23.041  1.00  0.00     0.040 C 
ATOM      2  C   UNL     1      15.597  17.768  23.216  1.00  0.00    -0.066 C 
ATOM      3  C   UNL     1      14.957  16.802  23.931  1.00  0.00     0.047 C 
ATOM      4  C   UNL     1      13.464  16.911  24.006  1.00  0.00     0.159 C 
ATOM      5  O   UNL     1      12.757  16.058  24.603  1.00  0.00    -0.295 OA
ATOM      6  C   UNL     1      12.861  18.130  23.307  1.00  0.00     0.067 C 
ATOM      7  C   UNL     1      13.760  19.304  23.751  1.00  0.00     0.021 C 
ATOM      8  C   UNL     1      14.719  18.886  22.613  1.00  0.00     0.022 C 
ATOM      9  C   UNL     1      13.495  18.252  21.892  1.00  0.00    -0.019 C 
ATOM     10  C   UNL     1      13.720  16.951  21.068  1.00  0.00     0.012 C 
ATOM     11  C   UNL     1      12.745  19.270  20.996  1.00  0.00     0.012 C 
ENDROOT
TORSDOF 0
ENDMDL
MODEL 7
REMARK VINA RESULT:    -4.631      4.772      6.543
REMARK INTER + INTRA:          -4.631
REMARK INTER:                  -4.631
REMARK INTRA:                   0.000
REMARK UNBOUND:                 0.000
REMARK SMILES CC1=CC(=O)[C@H]2C[C@@H]1C2(C)C
REMARK SMILES IDX 1 1 2 2 3 3 4 4 5 5 6 6 7 7 8 8 9 9 10 10 11 11
REMARK H PARENT
REMARK Flexibility Score: inf
ROOT
ATOM      1  C   UNL     1      13.371  20.881  23.709  1.00  0.00     0.040 C 
ATOM      2  C   UNL     1      13.487  19.492  23.167  1.00  0.00    -0.066 C 
ATOM      3  C   UNL     1      12.386  18.783  22.792  1.00  0.00     0.047 C 
ATOM      4  C   UNL     1      12.631  17.391  22.295  1.00  0.00     0.159 C 
ATOM      5  O   UNL     1      11.693  16.624  21.956  1.00  0.00    -0.295 OA
ATOM      6  C   UNL     1      14.100  16.968  22.228  1.00  0.00     0.067 C 
ATOM      7  C   UNL     1      14.810  18.175  21.576  1.00  0.00     0.021 C 
ATOM      8  C   UNL     1      14.856  18.800  22.988  1.00  0.00     0.022 C 
ATOM      9  C   UNL     1      14.787  17.358  23.568  1.00  0.00    -0.019 C 
ATOM     10  C   UNL     1      14.003  17.134  24.893  1.00  0.00     0.012 C 
ATOM     11  C   UNL     1      16.189  16.715  23.719  1.00  0.00     0.012 C 
ENDROOT
TORSDOF 0
ENDMDL
MODEL 8
REMARK VINA RESULT:    -4.609     10.035     11.665
REMARK INTER + INTRA:          -4.609
REMARK INTER:                  -4.609
REMARK INTRA:                   0.000
REMARK UNBOUND:                 0.000
REMARK SMILES CC1=CC(=O)[C@H]2C[C@@H]1C2(C)C
REMARK SMILES IDX 1 1 2 2 3 3 4 4 5 5 6 6 7 7 8 8 9 9 10 10 11 11
REMARK H PARENT
REMARK Flexibility Score: inf
ROOT
ATOM      1  C   UNL     1      16.251  18.490  12.131  1.00  0.00     0.040 C 
ATOM      2  C   UNL     1      16.521  17.367  13.079  1.00  0.00    -0.066 C 
ATOM      3  C   UNL     1      15.511  16.598  13.573  1.00  0.00     0.047 C 
ATOM      4  C   UNL     1      15.907  15.523  14.540  1.00  0.00     0.159 C 
ATOM      5  O   UNL     1      15.062  14.774  15.095  1.00  0.00    -0.295 OA
ATOM      6  C   UNL     1      17.409  15.401  14.804  1.00  0.00     0.067 C 
ATOM      7  C   UNL     1      18.046  15.472  13.399  1.00  0.00     0.021 C 
ATOM      8  C   UNL     1      17.954  17.009  13.530  1.00  0.00     0.022 C 
ATOM      9  C   UNL     1      17.980  16.822  15.074  1.00  0.00    -0.019 C 
ATOM     10  C   UNL     1      17.143  17.801  15.948  1.00  0.00     0.012 C 
ATOM     11  C   UNL     1      19.422  16.780  15.640  1.00  0.00     0.012 C 
ENDROOT
TORSDOF 0
ENDMDL
MODEL 9
REMARK VINA RESULT:    -3.394      1.731      3.169
REMARK INTER + INTRA:          -3.394
REMARK INTER:                  -3.394
REMARK INTRA:                   0.000
REMARK UNBOUND:                 0.000
REMARK SMILES CC1=CC(=O)[C@H]2C[C@@H]1C2(C)C
REMARK SMILES IDX 1 1 2 2 3 3 4 4 5 5 6 6 7 7 8 8 9 9 10 10 11 11
REMARK H PARENT
REMARK Flexibility Score: inf
ROOT
ATOM      1  C   UNL     1      20.630  15.968  23.737  1.00  0.00     0.040 C 
ATOM      2  C   UNL     1      19.550  15.257  24.488  1.00  0.00    -0.066 C 
ATOM      3  C   UNL     1      18.844  15.880  25.472  1.00  0.00     0.047 C 
ATOM      4  C   UNL     1      17.810  15.051  26.173  1.00  0.00     0.159 C 
ATOM      5  O   UNL     1      17.121  15.501  27.125  1.00  0.00    -0.295 OA
ATOM      6  C   UNL     1      17.652  13.622  25.650  1.00  0.00     0.067 C 
ATOM      7  C   UNL     1      17.626  13.783  24.115  1.00  0.00     0.021 C 
ATOM      8  C   UNL     1      19.170  13.794  24.177  1.00  0.00     0.022 C 
ATOM      9  C   UNL     1      19.066  12.991  25.505  1.00  0.00    -0.019 C 
ATOM     10  C   UNL     1      20.118  13.269  26.617  1.00  0.00     0.012 C 
ATOM     11  C   UNL     1      19.006  11.461  25.267  1.00  0.00     0.012 C 
ENDROOT
TORSDOF 0
ENDMDL
