MODEL 1
REMARK VINA RESULT:    -4.850      0.000      0.000
REMARK INTER + INTRA:          -5.232
REMARK INTER:                  -5.133
REMARK INTRA:                  -0.099
REMARK UNBOUND:                -0.099
REMARK SMILES C=C(C)[C@H]1CC=C(C)C(=O)C1
REMARK SMILES IDX 8 1 7 2 6 3 5 4 4 5 11 6 9 7 10 8 2 9 1 10 3 11
REMARK H PARENT
REMARK Flexibility Score: inf
ROOT
ATOM      1  C   UNL     1     -14.180   6.909 -17.335  1.00  0.00     0.048 C 
ATOM      2  C   UNL     1     -13.234   6.176 -16.424  1.00  0.00    -0.012 C 
ATOM      3  C   UNL     1     -13.094   4.845 -16.537  1.00  0.00    -0.019 C 
ATOM      4  C   UNL     1     -12.175   4.060 -15.639  1.00  0.00     0.036 C 
ATOM      5  C   UNL     1     -10.946   4.897 -15.236  1.00  0.00     0.025 C 
ATOM      6  C   UNL     1     -11.390   6.225 -14.597  1.00  0.00     0.089 C 
ATOM      7  C   UNL     1     -12.370   6.938 -15.488  1.00  0.00     0.158 C 
ATOM      8  O   UNL     1     -12.475   8.192 -15.406  1.00  0.00    -0.295 OA
ENDROOT
BRANCH   5   9
ATOM      9  C   UNL     1     -10.021   4.117 -14.312  1.00  0.00    -0.077 C 
ATOM     10  C   UNL     1      -9.657   4.636 -13.129  1.00  0.00     0.008 C 
ATOM     11  C   UNL     1      -9.495   2.754 -14.692  1.00  0.00     0.039 C 
ENDBRANCH   5   9
TORSDOF 1
ENDMDL
MODEL 2
REMARK VINA RESULT:    -4.552      2.039      4.620
REMARK INTER + INTRA:          -4.917
REMARK INTER:                  -4.819
REMARK INTRA:                  -0.098
REMARK UNBOUND:                -0.099
REMARK SMILES C=C(C)[C@H]1CC=C(C)C(=O)C1
REMARK SMILES IDX 8 1 7 2 6 3 5 4 4 5 11 6 9 7 10 8 2 9 1 10 3 11
REMARK H PARENT
REMARK Flexibility Score: inf
ROOT
ATOM      1  C   UNL     1      -9.955   2.223 -14.289  1.00  0.00     0.048 C 
ATOM      2  C   UNL     1     -10.830   3.404 -14.607  1.00  0.00    -0.012 C 
ATOM      3  C   UNL     1     -10.412   4.646 -14.306  1.00  0.00    -0.019 C 
ATOM      4  C   UNL     1     -11.256   5.861 -14.586  1.00  0.00     0.036 C 
ATOM      5  C   UNL     1     -12.114   5.661 -15.850  1.00  0.00     0.025 C 
ATOM      6  C   UNL     1     -12.960   4.382 -15.724  1.00  0.00     0.089 C 
ATOM      7  C   UNL     1     -12.092   3.207 -15.363  1.00  0.00     0.158 C 
ATOM      8  O   UNL     1     -12.467   2.046 -15.678  1.00  0.00    -0.295 OA
ENDROOT
BRANCH   5   9
ATOM      9  C   UNL     1     -12.984   6.879 -16.130  1.00  0.00    -0.077 C 
ATOM     10  C   UNL     1     -12.763   8.029 -15.475  1.00  0.00     0.008 C 
ATOM     11  C   UNL     1     -14.103   6.830 -17.141  1.00  0.00     0.039 C 
ENDBRANCH   5   9
TORSDOF 1
ENDMDL
MODEL 3
REMARK VINA RESULT:    -4.341      2.130      2.940
REMARK INTER + INTRA:          -4.694
REMARK INTER:                  -4.597
REMARK INTRA:                  -0.097
REMARK UNBOUND:                -0.099
REMARK SMILES C=C(C)[C@H]1CC=C(C)C(=O)C1
REMARK SMILES IDX 8 1 7 2 6 3 5 4 4 5 11 6 9 7 10 8 2 9 1 10 3 11
REMARK H PARENT
REMARK Flexibility Score: inf
ROOT
ATOM      1  C   UNL     1     -13.358   5.763 -16.858  1.00  0.00     0.048 C 
ATOM      2  C   UNL     1     -12.481   4.827 -16.073  1.00  0.00    -0.012 C 
ATOM      3  C   UNL     1     -11.284   5.247 -15.629  1.00  0.00    -0.019 C 
ATOM      4  C   UNL     1     -10.359   4.345 -14.856  1.00  0.00     0.036 C 
ATOM      5  C   UNL     1     -11.152   3.345 -13.995  1.00  0.00     0.025 C 
ATOM      6  C   UNL     1     -12.139   2.552 -14.869  1.00  0.00     0.089 C 
ATOM      7  C   UNL     1     -12.988   3.487 -15.687  1.00  0.00     0.158 C 
ATOM      8  O   UNL     1     -14.126   3.105 -16.072  1.00  0.00    -0.295 OA
ENDROOT
BRANCH   5   9
ATOM      9  C   UNL     1     -10.223   2.417 -13.223  1.00  0.00    -0.077 C 
ATOM     10  C   UNL     1      -9.189   1.829 -13.845  1.00  0.00     0.008 C 
ATOM     11  C   UNL     1     -10.433   2.137 -11.755  1.00  0.00     0.039 C 
ENDBRANCH   5   9
TORSDOF 1
ENDMDL
MODEL 4
REMARK VINA RESULT:    -4.330      1.651      2.444
REMARK INTER + INTRA:          -4.681
REMARK INTER:                  -4.583
REMARK INTRA:                  -0.098
REMARK UNBOUND:                -0.099
REMARK SMILES C=C(C)[C@H]1CC=C(C)C(=O)C1
REMARK SMILES IDX 8 1 7 2 6 3 5 4 4 5 11 6 9 7 10 8 2 9 1 10 3 11
REMARK H PARENT
REMARK Flexibility Score: inf
ROOT
ATOM      1  C   UNL     1     -14.555   7.010 -17.236  1.00  0.00     0.048 C 
ATOM      2  C   UNL     1     -13.308   6.838 -16.413  1.00  0.00    -0.012 C 
ATOM      3  C   UNL     1     -12.936   7.801 -15.553  1.00  0.00    -0.019 C 
ATOM      4  C   UNL     1     -11.688   7.687 -14.719  1.00  0.00     0.036 C 
ATOM      5  C   UNL     1     -11.401   6.221 -14.347  1.00  0.00     0.025 C 
ATOM      6  C   UNL     1     -11.335   5.351 -15.615  1.00  0.00     0.089 C 
ATOM      7  C   UNL     1     -12.562   5.556 -16.461  1.00  0.00     0.158 C 
ATOM      8  O   UNL     1     -12.931   4.636 -17.241  1.00  0.00    -0.295 OA
ENDROOT
BRANCH   5   9
ATOM      9  C   UNL     1     -10.130   6.095 -13.519  1.00  0.00    -0.077 C 
ATOM     10  C   UNL     1      -9.490   7.196 -13.095  1.00  0.00     0.008 C 
ATOM     11  C   UNL     1      -9.560   4.746 -13.152  1.00  0.00     0.039 C 
ENDBRANCH   5   9
TORSDOF 1
ENDMDL
MODEL 5
REMARK VINA RESULT:    -4.289      2.251      4.527
REMARK INTER + INTRA:          -4.638
REMARK INTER:                  -4.540
REMARK INTRA:                  -0.098
REMARK UNBOUND:                -0.099
REMARK SMILES C=C(C)[C@H]1CC=C(C)C(=O)C1
REMARK SMILES IDX 8 1 7 2 6 3 5 4 4 5 11 6 9 7 10 8 2 9 1 10 3 11
REMARK H PARENT
REMARK Flexibility Score: inf
ROOT
ATOM      1  C   UNL     1     -10.058   9.496 -12.835  1.00  0.00     0.048 C 
ATOM      2  C   UNL     1     -11.008   8.667 -13.654  1.00  0.00    -0.012 C 
ATOM      3  C   UNL     1     -12.043   9.255 -14.276  1.00  0.00    -0.019 C 
ATOM      4  C   UNL     1     -13.034   8.470 -15.093  1.00  0.00     0.036 C 
ATOM      5  C   UNL     1     -12.360   7.262 -15.770  1.00  0.00     0.025 C 
ATOM      6  C   UNL     1     -11.649   6.389 -14.721  1.00  0.00     0.089 C 
ATOM      7  C   UNL     1     -10.731   7.225 -13.873  1.00  0.00     0.158 C 
ATOM      8  O   UNL     1      -9.739   6.679 -13.318  1.00  0.00    -0.295 OA
ENDROOT
BRANCH   5   9
ATOM      9  C   UNL     1     -13.360   6.451 -16.584  1.00  0.00    -0.077 C 
ATOM     10  C   UNL     1     -14.514   7.008 -16.983  1.00  0.00     0.008 C 
ATOM     11  C   UNL     1     -13.085   5.016 -16.964  1.00  0.00     0.039 C 
ENDBRANCH   5   9
TORSDOF 1
ENDMDL
MODEL 6
REMARK VINA RESULT:    -4.287      1.882      3.150
REMARK INTER + INTRA:          -4.636
REMARK INTER:                  -4.549
REMARK INTRA:                  -0.087
REMARK UNBOUND:                -0.099
REMARK SMILES C=C(C)[C@H]1CC=C(C)C(=O)C1
REMARK SMILES IDX 8 1 7 2 6 3 5 4 4 5 11 6 9 7 10 8 2 9 1 10 3 11
REMARK H PARENT
REMARK Flexibility Score: inf
ROOT
ATOM      1  C   UNL     1     -12.355   9.284 -14.535  1.00  0.00     0.048 C 
ATOM      2  C   UNL     1     -12.445   7.874 -15.052  1.00  0.00    -0.012 C 
ATOM      3  C   UNL     1     -13.331   7.571 -16.016  1.00  0.00    -0.019 C 
ATOM      4  C   UNL     1     -13.475   6.173 -16.556  1.00  0.00     0.036 C 
ATOM      5  C   UNL     1     -12.126   5.431 -16.538  1.00  0.00     0.025 C 
ATOM      6  C   UNL     1     -11.525   5.448 -15.122  1.00  0.00     0.089 C 
ATOM      7  C   UNL     1     -11.475   6.853 -14.586  1.00  0.00     0.158 C 
ATOM      8  O   UNL     1     -10.619   7.145 -13.708  1.00  0.00    -0.295 OA
ENDROOT
BRANCH   5   9
ATOM      9  C   UNL     1     -12.266   4.009 -17.066  1.00  0.00    -0.077 C 
ATOM     10  C   UNL     1     -11.820   3.699 -18.293  1.00  0.00     0.008 C 
ATOM     11  C   UNL     1     -12.899   2.920 -16.235  1.00  0.00     0.039 C 
ENDBRANCH   5   9
TORSDOF 1
ENDMDL
MODEL 7
REMARK VINA RESULT:    -4.217      1.474      1.728
REMARK INTER + INTRA:          -4.563
REMARK INTER:                  -4.466
REMARK INTRA:                  -0.097
REMARK UNBOUND:                -0.099
REMARK SMILES C=C(C)[C@H]1CC=C(C)C(=O)C1
REMARK SMILES IDX 8 1 7 2 6 3 5 4 4 5 11 6 9 7 10 8 2 9 1 10 3 11
REMARK H PARENT
REMARK Flexibility Score: inf
ROOT
ATOM      1  C   UNL     1     -13.193   5.821 -17.201  1.00  0.00     0.048 C 
ATOM      2  C   UNL     1     -12.616   4.972 -16.102  1.00  0.00    -0.012 C 
ATOM      3  C   UNL     1     -12.696   3.633 -16.181  1.00  0.00    -0.019 C 
ATOM      4  C   UNL     1     -12.151   2.736 -15.101  1.00  0.00     0.036 C 
ATOM      5  C   UNL     1     -10.910   3.360 -14.436  1.00  0.00     0.025 C 
ATOM      6  C   UNL     1     -11.235   4.770 -13.913  1.00  0.00     0.089 C 
ATOM      7  C   UNL     1     -11.853   5.608 -14.999  1.00  0.00     0.158 C 
ATOM      8  O   UNL     1     -11.746   6.862 -14.943  1.00  0.00    -0.295 OA
ENDROOT
BRANCH   5   9
ATOM      9  C   UNL     1     -10.363   2.468 -13.330  1.00  0.00    -0.077 C 
ATOM     10  C   UNL     1     -11.030   2.347 -12.171  1.00  0.00     0.008 C 
ATOM     11  C   UNL     1      -9.075   1.701 -13.502  1.00  0.00     0.039 C 
ENDBRANCH   5   9
TORSDOF 1
ENDMDL
MODEL 8
REMARK VINA RESULT:    -4.156      1.928      4.113
REMARK INTER + INTRA:          -4.498
REMARK INTER:                  -4.400
REMARK INTRA:                  -0.098
REMARK UNBOUND:                -0.099
REMARK SMILES C=C(C)[C@H]1CC=C(C)C(=O)C1
REMARK SMILES IDX 8 1 7 2 6 3 5 4 4 5 11 6 9 7 10 8 2 9 1 10 3 11
REMARK H PARENT
REMARK Flexibility Score: inf
ROOT
ATOM      1  C   UNL     1      -8.876   5.348 -11.925  1.00  0.00     0.048 C 
ATOM      2  C   UNL     1      -9.670   4.803 -13.080  1.00  0.00    -0.012 C 
ATOM      3  C   UNL     1      -9.603   3.494 -13.379  1.00  0.00    -0.019 C 
ATOM      4  C   UNL     1     -10.362   2.901 -14.535  1.00  0.00     0.036 C 
ATOM      5  C   UNL     1     -11.696   3.638 -14.759  1.00  0.00     0.025 C 
ATOM      6  C   UNL     1     -11.449   5.146 -14.939  1.00  0.00     0.089 C 
ATOM      7  C   UNL     1     -10.618   5.684 -13.807  1.00  0.00     0.158 C 
ATOM      8  O   UNL     1     -10.709   6.904 -13.503  1.00  0.00    -0.295 OA
ENDROOT
BRANCH   5   9
ATOM      9  C   UNL     1     -12.463   3.055 -15.939  1.00  0.00    -0.077 C 
ATOM     10  C   UNL     1     -12.365   3.622 -17.152  1.00  0.00     0.008 C 
ATOM     11  C   UNL     1     -13.340   1.837 -15.783  1.00  0.00     0.039 C 
ENDBRANCH   5   9
TORSDOF 1
ENDMDL
MODEL 9
REMARK VINA RESULT:    -4.152      2.862      5.268
REMARK INTER + INTRA:          -4.494
REMARK INTER:                  -4.397
REMARK INTRA:                  -0.097
REMARK UNBOUND:                -0.099
REMARK SMILES C=C(C)[C@H]1CC=C(C)C(=O)C1
REMARK SMILES IDX 8 1 7 2 6 3 5 4 4 5 11 6 9 7 10 8 2 9 1 10 3 11
REMARK H PARENT
REMARK Flexibility Score: inf
ROOT
ATOM      1  C   UNL     1      -9.258   0.994 -11.369  1.00  0.00     0.048 C 
ATOM      2  C   UNL     1      -9.787   1.929 -12.421  1.00  0.00    -0.012 C 
ATOM      3  C   UNL     1      -9.141   2.051 -13.593  1.00  0.00    -0.019 C 
ATOM      4  C   UNL     1      -9.617   2.986 -14.672  1.00  0.00     0.036 C 
ATOM      5  C   UNL     1     -11.152   3.106 -14.664  1.00  0.00     0.025 C 
ATOM      6  C   UNL     1     -11.648   3.528 -13.269  1.00  0.00     0.089 C 
ATOM      7  C   UNL     1     -11.084   2.619 -12.211  1.00  0.00     0.158 C 
ATOM      8  O   UNL     1     -11.710   2.477 -11.126  1.00  0.00    -0.295 OA
ENDROOT
BRANCH   5   9
ATOM      9  C   UNL     1     -11.641   4.065 -15.741  1.00  0.00    -0.077 C 
ATOM     10  C   UNL     1     -11.492   5.390 -15.583  1.00  0.00     0.008 C 
ATOM     11  C   UNL     1     -12.296   3.561 -17.004  1.00  0.00     0.039 C 
ENDBRANCH   5   9
TORSDOF 1
ENDMDL
