MODEL 1
REMARK VINA RESULT:    -4.351      0.000      0.000
REMARK INTER + INTRA:         -10.265
REMARK INTER:                  -7.912
REMARK INTRA:                  -2.353
REMARK UNBOUND:                -2.353
REMARK SMILES CCCCCC=CCC=CCCCCCCCC(=O)[O-]
REMARK SMILES IDX 11 1 12 2 13 3 14 4 15 5 16 6 17 7 18 8 19 9 20 10 10 11
REMARK SMILES IDX 9 12 8 13 7 14 6 15 5 16 4 17 3 18 2 19 1 20
REMARK H PARENT
REMARK Flexibility Score: inf
ROOT
ATOM      1  C   UNL     1      21.399   3.344 -26.000  1.00  0.00     0.027 C 
ENDROOT
BRANCH   1   2
ATOM      2  C   UNL     1      21.489   4.760 -26.594  1.00  0.00     0.004 C 
BRANCH   2   3
ATOM      3  C   UNL     1      21.356   4.816 -28.129  1.00  0.00     0.000 C 
BRANCH   3   4
ATOM      4  C   UNL     1      21.868   6.136 -28.730  1.00  0.00     0.000 C 
BRANCH   4   5
ATOM      5  C   UNL     1      20.727   7.023 -29.255  1.00  0.00     0.000 C 
BRANCH   5   6
ATOM      6  C   UNL     1      20.498   8.269 -28.381  1.00  0.00     0.006 C 
BRANCH   6   7
ATOM      7  C   UNL     1      21.630   8.486 -27.368  1.00  0.00     0.053 C 
BRANCH   7   8
ATOM      8  C   UNL     1      21.106   8.838 -26.010  1.00  0.00     0.041 C 
ATOM      9  O   UNL     1      20.102   8.237 -25.544  1.00  0.00    -0.550 OA
ATOM     10  O   UNL     1      21.746   9.805 -25.245  1.00  0.00    -0.550 OA
ENDBRANCH   7   8
ENDBRANCH   6   7
ENDBRANCH   5   6
ENDBRANCH   4   5
ENDBRANCH   3   4
ENDBRANCH   2   3
ENDBRANCH   1   2
BRANCH   1  11
ATOM     11  C   UNL     1      22.684   2.940 -25.316  1.00  0.00    -0.031 C 
ATOM     12  C   UNL     1      23.700   2.304 -25.924  1.00  0.00    -0.027 C 
BRANCH  12  13
ATOM     13  C   UNL     1      23.683   1.892 -27.374  1.00  0.00     0.054 C 
BRANCH  13  14
ATOM     14  C   UNL     1      23.373   0.424 -27.519  1.00  0.00    -0.027 C 
ATOM     15  C   UNL     1      22.233  -0.071 -28.037  1.00  0.00    -0.031 C 
BRANCH  15  16
ATOM     16  C   UNL     1      21.069   0.760 -28.531  1.00  0.00     0.027 C 
BRANCH  16  17
ATOM     17  C   UNL     1      19.818   0.576 -27.659  1.00  0.00     0.004 C 
BRANCH  17  18
ATOM     18  C   UNL     1      19.854  -0.665 -26.746  1.00  0.00     0.000 C 
BRANCH  18  19
ATOM     19  C   UNL     1      19.635  -0.339 -25.253  1.00  0.00    -0.003 C 
ATOM     20  C   UNL     1      20.951  -0.141 -24.502  1.00  0.00     0.004 C 
ENDBRANCH  18  19
ENDBRANCH  17  18
ENDBRANCH  16  17
ENDBRANCH  15  16
ENDBRANCH  13  14
ENDBRANCH  12  13
ENDBRANCH   1  11
TORSDOF 14
ENDMDL
MODEL 2
REMARK VINA RESULT:    -4.303      9.765     12.705
REMARK INTER + INTRA:         -10.176
REMARK INTER:                  -7.282
REMARK INTRA:                  -2.894
REMARK UNBOUND:                -2.353
REMARK SMILES CCCCCC=CCC=CCCCCCCCC(=O)[O-]
REMARK SMILES IDX 11 1 12 2 13 3 14 4 15 5 16 6 17 7 18 8 19 9 20 10 10 11
REMARK SMILES IDX 9 12 8 13 7 14 6 15 5 16 4 17 3 18 2 19 1 20
REMARK H PARENT
REMARK Flexibility Score: inf
ROOT
ATOM      1  C   UNL     1      18.131  -4.934 -23.576  1.00  0.00     0.027 C 
ENDROOT
BRANCH   1   2
ATOM      2  C   UNL     1      17.822  -3.452 -23.306  1.00  0.00     0.004 C 
BRANCH   2   3
ATOM      3  C   UNL     1      16.896  -3.206 -22.098  1.00  0.00     0.000 C 
BRANCH   3   4
ATOM      4  C   UNL     1      15.485  -3.789 -22.293  1.00  0.00     0.000 C 
BRANCH   4   5
ATOM      5  C   UNL     1      15.140  -4.852 -21.237  1.00  0.00     0.000 C 
BRANCH   5   6
ATOM      6  C   UNL     1      14.943  -6.251 -21.850  1.00  0.00     0.006 C 
BRANCH   6   7
ATOM      7  C   UNL     1      16.072  -7.216 -21.467  1.00  0.00     0.053 C 
BRANCH   7   8
ATOM      8  C   UNL     1      15.606  -8.640 -21.440  1.00  0.00     0.041 C 
ATOM      9  O   UNL     1      15.525  -9.258 -20.346  1.00  0.00    -0.550 OA
ATOM     10  O   UNL     1      15.230  -9.273 -22.618  1.00  0.00    -0.550 OA
ENDBRANCH   7   8
ENDBRANCH   6   7
ENDBRANCH   5   6
ENDBRANCH   4   5
ENDBRANCH   3   4
ENDBRANCH   2   3
ENDBRANCH   1   2
BRANCH   1  11
ATOM     11  C   UNL     1      18.346  -5.204 -25.048  1.00  0.00    -0.031 C 
ATOM     12  C   UNL     1      17.856  -6.270 -25.703  1.00  0.00    -0.027 C 
BRANCH  12  13
ATOM     13  C   UNL     1      17.038  -7.353 -25.047  1.00  0.00     0.054 C 
BRANCH  13  14
ATOM     14  C   UNL     1      15.877  -7.760 -25.916  1.00  0.00    -0.027 C 
ATOM     15  C   UNL     1      14.748  -7.043 -26.072  1.00  0.00    -0.031 C 
BRANCH  15  16
ATOM     16  C   UNL     1      14.449  -5.729 -25.383  1.00  0.00     0.027 C 
BRANCH  16  17
ATOM     17  C   UNL     1      14.488  -4.544 -26.359  1.00  0.00     0.004 C 
BRANCH  17  18
ATOM     18  C   UNL     1      15.057  -3.243 -25.760  1.00  0.00     0.000 C 
BRANCH  18  19
ATOM     19  C   UNL     1      15.585  -2.254 -26.821  1.00  0.00    -0.003 C 
ATOM     20  C   UNL     1      17.105  -2.310 -26.964  1.00  0.00     0.004 C 
ENDBRANCH  18  19
ENDBRANCH  17  18
ENDBRANCH  16  17
ENDBRANCH  15  16
ENDBRANCH  13  14
ENDBRANCH  12  13
ENDBRANCH   1  11
TORSDOF 14
ENDMDL
MODEL 3
REMARK VINA RESULT:    -4.224      9.785     11.873
REMARK INTER + INTRA:         -10.034
REMARK INTER:                  -7.261
REMARK INTRA:                  -2.772
REMARK UNBOUND:                -2.353
REMARK SMILES CCCCCC=CCC=CCCCCCCCC(=O)[O-]
REMARK SMILES IDX 11 1 12 2 13 3 14 4 15 5 16 6 17 7 18 8 19 9 20 10 10 11
REMARK SMILES IDX 9 12 8 13 7 14 6 15 5 16 4 17 3 18 2 19 1 20
REMARK H PARENT
REMARK Flexibility Score: inf
ROOT
ATOM      1  C   UNL     1      15.380  -2.475 -25.525  1.00  0.00     0.027 C 
ENDROOT
BRANCH   1   2
ATOM      2  C   UNL     1      16.525  -3.118 -24.723  1.00  0.00     0.004 C 
BRANCH   2   3
ATOM      3  C   UNL     1      17.042  -2.259 -23.553  1.00  0.00     0.000 C 
BRANCH   3   4
ATOM      4  C   UNL     1      16.817  -2.914 -22.179  1.00  0.00     0.000 C 
BRANCH   4   5
ATOM      5  C   UNL     1      15.475  -3.661 -22.099  1.00  0.00     0.000 C 
BRANCH   5   6
ATOM      6  C   UNL     1      15.526  -4.867 -21.145  1.00  0.00     0.006 C 
BRANCH   6   7
ATOM      7  C   UNL     1      16.962  -5.231 -20.744  1.00  0.00     0.053 C 
BRANCH   7   8
ATOM      8  C   UNL     1      17.171  -6.713 -20.696  1.00  0.00     0.041 C 
ATOM      9  O   UNL     1      18.301  -7.183 -20.399  1.00  0.00    -0.550 OA
ATOM     10  O   UNL     1      16.112  -7.576 -20.949  1.00  0.00    -0.550 OA
ENDBRANCH   7   8
ENDBRANCH   6   7
ENDBRANCH   5   6
ENDBRANCH   4   5
ENDBRANCH   3   4
ENDBRANCH   2   3
ENDBRANCH   1   2
BRANCH   1  11
ATOM     11  C   UNL     1      15.728  -2.341 -26.990  1.00  0.00    -0.031 C 
ATOM     12  C   UNL     1      15.353  -3.213 -27.942  1.00  0.00    -0.027 C 
BRANCH  12  13
ATOM     13  C   UNL     1      14.548  -4.457 -27.668  1.00  0.00     0.054 C 
BRANCH  13  14
ATOM     14  C   UNL     1      15.401  -5.694 -27.781  1.00  0.00    -0.027 C 
ATOM     15  C   UNL     1      15.456  -6.674 -26.860  1.00  0.00    -0.031 C 
BRANCH  15  16
ATOM     16  C   UNL     1      14.695  -6.683 -25.552  1.00  0.00     0.027 C 
BRANCH  16  17
ATOM     17  C   UNL     1      15.628  -6.542 -24.341  1.00  0.00     0.004 C 
BRANCH  17  18
ATOM     18  C   UNL     1      16.982  -7.264 -24.490  1.00  0.00     0.000 C 
BRANCH  18  19
ATOM     19  C   UNL     1      18.197  -6.368 -24.170  1.00  0.00    -0.003 C 
ATOM     20  C   UNL     1      18.866  -5.821 -25.430  1.00  0.00     0.004 C 
ENDBRANCH  18  19
ENDBRANCH  17  18
ENDBRANCH  16  17
ENDBRANCH  15  16
ENDBRANCH  13  14
ENDBRANCH  12  13
ENDBRANCH   1  11
TORSDOF 14
ENDMDL
MODEL 4
REMARK VINA RESULT:    -4.221      6.693     10.453
REMARK INTER + INTRA:         -10.028
REMARK INTER:                  -7.414
REMARK INTRA:                  -2.614
REMARK UNBOUND:                -2.353
REMARK SMILES CCCCCC=CCC=CCCCCCCCC(=O)[O-]
REMARK SMILES IDX 11 1 12 2 13 3 14 4 15 5 16 6 17 7 18 8 19 9 20 10 10 11
REMARK SMILES IDX 9 12 8 13 7 14 6 15 5 16 4 17 3 18 2 19 1 20
REMARK H PARENT
REMARK Flexibility Score: inf
ROOT
ATOM      1  C   UNL     1      14.413  -5.273 -25.606  1.00  0.00     0.027 C 
ENDROOT
BRANCH   1   2
ATOM      2  C   UNL     1      14.524  -4.031 -26.507  1.00  0.00     0.004 C 
BRANCH   2   3
ATOM      3  C   UNL     1      15.125  -2.793 -25.812  1.00  0.00     0.000 C 
BRANCH   3   4
ATOM      4  C   UNL     1      16.155  -2.054 -26.684  1.00  0.00     0.000 C 
BRANCH   4   5
ATOM      5  C   UNL     1      17.603  -2.408 -26.308  1.00  0.00     0.000 C 
BRANCH   5   6
ATOM      6  C   UNL     1      18.356  -1.225 -25.674  1.00  0.00     0.006 C 
BRANCH   6   7
ATOM      7  C   UNL     1      18.133  -1.140 -24.159  1.00  0.00     0.053 C 
BRANCH   7   8
ATOM      8  C   UNL     1      18.528   0.197 -23.609  1.00  0.00     0.041 C 
ATOM      9  O   UNL     1      18.598   0.374 -22.365  1.00  0.00    -0.550 OA
ATOM     10  O   UNL     1      18.851   1.237 -24.471  1.00  0.00    -0.550 OA
ENDBRANCH   7   8
ENDBRANCH   6   7
ENDBRANCH   5   6
ENDBRANCH   4   5
ENDBRANCH   3   4
ENDBRANCH   2   3
ENDBRANCH   1   2
BRANCH   1  11
ATOM     11  C   UNL     1      15.120  -6.466 -26.206  1.00  0.00    -0.031 C 
ATOM     12  C   UNL     1      15.064  -7.712 -25.703  1.00  0.00    -0.027 C 
BRANCH  12  13
ATOM     13  C   UNL     1      14.301  -8.079 -24.457  1.00  0.00     0.054 C 
BRANCH  13  14
ATOM     14  C   UNL     1      15.232  -8.307 -23.295  1.00  0.00    -0.027 C 
ATOM     15  C   UNL     1      15.263  -7.555 -22.178  1.00  0.00    -0.031 C 
BRANCH  15  16
ATOM     16  C   UNL     1      14.390  -6.346 -21.919  1.00  0.00     0.027 C 
BRANCH  16  17
ATOM     17  C   UNL     1      15.215  -5.060 -21.771  1.00  0.00     0.004 C 
BRANCH  17  18
ATOM     18  C   UNL     1      16.730  -5.246 -21.985  1.00  0.00     0.000 C 
BRANCH  18  19
ATOM     19  C   UNL     1      17.254  -4.598 -23.284  1.00  0.00    -0.003 C 
ATOM     20  C   UNL     1      18.078  -5.569 -24.128  1.00  0.00     0.004 C 
ENDBRANCH  18  19
ENDBRANCH  17  18
ENDBRANCH  16  17
ENDBRANCH  15  16
ENDBRANCH  13  14
ENDBRANCH  12  13
ENDBRANCH   1  11
TORSDOF 14
ENDMDL
MODEL 5
REMARK VINA RESULT:    -4.220      9.067     12.031
REMARK INTER + INTRA:         -10.026
REMARK INTER:                  -7.215
REMARK INTRA:                  -2.810
REMARK UNBOUND:                -2.353
REMARK SMILES CCCCCC=CCC=CCCCCCCCC(=O)[O-]
REMARK SMILES IDX 11 1 12 2 13 3 14 4 15 5 16 6 17 7 18 8 19 9 20 10 10 11
REMARK SMILES IDX 9 12 8 13 7 14 6 15 5 16 4 17 3 18 2 19 1 20
REMARK H PARENT
REMARK Flexibility Score: inf
ROOT
ATOM      1  C   UNL     1      15.476  -2.618 -24.866  1.00  0.00     0.027 C 
ENDROOT
BRANCH   1   2
ATOM      2  C   UNL     1      16.991  -2.472 -24.639  1.00  0.00     0.004 C 
BRANCH   2   3
ATOM      3  C   UNL     1      17.859  -3.352 -25.560  1.00  0.00     0.000 C 
BRANCH   3   4
ATOM      4  C   UNL     1      18.101  -4.762 -24.992  1.00  0.00     0.000 C 
BRANCH   4   5
ATOM      5  C   UNL     1      17.921  -4.817 -23.466  1.00  0.00     0.000 C 
BRANCH   5   6
ATOM      6  C   UNL     1      16.845  -5.830 -23.034  1.00  0.00     0.006 C 
BRANCH   6   7
ATOM      7  C   UNL     1      15.700  -5.165 -22.259  1.00  0.00     0.053 C 
BRANCH   7   8
ATOM      8  C   UNL     1      16.207  -4.270 -21.170  1.00  0.00     0.041 C 
ATOM      9  O   UNL     1      16.804  -4.760 -20.175  1.00  0.00    -0.550 OA
ATOM     10  O   UNL     1      16.049  -2.893 -21.269  1.00  0.00    -0.550 OA
ENDBRANCH   7   8
ENDBRANCH   6   7
ENDBRANCH   5   6
ENDBRANCH   4   5
ENDBRANCH   3   4
ENDBRANCH   2   3
ENDBRANCH   1   2
BRANCH   1  11
ATOM     11  C   UNL     1      15.149  -2.887 -26.317  1.00  0.00    -0.031 C 
ATOM     12  C   UNL     1      14.641  -4.043 -26.778  1.00  0.00    -0.027 C 
BRANCH  12  13
ATOM     13  C   UNL     1      14.346  -5.236 -25.905  1.00  0.00     0.054 C 
BRANCH  13  14
ATOM     14  C   UNL     1      15.161  -6.432 -26.324  1.00  0.00    -0.027 C 
ATOM     15  C   UNL     1      15.030  -7.668 -25.807  1.00  0.00    -0.031 C 
BRANCH  15  16
ATOM     16  C   UNL     1      14.065  -8.054 -24.706  1.00  0.00     0.027 C 
BRANCH  16  17
ATOM     17  C   UNL     1      14.399  -9.424 -24.100  1.00  0.00     0.004 C 
BRANCH  17  18
ATOM     18  C   UNL     1      15.774  -9.497 -23.406  1.00  0.00     0.000 C 
BRANCH  18  19
ATOM     19  C   UNL     1      15.690  -9.857 -21.908  1.00  0.00    -0.003 C 
ATOM     20  C   UNL     1      15.405  -8.638 -21.031  1.00  0.00     0.004 C 
ENDBRANCH  18  19
ENDBRANCH  17  18
ENDBRANCH  16  17
ENDBRANCH  15  16
ENDBRANCH  13  14
ENDBRANCH  12  13
ENDBRANCH   1  11
TORSDOF 14
ENDMDL
MODEL 6
REMARK VINA RESULT:    -4.208      5.850      9.430
REMARK INTER + INTRA:         -10.005
REMARK INTER:                  -7.616
REMARK INTRA:                  -2.389
REMARK UNBOUND:                -2.353
REMARK SMILES CCCCCC=CCC=CCCCCCCCC(=O)[O-]
REMARK SMILES IDX 11 1 12 2 13 3 14 4 15 5 16 6 17 7 18 8 19 9 20 10 10 11
REMARK SMILES IDX 9 12 8 13 7 14 6 15 5 16 4 17 3 18 2 19 1 20
REMARK H PARENT
REMARK Flexibility Score: inf
ROOT
ATOM      1  C   UNL     1      15.106  -2.580 -25.557  1.00  0.00     0.027 C 
ENDROOT
BRANCH   1   2
ATOM      2  C   UNL     1      15.862  -3.081 -24.315  1.00  0.00     0.004 C 
BRANCH   2   3
ATOM      3  C   UNL     1      17.307  -3.541 -24.593  1.00  0.00     0.000 C 
BRANCH   3   4
ATOM      4  C   UNL     1      18.351  -2.790 -23.749  1.00  0.00     0.000 C 
BRANCH   4   5
ATOM      5  C   UNL     1      17.720  -1.688 -22.882  1.00  0.00     0.000 C 
BRANCH   5   6
ATOM      6  C   UNL     1      18.502  -0.364 -22.947  1.00  0.00     0.006 C 
BRANCH   6   7
ATOM      7  C   UNL     1      18.415   0.295 -24.330  1.00  0.00     0.053 C 
BRANCH   7   8
ATOM      8  C   UNL     1      18.796   1.743 -24.284  1.00  0.00     0.041 C 
ATOM      9  O   UNL     1      19.602   2.158 -23.410  1.00  0.00    -0.550 OA
ATOM     10  O   UNL     1      18.288   2.628 -25.227  1.00  0.00    -0.550 OA
ENDBRANCH   7   8
ENDBRANCH   6   7
ENDBRANCH   5   6
ENDBRANCH   4   5
ENDBRANCH   3   4
ENDBRANCH   2   3
ENDBRANCH   1   2
BRANCH   1  11
ATOM     11  C   UNL     1      15.937  -2.715 -26.812  1.00  0.00    -0.031 C 
ATOM     12  C   UNL     1      15.740  -3.652 -27.756  1.00  0.00    -0.027 C 
BRANCH  12  13
ATOM     13  C   UNL     1      14.669  -4.710 -27.675  1.00  0.00     0.054 C 
BRANCH  13  14
ATOM     14  C   UNL     1      15.265  -6.072 -27.435  1.00  0.00    -0.027 C 
ATOM     15  C   UNL     1      15.125  -6.780 -26.298  1.00  0.00    -0.031 C 
BRANCH  15  16
ATOM     16  C   UNL     1      14.372  -6.315 -25.071  1.00  0.00     0.027 C 
BRANCH  16  17
ATOM     17  C   UNL     1      15.130  -6.634 -23.774  1.00  0.00     0.004 C 
BRANCH  17  18
ATOM     18  C   UNL     1      14.363  -6.284 -22.484  1.00  0.00     0.000 C 
BRANCH  18  19
ATOM     19  C   UNL     1      15.124  -5.311 -21.558  1.00  0.00    -0.003 C 
ATOM     20  C   UNL     1      16.623  -5.605 -21.510  1.00  0.00     0.004 C 
ENDBRANCH  18  19
ENDBRANCH  17  18
ENDBRANCH  16  17
ENDBRANCH  15  16
ENDBRANCH  13  14
ENDBRANCH  12  13
ENDBRANCH   1  11
TORSDOF 14
ENDMDL
MODEL 7
REMARK VINA RESULT:    -4.174      7.809     11.403
REMARK INTER + INTRA:          -9.943
REMARK INTER:                  -7.629
REMARK INTRA:                  -2.314
REMARK UNBOUND:                -2.353
REMARK SMILES CCCCCC=CCC=CCCCCCCCC(=O)[O-]
REMARK SMILES IDX 11 1 12 2 13 3 14 4 15 5 16 6 17 7 18 8 19 9 20 10 10 11
REMARK SMILES IDX 9 12 8 13 7 14 6 15 5 16 4 17 3 18 2 19 1 20
REMARK H PARENT
REMARK Flexibility Score: inf
ROOT
ATOM      1  C   UNL     1      16.151  -5.804 -27.165  1.00  0.00     0.027 C 
ENDROOT
BRANCH   1   2
ATOM      2  C   UNL     1      14.906  -4.998 -27.572  1.00  0.00     0.004 C 
BRANCH   2   3
ATOM      3  C   UNL     1      14.363  -4.068 -26.469  1.00  0.00     0.000 C 
BRANCH   3   4
ATOM      4  C   UNL     1      15.280  -2.864 -26.192  1.00  0.00     0.000 C 
BRANCH   4   5
ATOM      5  C   UNL     1      15.465  -2.603 -24.688  1.00  0.00     0.000 C 
BRANCH   5   6
ATOM      6  C   UNL     1      16.856  -3.027 -24.182  1.00  0.00     0.006 C 
BRANCH   6   7
ATOM      7  C   UNL     1      17.316  -2.190 -22.981  1.00  0.00     0.053 C 
BRANCH   7   8
ATOM      8  C   UNL     1      18.101  -0.987 -23.405  1.00  0.00     0.041 C 
ATOM      9  O   UNL     1      18.455  -0.854 -24.607  1.00  0.00    -0.550 OA
ATOM     10  O   UNL     1      18.413   0.003 -22.482  1.00  0.00    -0.550 OA
ENDBRANCH   7   8
ENDBRANCH   6   7
ENDBRANCH   5   6
ENDBRANCH   4   5
ENDBRANCH   3   4
ENDBRANCH   2   3
ENDBRANCH   1   2
BRANCH   1  11
ATOM     11  C   UNL     1      16.042  -7.253 -27.579  1.00  0.00    -0.031 C 
ATOM     12  C   UNL     1      15.817  -8.270 -26.730  1.00  0.00    -0.027 C 
BRANCH  12  13
ATOM     13  C   UNL     1      15.660  -8.099 -25.241  1.00  0.00     0.054 C 
BRANCH  13  14
ATOM     14  C   UNL     1      14.222  -7.848 -24.869  1.00  0.00    -0.027 C 
ATOM     15  C   UNL     1      13.805  -6.887 -24.024  1.00  0.00    -0.031 C 
BRANCH  15  16
ATOM     16  C   UNL     1      14.709  -5.923 -23.288  1.00  0.00     0.027 C 
BRANCH  16  17
ATOM     17  C   UNL     1      14.894  -6.314 -21.815  1.00  0.00     0.004 C 
BRANCH  17  18
ATOM     18  C   UNL     1      16.122  -7.204 -21.540  1.00  0.00     0.000 C 
BRANCH  18  19
ATOM     19  C   UNL     1      15.792  -8.481 -20.738  1.00  0.00    -0.003 C 
ATOM     20  C   UNL     1      15.415  -9.655 -21.640  1.00  0.00     0.004 C 
ENDBRANCH  18  19
ENDBRANCH  17  18
ENDBRANCH  16  17
ENDBRANCH  15  16
ENDBRANCH  13  14
ENDBRANCH  12  13
ENDBRANCH   1  11
TORSDOF 14
ENDMDL
MODEL 8
REMARK VINA RESULT:    -4.165      7.935     11.615
REMARK INTER + INTRA:          -9.926
REMARK INTER:                  -6.954
REMARK INTRA:                  -2.972
REMARK UNBOUND:                -2.353
REMARK SMILES CCCCCC=CCC=CCCCCCCCC(=O)[O-]
REMARK SMILES IDX 11 1 12 2 13 3 14 4 15 5 16 6 17 7 18 8 19 9 20 10 10 11
REMARK SMILES IDX 9 12 8 13 7 14 6 15 5 16 4 17 3 18 2 19 1 20
REMARK H PARENT
REMARK Flexibility Score: inf
ROOT
ATOM      1  C   UNL     1      17.834  -4.950 -25.071  1.00  0.00     0.027 C 
ENDROOT
BRANCH   1   2
ATOM      2  C   UNL     1      18.311  -4.193 -23.820  1.00  0.00     0.004 C 
BRANCH   2   3
ATOM      3  C   UNL     1      17.484  -2.936 -23.483  1.00  0.00     0.000 C 
BRANCH   3   4
ATOM      4  C   UNL     1      16.950  -2.936 -22.040  1.00  0.00     0.000 C 
BRANCH   4   5
ATOM      5  C   UNL     1      15.560  -3.583 -21.930  1.00  0.00     0.000 C 
BRANCH   5   6
ATOM      6  C   UNL     1      15.591  -4.927 -21.182  1.00  0.00     0.006 C 
BRANCH   6   7
ATOM      7  C   UNL     1      16.962  -5.213 -20.556  1.00  0.00     0.053 C 
BRANCH   7   8
ATOM      8  C   UNL     1      17.458  -6.585 -20.898  1.00  0.00     0.041 C 
ATOM      9  O   UNL     1      18.587  -6.733 -21.436  1.00  0.00    -0.550 OA
ATOM     10  O   UNL     1      16.690  -7.700 -20.591  1.00  0.00    -0.550 OA
ENDBRANCH   7   8
ENDBRANCH   6   7
ENDBRANCH   5   6
ENDBRANCH   4   5
ENDBRANCH   3   4
ENDBRANCH   2   3
ENDBRANCH   1   2
BRANCH   1  11
ATOM     11  C   UNL     1      17.314  -6.327 -24.731  1.00  0.00    -0.031 C 
ATOM     12  C   UNL     1      16.015  -6.626 -24.555  1.00  0.00    -0.027 C 
BRANCH  12  13
ATOM     13  C   UNL     1      14.902  -5.615 -24.657  1.00  0.00     0.054 C 
BRANCH  13  14
ATOM     14  C   UNL     1      14.443  -5.453 -26.083  1.00  0.00    -0.027 C 
ATOM     15  C   UNL     1      14.472  -4.296 -26.771  1.00  0.00    -0.031 C 
BRANCH  15  16
ATOM     16  C   UNL     1      14.941  -2.967 -26.219  1.00  0.00     0.027 C 
BRANCH  16  17
ATOM     17  C   UNL     1      15.643  -2.115 -27.286  1.00  0.00     0.004 C 
BRANCH  17  18
ATOM     18  C   UNL     1      17.180  -2.230 -27.285  1.00  0.00     0.000 C 
BRANCH  18  19
ATOM     19  C   UNL     1      17.888  -1.037 -26.609  1.00  0.00    -0.003 C 
ATOM     20  C   UNL     1      19.366  -1.315 -26.336  1.00  0.00     0.004 C 
ENDBRANCH  18  19
ENDBRANCH  17  18
ENDBRANCH  16  17
ENDBRANCH  15  16
ENDBRANCH  13  14
ENDBRANCH  12  13
ENDBRANCH   1  11
TORSDOF 14
ENDMDL
MODEL 9
REMARK VINA RESULT:    -4.134      6.652      9.865
REMARK INTER + INTRA:          -9.870
REMARK INTER:                  -7.009
REMARK INTRA:                  -2.861
REMARK UNBOUND:                -2.353
REMARK SMILES CCCCCC=CCC=CCCCCCCCC(=O)[O-]
REMARK SMILES IDX 11 1 12 2 13 3 14 4 15 5 16 6 17 7 18 8 19 9 20 10 10 11
REMARK SMILES IDX 9 12 8 13 7 14 6 15 5 16 4 17 3 18 2 19 1 20
REMARK H PARENT
REMARK Flexibility Score: inf
ROOT
ATOM      1  C   UNL     1      14.654  -5.098 -25.433  1.00  0.00     0.027 C 
ENDROOT
BRANCH   1   2
ATOM      2  C   UNL     1      14.247  -4.488 -26.785  1.00  0.00     0.004 C 
BRANCH   2   3
ATOM      3  C   UNL     1      15.342  -3.631 -27.451  1.00  0.00     0.000 C 
BRANCH   3   4
ATOM      4  C   UNL     1      15.998  -2.633 -26.481  1.00  0.00     0.000 C 
BRANCH   4   5
ATOM      5  C   UNL     1      17.464  -2.344 -26.841  1.00  0.00     0.000 C 
BRANCH   5   6
ATOM      6  C   UNL     1      17.992  -1.057 -26.181  1.00  0.00     0.006 C 
BRANCH   6   7
ATOM      7  C   UNL     1      18.482  -1.298 -24.747  1.00  0.00     0.053 C 
BRANCH   7   8
ATOM      8  C   UNL     1      18.482  -0.038 -23.937  1.00  0.00     0.041 C 
ATOM      9  O   UNL     1      18.485  -0.094 -22.679  1.00  0.00    -0.550 OA
ATOM     10  O   UNL     1      18.512   1.198 -24.571  1.00  0.00    -0.550 OA
ENDBRANCH   7   8
ENDBRANCH   6   7
ENDBRANCH   5   6
ENDBRANCH   4   5
ENDBRANCH   3   4
ENDBRANCH   2   3
ENDBRANCH   1   2
BRANCH   1  11
ATOM     11  C   UNL     1      15.319  -6.445 -25.602  1.00  0.00    -0.031 C 
ATOM     12  C   UNL     1      16.632  -6.670 -25.423  1.00  0.00    -0.027 C 
BRANCH  12  13
ATOM     13  C   UNL     1      17.623  -5.599 -25.048  1.00  0.00     0.054 C 
BRANCH  13  14
ATOM     14  C   UNL     1      18.051  -5.733 -23.610  1.00  0.00    -0.027 C 
ATOM     15  C   UNL     1      17.724  -4.870 -22.629  1.00  0.00    -0.031 C 
BRANCH  15  16
ATOM     16  C   UNL     1      16.899  -3.615 -22.813  1.00  0.00     0.027 C 
BRANCH  16  17
ATOM     17  C   UNL     1      15.488  -3.760 -22.224  1.00  0.00     0.004 C 
BRANCH  17  18
ATOM     18  C   UNL     1      15.324  -4.938 -21.243  1.00  0.00     0.000 C 
BRANCH  18  19
ATOM     19  C   UNL     1      14.425  -6.070 -21.784  1.00  0.00    -0.003 C 
ATOM     20  C   UNL     1      15.148  -7.415 -21.833  1.00  0.00     0.004 C 
ENDBRANCH  18  19
ENDBRANCH  17  18
ENDBRANCH  16  17
ENDBRANCH  15  16
ENDBRANCH  13  14
ENDBRANCH  12  13
ENDBRANCH   1  11
TORSDOF 14
ENDMDL
