MODEL 1
REMARK VINA RESULT:    -7.154      0.000      0.000
REMARK INTER + INTRA:          -8.721
REMARK INTER:                  -8.408
REMARK INTRA:                  -0.313
REMARK UNBOUND:                -0.313
REMARK SMILES O=c1cc(-c2ccc(O)c(O)c2)oc2cc(O)cc(O)c12
REMARK SMILES IDX 4 1 3 2 2 3 1 4 21 5 19 6 18 7 16 8 15 9 14 10 13 11 5 12
REMARK SMILES IDX 6 13 7 14 8 15 12 16 10 17 9 18 11 20 20 22 17 24
REMARK H PARENT 9 19 11 21 20 23 17 25
REMARK Flexibility Score: inf
ROOT
ATOM      1  C   UNL     1      -7.239  -6.120   9.022  1.00  0.00     0.138 A 
ATOM      2  C   UNL     1      -7.328  -7.519   9.002  1.00  0.00     0.100 A 
ATOM      3  C   UNL     1      -7.205  -8.236  10.193  1.00  0.00     0.197 A 
ATOM      4  O   UNL     1      -7.233  -9.492  10.134  1.00  0.00    -0.289 OA
ATOM      5  C   UNL     1      -7.028  -7.544  11.415  1.00  0.00     0.107 A 
ATOM      6  C   UNL     1      -6.924  -8.167  12.696  1.00  0.00     0.134 A 
ATOM      7  C   UNL     1      -6.651  -7.384  13.824  1.00  0.00     0.093 A 
ATOM      8  C   UNL     1      -6.535  -5.995  13.727  1.00  0.00     0.123 A 
ATOM      9  C   UNL     1      -6.685  -5.373  12.491  1.00  0.00     0.094 A 
ATOM     10  C   UNL     1      -6.924  -6.129  11.341  1.00  0.00     0.146 A 
ATOM     11  O   UNL     1      -7.041  -5.497  10.178  1.00  0.00    -0.456 OA
ENDROOT
BRANCH   1  12
ATOM     12  C   UNL     1      -7.365  -5.308   7.785  1.00  0.00     0.021 A 
ATOM     13  C   UNL     1      -7.974  -5.871   6.650  1.00  0.00     0.016 A 
ATOM     14  C   UNL     1      -8.113  -5.127   5.475  1.00  0.00     0.051 A 
ATOM     15  C   UNL     1      -7.657  -3.806   5.418  1.00  0.00     0.157 A 
ATOM     16  C   UNL     1      -6.920  -3.973   7.724  1.00  0.00     0.062 A 
ATOM     17  C   UNL     1      -7.062  -3.226   6.546  1.00  0.00     0.158 A 
BRANCH  15  18
ATOM     18  O   UNL     1      -7.792  -3.060   4.249  1.00  0.00    -0.504 OA
ATOM     19  H   UNL     1      -8.311  -2.189   4.233  1.00  0.00     0.293 HD
ENDBRANCH  15  18
BRANCH  17  20
ATOM     20  O   UNL     1      -6.618  -1.906   6.489  1.00  0.00    -0.504 OA
ATOM     21  H   UNL     1      -6.728  -1.275   7.274  1.00  0.00     0.293 HD
ENDBRANCH  17  20
ENDBRANCH   1  12
BRANCH   6  22
ATOM     22  O   UNL     1      -7.101  -9.536  12.918  1.00  0.00    -0.507 OA
ATOM     23  H   UNL     1      -7.401  -9.948  13.789  1.00  0.00     0.293 HD
ENDBRANCH   6  22
BRANCH   8  24
ATOM     24  O   UNL     1      -6.280  -5.223  14.858  1.00  0.00    -0.508 OA
ATOM     25  H   UNL     1      -5.590  -4.480  14.849  1.00  0.00     0.293 HD
ENDBRANCH   8  24
TORSDOF 5
ENDMDL
MODEL 2
REMARK VINA RESULT:    -6.673     14.156     16.332
REMARK INTER + INTRA:          -8.156
REMARK INTER:                  -7.843
REMARK INTRA:                  -0.313
REMARK UNBOUND:                -0.313
REMARK SMILES O=c1cc(-c2ccc(O)c(O)c2)oc2cc(O)cc(O)c12
REMARK SMILES IDX 4 1 3 2 2 3 1 4 21 5 19 6 18 7 16 8 15 9 14 10 13 11 5 12
REMARK SMILES IDX 6 13 7 14 8 15 12 16 10 17 9 18 11 20 20 22 17 24
REMARK H PARENT 9 19 11 21 20 23 17 25
REMARK Flexibility Score: inf
ROOT
ATOM      1  C   UNL     1     -19.663  -3.755  18.315  1.00  0.00     0.138 A 
ATOM      2  C   UNL     1     -19.306  -2.973  17.208  1.00  0.00     0.100 A 
ATOM      3  C   UNL     1     -18.633  -3.562  16.135  1.00  0.00     0.197 A 
ATOM      4  O   UNL     1     -18.277  -2.823  15.182  1.00  0.00    -0.289 OA
ATOM      5  C   UNL     1     -18.350  -4.949  16.158  1.00  0.00     0.107 A 
ATOM      6  C   UNL     1     -17.700  -5.664  15.108  1.00  0.00     0.134 A 
ATOM      7  C   UNL     1     -17.385  -7.017  15.287  1.00  0.00     0.093 A 
ATOM      8  C   UNL     1     -17.748  -7.694  16.454  1.00  0.00     0.123 A 
ATOM      9  C   UNL     1     -18.428  -7.018  17.463  1.00  0.00     0.094 A 
ATOM     10  C   UNL     1     -18.726  -5.659  17.330  1.00  0.00     0.146 A 
ATOM     11  O   UNL     1     -19.358  -5.048  18.325  1.00  0.00    -0.456 OA
ENDROOT
BRANCH   1  12
ATOM     12  C   UNL     1     -20.383  -3.181  19.480  1.00  0.00     0.021 A 
ATOM     13  C   UNL     1     -21.086  -1.974  19.330  1.00  0.00     0.016 A 
ATOM     14  C   UNL     1     -21.778  -1.415  20.408  1.00  0.00     0.051 A 
ATOM     15  C   UNL     1     -21.787  -2.059  21.651  1.00  0.00     0.157 A 
ATOM     16  C   UNL     1     -20.407  -3.830  20.731  1.00  0.00     0.062 A 
ATOM     17  C   UNL     1     -21.102  -3.270  21.812  1.00  0.00     0.158 A 
BRANCH  15  18
ATOM     18  O   UNL     1     -22.474  -1.505  22.729  1.00  0.00    -0.504 OA
ATOM     19  H   UNL     1     -22.007  -0.910  23.405  1.00  0.00     0.293 HD
ENDBRANCH  15  18
BRANCH  17  20
ATOM     20  O   UNL     1     -21.122  -3.914  23.048  1.00  0.00    -0.504 OA
ATOM     21  H   UNL     1     -20.267  -4.155  23.535  1.00  0.00     0.293 HD
ENDBRANCH  17  20
ENDBRANCH   1  12
BRANCH   6  22
ATOM     22  O   UNL     1     -17.363  -5.107  13.870  1.00  0.00    -0.507 OA
ATOM     23  H   UNL     1     -17.887  -4.386  13.398  1.00  0.00     0.293 HD
ENDBRANCH   6  22
BRANCH   8  24
ATOM     24  O   UNL     1     -17.445  -9.044  16.615  1.00  0.00    -0.508 OA
ATOM     25  H   UNL     1     -17.160  -9.421  17.512  1.00  0.00     0.293 HD
ENDBRANCH   8  24
TORSDOF 5
ENDMDL
MODEL 3
REMARK VINA RESULT:    -6.673     12.931     14.815
REMARK INTER + INTRA:          -8.156
REMARK INTER:                  -7.890
REMARK INTRA:                  -0.266
REMARK UNBOUND:                -0.313
REMARK SMILES O=c1cc(-c2ccc(O)c(O)c2)oc2cc(O)cc(O)c12
REMARK SMILES IDX 4 1 3 2 2 3 1 4 21 5 19 6 18 7 16 8 15 9 14 10 13 11 5 12
REMARK SMILES IDX 6 13 7 14 8 15 12 16 10 17 9 18 11 20 20 22 17 24
REMARK H PARENT 9 19 11 21 20 23 17 25
REMARK Flexibility Score: inf
ROOT
ATOM      1  C   UNL     1     -18.630  -3.887  16.850  1.00  0.00     0.138 A 
ATOM      2  C   UNL     1     -17.759  -3.098  16.086  1.00  0.00     0.100 A 
ATOM      3  C   UNL     1     -16.984  -3.693  15.089  1.00  0.00     0.197 A 
ATOM      4  O   UNL     1     -16.171  -2.968  14.459  1.00  0.00    -0.289 OA
ATOM      5  C   UNL     1     -17.109  -5.080  14.834  1.00  0.00     0.107 A 
ATOM      6  C   UNL     1     -16.395  -5.789  13.821  1.00  0.00     0.134 A 
ATOM      7  C   UNL     1     -16.529  -7.180  13.728  1.00  0.00     0.093 A 
ATOM      8  C   UNL     1     -17.395  -7.879  14.573  1.00  0.00     0.123 A 
ATOM      9  C   UNL     1     -18.133  -7.190  15.531  1.00  0.00     0.094 A 
ATOM     10  C   UNL     1     -17.996  -5.807  15.672  1.00  0.00     0.146 A 
ATOM     11  O   UNL     1     -18.706  -5.191  16.611  1.00  0.00    -0.456 OA
ENDROOT
BRANCH   1  12
ATOM     12  C   UNL     1     -19.480  -3.306  17.920  1.00  0.00     0.021 A 
ATOM     13  C   UNL     1     -19.053  -3.382  19.257  1.00  0.00     0.016 A 
ATOM     14  C   UNL     1     -19.830  -2.836  20.283  1.00  0.00     0.051 A 
ATOM     15  C   UNL     1     -21.039  -2.197  19.990  1.00  0.00     0.157 A 
ATOM     16  C   UNL     1     -20.693  -2.649  17.631  1.00  0.00     0.062 A 
ATOM     17  C   UNL     1     -21.470  -2.100  18.660  1.00  0.00     0.158 A 
BRANCH  15  18
ATOM     18  O   UNL     1     -21.818  -1.653  21.010  1.00  0.00    -0.504 OA
ATOM     19  H   UNL     1     -21.495  -1.639  21.971  1.00  0.00     0.293 HD
ENDBRANCH  15  18
BRANCH  17  20
ATOM     20  O   UNL     1     -22.670  -1.453  18.370  1.00  0.00    -0.504 OA
ATOM     21  H   UNL     1     -23.168  -1.621  17.504  1.00  0.00     0.293 HD
ENDBRANCH  17  20
ENDBRANCH   1  12
BRANCH   6  22
ATOM     22  O   UNL     1     -15.566  -5.180  12.874  1.00  0.00    -0.507 OA
ATOM     23  H   UNL     1     -14.841  -5.649  12.351  1.00  0.00     0.293 HD
ENDBRANCH   6  22
BRANCH   8  24
ATOM     24  O   UNL     1     -17.533  -9.261  14.462  1.00  0.00    -0.508 OA
ATOM     25  H   UNL     1     -17.404  -9.738  13.576  1.00  0.00     0.293 HD
ENDBRANCH   8  24
TORSDOF 5
ENDMDL
MODEL 4
REMARK VINA RESULT:    -6.630      4.414      6.992
REMARK INTER + INTRA:          -8.106
REMARK INTER:                  -7.810
REMARK INTRA:                  -0.296
REMARK UNBOUND:                -0.313
REMARK SMILES O=c1cc(-c2ccc(O)c(O)c2)oc2cc(O)cc(O)c12
REMARK SMILES IDX 4 1 3 2 2 3 1 4 21 5 19 6 18 7 16 8 15 9 14 10 13 11 5 12
REMARK SMILES IDX 6 13 7 14 8 15 12 16 10 17 9 18 11 20 20 22 17 24
REMARK H PARENT 9 19 11 21 20 23 17 25
REMARK Flexibility Score: inf
ROOT
ATOM      1  C   UNL     1     -10.726  -6.211   8.787  1.00  0.00     0.138 A 
ATOM      2  C   UNL     1     -10.570  -5.255   7.775  1.00  0.00     0.100 A 
ATOM      3  C   UNL     1      -9.568  -5.421   6.817  1.00  0.00     0.197 A 
ATOM      4  O   UNL     1      -9.417  -4.517   5.955  1.00  0.00    -0.289 OA
ATOM      5  C   UNL     1      -8.743  -6.571   6.853  1.00  0.00     0.107 A 
ATOM      6  C   UNL     1      -7.713  -6.864   5.910  1.00  0.00     0.134 A 
ATOM      7  C   UNL     1      -6.896  -7.984   6.106  1.00  0.00     0.093 A 
ATOM      8  C   UNL     1      -7.109  -8.853   7.179  1.00  0.00     0.123 A 
ATOM      9  C   UNL     1      -8.144  -8.604   8.076  1.00  0.00     0.094 A 
ATOM     10  C   UNL     1      -8.955  -7.476   7.928  1.00  0.00     0.146 A 
ATOM     11  O   UNL     1      -9.918  -7.265   8.817  1.00  0.00    -0.456 OA
ENDROOT
BRANCH   1  12
ATOM     12  C   UNL     1     -11.777  -6.086   9.830  1.00  0.00     0.021 A 
ATOM     13  C   UNL     1     -12.007  -7.158  10.709  1.00  0.00     0.016 A 
ATOM     14  C   UNL     1     -12.984  -7.063  11.703  1.00  0.00     0.051 A 
ATOM     15  C   UNL     1     -13.739  -5.893  11.843  1.00  0.00     0.157 A 
ATOM     16  C   UNL     1     -12.532  -4.906   9.984  1.00  0.00     0.062 A 
ATOM     17  C   UNL     1     -13.510  -4.811  10.984  1.00  0.00     0.158 A 
BRANCH  15  18
ATOM     18  O   UNL     1     -14.716  -5.795  12.832  1.00  0.00    -0.504 OA
ATOM     19  H   UNL     1     -15.040  -4.895  13.169  1.00  0.00     0.293 HD
ENDBRANCH  15  18
BRANCH  17  20
ATOM     20  O   UNL     1     -14.256  -3.643  11.132  1.00  0.00    -0.504 OA
ATOM     21  H   UNL     1     -13.924  -2.753  10.780  1.00  0.00     0.293 HD
ENDBRANCH  17  20
ENDBRANCH   1  12
BRANCH   6  22
ATOM     22  O   UNL     1      -7.464  -6.108   4.760  1.00  0.00    -0.507 OA
ATOM     23  H   UNL     1      -6.551  -5.821   4.441  1.00  0.00     0.293 HD
ENDBRANCH   6  22
BRANCH   8  24
ATOM     24  O   UNL     1      -6.301  -9.974   7.356  1.00  0.00    -0.508 OA
ATOM     25  H   UNL     1      -6.515 -10.859   6.910  1.00  0.00     0.293 HD
ENDBRANCH   8  24
TORSDOF 5
ENDMDL
MODEL 5
REMARK VINA RESULT:    -6.574      2.324      3.170
REMARK INTER + INTRA:          -8.040
REMARK INTER:                  -7.778
REMARK INTRA:                  -0.262
REMARK UNBOUND:                -0.313
REMARK SMILES O=c1cc(-c2ccc(O)c(O)c2)oc2cc(O)cc(O)c12
REMARK SMILES IDX 4 1 3 2 2 3 1 4 21 5 19 6 18 7 16 8 15 9 14 10 13 11 5 12
REMARK SMILES IDX 6 13 7 14 8 15 12 16 10 17 9 18 11 20 20 22 17 24
REMARK H PARENT 9 19 11 21 20 23 17 25
REMARK Flexibility Score: inf
ROOT
ATOM      1  C   UNL     1      -8.133  -5.782   8.983  1.00  0.00     0.138 A 
ATOM      2  C   UNL     1      -9.408  -5.450   9.461  1.00  0.00     0.100 A 
ATOM      3  C   UNL     1      -9.565  -5.055  10.791  1.00  0.00     0.197 A 
ATOM      4  O   UNL     1     -10.729  -4.818  11.205  1.00  0.00    -0.289 OA
ATOM      5  C   UNL     1      -8.433  -4.958  11.635  1.00  0.00     0.107 A 
ATOM      6  C   UNL     1      -8.466  -4.534  12.998  1.00  0.00     0.134 A 
ATOM      7  C   UNL     1      -7.293  -4.574  13.762  1.00  0.00     0.093 A 
ATOM      8  C   UNL     1      -6.077  -4.966  13.197  1.00  0.00     0.123 A 
ATOM      9  C   UNL     1      -6.024  -5.332  11.855  1.00  0.00     0.094 A 
ATOM     10  C   UNL     1      -7.183  -5.337  11.075  1.00  0.00     0.146 A 
ATOM     11  O   UNL     1      -7.091  -5.712   9.804  1.00  0.00    -0.456 OA
ENDROOT
BRANCH   1  12
ATOM     12  C   UNL     1      -7.909  -6.204   7.577  1.00  0.00     0.021 A 
ATOM     13  C   UNL     1      -7.553  -7.537   7.306  1.00  0.00     0.016 A 
ATOM     14  C   UNL     1      -7.343  -7.964   5.992  1.00  0.00     0.051 A 
ATOM     15  C   UNL     1      -7.496  -7.069   4.926  1.00  0.00     0.157 A 
ATOM     16  C   UNL     1      -8.073  -5.313   6.498  1.00  0.00     0.062 A 
ATOM     17  C   UNL     1      -7.865  -5.742   5.180  1.00  0.00     0.158 A 
BRANCH  15  18
ATOM     18  O   UNL     1      -7.286  -7.490   3.615  1.00  0.00    -0.504 OA
ATOM     19  H   UNL     1      -7.029  -8.447   3.401  1.00  0.00     0.293 HD
ENDBRANCH  15  18
BRANCH  17  20
ATOM     20  O   UNL     1      -8.027  -4.857   4.116  1.00  0.00    -0.504 OA
ATOM     21  H   UNL     1      -7.916  -3.857   4.235  1.00  0.00     0.293 HD
ENDBRANCH  17  20
ENDBRANCH   1  12
BRANCH   6  22
ATOM     22  O   UNL     1      -9.610  -4.049  13.640  1.00  0.00    -0.507 OA
ATOM     23  H   UNL     1      -9.623  -3.617  14.551  1.00  0.00     0.293 HD
ENDBRANCH   6  22
BRANCH   8  24
ATOM     24  O   UNL     1      -4.913  -4.986  13.961  1.00  0.00    -0.508 OA
ATOM     25  H   UNL     1      -4.171  -5.653  13.781  1.00  0.00     0.293 HD
ENDBRANCH   8  24
TORSDOF 5
ENDMDL
MODEL 6
REMARK VINA RESULT:    -6.479      4.051      4.522
REMARK INTER + INTRA:          -7.929
REMARK INTER:                  -7.665
REMARK INTRA:                  -0.263
REMARK UNBOUND:                -0.313
REMARK SMILES O=c1cc(-c2ccc(O)c(O)c2)oc2cc(O)cc(O)c12
REMARK SMILES IDX 4 1 3 2 2 3 1 4 21 5 19 6 18 7 16 8 15 9 14 10 13 11 5 12
REMARK SMILES IDX 6 13 7 14 8 15 12 16 10 17 9 18 11 20 20 22 17 24
REMARK H PARENT 9 19 11 21 20 23 17 25
REMARK Flexibility Score: inf
ROOT
ATOM      1  C   UNL     1      -9.859  -5.584   8.619  1.00  0.00     0.138 A 
ATOM      2  C   UNL     1      -9.617  -6.938   8.887  1.00  0.00     0.100 A 
ATOM      3  C   UNL     1     -10.448  -7.626   9.774  1.00  0.00     0.197 A 
ATOM      4  O   UNL     1     -10.172  -8.824  10.037  1.00  0.00    -0.289 OA
ATOM      5  C   UNL     1     -11.549  -6.961  10.366  1.00  0.00     0.107 A 
ATOM      6  C   UNL     1     -12.484  -7.568  11.257  1.00  0.00     0.134 A 
ATOM      7  C   UNL     1     -13.475  -6.782  11.858  1.00  0.00     0.093 A 
ATOM      8  C   UNL     1     -13.601  -5.424  11.554  1.00  0.00     0.123 A 
ATOM      9  C   UNL     1     -12.726  -4.834  10.647  1.00  0.00     0.094 A 
ATOM     10  C   UNL     1     -11.704  -5.583  10.057  1.00  0.00     0.146 A 
ATOM     11  O   UNL     1     -10.880  -4.975   9.212  1.00  0.00    -0.456 OA
ENDROOT
BRANCH   1  12
ATOM     12  C   UNL     1      -9.008  -4.806   7.683  1.00  0.00     0.021 A 
ATOM     13  C   UNL     1      -7.935  -4.054   8.190  1.00  0.00     0.016 A 
ATOM     14  C   UNL     1      -7.114  -3.319   7.330  1.00  0.00     0.051 A 
ATOM     15  C   UNL     1      -7.345  -3.331   5.950  1.00  0.00     0.157 A 
ATOM     16  C   UNL     1      -9.227  -4.824   6.291  1.00  0.00     0.062 A 
ATOM     17  C   UNL     1      -8.402  -4.088   5.429  1.00  0.00     0.158 A 
BRANCH  15  18
ATOM     18  O   UNL     1      -6.530  -2.599   5.089  1.00  0.00    -0.504 OA
ATOM     19  H   UNL     1      -5.902  -3.056   4.438  1.00  0.00     0.293 HD
ENDBRANCH  15  18
BRANCH  17  20
ATOM     20  O   UNL     1      -8.623  -4.108   4.053  1.00  0.00    -0.504 OA
ATOM     21  H   UNL     1      -9.531  -4.335   3.664  1.00  0.00     0.293 HD
ENDBRANCH  17  20
ENDBRANCH   1  12
BRANCH   6  22
ATOM     22  O   UNL     1     -12.498  -8.931  11.569  1.00  0.00    -0.507 OA
ATOM     23  H   UNL     1     -11.684  -9.484  11.792  1.00  0.00     0.293 HD
ENDBRANCH   6  22
BRANCH   8  24
ATOM     24  O   UNL     1     -14.602  -4.655  12.145  1.00  0.00    -0.508 OA
ATOM     25  H   UNL     1     -14.626  -4.493  13.145  1.00  0.00     0.293 HD
ENDBRANCH   8  24
TORSDOF 5
ENDMDL
MODEL 7
REMARK VINA RESULT:    -6.420     14.314     16.371
REMARK INTER + INTRA:          -7.859
REMARK INTER:                  -7.541
REMARK INTRA:                  -0.318
REMARK UNBOUND:                -0.313
REMARK SMILES O=c1cc(-c2ccc(O)c(O)c2)oc2cc(O)cc(O)c12
REMARK SMILES IDX 4 1 3 2 2 3 1 4 21 5 19 6 18 7 16 8 15 9 14 10 13 11 5 12
REMARK SMILES IDX 6 13 7 14 8 15 12 16 10 17 9 18 11 20 20 22 17 24
REMARK H PARENT 9 19 11 21 20 23 17 25
REMARK Flexibility Score: inf
ROOT
ATOM      1  C   UNL     1     -19.742  -3.854  18.643  1.00  0.00     0.138 A 
ATOM      2  C   UNL     1     -19.407  -5.215  18.622  1.00  0.00     0.100 A 
ATOM      3  C   UNL     1     -18.744  -5.746  17.513  1.00  0.00     0.197 A 
ATOM      4  O   UNL     1     -18.508  -6.981  17.500  1.00  0.00    -0.289 OA
ATOM      5  C   UNL     1     -18.385  -4.900  16.437  1.00  0.00     0.107 A 
ATOM      6  C   UNL     1     -17.678  -5.323  15.270  1.00  0.00     0.134 A 
ATOM      7  C   UNL     1     -17.466  -4.414  14.226  1.00  0.00     0.093 A 
ATOM      8  C   UNL     1     -17.883  -3.085  14.330  1.00  0.00     0.123 A 
ATOM      9  C   UNL     1     -18.528  -2.650  15.485  1.00  0.00     0.094 A 
ATOM     10  C   UNL     1     -18.786  -3.541  16.530  1.00  0.00     0.146 A 
ATOM     11  O   UNL     1     -19.421  -3.089  17.606  1.00  0.00    -0.456 OA
ENDROOT
BRANCH   1  12
ATOM     12  C   UNL     1     -20.443  -3.237  19.797  1.00  0.00     0.021 A 
ATOM     13  C   UNL     1     -20.761  -4.030  20.914  1.00  0.00     0.016 A 
ATOM     14  C   UNL     1     -21.414  -3.473  22.017  1.00  0.00     0.051 A 
ATOM     15  C   UNL     1     -21.750  -2.114  22.028  1.00  0.00     0.157 A 
ATOM     16  C   UNL     1     -20.772  -1.868  19.820  1.00  0.00     0.062 A 
ATOM     17  C   UNL     1     -21.425  -1.309  20.928  1.00  0.00     0.158 A 
BRANCH  15  18
ATOM     18  O   UNL     1     -22.402  -1.555  23.125  1.00  0.00    -0.504 OA
ATOM     19  H   UNL     1     -23.068  -2.088  23.672  1.00  0.00     0.293 HD
ENDBRANCH  15  18
BRANCH  17  20
ATOM     20  O   UNL     1     -21.751   0.046  20.947  1.00  0.00    -0.504 OA
ATOM     21  H   UNL     1     -21.035   0.764  20.945  1.00  0.00     0.293 HD
ENDBRANCH  17  20
ENDBRANCH   1  12
BRANCH   6  22
ATOM     22  O   UNL     1     -17.149  -6.605  15.096  1.00  0.00    -0.507 OA
ATOM     23  H   UNL     1     -17.628  -7.465  15.316  1.00  0.00     0.293 HD
ENDBRANCH   6  22
BRANCH   8  24
ATOM     24  O   UNL     1     -17.652  -2.185  13.292  1.00  0.00    -0.508 OA
ATOM     25  H   UNL     1     -17.082  -2.433  12.491  1.00  0.00     0.293 HD
ENDBRANCH   8  24
TORSDOF 5
ENDMDL
MODEL 8
REMARK VINA RESULT:    -6.384     12.799     14.606
REMARK INTER + INTRA:          -7.817
REMARK INTER:                  -7.546
REMARK INTRA:                  -0.271
REMARK UNBOUND:                -0.313
REMARK SMILES O=c1cc(-c2ccc(O)c(O)c2)oc2cc(O)cc(O)c12
REMARK SMILES IDX 4 1 3 2 2 3 1 4 21 5 19 6 18 7 16 8 15 9 14 10 13 11 5 12
REMARK SMILES IDX 6 13 7 14 8 15 12 16 10 17 9 18 11 20 20 22 17 24
REMARK H PARENT 9 19 11 21 20 23 17 25
REMARK Flexibility Score: inf
ROOT
ATOM      1  C   UNL     1     -18.666  -3.886  16.874  1.00  0.00     0.138 A 
ATOM      2  C   UNL     1     -18.653  -5.259  16.595  1.00  0.00     0.100 A 
ATOM      3  C   UNL     1     -17.855  -5.745  15.557  1.00  0.00     0.197 A 
ATOM      4  O   UNL     1     -17.908  -6.974  15.295  1.00  0.00    -0.289 OA
ATOM      5  C   UNL     1     -17.039  -4.854  14.820  1.00  0.00     0.107 A 
ATOM      6  C   UNL     1     -16.159  -5.239  13.764  1.00  0.00     0.134 A 
ATOM      7  C   UNL     1     -15.476  -4.253  13.041  1.00  0.00     0.093 A 
ATOM      8  C   UNL     1     -15.595  -2.902  13.375  1.00  0.00     0.123 A 
ATOM      9  C   UNL     1     -16.410  -2.520  14.436  1.00  0.00     0.094 A 
ATOM     10  C   UNL     1     -17.133  -3.476  15.154  1.00  0.00     0.146 A 
ATOM     11  O   UNL     1     -17.914  -3.067  16.147  1.00  0.00    -0.456 OA
ENDROOT
BRANCH   1  12
ATOM     12  C   UNL     1     -19.493  -3.316  17.968  1.00  0.00     0.021 A 
ATOM     13  C   UNL     1     -19.059  -3.444  19.299  1.00  0.00     0.016 A 
ATOM     14  C   UNL     1     -19.814  -2.910  20.347  1.00  0.00     0.051 A 
ATOM     15  C   UNL     1     -21.009  -2.232  20.082  1.00  0.00     0.157 A 
ATOM     16  C   UNL     1     -20.690  -2.621  17.708  1.00  0.00     0.062 A 
ATOM     17  C   UNL     1     -21.446  -2.084  18.760  1.00  0.00     0.158 A 
BRANCH  15  18
ATOM     18  O   UNL     1     -21.766  -1.700  21.124  1.00  0.00    -0.504 OA
ATOM     19  H   UNL     1     -21.862  -0.698  21.250  1.00  0.00     0.293 HD
ENDBRANCH  15  18
BRANCH  17  20
ATOM     20  O   UNL     1     -22.631  -1.398  18.499  1.00  0.00    -0.504 OA
ATOM     21  H   UNL     1     -23.511  -1.680  18.915  1.00  0.00     0.293 HD
ENDBRANCH  17  20
ENDBRANCH   1  12
BRANCH   6  22
ATOM     22  O   UNL     1     -15.906  -6.565  13.399  1.00  0.00    -0.507 OA
ATOM     23  H   UNL     1     -16.023  -7.365  14.003  1.00  0.00     0.293 HD
ENDBRANCH   6  22
BRANCH   8  24
ATOM     24  O   UNL     1     -14.897  -1.930  12.660  1.00  0.00    -0.508 OA
ATOM     25  H   UNL     1     -14.199  -2.179  11.968  1.00  0.00     0.293 HD
ENDBRANCH   8  24
TORSDOF 5
ENDMDL
MODEL 9
REMARK VINA RESULT:    -6.287      4.197      4.814
REMARK INTER + INTRA:          -7.703
REMARK INTER:                  -7.417
REMARK INTRA:                  -0.286
REMARK UNBOUND:                -0.313
REMARK SMILES O=c1cc(-c2ccc(O)c(O)c2)oc2cc(O)cc(O)c12
REMARK SMILES IDX 4 1 3 2 2 3 1 4 21 5 19 6 18 7 16 8 15 9 14 10 13 11 5 12
REMARK SMILES IDX 6 13 7 14 8 15 12 16 10 17 9 18 11 20 20 22 17 24
REMARK H PARENT 9 19 11 21 20 23 17 25
REMARK Flexibility Score: inf
ROOT
ATOM      1  C   UNL     1      -9.844  -7.097   9.284  1.00  0.00     0.138 A 
ATOM      2  C   UNL     1     -10.800  -8.016   9.738  1.00  0.00     0.100 A 
ATOM      3  C   UNL     1     -11.732  -7.624  10.701  1.00  0.00     0.197 A 
ATOM      4  O   UNL     1     -12.540  -8.488  11.129  1.00  0.00    -0.289 OA
ATOM      5  C   UNL     1     -11.726  -6.295  11.186  1.00  0.00     0.107 A 
ATOM      6  C   UNL     1     -12.648  -5.773  12.143  1.00  0.00     0.134 A 
ATOM      7  C   UNL     1     -12.481  -4.467  12.620  1.00  0.00     0.093 A 
ATOM      8  C   UNL     1     -11.462  -3.645  12.132  1.00  0.00     0.123 A 
ATOM      9  C   UNL     1     -10.589  -4.128  11.161  1.00  0.00     0.094 A 
ATOM     10  C   UNL     1     -10.707  -5.438  10.690  1.00  0.00     0.146 A 
ATOM     11  O   UNL     1      -9.841  -5.864   9.778  1.00  0.00    -0.456 OA
ENDROOT
BRANCH   1  12
ATOM     12  C   UNL     1      -8.833  -7.459   8.258  1.00  0.00     0.021 A 
ATOM     13  C   UNL     1      -8.062  -8.622   8.431  1.00  0.00     0.016 A 
ATOM     14  C   UNL     1      -7.109  -8.990   7.478  1.00  0.00     0.051 A 
ATOM     15  C   UNL     1      -6.918  -8.210   6.331  1.00  0.00     0.157 A 
ATOM     16  C   UNL     1      -8.645  -6.686   7.096  1.00  0.00     0.062 A 
ATOM     17  C   UNL     1      -7.690  -7.057   6.139  1.00  0.00     0.158 A 
BRANCH  15  18
ATOM     18  O   UNL     1      -5.968  -8.572   5.379  1.00  0.00    -0.504 OA
ATOM     19  H   UNL     1      -5.340  -9.354   5.529  1.00  0.00     0.293 HD
ENDBRANCH  15  18
BRANCH  17  20
ATOM     20  O   UNL     1      -7.506  -6.288   4.991  1.00  0.00    -0.504 OA
ATOM     21  H   UNL     1      -8.018  -6.478   4.137  1.00  0.00     0.293 HD
ENDBRANCH  17  20
ENDBRANCH   1  12
BRANCH   6  22
ATOM     22  O   UNL     1     -13.748  -6.479  12.638  1.00  0.00    -0.507 OA
ATOM     23  H   UNL     1     -14.695  -6.132  12.666  1.00  0.00     0.293 HD
ENDBRANCH   6  22
BRANCH   8  24
ATOM     24  O   UNL     1     -11.315  -2.342  12.602  1.00  0.00    -0.508 OA
ATOM     25  H   UNL     1     -10.401  -1.923  12.730  1.00  0.00     0.293 HD
ENDBRANCH   8  24
TORSDOF 5
ENDMDL
