MODEL 1
REMARK VINA RESULT:    -3.240      0.000      0.000
REMARK INTER + INTRA:          -3.856
REMARK INTER:                  -3.808
REMARK INTRA:                  -0.048
REMARK UNBOUND:                -0.048
REMARK SMILES O=C([O-])CCC(=O)[O-]
REMARK SMILES IDX 4 1 2 2 1 3 3 4 5 5 6 6 7 7 8 8
REMARK H PARENT
REMARK Flexibility Score: inf
ROOT
ATOM      1  C   UNL     1      -9.574  -3.028   3.381  1.00  0.00     0.059 C 
ENDROOT
BRANCH   1   2
ATOM      2  C   UNL     1      -9.438  -1.736   2.635  1.00  0.00     0.042 C 
ATOM      3  O   UNL     1     -10.362  -1.341   1.876  1.00  0.00    -0.550 OA
ATOM      4  O   UNL     1      -8.273  -0.988   2.748  1.00  0.00    -0.550 OA
ENDBRANCH   1   2
BRANCH   1   5
ATOM      5  C   UNL     1      -8.427  -3.228   4.377  1.00  0.00     0.059 C 
BRANCH   5   6
ATOM      6  C   UNL     1      -8.920  -3.772   5.682  1.00  0.00     0.042 C 
ATOM      7  O   UNL     1      -8.120  -3.942   6.640  1.00  0.00    -0.550 OA
ATOM      8  O   UNL     1     -10.254  -4.131   5.828  1.00  0.00    -0.550 OA
ENDBRANCH   5   6
ENDBRANCH   1   5
TORSDOF 3
ENDMDL
MODEL 2
REMARK VINA RESULT:    -3.194      0.381      4.169
REMARK INTER + INTRA:          -3.802
REMARK INTER:                  -3.757
REMARK INTRA:                  -0.045
REMARK UNBOUND:                -0.048
REMARK SMILES O=C([O-])CCC(=O)[O-]
REMARK SMILES IDX 4 1 2 2 1 3 3 4 5 5 6 6 7 7 8 8
REMARK H PARENT
REMARK Flexibility Score: inf
ROOT
ATOM      1  C   UNL     1      -8.468  -3.283   4.532  1.00  0.00     0.059 C 
ENDROOT
BRANCH   1   2
ATOM      2  C   UNL     1      -8.881  -3.866   5.850  1.00  0.00     0.042 C 
ATOM      3  O   UNL     1      -8.087  -3.851   6.827  1.00  0.00    -0.550 OA
ATOM      4  O   UNL     1     -10.128  -4.462   5.985  1.00  0.00    -0.550 OA
ENDBRANCH   1   2
BRANCH   1   5
ATOM      5  C   UNL     1      -9.612  -3.324   3.514  1.00  0.00     0.059 C 
BRANCH   5   6
ATOM      6  C   UNL     1      -9.606  -2.116   2.629  1.00  0.00     0.042 C 
ATOM      7  O   UNL     1      -8.598  -1.363   2.591  1.00  0.00    -0.550 OA
ATOM      8  O   UNL     1     -10.730  -1.800   1.876  1.00  0.00    -0.550 OA
ENDBRANCH   5   6
ENDBRANCH   1   5
TORSDOF 3
ENDMDL
MODEL 3
REMARK VINA RESULT:    -3.184      0.484      4.138
REMARK INTER + INTRA:          -3.790
REMARK INTER:                  -3.734
REMARK INTRA:                  -0.056
REMARK UNBOUND:                -0.048
REMARK SMILES O=C([O-])CCC(=O)[O-]
REMARK SMILES IDX 4 1 2 2 1 3 3 4 5 5 6 6 7 7 8 8
REMARK H PARENT
REMARK Flexibility Score: inf
ROOT
ATOM      1  C   UNL     1      -8.501  -3.108   4.134  1.00  0.00     0.059 C 
ENDROOT
BRANCH   1   2
ATOM      2  C   UNL     1      -9.088  -3.520   5.450  1.00  0.00     0.042 C 
ATOM      3  O   UNL     1     -10.336  -3.534   5.611  1.00  0.00    -0.550 OA
ATOM      4  O   UNL     1      -8.253  -3.847   6.511  1.00  0.00    -0.550 OA
ENDBRANCH   1   2
BRANCH   1   5
ATOM      5  C   UNL     1      -9.580  -2.617   3.165  1.00  0.00     0.059 C 
BRANCH   5   6
ATOM      6  C   UNL     1      -9.205  -1.309   2.539  1.00  0.00     0.042 C 
ATOM      7  O   UNL     1     -10.053  -0.656   1.876  1.00  0.00    -0.550 OA
ATOM      8  O   UNL     1      -7.906  -0.830   2.654  1.00  0.00    -0.550 OA
ENDBRANCH   5   6
ENDBRANCH   1   5
TORSDOF 3
ENDMDL
MODEL 4
REMARK VINA RESULT:    -3.173      1.271      1.449
REMARK INTER + INTRA:          -3.777
REMARK INTER:                  -3.737
REMARK INTRA:                  -0.040
REMARK UNBOUND:                -0.048
REMARK SMILES O=C([O-])CCC(=O)[O-]
REMARK SMILES IDX 4 1 2 2 1 3 3 4 5 5 6 6 7 7 8 8
REMARK H PARENT
REMARK Flexibility Score: inf
ROOT
ATOM      1  C   UNL     1      -8.514  -3.151   4.306  1.00  0.00     0.059 C 
ENDROOT
BRANCH   1   2
ATOM      2  C   UNL     1      -9.368  -2.339   3.380  1.00  0.00     0.042 C 
ATOM      3  O   UNL     1     -10.026  -2.902   2.467  1.00  0.00    -0.550 OA
ATOM      4  O   UNL     1      -9.402  -0.955   3.502  1.00  0.00    -0.550 OA
ENDBRANCH   1   2
BRANCH   1   5
ATOM      5  C   UNL     1      -9.303  -4.305   4.934  1.00  0.00     0.059 C 
BRANCH   5   6
ATOM      6  C   UNL     1      -8.776  -4.659   6.290  1.00  0.00     0.042 C 
ATOM      7  O   UNL     1      -8.055  -3.843   6.924  1.00  0.00    -0.550 OA
ATOM      8  O   UNL     1      -9.047  -5.907   6.838  1.00  0.00    -0.550 OA
ENDBRANCH   5   6
ENDBRANCH   1   5
TORSDOF 3
ENDMDL
MODEL 5
REMARK VINA RESULT:    -3.149      0.828      1.367
REMARK INTER + INTRA:          -3.749
REMARK INTER:                  -3.714
REMARK INTRA:                  -0.036
REMARK UNBOUND:                -0.048
REMARK SMILES O=C([O-])CCC(=O)[O-]
REMARK SMILES IDX 4 1 2 2 1 3 3 4 5 5 6 6 7 7 8 8
REMARK H PARENT
REMARK Flexibility Score: inf
ROOT
ATOM      1  C   UNL     1      -9.580  -1.804   3.688  1.00  0.00     0.059 C 
ENDROOT
BRANCH   1   2
ATOM      2  C   UNL     1      -8.939  -0.879   2.699  1.00  0.00     0.042 C 
ATOM      3  O   UNL     1      -7.684  -0.788   2.637  1.00  0.00    -0.550 OA
ATOM      4  O   UNL     1      -9.728  -0.087   1.875  1.00  0.00    -0.550 OA
ENDBRANCH   1   2
BRANCH   1   5
ATOM      5  C   UNL     1      -8.617  -2.908   4.134  1.00  0.00     0.059 C 
BRANCH   5   6
ATOM      6  C   UNL     1      -9.069  -3.552   5.409  1.00  0.00     0.042 C 
ATOM      7  O   UNL     1      -8.231  -3.855   6.298  1.00  0.00    -0.550 OA
ATOM      8  O   UNL     1     -10.411  -3.855   5.597  1.00  0.00    -0.550 OA
ENDBRANCH   5   6
ENDBRANCH   1   5
TORSDOF 3
ENDMDL
MODEL 6
REMARK VINA RESULT:    -2.998      1.876      4.193
REMARK INTER + INTRA:          -3.572
REMARK INTER:                  -3.457
REMARK INTRA:                  -0.115
REMARK UNBOUND:                -0.048
REMARK SMILES O=C([O-])CCC(=O)[O-]
REMARK SMILES IDX 4 1 2 2 1 3 3 4 5 5 6 6 7 7 8 8
REMARK H PARENT
REMARK Flexibility Score: inf
ROOT
ATOM      1  C   UNL     1      -9.990  -2.584   2.513  1.00  0.00     0.059 C 
ENDROOT
BRANCH   1   2
ATOM      2  C   UNL     1      -9.539  -2.673   3.939  1.00  0.00     0.042 C 
ATOM      3  O   UNL     1     -10.314  -2.337   4.872  1.00  0.00    -0.550 OA
ATOM      4  O   UNL     1      -8.246  -3.087   4.234  1.00  0.00    -0.550 OA
ENDBRANCH   1   2
BRANCH   1   5
ATOM      5  C   UNL     1      -9.584  -1.252   1.875  1.00  0.00     0.059 C 
BRANCH   5   6
ATOM      6  C   UNL     1     -10.670  -0.228   1.999  1.00  0.00     0.042 C 
ATOM      7  O   UNL     1     -10.381   0.984   2.179  1.00  0.00    -0.550 OA
ATOM      8  O   UNL     1     -12.002  -0.618   1.955  1.00  0.00    -0.550 OA
ENDBRANCH   5   6
ENDBRANCH   1   5
TORSDOF 3
ENDMDL
MODEL 7
REMARK VINA RESULT:    -2.978      2.616      4.813
REMARK INTER + INTRA:          -3.548
REMARK INTER:                  -3.438
REMARK INTRA:                  -0.110
REMARK UNBOUND:                -0.048
REMARK SMILES O=C([O-])CCC(=O)[O-]
REMARK SMILES IDX 4 1 2 2 1 3 3 4 5 5 6 6 7 7 8 8
REMARK H PARENT
REMARK Flexibility Score: inf
ROOT
ATOM      1  C   UNL     1      -9.698  -5.982   6.613  1.00  0.00     0.059 C 
ENDROOT
BRANCH   1   2
ATOM      2  C   UNL     1      -9.112  -7.141   5.865  1.00  0.00     0.042 C 
ATOM      3  O   UNL     1      -8.200  -7.835   6.384  1.00  0.00    -0.550 OA
ATOM      4  O   UNL     1      -9.546  -7.426   4.576  1.00  0.00    -0.550 OA
ENDBRANCH   1   2
BRANCH   1   5
ATOM      5  C   UNL     1      -9.847  -4.749   5.717  1.00  0.00     0.059 C 
BRANCH   5   6
ATOM      6  C   UNL     1      -8.608  -3.908   5.726  1.00  0.00     0.042 C 
ATOM      7  O   UNL     1      -7.917  -3.809   6.774  1.00  0.00    -0.550 OA
ATOM      8  O   UNL     1      -8.238  -3.201   4.589  1.00  0.00    -0.550 OA
ENDBRANCH   5   6
ENDBRANCH   1   5
TORSDOF 3
ENDMDL
MODEL 8
REMARK VINA RESULT:    -2.938      2.317      3.375
REMARK INTER + INTRA:          -3.501
REMARK INTER:                  -3.373
REMARK INTRA:                  -0.128
REMARK UNBOUND:                -0.048
REMARK SMILES O=C([O-])CCC(=O)[O-]
REMARK SMILES IDX 4 1 2 2 1 3 3 4 5 5 6 6 7 7 8 8
REMARK H PARENT
REMARK Flexibility Score: inf
ROOT
ATOM      1  C   UNL     1      -8.996   0.003   2.725  1.00  0.00     0.059 C 
ENDROOT
BRANCH   1   2
ATOM      2  C   UNL     1     -10.195   0.793   3.154  1.00  0.00     0.042 C 
ATOM      3  O   UNL     1     -10.836   1.479   2.316  1.00  0.00    -0.550 OA
ATOM      4  O   UNL     1     -10.579   0.802   4.489  1.00  0.00    -0.550 OA
ENDBRANCH   1   2
BRANCH   1   5
ATOM      5  C   UNL     1      -9.395  -1.222   1.895  1.00  0.00     0.059 C 
BRANCH   5   6
ATOM      6  C   UNL     1      -9.705  -2.400   2.766  1.00  0.00     0.042 C 
ATOM      7  O   UNL     1     -10.635  -3.191   2.456  1.00  0.00    -0.550 OA
ATOM      8  O   UNL     1      -8.993  -2.603   3.941  1.00  0.00    -0.550 OA
ENDBRANCH   5   6
ENDBRANCH   1   5
TORSDOF 3
ENDMDL
