MODEL 1
REMARK VINA RESULT:    -3.639      0.000      0.000
REMARK INTER + INTRA:          -5.781
REMARK INTER:                  -5.341
REMARK INTRA:                  -0.440
REMARK UNBOUND:                -0.440
REMARK SMILES O=C([O-])CCCCCCCC(=O)[O-]
REMARK SMILES IDX 7 1 6 2 5 3 4 4 2 5 1 6 3 7 8 8 9 9 10 10 11 11 12 12 13 13
REMARK H PARENT
REMARK Flexibility Score: inf
ROOT
ATOM      1  C   UNL     1      -1.373 -18.029  28.349  1.00  0.00     0.000 C 
ENDROOT
BRANCH   1   2
ATOM      2  C   UNL     1      -0.901 -16.830  29.181  1.00  0.00     0.000 C 
BRANCH   2   3
ATOM      3  C   UNL     1       0.594 -16.943  29.510  1.00  0.00     0.006 C 
BRANCH   3   4
ATOM      4  C   UNL     1       1.411 -17.479  28.328  1.00  0.00     0.053 C 
BRANCH   4   5
ATOM      5  C   UNL     1       2.885 -17.372  28.575  1.00  0.00     0.041 C 
ATOM      6  O   UNL     1       3.570 -18.408  28.778  1.00  0.00    -0.550 OA
ATOM      7  O   UNL     1       3.495 -16.124  28.613  1.00  0.00    -0.550 OA
ENDBRANCH   4   5
ENDBRANCH   3   4
ENDBRANCH   2   3
ENDBRANCH   1   2
BRANCH   1   8
ATOM      8  C   UNL     1      -2.347 -17.588  27.250  1.00  0.00     0.000 C 
BRANCH   8   9
ATOM      9  C   UNL     1      -1.730 -16.490  26.375  1.00  0.00     0.006 C 
BRANCH   9  10
ATOM     10  C   UNL     1      -2.602 -15.230  26.377  1.00  0.00     0.053 C 
BRANCH  10  11
ATOM     11  C   UNL     1      -3.854 -15.459  25.592  1.00  0.00     0.041 C 
ATOM     12  O   UNL     1      -4.949 -15.648  26.184  1.00  0.00    -0.550 OA
ATOM     13  O   UNL     1      -3.804 -15.513  24.204  1.00  0.00    -0.550 OA
ENDBRANCH  10  11
ENDBRANCH   9  10
ENDBRANCH   8   9
ENDBRANCH   1   8
TORSDOF 8
ENDMDL
MODEL 2
REMARK VINA RESULT:    -3.636     13.877     16.275
REMARK INTER + INTRA:          -5.776
REMARK INTER:                  -5.407
REMARK INTRA:                  -0.369
REMARK UNBOUND:                -0.440
REMARK SMILES O=C([O-])CCCCCCCC(=O)[O-]
REMARK SMILES IDX 7 1 6 2 5 3 4 4 2 5 1 6 3 7 8 8 9 9 10 10 11 11 12 12 13 13
REMARK H PARENT
REMARK Flexibility Score: inf
ROOT
ATOM      1  C   UNL     1     -12.032  -8.251  25.677  1.00  0.00     0.000 C 
ENDROOT
BRANCH   1   2
ATOM      2  C   UNL     1     -13.525  -8.086  25.987  1.00  0.00     0.000 C 
BRANCH   2   3
ATOM      3  C   UNL     1     -14.159  -7.014  25.088  1.00  0.00     0.006 C 
BRANCH   3   4
ATOM      4  C   UNL     1     -13.303  -6.712  23.852  1.00  0.00     0.053 C 
BRANCH   4   5
ATOM      5  C   UNL     1     -14.127  -6.665  22.602  1.00  0.00     0.041 C 
ATOM      6  O   UNL     1     -14.543  -7.731  22.077  1.00  0.00    -0.550 OA
ATOM      7  O   UNL     1     -14.409  -5.445  22.000  1.00  0.00    -0.550 OA
ENDBRANCH   4   5
ENDBRANCH   3   4
ENDBRANCH   2   3
ENDBRANCH   1   2
BRANCH   1   8
ATOM      8  C   UNL     1     -11.251  -8.656  26.932  1.00  0.00     0.000 C 
BRANCH   8   9
ATOM      9  C   UNL     1     -11.956  -8.166  28.203  1.00  0.00     0.006 C 
BRANCH   9  10
ATOM     10  C   UNL     1     -11.582  -9.034  29.409  1.00  0.00     0.053 C 
BRANCH  10  11
ATOM     11  C   UNL     1     -11.326  -8.179  30.609  1.00  0.00     0.041 C 
ATOM     12  O   UNL     1     -11.223  -8.702  31.749  1.00  0.00    -0.550 OA
ATOM     13  O   UNL     1     -11.250  -6.798  30.475  1.00  0.00    -0.550 OA
ENDBRANCH  10  11
ENDBRANCH   9  10
ENDBRANCH   8   9
ENDBRANCH   1   8
TORSDOF 8
ENDMDL
MODEL 3
REMARK VINA RESULT:    -3.629     12.839     15.628
REMARK INTER + INTRA:          -5.766
REMARK INTER:                  -5.314
REMARK INTRA:                  -0.452
REMARK UNBOUND:                -0.440
REMARK SMILES O=C([O-])CCCCCCCC(=O)[O-]
REMARK SMILES IDX 7 1 6 2 5 3 4 4 2 5 1 6 3 7 8 8 9 9 10 10 11 11 12 12 13 13
REMARK H PARENT
REMARK Flexibility Score: inf
ROOT
ATOM      1  C   UNL     1      -9.944 -12.470  14.499  1.00  0.00     0.000 C 
ENDROOT
BRANCH   1   2
ATOM      2  C   UNL     1     -11.007 -11.656  15.246  1.00  0.00     0.000 C 
BRANCH   2   3
ATOM      3  C   UNL     1     -10.765 -11.692  16.762  1.00  0.00     0.006 C 
BRANCH   3   4
ATOM      4  C   UNL     1     -11.668 -10.709  17.518  1.00  0.00     0.053 C 
BRANCH   4   5
ATOM      5  C   UNL     1     -12.443 -11.388  18.605  1.00  0.00     0.041 C 
ATOM      6  O   UNL     1     -12.982 -10.710  19.518  1.00  0.00    -0.550 OA
ATOM      7  O   UNL     1     -12.544 -12.774  18.626  1.00  0.00    -0.550 OA
ENDBRANCH   4   5
ENDBRANCH   3   4
ENDBRANCH   2   3
ENDBRANCH   1   2
BRANCH   1   8
ATOM      8  C   UNL     1      -8.611 -12.461  15.255  1.00  0.00     0.000 C 
BRANCH   8   9
ATOM      9  C   UNL     1      -7.845 -13.772  15.036  1.00  0.00     0.006 C 
BRANCH   9  10
ATOM     10  C   UNL     1      -8.243 -14.822  16.078  1.00  0.00     0.053 C 
BRANCH  10  11
ATOM     11  C   UNL     1      -8.023 -14.296  17.461  1.00  0.00     0.041 C 
ATOM     12  O   UNL     1      -6.942 -13.722  17.756  1.00  0.00    -0.550 OA
ATOM     13  O   UNL     1      -8.993 -14.483  18.438  1.00  0.00    -0.550 OA
ENDBRANCH  10  11
ENDBRANCH   9  10
ENDBRANCH   8   9
ENDBRANCH   1   8
TORSDOF 8
ENDMDL
MODEL 4
REMARK VINA RESULT:    -3.599     13.881     17.043
REMARK INTER + INTRA:          -5.723
REMARK INTER:                  -5.288
REMARK INTRA:                  -0.435
REMARK UNBOUND:                -0.440
REMARK SMILES O=C([O-])CCCCCCCC(=O)[O-]
REMARK SMILES IDX 7 1 6 2 5 3 4 4 2 5 1 6 3 7 8 8 9 9 10 10 11 11 12 12 13 13
REMARK H PARENT
REMARK Flexibility Score: inf
ROOT
ATOM      1  C   UNL     1     -15.113  -7.985  25.495  1.00  0.00     0.000 C 
ENDROOT
BRANCH   1   2
ATOM      2  C   UNL     1     -15.931  -6.719  25.774  1.00  0.00     0.000 C 
BRANCH   2   3
ATOM      3  C   UNL     1     -15.665  -5.645  24.709  1.00  0.00     0.006 C 
BRANCH   3   4
ATOM      4  C   UNL     1     -14.229  -5.702  24.173  1.00  0.00     0.053 C 
BRANCH   4   5
ATOM      5  C   UNL     1     -14.197  -5.867  22.685  1.00  0.00     0.041 C 
ATOM      6  O   UNL     1     -15.140  -5.425  21.978  1.00  0.00    -0.550 OA
ATOM      7  O   UNL     1     -13.140  -6.537  22.081  1.00  0.00    -0.550 OA
ENDBRANCH   4   5
ENDBRANCH   3   4
ENDBRANCH   2   3
ENDBRANCH   1   2
BRANCH   1   8
ATOM      8  C   UNL     1     -14.248  -8.360  26.704  1.00  0.00     0.000 C 
BRANCH   8   9
ATOM      9  C   UNL     1     -12.942  -9.030  26.260  1.00  0.00     0.006 C 
BRANCH   9  10
ATOM     10  C   UNL     1     -11.725  -8.284  26.817  1.00  0.00     0.053 C 
BRANCH  10  11
ATOM     11  C   UNL     1     -11.608  -8.502  28.292  1.00  0.00     0.041 C 
ATOM     12  O   UNL     1     -11.358  -7.534  29.058  1.00  0.00    -0.550 OA
ATOM     13  O   UNL     1     -11.728  -9.783  28.817  1.00  0.00    -0.550 OA
ENDBRANCH  10  11
ENDBRANCH   9  10
ENDBRANCH   8   9
ENDBRANCH   1   8
TORSDOF 8
ENDMDL
MODEL 5
REMARK VINA RESULT:    -3.595     13.917     15.252
REMARK INTER + INTRA:          -5.716
REMARK INTER:                  -5.267
REMARK INTRA:                  -0.449
REMARK UNBOUND:                -0.440
REMARK SMILES O=C([O-])CCCCCCCC(=O)[O-]
REMARK SMILES IDX 7 1 6 2 5 3 4 4 2 5 1 6 3 7 8 8 9 9 10 10 11 11 12 12 13 13
REMARK H PARENT
REMARK Flexibility Score: inf
ROOT
ATOM      1  C   UNL     1     -11.995  -8.241  25.485  1.00  0.00     0.000 C 
ENDROOT
BRANCH   1   2
ATOM      2  C   UNL     1     -11.331  -8.768  26.763  1.00  0.00     0.000 C 
BRANCH   2   3
ATOM      3  C   UNL     1     -12.215  -8.505  27.991  1.00  0.00     0.006 C 
BRANCH   3   4
ATOM      4  C   UNL     1     -11.624  -9.108  29.272  1.00  0.00     0.053 C 
BRANCH   4   5
ATOM      5  C   UNL     1     -11.367  -8.062  30.312  1.00  0.00     0.041 C 
ATOM      6  O   UNL     1     -11.271  -8.385  31.525  1.00  0.00    -0.550 OA
ATOM      7  O   UNL     1     -11.265  -6.726  29.946  1.00  0.00    -0.550 OA
ENDBRANCH   4   5
ENDBRANCH   3   4
ENDBRANCH   2   3
ENDBRANCH   1   2
BRANCH   1   8
ATOM      8  C   UNL     1     -13.502  -8.522  25.490  1.00  0.00     0.000 C 
BRANCH   8   9
ATOM      9  C   UNL     1     -14.297  -7.268  25.109  1.00  0.00     0.006 C 
BRANCH   9  10
ATOM     10  C   UNL     1     -13.443  -6.307  24.276  1.00  0.00     0.053 C 
BRANCH  10  11
ATOM     11  C   UNL     1     -13.843  -6.366  22.836  1.00  0.00     0.041 C 
ATOM     12  O   UNL     1     -14.503  -5.425  22.322  1.00  0.00    -0.550 OA
ATOM     13  O   UNL     1     -13.527  -7.483  22.072  1.00  0.00    -0.550 OA
ENDBRANCH  10  11
ENDBRANCH   9  10
ENDBRANCH   8   9
ENDBRANCH   1   8
TORSDOF 8
ENDMDL
MODEL 6
REMARK VINA RESULT:    -3.585      2.869      5.998
REMARK INTER + INTRA:          -5.701
REMARK INTER:                  -5.219
REMARK INTRA:                  -0.482
REMARK UNBOUND:                -0.440
REMARK SMILES O=C([O-])CCCCCCCC(=O)[O-]
REMARK SMILES IDX 7 1 6 2 5 3 4 4 2 5 1 6 3 7 8 8 9 9 10 10 11 11 12 12 13 13
REMARK H PARENT
REMARK Flexibility Score: inf
ROOT
ATOM      1  C   UNL     1       0.778 -17.248  27.787  1.00  0.00     0.000 C 
ENDROOT
BRANCH   1   2
ATOM      2  C   UNL     1      -0.692 -16.846  27.957  1.00  0.00     0.000 C 
BRANCH   2   3
ATOM      3  C   UNL     1      -1.420 -16.831  26.605  1.00  0.00     0.006 C 
BRANCH   3   4
ATOM      4  C   UNL     1      -2.911 -16.499  26.752  1.00  0.00     0.053 C 
BRANCH   4   5
ATOM      5  C   UNL     1      -3.310 -15.339  25.892  1.00  0.00     0.041 C 
ATOM      6  O   UNL     1      -4.199 -15.479  25.013  1.00  0.00    -0.550 OA
ATOM      7  O   UNL     1      -2.676 -14.111  26.040  1.00  0.00    -0.550 OA
ENDBRANCH   4   5
ENDBRANCH   3   4
ENDBRANCH   2   3
ENDBRANCH   1   2
BRANCH   1   8
ATOM      8  C   UNL     1       1.282 -18.025  29.008  1.00  0.00     0.000 C 
BRANCH   8   9
ATOM      9  C   UNL     1       0.111 -18.561  29.842  1.00  0.00     0.006 C 
BRANCH   9  10
ATOM     10  C   UNL     1       0.134 -20.092  29.901  1.00  0.00     0.053 C 
BRANCH  10  11
ATOM     11  C   UNL     1      -1.210 -20.648  29.553  1.00  0.00     0.041 C 
ATOM     12  O   UNL     1      -1.876 -20.152  28.607  1.00  0.00    -0.550 OA
ATOM     13  O   UNL     1      -1.748 -21.686  30.304  1.00  0.00    -0.550 OA
ENDBRANCH  10  11
ENDBRANCH   9  10
ENDBRANCH   8   9
ENDBRANCH   1   8
TORSDOF 8
ENDMDL
MODEL 7
REMARK VINA RESULT:    -3.573     13.688     15.726
REMARK INTER + INTRA:          -5.684
REMARK INTER:                  -5.275
REMARK INTRA:                  -0.409
REMARK UNBOUND:                -0.440
REMARK SMILES O=C([O-])CCCCCCCC(=O)[O-]
REMARK SMILES IDX 7 1 6 2 5 3 4 4 2 5 1 6 3 7 8 8 9 9 10 10 11 11 12 12 13 13
REMARK H PARENT
REMARK Flexibility Score: inf
ROOT
ATOM      1  C   UNL     1     -10.385 -11.716  14.245  1.00  0.00     0.000 C 
ENDROOT
BRANCH   1   2
ATOM      2  C   UNL     1      -9.349 -12.452  15.102  1.00  0.00     0.000 C 
BRANCH   2   3
ATOM      3  C   UNL     1      -8.881 -13.743  14.415  1.00  0.00     0.006 C 
BRANCH   3   4
ATOM      4  C   UNL     1      -7.861 -14.515  15.261  1.00  0.00     0.053 C 
BRANCH   4   5
ATOM      5  C   UNL     1      -8.513 -15.225  16.407  1.00  0.00     0.041 C 
ATOM      6  O   UNL     1      -8.087 -15.058  17.580  1.00  0.00    -0.550 OA
ATOM      7  O   UNL     1      -9.570 -16.097  16.176  1.00  0.00    -0.550 OA
ENDBRANCH   4   5
ENDBRANCH   3   4
ENDBRANCH   2   3
ENDBRANCH   1   2
BRANCH   1   8
ATOM      8  C   UNL     1     -11.499 -11.123  15.115  1.00  0.00     0.000 C 
BRANCH   8   9
ATOM      9  C   UNL     1     -11.420 -11.657  16.551  1.00  0.00     0.006 C 
BRANCH   9  10
ATOM     10  C   UNL     1     -11.526 -10.517  17.569  1.00  0.00     0.053 C 
BRANCH  10  11
ATOM     11  C   UNL     1     -12.846 -10.563  18.271  1.00  0.00     0.041 C 
ATOM     12  O   UNL     1     -13.906 -10.750  17.617  1.00  0.00    -0.550 OA
ATOM     13  O   UNL     1     -12.911 -10.352  19.642  1.00  0.00    -0.550 OA
ENDBRANCH  10  11
ENDBRANCH   9  10
ENDBRANCH   8   9
ENDBRANCH   1   8
TORSDOF 8
ENDMDL
MODEL 8
REMARK VINA RESULT:    -3.559      3.468      6.896
REMARK INTER + INTRA:          -5.664
REMARK INTER:                  -5.344
REMARK INTRA:                  -0.320
REMARK UNBOUND:                -0.440
REMARK SMILES O=C([O-])CCCCCCCC(=O)[O-]
REMARK SMILES IDX 7 1 6 2 5 3 4 4 2 5 1 6 3 7 8 8 9 9 10 10 11 11 12 12 13 13
REMARK H PARENT
REMARK Flexibility Score: inf
ROOT
ATOM      1  C   UNL     1       1.374 -18.614  29.150  1.00  0.00     0.000 C 
ENDROOT
BRANCH   1   2
ATOM      2  C   UNL     1       1.150 -17.263  28.460  1.00  0.00     0.000 C 
BRANCH   2   3
ATOM      3  C   UNL     1      -0.348 -16.988  28.261  1.00  0.00     0.006 C 
BRANCH   3   4
ATOM      4  C   UNL     1      -0.756 -17.037  26.783  1.00  0.00     0.053 C 
BRANCH   4   5
ATOM      5  C   UNL     1      -2.127 -16.474  26.565  1.00  0.00     0.041 C 
ATOM      6  O   UNL     1      -2.300 -15.522  25.760  1.00  0.00    -0.550 OA
ATOM      7  O   UNL     1      -3.208 -16.981  27.276  1.00  0.00    -0.550 OA
ENDBRANCH   4   5
ENDBRANCH   3   4
ENDBRANCH   2   3
ENDBRANCH   1   2
BRANCH   1   8
ATOM      8  C   UNL     1       0.079 -19.130  29.786  1.00  0.00     0.000 C 
BRANCH   8   9
ATOM      9  C   UNL     1       0.336 -20.400  30.607  1.00  0.00     0.006 C 
BRANCH   9  10
ATOM     10  C   UNL     1       1.207 -21.390  29.828  1.00  0.00     0.053 C 
BRANCH  10  11
ATOM     11  C   UNL     1       1.069 -22.767  30.396  1.00  0.00     0.041 C 
ATOM     12  O   UNL     1       1.423 -23.770  29.722  1.00  0.00    -0.550 OA
ATOM     13  O   UNL     1       0.505 -22.947  31.653  1.00  0.00    -0.550 OA
ENDBRANCH  10  11
ENDBRANCH   9  10
ENDBRANCH   8   9
ENDBRANCH   1   8
TORSDOF 8
ENDMDL
MODEL 9
REMARK VINA RESULT:    -1.946      3.909      5.342
REMARK INTER + INTRA:          -3.296
REMARK INTER:                  -3.006
REMARK INTRA:                  -0.290
REMARK UNBOUND:                -0.440
REMARK SMILES O=C([O-])CCCCCCCC(=O)[O-]
REMARK SMILES IDX 7 1 6 2 5 3 4 4 2 5 1 6 3 7 8 8 9 9 10 10 11 11 12 12 13 13
REMARK H PARENT
REMARK Flexibility Score: inf
ROOT
ATOM      1  C   UNL     1       3.466 -18.536  28.748  1.00  0.00     0.000 C 
ENDROOT
BRANCH   1   2
ATOM      2  C   UNL     1       4.125 -19.921  28.713  1.00  0.00     0.000 C 
BRANCH   2   3
ATOM      3  C   UNL     1       3.300 -20.944  29.507  1.00  0.00     0.006 C 
BRANCH   3   4
ATOM      4  C   UNL     1       4.125 -22.177  29.898  1.00  0.00     0.053 C 
BRANCH   4   5
ATOM      5  C   UNL     1       3.281 -23.224  30.559  1.00  0.00     0.041 C 
ATOM      6  O   UNL     1       3.782 -23.986  31.426  1.00  0.00    -0.550 OA
ATOM      7  O   UNL     1       1.949 -23.378  30.194  1.00  0.00    -0.550 OA
ENDBRANCH   4   5
ENDBRANCH   3   4
ENDBRANCH   2   3
ENDBRANCH   1   2
BRANCH   1   8
ATOM      8  C   UNL     1       1.963 -18.648  29.024  1.00  0.00     0.000 C 
BRANCH   8   9
ATOM      9  C   UNL     1       1.186 -17.539  28.304  1.00  0.00     0.006 C 
BRANCH   9  10
ATOM     10  C   UNL     1       0.394 -16.687  29.300  1.00  0.00     0.053 C 
BRANCH  10  11
ATOM     11  C   UNL     1      -1.068 -16.745  28.991  1.00  0.00     0.041 C 
ATOM     12  O   UNL     1      -1.869 -15.957  29.560  1.00  0.00    -0.550 OA
ATOM     13  O   UNL     1      -1.555 -17.702  28.109  1.00  0.00    -0.550 OA
ENDBRANCH  10  11
ENDBRANCH   9  10
ENDBRANCH   8   9
ENDBRANCH   1   8
TORSDOF 8
ENDMDL
