MODEL 1
REMARK VINA RESULT:    -3.771      0.000      0.000
REMARK INTER + INTRA:          -5.037
REMARK INTER:                  -4.873
REMARK INTRA:                  -0.164
REMARK UNBOUND:                -0.164
REMARK SMILES CCCCCCC(=O)[O-]
REMARK SMILES IDX 5 1 6 2 7 3 8 4 9 5 4 6 3 7 2 8 1 9
REMARK H PARENT
REMARK Flexibility Score: inf
ROOT
ATOM      1  C   UNL     1     -29.897  14.130  14.813  1.00  0.00     0.006 C 
ENDROOT
BRANCH   1   2
ATOM      2  C   UNL     1     -31.034  14.950  14.196  1.00  0.00     0.053 C 
BRANCH   2   3
ATOM      3  C   UNL     1     -31.594  14.250  12.999  1.00  0.00     0.041 C 
ATOM      4  O   UNL     1     -30.824  13.703  12.166  1.00  0.00    -0.550 OA
ATOM      5  O   UNL     1     -32.970  14.161  12.826  1.00  0.00    -0.550 OA
ENDBRANCH   2   3
ENDBRANCH   1   2
BRANCH   1   6
ATOM      6  C   UNL     1     -28.725  15.030  15.217  1.00  0.00     0.000 C 
BRANCH   6   7
ATOM      7  C   UNL     1     -28.492  14.988  16.732  1.00  0.00    -0.000 C 
BRANCH   7   8
ATOM      8  C   UNL     1     -29.543  15.821  17.474  1.00  0.00    -0.003 C 
ATOM      9  C   UNL     1     -28.885  16.851  18.387  1.00  0.00     0.004 C 
ENDBRANCH   7   8
ENDBRANCH   6   7
ENDBRANCH   1   6
TORSDOF 5
ENDMDL
MODEL 2
REMARK VINA RESULT:    -3.727      2.888      4.321
REMARK INTER + INTRA:          -4.981
REMARK INTER:                  -4.708
REMARK INTRA:                  -0.273
REMARK UNBOUND:                -0.164
REMARK SMILES CCCCCCC(=O)[O-]
REMARK SMILES IDX 5 1 6 2 7 3 8 4 9 5 4 6 3 7 2 8 1 9
REMARK H PARENT
REMARK Flexibility Score: inf
ROOT
ATOM      1  C   UNL     1     -30.802  12.612  12.326  1.00  0.00     0.006 C 
ENDROOT
BRANCH   1   2
ATOM      2  C   UNL     1     -30.237  11.207  12.546  1.00  0.00     0.053 C 
BRANCH   2   3
ATOM      3  C   UNL     1     -28.835  11.280  13.062  1.00  0.00     0.041 C 
ATOM      4  O   UNL     1     -28.098  10.259  13.043  1.00  0.00    -0.550 OA
ATOM      5  O   UNL     1     -28.325  12.489  13.518  1.00  0.00    -0.550 OA
ENDBRANCH   2   3
ENDBRANCH   1   2
BRANCH   1   6
ATOM      6  C   UNL     1     -32.069  12.834  13.160  1.00  0.00     0.000 C 
BRANCH   6   7
ATOM      7  C   UNL     1     -32.345  14.329  13.359  1.00  0.00    -0.000 C 
BRANCH   7   8
ATOM      8  C   UNL     1     -31.125  15.039  13.955  1.00  0.00    -0.003 C 
ATOM      9  C   UNL     1     -30.964  14.709  15.436  1.00  0.00     0.004 C 
ENDBRANCH   7   8
ENDBRANCH   6   7
ENDBRANCH   1   6
TORSDOF 5
ENDMDL
MODEL 3
REMARK VINA RESULT:    -3.665      3.812      4.802
REMARK INTER + INTRA:          -4.901
REMARK INTER:                  -4.661
REMARK INTRA:                  -0.239
REMARK UNBOUND:                -0.164
REMARK SMILES CCCCCCC(=O)[O-]
REMARK SMILES IDX 5 1 6 2 7 3 8 4 9 5 4 6 3 7 2 8 1 9
REMARK H PARENT
REMARK Flexibility Score: inf
ROOT
ATOM      1  C   UNL     1     -30.213  12.873  13.150  1.00  0.00     0.006 C 
ENDROOT
BRANCH   1   2
ATOM      2  C   UNL     1     -30.756  11.577  12.543  1.00  0.00     0.053 C 
BRANCH   2   3
ATOM      3  C   UNL     1     -29.636  10.636  12.229  1.00  0.00     0.041 C 
ATOM      4  O   UNL     1     -28.446  10.959  12.481  1.00  0.00    -0.550 OA
ATOM      5  O   UNL     1     -29.911   9.379  11.704  1.00  0.00    -0.550 OA
ENDBRANCH   2   3
ENDBRANCH   1   2
BRANCH   1   6
ATOM      6  C   UNL     1     -31.222  14.016  12.999  1.00  0.00     0.000 C 
BRANCH   6   7
ATOM      7  C   UNL     1     -31.971  14.269  14.313  1.00  0.00    -0.000 C 
BRANCH   7   8
ATOM      8  C   UNL     1     -33.365  13.634  14.283  1.00  0.00    -0.003 C 
ATOM      9  C   UNL     1     -34.108  13.997  13.000  1.00  0.00     0.004 C 
ENDBRANCH   7   8
ENDBRANCH   6   7
ENDBRANCH   1   6
TORSDOF 5
ENDMDL
MODEL 4
REMARK VINA RESULT:    -3.587      2.552      4.737
REMARK INTER + INTRA:          -4.800
REMARK INTER:                  -4.409
REMARK INTRA:                  -0.391
REMARK UNBOUND:                -0.164
REMARK SMILES CCCCCCC(=O)[O-]
REMARK SMILES IDX 5 1 6 2 7 3 8 4 9 5 4 6 3 7 2 8 1 9
REMARK H PARENT
REMARK Flexibility Score: inf
ROOT
ATOM      1  C   UNL     1     -31.119  14.999  13.886  1.00  0.00     0.006 C 
ENDROOT
BRANCH   1   2
ATOM      2  C   UNL     1     -30.900  14.779  15.385  1.00  0.00     0.053 C 
BRANCH   2   3
ATOM      3  C   UNL     1     -29.441  14.655  15.689  1.00  0.00     0.041 C 
ATOM      4  O   UNL     1     -29.057  14.363  16.852  1.00  0.00    -0.550 OA
ATOM      5  O   UNL     1     -28.503  14.814  14.675  1.00  0.00    -0.550 OA
ENDBRANCH   2   3
ENDBRANCH   1   2
BRANCH   1   6
ATOM      6  C   UNL     1     -32.278  14.140  13.367  1.00  0.00     0.000 C 
BRANCH   6   7
ATOM      7  C   UNL     1     -31.847  12.679  13.192  1.00  0.00    -0.000 C 
BRANCH   7   8
ATOM      8  C   UNL     1     -30.507  12.584  12.454  1.00  0.00    -0.003 C 
ATOM      9  C   UNL     1     -29.516  11.713  13.221  1.00  0.00     0.004 C 
ENDBRANCH   7   8
ENDBRANCH   6   7
ENDBRANCH   1   6
TORSDOF 5
ENDMDL
MODEL 5
REMARK VINA RESULT:    -3.555      2.383      3.721
REMARK INTER + INTRA:          -4.758
REMARK INTER:                  -4.404
REMARK INTRA:                  -0.355
REMARK UNBOUND:                -0.164
REMARK SMILES CCCCCCC(=O)[O-]
REMARK SMILES IDX 5 1 6 2 7 3 8 4 9 5 4 6 3 7 2 8 1 9
REMARK H PARENT
REMARK Flexibility Score: inf
ROOT
ATOM      1  C   UNL     1     -31.266  12.511  13.664  1.00  0.00     0.006 C 
ENDROOT
BRANCH   1   2
ATOM      2  C   UNL     1     -30.494  11.690  12.627  1.00  0.00     0.053 C 
BRANCH   2   3
ATOM      3  C   UNL     1     -29.059  11.559  13.026  1.00  0.00     0.041 C 
ATOM      4  O   UNL     1     -28.441  12.546  13.506  1.00  0.00    -0.550 OA
ATOM      5  O   UNL     1     -28.415  10.333  12.914  1.00  0.00    -0.550 OA
ENDBRANCH   2   3
ENDBRANCH   1   2
BRANCH   1   6
ATOM      6  C   UNL     1     -31.687  13.868  13.089  1.00  0.00     0.000 C 
BRANCH   6   7
ATOM      7  C   UNL     1     -31.143  15.021  13.941  1.00  0.00    -0.000 C 
BRANCH   7   8
ATOM      8  C   UNL     1     -30.857  14.560  15.374  1.00  0.00    -0.003 C 
ATOM      9  C   UNL     1     -29.464  14.991  15.823  1.00  0.00     0.004 C 
ENDBRANCH   7   8
ENDBRANCH   6   7
ENDBRANCH   1   6
TORSDOF 5
ENDMDL
MODEL 6
REMARK VINA RESULT:    -3.519      3.265      5.028
REMARK INTER + INTRA:          -4.711
REMARK INTER:                  -4.278
REMARK INTRA:                  -0.433
REMARK UNBOUND:                -0.164
REMARK SMILES CCCCCCC(=O)[O-]
REMARK SMILES IDX 5 1 6 2 7 3 8 4 9 5 4 6 3 7 2 8 1 9
REMARK H PARENT
REMARK Flexibility Score: inf
ROOT
ATOM      1  C   UNL     1     -33.235  14.027  13.239  1.00  0.00     0.006 C 
ENDROOT
BRANCH   1   2
ATOM      2  C   UNL     1     -31.961  14.708  13.747  1.00  0.00     0.053 C 
BRANCH   2   3
ATOM      3  C   UNL     1     -30.751  14.077  13.136  1.00  0.00     0.041 C 
ATOM      4  O   UNL     1     -30.815  13.559  11.990  1.00  0.00    -0.550 OA
ATOM      5  O   UNL     1     -29.536  14.104  13.812  1.00  0.00    -0.550 OA
ENDBRANCH   2   3
ENDBRANCH   1   2
BRANCH   1   6
ATOM      6  C   UNL     1     -33.606  12.828  14.117  1.00  0.00     0.000 C 
BRANCH   6   7
ATOM      7  C   UNL     1     -33.887  11.585  13.264  1.00  0.00    -0.000 C 
BRANCH   7   8
ATOM      8  C   UNL     1     -32.612  10.762  13.052  1.00  0.00    -0.003 C 
ATOM      9  C   UNL     1     -31.750  10.748  14.311  1.00  0.00     0.004 C 
ENDBRANCH   7   8
ENDBRANCH   6   7
ENDBRANCH   1   6
TORSDOF 5
ENDMDL
MODEL 7
REMARK VINA RESULT:    -3.500      2.731      4.634
REMARK INTER + INTRA:          -4.686
REMARK INTER:                  -4.318
REMARK INTRA:                  -0.368
REMARK UNBOUND:                -0.164
REMARK SMILES CCCCCCC(=O)[O-]
REMARK SMILES IDX 5 1 6 2 7 3 8 4 9 5 4 6 3 7 2 8 1 9
REMARK H PARENT
REMARK Flexibility Score: inf
ROOT
ATOM      1  C   UNL     1     -31.095  14.783  14.522  1.00  0.00     0.006 C 
ENDROOT
BRANCH   1   2
ATOM      2  C   UNL     1     -29.595  14.474  14.527  1.00  0.00     0.053 C 
BRANCH   2   3
ATOM      3  C   UNL     1     -29.362  13.007  14.354  1.00  0.00     0.041 C 
ATOM      4  O   UNL     1     -28.648  12.586  13.406  1.00  0.00    -0.550 OA
ATOM      5  O   UNL     1     -29.893  12.106  15.269  1.00  0.00    -0.550 OA
ENDBRANCH   2   3
ENDBRANCH   1   2
BRANCH   1   6
ATOM      6  C   UNL     1     -31.732  14.394  13.184  1.00  0.00     0.000 C 
BRANCH   6   7
ATOM      7  C   UNL     1     -33.249  14.218  13.325  1.00  0.00    -0.000 C 
BRANCH   7   8
ATOM      8  C   UNL     1     -33.588  12.886  14.003  1.00  0.00    -0.003 C 
ATOM      9  C   UNL     1     -32.875  11.723  13.319  1.00  0.00     0.004 C 
ENDBRANCH   7   8
ENDBRANCH   6   7
ENDBRANCH   1   6
TORSDOF 5
ENDMDL
MODEL 8
REMARK VINA RESULT:    -3.367      3.523      4.733
REMARK INTER + INTRA:          -4.515
REMARK INTER:                  -4.114
REMARK INTRA:                  -0.401
REMARK UNBOUND:                -0.164
REMARK SMILES CCCCCCC(=O)[O-]
REMARK SMILES IDX 5 1 6 2 7 3 8 4 9 5 4 6 3 7 2 8 1 9
REMARK H PARENT
REMARK Flexibility Score: inf
ROOT
ATOM      1  C   UNL     1     -32.845  12.407  14.066  1.00  0.00     0.006 C 
ENDROOT
BRANCH   1   2
ATOM      2  C   UNL     1     -32.960  13.769  13.377  1.00  0.00     0.053 C 
BRANCH   2   3
ATOM      3  C   UNL     1     -31.610  14.393  13.221  1.00  0.00     0.041 C 
ATOM      4  O   UNL     1     -31.002  14.324  12.121  1.00  0.00    -0.550 OA
ATOM      5  O   UNL     1     -31.042  15.096  14.277  1.00  0.00    -0.550 OA
ENDBRANCH   2   3
ENDBRANCH   1   2
BRANCH   1   6
ATOM      6  C   UNL     1     -32.586  11.294  13.045  1.00  0.00     0.000 C 
BRANCH   6   7
ATOM      7  C   UNL     1     -31.295  10.534  13.372  1.00  0.00    -0.000 C 
BRANCH   7   8
ATOM      8  C   UNL     1     -30.158  10.950  12.433  1.00  0.00    -0.003 C 
ATOM      9  C   UNL     1     -29.016  11.604  13.206  1.00  0.00     0.004 C 
ENDBRANCH   7   8
ENDBRANCH   6   7
ENDBRANCH   1   6
TORSDOF 5
ENDMDL
MODEL 9
REMARK VINA RESULT:    -3.362     10.571     12.316
REMARK INTER + INTRA:          -4.509
REMARK INTER:                  -4.244
REMARK INTRA:                  -0.266
REMARK UNBOUND:                -0.164
REMARK SMILES CCCCCCC(=O)[O-]
REMARK SMILES IDX 5 1 6 2 7 3 8 4 9 5 4 6 3 7 2 8 1 9
REMARK H PARENT
REMARK Flexibility Score: inf
ROOT
ATOM      1  C   UNL     1     -32.438  14.148  26.533  1.00  0.00     0.006 C 
ENDROOT
BRANCH   1   2
ATOM      2  C   UNL     1     -31.391  14.044  27.644  1.00  0.00     0.053 C 
BRANCH   2   3
ATOM      3  C   UNL     1     -30.114  14.700  27.225  1.00  0.00     0.041 C 
ATOM      4  O   UNL     1     -30.106  15.912  26.884  1.00  0.00    -0.550 OA
ATOM      5  O   UNL     1     -28.922  13.987  27.257  1.00  0.00    -0.550 OA
ENDBRANCH   2   3
ENDBRANCH   1   2
BRANCH   1   6
ATOM      6  C   UNL     1     -33.604  15.048  26.958  1.00  0.00     0.000 C 
BRANCH   6   7
ATOM      7  C   UNL     1     -34.125  15.872  25.774  1.00  0.00    -0.000 C 
BRANCH   7   8
ATOM      8  C   UNL     1     -33.080  15.953  24.657  1.00  0.00    -0.003 C 
ATOM      9  C   UNL     1     -33.663  16.597  23.403  1.00  0.00     0.004 C 
ENDBRANCH   7   8
ENDBRANCH   6   7
ENDBRANCH   1   6
TORSDOF 5
ENDMDL
