MODEL 1
REMARK VINA RESULT:    -7.319      0.000      0.000
REMARK INTER + INTRA:          -8.260
REMARK INTER:                  -7.961
REMARK INTRA:                  -0.299
REMARK UNBOUND:                -0.299
REMARK SMILES C[C@H]1[C@H](C)CC[C@@]2(C(=O)[O-])CC[C@@]3(C)C(=CC[C@@H]4[C@@]5(C)CC[C@H](O)C(C)(C)[C@@H]5CC[C@@]43C)[C@@H]12
REMARK SMILES IDX 7 1 6 2 11 3 33 4 5 5 12 6 15 7 2 8 3 9 13 10 16 11 1 12
REMARK SMILES IDX 4 13 14 14 31 15 17 16 18 17 30 18 32 19 19 20 29 21 28 22
REMARK SMILES IDX 21 23 20 24 25 25 22 26 23 27 26 28 27 29 8 30 9 31 10 32
REMARK SMILES IDX 24 33
REMARK H PARENT 24 34
REMARK Flexibility Score: inf
ROOT
ATOM      1  C   UNL     1      29.087 -36.975  35.713  1.00  0.00     0.017 C 
ATOM      2  C   UNL     1      27.768 -37.251  36.492  1.00  0.00     0.014 C 
ATOM      3  C   UNL     1      30.246 -37.714  36.416  1.00  0.00     0.014 C 
ATOM      4  C   UNL     1      28.961 -37.463  34.220  1.00  0.00     0.030 C 
ATOM      5  C   UNL     1      26.538 -37.010  35.614  1.00  0.00     0.004 C 
ATOM      6  C   UNL     1      31.579 -37.592  35.650  1.00  0.00     0.013 C 
ATOM      7  C   UNL     1      30.321 -37.651  33.499  1.00  0.00    -0.063 C 
ATOM      8  C   UNL     1      27.845 -38.519  33.919  1.00  0.00    -0.003 C 
ATOM      9  C   UNL     1      26.445 -38.047  34.465  1.00  0.00    -0.011 C 
ATOM     10  C   UNL     1      31.583 -38.214  34.204  1.00  0.00    -0.006 C 
ATOM     11  C   UNL     1      30.415 -37.027  32.317  1.00  0.00    -0.027 C 
ATOM     12  C   UNL     1      28.146 -39.952  34.378  1.00  0.00     0.008 C 
ATOM     13  C   UNL     1      25.568 -37.489  33.334  1.00  0.00     0.008 C 
ATOM     14  C   UNL     1      31.445 -39.760  34.347  1.00  0.00     0.017 C 
ATOM     15  C   UNL     1      32.987 -37.903  33.403  1.00  0.00    -0.020 C 
ATOM     16  C   UNL     1      31.676 -36.500  31.741  1.00  0.00     0.032 C 
ATOM     17  C   UNL     1      32.928 -36.498  32.684  1.00  0.00     0.006 C 
ATOM     18  C   UNL     1      33.287 -38.965  32.260  1.00  0.00     0.008 C 
ATOM     19  C   UNL     1      34.136 -37.967  34.481  1.00  0.00     0.012 C 
ATOM     20  C   UNL     1      34.267 -36.062  31.874  1.00  0.00    -0.025 C 
ATOM     21  C   UNL     1      34.187 -38.510  31.059  1.00  0.00     0.005 C 
ATOM     22  C   UNL     1      35.095 -37.323  31.427  1.00  0.00     0.003 C 
ATOM     23  C   UNL     1      35.224 -35.218  32.765  1.00  0.00     0.010 C 
ATOM     24  C   UNL     1      33.865 -35.143  30.670  1.00  0.00     0.012 C 
ATOM     25  C   UNL     1      36.408 -37.056  30.593  1.00  0.00    -0.006 C 
ATOM     26  C   UNL     1      36.556 -34.854  32.056  1.00  0.00     0.033 C 
ATOM     27  C   UNL     1      37.303 -36.058  31.425  1.00  0.00     0.120 C 
ATOM     28  C   UNL     1      37.219 -38.381  30.455  1.00  0.00     0.014 C 
ATOM     29  C   UNL     1      36.147 -36.548  29.148  1.00  0.00     0.014 C 
ENDROOT
BRANCH   1  30
ATOM     30  C   UNL     1      29.361 -35.462  35.787  1.00  0.00     0.048 C 
ATOM     31  O   UNL     1      29.676 -34.926  36.885  1.00  0.00    -0.550 OA
ATOM     32  O   UNL     1      29.181 -34.631  34.685  1.00  0.00    -0.550 OA
ENDBRANCH   1  30
BRANCH  27  33
ATOM     33  O   UNL     1      38.360 -35.564  30.639  1.00  0.00    -0.393 OA
ATOM     34  H   UNL     1      38.412 -36.120  29.819  1.00  0.00     0.210 HD
ENDBRANCH  27  33
TORSDOF 2
ENDMDL
MODEL 2
REMARK VINA RESULT:    -7.218      1.762      8.280
REMARK INTER + INTRA:          -8.149
REMARK INTER:                  -7.859
REMARK INTRA:                  -0.290
REMARK UNBOUND:                -0.299
REMARK SMILES C[C@H]1[C@H](C)CC[C@@]2(C(=O)[O-])CC[C@@]3(C)C(=CC[C@@H]4[C@@]5(C)CC[C@H](O)C(C)(C)[C@@H]5CC[C@@]43C)[C@@H]12
REMARK SMILES IDX 7 1 6 2 11 3 33 4 5 5 12 6 15 7 2 8 3 9 13 10 16 11 1 12
REMARK SMILES IDX 4 13 14 14 31 15 17 16 18 17 30 18 32 19 19 20 29 21 28 22
REMARK SMILES IDX 21 23 20 24 25 25 22 26 23 27 26 28 27 29 8 30 9 31 10 32
REMARK SMILES IDX 24 33
REMARK H PARENT 24 34
REMARK Flexibility Score: inf
ROOT
ATOM      1  C   UNL     1      36.405 -37.243  30.498  1.00  0.00     0.017 C 
ATOM      2  C   UNL     1      37.783 -37.326  29.779  1.00  0.00     0.014 C 
ATOM      3  C   UNL     1      36.047 -38.638  31.055  1.00  0.00     0.014 C 
ATOM      4  C   UNL     1      36.454 -36.190  31.669  1.00  0.00     0.030 C 
ATOM      5  C   UNL     1      38.438 -35.948  29.664  1.00  0.00     0.004 C 
ATOM      6  C   UNL     1      34.748 -38.631  31.885  1.00  0.00     0.013 C 
ATOM      7  C   UNL     1      35.317 -36.348  32.712  1.00  0.00    -0.063 C 
ATOM      8  C   UNL     1      37.872 -35.815  32.216  1.00  0.00    -0.003 C 
ATOM      9  C   UNL     1      38.844 -35.391  31.052  1.00  0.00    -0.011 C 
ATOM     10  C   UNL     1      34.779 -37.728  33.175  1.00  0.00    -0.006 C 
ATOM     11  C   UNL     1      34.634 -35.224  32.966  1.00  0.00    -0.027 C 
ATOM     12  C   UNL     1      38.536 -36.867  33.116  1.00  0.00     0.008 C 
ATOM     13  C   UNL     1      38.984 -33.863  30.976  1.00  0.00     0.008 C 
ATOM     14  C   UNL     1      35.789 -38.362  34.180  1.00  0.00     0.017 C 
ATOM     15  C   UNL     1      33.309 -37.655  33.912  1.00  0.00    -0.020 C 
ATOM     16  C   UNL     1      33.206 -35.178  33.363  1.00  0.00     0.032 C 
ATOM     17  C   UNL     1      32.411 -36.526  33.270  1.00  0.00     0.006 C 
ATOM     18  C   UNL     1      33.417 -37.302  35.457  1.00  0.00     0.008 C 
ATOM     19  C   UNL     1      32.662 -39.085  33.754  1.00  0.00     0.012 C 
ATOM     20  C   UNL     1      30.921 -36.367  33.897  1.00  0.00    -0.025 C 
ATOM     21  C   UNL     1      32.180 -36.616  36.136  1.00  0.00     0.005 C 
ATOM     22  C   UNL     1      30.870 -36.893  35.379  1.00  0.00     0.003 C 
ATOM     23  C   UNL     1      29.877 -37.211  33.110  1.00  0.00     0.010 C 
ATOM     24  C   UNL     1      30.463 -34.873  33.768  1.00  0.00     0.012 C 
ATOM     25  C   UNL     1      29.490 -36.767  36.135  1.00  0.00    -0.006 C 
ATOM     26  C   UNL     1      28.455 -37.156  33.730  1.00  0.00     0.033 C 
ATOM     27  C   UNL     1      28.396 -37.477  35.246  1.00  0.00     0.120 C 
ATOM     28  C   UNL     1      29.556 -37.554  37.480  1.00  0.00     0.014 C 
ATOM     29  C   UNL     1      29.098 -35.308  36.498  1.00  0.00     0.014 C 
ENDROOT
BRANCH   1  30
ATOM     30  C   UNL     1      35.353 -36.859  29.442  1.00  0.00     0.048 C 
ATOM     31  O   UNL     1      35.106 -37.636  28.479  1.00  0.00    -0.550 OA
ATOM     32  O   UNL     1      34.718 -35.620  29.460  1.00  0.00    -0.550 OA
ENDBRANCH   1  30
BRANCH  27  33
ATOM     33  O   UNL     1      27.104 -37.179  35.715  1.00  0.00    -0.393 OA
ATOM     34  H   UNL     1      27.151 -36.319  36.207  1.00  0.00     0.210 HD
ENDBRANCH  27  33
TORSDOF 2
ENDMDL
MODEL 3
REMARK VINA RESULT:    -7.215      1.869      3.635
REMARK INTER + INTRA:          -8.146
REMARK INTER:                  -8.037
REMARK INTRA:                  -0.109
REMARK UNBOUND:                -0.299
REMARK SMILES C[C@H]1[C@H](C)CC[C@@]2(C(=O)[O-])CC[C@@]3(C)C(=CC[C@@H]4[C@@]5(C)CC[C@H](O)C(C)(C)[C@@H]5CC[C@@]43C)[C@@H]12
REMARK SMILES IDX 7 1 6 2 11 3 33 4 5 5 12 6 15 7 2 8 3 9 13 10 16 11 1 12
REMARK SMILES IDX 4 13 14 14 31 15 17 16 18 17 30 18 32 19 19 20 29 21 28 22
REMARK SMILES IDX 21 23 20 24 25 25 22 26 23 27 26 28 27 29 8 30 9 31 10 32
REMARK SMILES IDX 24 33
REMARK H PARENT 24 34
REMARK Flexibility Score: inf
ROOT
ATOM      1  C   UNL     1      28.198 -37.819  34.858  1.00  0.00     0.017 C 
ATOM      2  C   UNL     1      26.767 -37.733  35.467  1.00  0.00     0.014 C 
ATOM      3  C   UNL     1      28.199 -37.115  33.484  1.00  0.00     0.014 C 
ATOM      4  C   UNL     1      29.247 -37.138  35.816  1.00  0.00     0.030 C 
ATOM      5  C   UNL     1      26.791 -37.924  36.984  1.00  0.00     0.004 C 
ATOM      6  C   UNL     1      29.604 -37.048  32.853  1.00  0.00     0.013 C 
ATOM      7  C   UNL     1      30.587 -36.770  35.127  1.00  0.00    -0.063 C 
ATOM      8  C   UNL     1      28.685 -36.120  36.864  1.00  0.00    -0.003 C 
ATOM      9  C   UNL     1      27.504 -36.747  37.697  1.00  0.00    -0.011 C 
ATOM     10  C   UNL     1      30.673 -36.234  33.673  1.00  0.00    -0.006 C 
ATOM     11  C   UNL     1      31.680 -37.218  35.758  1.00  0.00    -0.027 C 
ATOM     12  C   UNL     1      28.282 -34.748  36.307  1.00  0.00     0.008 C 
ATOM     13  C   UNL     1      27.983 -37.196  39.086  1.00  0.00     0.008 C 
ATOM     14  C   UNL     1      30.250 -34.733  33.653  1.00  0.00     0.017 C 
ATOM     15  C   UNL     1      32.174 -36.346  33.010  1.00  0.00    -0.020 C 
ATOM     16  C   UNL     1      32.951 -37.583  35.087  1.00  0.00     0.032 C 
ATOM     17  C   UNL     1      32.923 -37.639  33.521  1.00  0.00     0.006 C 
ATOM     18  C   UNL     1      33.108 -35.120  33.399  1.00  0.00     0.008 C 
ATOM     19  C   UNL     1      31.970 -36.361  31.446  1.00  0.00     0.012 C 
ATOM     20  C   UNL     1      34.413 -37.877  32.920  1.00  0.00    -0.025 C 
ATOM     21  C   UNL     1      34.659 -35.350  33.383  1.00  0.00     0.005 C 
ATOM     22  C   UNL     1      35.066 -36.518  32.469  1.00  0.00     0.003 C 
ATOM     23  C   UNL     1      34.380 -38.776  31.650  1.00  0.00     0.010 C 
ATOM     24  C   UNL     1      35.279 -38.644  33.978  1.00  0.00     0.012 C 
ATOM     25  C   UNL     1      36.536 -36.588  31.897  1.00  0.00    -0.006 C 
ATOM     26  C   UNL     1      35.775 -38.957  30.994  1.00  0.00     0.033 C 
ATOM     27  C   UNL     1      36.537 -37.635  30.717  1.00  0.00     0.120 C 
ATOM     28  C   UNL     1      36.923 -35.210  31.277  1.00  0.00     0.014 C 
ATOM     29  C   UNL     1      37.617 -36.907  32.968  1.00  0.00     0.014 C 
ENDROOT
BRANCH   1  30
ATOM     30  C   UNL     1      28.520 -39.308  34.640  1.00  0.00     0.048 C 
ATOM     31  O   UNL     1      27.612 -40.110  34.289  1.00  0.00    -0.550 OA
ATOM     32  O   UNL     1      29.782 -39.830  34.911  1.00  0.00    -0.550 OA
ENDBRANCH   1  30
BRANCH  27  33
ATOM     33  O   UNL     1      37.853 -37.950  30.333  1.00  0.00    -0.393 OA
ATOM     34  H   UNL     1      38.308 -37.103  30.088  1.00  0.00     0.210 HD
ENDBRANCH  27  33
TORSDOF 2
ENDMDL
MODEL 4
REMARK VINA RESULT:    -7.187      2.497      3.576
REMARK INTER + INTRA:          -8.116
REMARK INTER:                  -7.842
REMARK INTRA:                  -0.273
REMARK UNBOUND:                -0.299
REMARK SMILES C[C@H]1[C@H](C)CC[C@@]2(C(=O)[O-])CC[C@@]3(C)C(=CC[C@@H]4[C@@]5(C)CC[C@H](O)C(C)(C)[C@@H]5CC[C@@]43C)[C@@H]12
REMARK SMILES IDX 7 1 6 2 11 3 33 4 5 5 12 6 15 7 2 8 3 9 13 10 16 11 1 12
REMARK SMILES IDX 4 13 14 14 31 15 17 16 18 17 30 18 32 19 19 20 29 21 28 22
REMARK SMILES IDX 21 23 20 24 25 25 22 26 23 27 26 28 27 29 8 30 9 31 10 32
REMARK SMILES IDX 24 33
REMARK H PARENT 24 34
REMARK Flexibility Score: inf
ROOT
ATOM      1  C   UNL     1      31.556 -34.723  35.339  1.00  0.00     0.017 C 
ATOM      2  C   UNL     1      30.238 -34.046  35.815  1.00  0.00     0.014 C 
ATOM      3  C   UNL     1      31.652 -36.129  35.969  1.00  0.00     0.014 C 
ATOM      4  C   UNL     1      31.586 -34.832  33.768  1.00  0.00     0.030 C 
ATOM      5  C   UNL     1      29.813 -32.919  34.871  1.00  0.00     0.004 C 
ATOM      6  C   UNL     1      32.873 -36.923  35.465  1.00  0.00     0.013 C 
ATOM      7  C   UNL     1      32.606 -35.865  33.224  1.00  0.00    -0.063 C 
ATOM      8  C   UNL     1      30.207 -34.740  33.032  1.00  0.00    -0.003 C 
ATOM      9  C   UNL     1      29.399 -33.465  33.481  1.00  0.00    -0.011 C 
ATOM     10  C   UNL     1      32.890 -37.223  33.920  1.00  0.00    -0.006 C 
ATOM     11  C   UNL     1      33.435 -35.389  32.285  1.00  0.00    -0.027 C 
ATOM     12  C   UNL     1      29.325 -35.994  33.116  1.00  0.00     0.008 C 
ATOM     13  C   UNL     1      29.504 -32.346  32.433  1.00  0.00     0.008 C 
ATOM     14  C   UNL     1      31.724 -38.211  33.611  1.00  0.00     0.017 C 
ATOM     15  C   UNL     1      34.296 -37.933  33.444  1.00  0.00    -0.020 C 
ATOM     16  C   UNL     1      34.821 -35.869  32.063  1.00  0.00     0.032 C 
ATOM     17  C   UNL     1      35.402 -36.849  33.139  1.00  0.00     0.006 C 
ATOM     18  C   UNL     1      34.133 -38.778  32.108  1.00  0.00     0.008 C 
ATOM     19  C   UNL     1      34.723 -38.899  34.615  1.00  0.00     0.012 C 
ATOM     20  C   UNL     1      36.850 -37.425  32.680  1.00  0.00    -0.025 C 
ATOM     21  C   UNL     1      35.408 -38.992  31.220  1.00  0.00     0.005 C 
ATOM     22  C   UNL     1      36.711 -38.850  32.026  1.00  0.00     0.003 C 
ATOM     23  C   UNL     1      37.804 -37.606  33.895  1.00  0.00     0.010 C 
ATOM     24  C   UNL     1      37.541 -36.387  31.730  1.00  0.00     0.012 C 
ATOM     25  C   UNL     1      38.036 -39.524  31.494  1.00  0.00    -0.006 C 
ATOM     26  C   UNL     1      39.169 -38.237  33.511  1.00  0.00     0.033 C 
ATOM     27  C   UNL     1      39.068 -39.547  32.687  1.00  0.00     0.120 C 
ATOM     28  C   UNL     1      37.752 -41.009  31.114  1.00  0.00     0.014 C 
ATOM     29  C   UNL     1      38.621 -38.849  30.222  1.00  0.00     0.014 C 
ENDROOT
BRANCH   1  30
ATOM     30  C   UNL     1      32.729 -33.875  35.865  1.00  0.00     0.048 C 
ATOM     31  O   UNL     1      32.878 -33.696  37.105  1.00  0.00    -0.550 OA
ATOM     32  O   UNL     1      33.594 -33.209  35.002  1.00  0.00    -0.550 OA
ENDBRANCH   1  30
BRANCH  27  33
ATOM     33  O   UNL     1      40.353 -39.886  32.226  1.00  0.00    -0.393 OA
ATOM     34  H   UNL     1      41.011 -39.539  32.883  1.00  0.00     0.210 HD
ENDBRANCH  27  33
TORSDOF 2
ENDMDL
MODEL 5
REMARK VINA RESULT:    -7.079      1.531      8.203
REMARK INTER + INTRA:          -7.998
REMARK INTER:                  -7.725
REMARK INTRA:                  -0.274
REMARK UNBOUND:                -0.299
REMARK SMILES C[C@H]1[C@H](C)CC[C@@]2(C(=O)[O-])CC[C@@]3(C)C(=CC[C@@H]4[C@@]5(C)CC[C@H](O)C(C)(C)[C@@H]5CC[C@@]43C)[C@@H]12
REMARK SMILES IDX 7 1 6 2 11 3 33 4 5 5 12 6 15 7 2 8 3 9 13 10 16 11 1 12
REMARK SMILES IDX 4 13 14 14 31 15 17 16 18 17 30 18 32 19 19 20 29 21 28 22
REMARK SMILES IDX 21 23 20 24 25 25 22 26 23 27 26 28 27 29 8 30 9 31 10 32
REMARK SMILES IDX 24 33
REMARK H PARENT 24 34
REMARK Flexibility Score: inf
ROOT
ATOM      1  C   UNL     1      37.147 -36.990  31.735  1.00  0.00     0.017 C 
ATOM      2  C   UNL     1      38.489 -36.799  30.968  1.00  0.00     0.014 C 
ATOM      3  C   UNL     1      36.589 -35.603  32.119  1.00  0.00     0.014 C 
ATOM      4  C   UNL     1      36.105 -37.763  30.840  1.00  0.00     0.030 C 
ATOM      5  C   UNL     1      38.831 -38.027  30.122  1.00  0.00     0.004 C 
ATOM      6  C   UNL     1      35.201 -35.685  32.784  1.00  0.00     0.013 C 
ATOM      7  C   UNL     1      34.635 -37.614  31.310  1.00  0.00    -0.063 C 
ATOM      8  C   UNL     1      36.362 -37.754  29.296  1.00  0.00    -0.003 C 
ATOM      9  C   UNL     1      37.829 -38.213  28.955  1.00  0.00    -0.011 C 
ATOM     10  C   UNL     1      34.059 -36.293  31.887  1.00  0.00    -0.006 C 
ATOM     11  C   UNL     1      33.977 -38.771  31.458  1.00  0.00    -0.027 C 
ATOM     12  C   UNL     1      36.028 -36.440  28.575  1.00  0.00     0.008 C 
ATOM     13  C   UNL     1      37.856 -39.674  28.478  1.00  0.00     0.008 C 
ATOM     14  C   UNL     1      33.788 -35.298  30.718  1.00  0.00     0.017 C 
ATOM     15  C   UNL     1      32.656 -36.488  32.723  1.00  0.00    -0.020 C 
ATOM     16  C   UNL     1      32.884 -39.000  32.434  1.00  0.00     0.032 C 
ATOM     17  C   UNL     1      32.642 -37.868  33.491  1.00  0.00     0.006 C 
ATOM     18  C   UNL     1      31.378 -36.502  31.778  1.00  0.00     0.008 C 
ATOM     19  C   UNL     1      32.553 -35.262  33.710  1.00  0.00     0.012 C 
ATOM     20  C   UNL     1      31.314 -38.172  34.376  1.00  0.00    -0.025 C 
ATOM     21  C   UNL     1      30.101 -37.256  32.289  1.00  0.00     0.005 C 
ATOM     22  C   UNL     1      30.071 -37.380  33.823  1.00  0.00     0.003 C 
ATOM     23  C   UNL     1      31.492 -37.707  35.850  1.00  0.00     0.010 C 
ATOM     24  C   UNL     1      31.073 -39.719  34.430  1.00  0.00     0.012 C 
ATOM     25  C   UNL     1      28.695 -37.607  34.561  1.00  0.00    -0.006 C 
ATOM     26  C   UNL     1      30.214 -37.900  36.710  1.00  0.00     0.033 C 
ATOM     27  C   UNL     1      28.923 -37.302  36.093  1.00  0.00     0.120 C 
ATOM     28  C   UNL     1      27.648 -36.571  34.047  1.00  0.00     0.014 C 
ATOM     29  C   UNL     1      28.074 -39.012  34.327  1.00  0.00     0.014 C 
ENDROOT
BRANCH   1  30
ATOM     30  C   UNL     1      37.458 -37.763  33.029  1.00  0.00     0.048 C 
ATOM     31  O   UNL     1      38.254 -37.281  33.881  1.00  0.00    -0.550 OA
ATOM     32  O   UNL     1      36.956 -39.041  33.256  1.00  0.00    -0.550 OA
ENDBRANCH   1  30
BRANCH  27  33
ATOM     33  O   UNL     1      27.822 -37.734  36.855  1.00  0.00    -0.393 OA
ATOM     34  H   UNL     1      27.098 -37.984  36.225  1.00  0.00     0.210 HD
ENDBRANCH  27  33
TORSDOF 2
ENDMDL
MODEL 6
REMARK VINA RESULT:    -7.057      3.081      5.562
REMARK INTER + INTRA:          -7.974
REMARK INTER:                  -7.676
REMARK INTRA:                  -0.298
REMARK UNBOUND:                -0.299
REMARK SMILES C[C@H]1[C@H](C)CC[C@@]2(C(=O)[O-])CC[C@@]3(C)C(=CC[C@@H]4[C@@]5(C)CC[C@H](O)C(C)(C)[C@@H]5CC[C@@]43C)[C@@H]12
REMARK SMILES IDX 7 1 6 2 11 3 33 4 5 5 12 6 15 7 2 8 3 9 13 10 16 11 1 12
REMARK SMILES IDX 4 13 14 14 31 15 17 16 18 17 30 18 32 19 19 20 29 21 28 22
REMARK SMILES IDX 21 23 20 24 25 25 22 26 23 27 26 28 27 29 8 30 9 31 10 32
REMARK SMILES IDX 24 33
REMARK H PARENT 24 34
REMARK Flexibility Score: inf
ROOT
ATOM      1  C   UNL     1      31.934 -35.986  33.212  1.00  0.00     0.017 C 
ATOM      2  C   UNL     1      30.798 -34.937  33.398  1.00  0.00     0.014 C 
ATOM      3  C   UNL     1      32.701 -35.666  31.912  1.00  0.00     0.014 C 
ATOM      4  C   UNL     1      32.918 -35.959  34.442  1.00  0.00     0.030 C 
ATOM      5  C   UNL     1      30.343 -34.856  34.857  1.00  0.00     0.004 C 
ATOM      6  C   UNL     1      33.920 -36.586  31.700  1.00  0.00     0.013 C 
ATOM      7  C   UNL     1      34.296 -36.615  34.165  1.00  0.00    -0.063 C 
ATOM      8  C   UNL     1      32.914 -34.660  35.316  1.00  0.00    -0.003 C 
ATOM      9  C   UNL     1      31.455 -34.277  35.769  1.00  0.00    -0.011 C 
ATOM     10  C   UNL     1      35.036 -36.490  32.807  1.00  0.00    -0.006 C 
ATOM     11  C   UNL     1      34.666 -37.535  35.066  1.00  0.00    -0.027 C 
ATOM     12  C   UNL     1      33.623 -33.444  34.703  1.00  0.00     0.008 C 
ATOM     13  C   UNL     1      31.199 -34.696  37.225  1.00  0.00     0.008 C 
ATOM     14  C   UNL     1      35.689 -35.077  32.707  1.00  0.00     0.017 C 
ATOM     15  C   UNL     1      36.220 -37.611  32.589  1.00  0.00    -0.020 C 
ATOM     16  C   UNL     1      35.520 -38.710  34.769  1.00  0.00     0.032 C 
ATOM     17  C   UNL     1      35.825 -38.987  33.256  1.00  0.00     0.006 C 
ATOM     18  C   UNL     1      37.598 -37.184  33.254  1.00  0.00     0.008 C 
ATOM     19  C   UNL     1      36.420 -37.748  31.030  1.00  0.00     0.012 C 
ATOM     20  C   UNL     1      36.905 -40.189  33.091  1.00  0.00    -0.025 C 
ATOM     21  C   UNL     1      38.594 -38.324  33.667  1.00  0.00     0.005 C 
ATOM     22  C   UNL     1      38.357 -39.621  32.874  1.00  0.00     0.003 C 
ATOM     23  C   UNL     1      36.600 -41.063  31.840  1.00  0.00     0.010 C 
ATOM     24  C   UNL     1      36.807 -41.145  34.329  1.00  0.00     0.012 C 
ATOM     25  C   UNL     1      39.523 -40.676  32.736  1.00  0.00    -0.006 C 
ATOM     26  C   UNL     1      37.659 -42.172  31.597  1.00  0.00     0.033 C 
ATOM     27  C   UNL     1      39.127 -41.671  31.577  1.00  0.00     0.120 C 
ATOM     28  C   UNL     1      40.830 -39.955  32.283  1.00  0.00     0.014 C 
ATOM     29  C   UNL     1      39.865 -41.418  34.058  1.00  0.00     0.014 C 
ENDROOT
BRANCH   1  30
ATOM     30  C   UNL     1      31.270 -37.366  33.056  1.00  0.00     0.048 C 
ATOM     31  O   UNL     1      30.580 -37.627  32.032  1.00  0.00    -0.550 OA
ATOM     32  O   UNL     1      31.326 -38.323  34.065  1.00  0.00    -0.550 OA
ENDBRANCH   1  30
BRANCH  27  33
ATOM     33  O   UNL     1      39.980 -42.789  31.569  1.00  0.00    -0.393 OA
ATOM     34  H   UNL     1      39.455 -43.572  31.878  1.00  0.00     0.210 HD
ENDBRANCH  27  33
TORSDOF 2
ENDMDL
MODEL 7
REMARK VINA RESULT:    -7.039      2.324      7.737
REMARK INTER + INTRA:          -7.955
REMARK INTER:                  -7.657
REMARK INTRA:                  -0.298
REMARK UNBOUND:                -0.299
REMARK SMILES C[C@H]1[C@H](C)CC[C@@]2(C(=O)[O-])CC[C@@]3(C)C(=CC[C@@H]4[C@@]5(C)CC[C@H](O)C(C)(C)[C@@H]5CC[C@@]43C)[C@@H]12
REMARK SMILES IDX 7 1 6 2 11 3 33 4 5 5 12 6 15 7 2 8 3 9 13 10 16 11 1 12
REMARK SMILES IDX 4 13 14 14 31 15 17 16 18 17 30 18 32 19 19 20 29 21 28 22
REMARK SMILES IDX 21 23 20 24 25 25 22 26 23 27 26 28 27 29 8 30 9 31 10 32
REMARK SMILES IDX 24 33
REMARK H PARENT 24 34
REMARK Flexibility Score: inf
ROOT
ATOM      1  C   UNL     1      35.611 -38.913  31.584  1.00  0.00     0.017 C 
ATOM      2  C   UNL     1      36.555 -39.938  30.889  1.00  0.00     0.014 C 
ATOM      3  C   UNL     1      34.178 -39.108  31.044  1.00  0.00     0.014 C 
ATOM      4  C   UNL     1      35.632 -39.114  33.147  1.00  0.00     0.030 C 
ATOM      5  C   UNL     1      37.828 -40.171  31.705  1.00  0.00     0.004 C 
ATOM      6  C   UNL     1      33.147 -38.211  31.759  1.00  0.00     0.013 C 
ATOM      7  C   UNL     1      34.425 -38.476  33.883  1.00  0.00    -0.063 C 
ATOM      8  C   UNL     1      36.129 -40.503  33.669  1.00  0.00    -0.003 C 
ATOM      9  C   UNL     1      37.523 -40.886  33.046  1.00  0.00    -0.011 C 
ATOM     10  C   UNL     1      32.986 -38.470  33.303  1.00  0.00    -0.006 C 
ATOM     11  C   UNL     1      34.756 -37.678  34.907  1.00  0.00    -0.027 C 
ATOM     12  C   UNL     1      35.135 -41.663  33.519  1.00  0.00     0.008 C 
ATOM     13  C   UNL     1      38.665 -40.628  34.041  1.00  0.00     0.008 C 
ATOM     14  C   UNL     1      32.352 -39.883  33.488  1.00  0.00     0.017 C 
ATOM     15  C   UNL     1      31.987 -37.371  34.012  1.00  0.00    -0.020 C 
ATOM     16  C   UNL     1      33.964 -36.506  35.352  1.00  0.00     0.032 C 
ATOM     17  C   UNL     1      32.781 -36.068  34.421  1.00  0.00     0.006 C 
ATOM     18  C   UNL     1      31.328 -37.917  35.350  1.00  0.00     0.008 C 
ATOM     19  C   UNL     1      30.849 -37.064  32.964  1.00  0.00     0.012 C 
ATOM     20  C   UNL     1      31.900 -34.891  35.113  1.00  0.00    -0.025 C 
ATOM     21  C   UNL     1      30.876 -36.866  36.423  1.00  0.00     0.005 C 
ATOM     22  C   UNL     1      30.617 -35.479  35.809  1.00  0.00     0.003 C 
ATOM     23  C   UNL     1      31.383 -33.870  34.059  1.00  0.00     0.010 C 
ATOM     24  C   UNL     1      32.808 -34.081  36.100  1.00  0.00     0.012 C 
ATOM     25  C   UNL     1      29.680 -34.455  36.560  1.00  0.00    -0.006 C 
ATOM     26  C   UNL     1      30.464 -32.777  34.668  1.00  0.00     0.033 C 
ATOM     27  C   UNL     1      29.296 -33.321  35.531  1.00  0.00     0.120 C 
ATOM     28  C   UNL     1      28.351 -35.162  36.967  1.00  0.00     0.014 C 
ATOM     29  C   UNL     1      30.291 -33.881  37.868  1.00  0.00     0.014 C 
ENDROOT
BRANCH   1  30
ATOM     30  C   UNL     1      36.089 -37.503  31.193  1.00  0.00     0.048 C 
ATOM     31  O   UNL     1      35.970 -37.099  30.004  1.00  0.00    -0.550 OA
ATOM     32  O   UNL     1      36.745 -36.676  32.100  1.00  0.00    -0.550 OA
ENDBRANCH   1  30
BRANCH  27  33
ATOM     33  O   UNL     1      28.686 -32.238  36.190  1.00  0.00    -0.393 OA
ATOM     34  H   UNL     1      29.276 -31.448  36.083  1.00  0.00     0.210 HD
ENDBRANCH  27  33
TORSDOF 2
ENDMDL
MODEL 8
REMARK VINA RESULT:    -6.993      1.562      2.096
REMARK INTER + INTRA:          -7.905
REMARK INTER:                  -7.607
REMARK INTRA:                  -0.298
REMARK UNBOUND:                -0.299
REMARK SMILES C[C@H]1[C@H](C)CC[C@@]2(C(=O)[O-])CC[C@@]3(C)C(=CC[C@@H]4[C@@]5(C)CC[C@H](O)C(C)(C)[C@@H]5CC[C@@]43C)[C@@H]12
REMARK SMILES IDX 7 1 6 2 11 3 33 4 5 5 12 6 15 7 2 8 3 9 13 10 16 11 1 12
REMARK SMILES IDX 4 13 14 14 31 15 17 16 18 17 30 18 32 19 19 20 29 21 28 22
REMARK SMILES IDX 21 23 20 24 25 25 22 26 23 27 26 28 27 29 8 30 9 31 10 32
REMARK SMILES IDX 24 33
REMARK H PARENT 24 34
REMARK Flexibility Score: inf
ROOT
ATOM      1  C   UNL     1      28.160 -35.249  34.255  1.00  0.00     0.017 C 
ATOM      2  C   UNL     1      26.659 -35.122  34.648  1.00  0.00     0.014 C 
ATOM      3  C   UNL     1      29.025 -35.060  35.519  1.00  0.00     0.014 C 
ATOM      4  C   UNL     1      28.445 -36.659  33.611  1.00  0.00     0.030 C 
ATOM      5  C   UNL     1      25.750 -35.790  33.614  1.00  0.00     0.004 C 
ATOM      6  C   UNL     1      30.527 -35.283  35.250  1.00  0.00     0.013 C 
ATOM      7  C   UNL     1      29.943 -37.059  33.600  1.00  0.00    -0.063 C 
ATOM      8  C   UNL     1      27.410 -37.792  33.916  1.00  0.00    -0.003 C 
ATOM      9  C   UNL     1      25.939 -37.328  33.598  1.00  0.00    -0.011 C 
ATOM     10  C   UNL     1      30.916 -36.728  34.763  1.00  0.00    -0.006 C 
ATOM     11  C   UNL     1      30.409 -37.445  32.405  1.00  0.00    -0.027 C 
ATOM     12  C   UNL     1      27.489 -38.403  35.322  1.00  0.00     0.008 C 
ATOM     13  C   UNL     1      25.458 -37.894  32.252  1.00  0.00     0.008 C 
ATOM     14  C   UNL     1      30.661 -37.716  35.942  1.00  0.00     0.017 C 
ATOM     15  C   UNL     1      32.506 -36.832  34.351  1.00  0.00    -0.020 C 
ATOM     16  C   UNL     1      31.808 -37.267  31.948  1.00  0.00     0.032 C 
ATOM     17  C   UNL     1      32.732 -36.382  32.854  1.00  0.00     0.006 C 
ATOM     18  C   UNL     1      33.067 -38.316  34.449  1.00  0.00     0.008 C 
ATOM     19  C   UNL     1      33.289 -35.917  35.368  1.00  0.00     0.012 C 
ATOM     20  C   UNL     1      34.269 -36.418  32.329  1.00  0.00    -0.025 C 
ATOM     21  C   UNL     1      34.299 -38.690  33.553  1.00  0.00     0.005 C 
ATOM     22  C   UNL     1      35.123 -37.456  33.148  1.00  0.00     0.003 C 
ATOM     23  C   UNL     1      34.971 -35.043  32.523  1.00  0.00     0.010 C 
ATOM     24  C   UNL     1      34.282 -36.704  30.789  1.00  0.00     0.012 C 
ATOM     25  C   UNL     1      36.634 -37.630  32.724  1.00  0.00    -0.006 C 
ATOM     26  C   UNL     1      36.469 -35.059  32.114  1.00  0.00     0.033 C 
ATOM     27  C   UNL     1      37.302 -36.200  32.753  1.00  0.00     0.120 C 
ATOM     28  C   UNL     1      37.379 -38.497  33.785  1.00  0.00     0.014 C 
ATOM     29  C   UNL     1      36.829 -38.343  31.358  1.00  0.00     0.014 C 
ENDROOT
BRANCH   1  30
ATOM     30  C   UNL     1      28.481 -34.108  33.273  1.00  0.00     0.048 C 
ATOM     31  O   UNL     1      28.501 -32.912  33.674  1.00  0.00    -0.550 OA
ATOM     32  O   UNL     1      28.662 -34.343  31.913  1.00  0.00    -0.550 OA
ENDBRANCH   1  30
BRANCH  27  33
ATOM     33  O   UNL     1      38.566 -36.230  32.136  1.00  0.00    -0.393 OA
ATOM     34  H   UNL     1      38.443 -35.978  31.184  1.00  0.00     0.210 HD
ENDBRANCH  27  33
TORSDOF 2
ENDMDL
MODEL 9
REMARK VINA RESULT:    -6.956      1.477      2.110
REMARK INTER + INTRA:          -7.865
REMARK INTER:                  -7.571
REMARK INTRA:                  -0.294
REMARK UNBOUND:                -0.299
REMARK SMILES C[C@H]1[C@H](C)CC[C@@]2(C(=O)[O-])CC[C@@]3(C)C(=CC[C@@H]4[C@@]5(C)CC[C@H](O)C(C)(C)[C@@H]5CC[C@@]43C)[C@@H]12
REMARK SMILES IDX 7 1 6 2 11 3 33 4 5 5 12 6 15 7 2 8 3 9 13 10 16 11 1 12
REMARK SMILES IDX 4 13 14 14 31 15 17 16 18 17 30 18 32 19 19 20 29 21 28 22
REMARK SMILES IDX 21 23 20 24 25 25 22 26 23 27 26 28 27 29 8 30 9 31 10 32
REMARK SMILES IDX 24 33
REMARK H PARENT 24 34
REMARK Flexibility Score: inf
ROOT
ATOM      1  C   UNL     1      31.301 -36.501  35.329  1.00  0.00     0.017 C 
ATOM      2  C   UNL     1      30.088 -36.723  36.281  1.00  0.00     0.014 C 
ATOM      3  C   UNL     1      32.535 -37.216  35.918  1.00  0.00     0.014 C 
ATOM      4  C   UNL     1      30.985 -37.063  33.892  1.00  0.00     0.030 C 
ATOM      5  C   UNL     1      28.759 -36.514  35.553  1.00  0.00     0.004 C 
ATOM      6  C   UNL     1      33.762 -37.148  34.987  1.00  0.00     0.013 C 
ATOM      7  C   UNL     1      32.243 -37.303  33.016  1.00  0.00    -0.063 C 
ATOM      8  C   UNL     1      29.836 -38.121  33.788  1.00  0.00    -0.003 C 
ATOM      9  C   UNL     1      28.518 -37.607  34.481  1.00  0.00    -0.011 C 
ATOM     10  C   UNL     1      33.581 -37.842  33.585  1.00  0.00    -0.006 C 
ATOM     11  C   UNL     1      32.190 -36.741  31.801  1.00  0.00    -0.027 C 
ATOM     12  C   UNL     1      30.186 -39.532  34.279  1.00  0.00     0.008 C 
ATOM     13  C   UNL     1      27.508 -37.097  33.440  1.00  0.00     0.008 C 
ATOM     14  C   UNL     1      33.455 -39.378  33.825  1.00  0.00     0.017 C 
ATOM     15  C   UNL     1      34.874 -37.588  32.600  1.00  0.00    -0.020 C 
ATOM     16  C   UNL     1      33.371 -36.257  31.045  1.00  0.00     0.032 C 
ATOM     17  C   UNL     1      34.731 -36.221  31.822  1.00  0.00     0.006 C 
ATOM     18  C   UNL     1      35.024 -38.710  31.484  1.00  0.00     0.008 C 
ATOM     19  C   UNL     1      36.150 -37.609  33.527  1.00  0.00     0.012 C 
ATOM     20  C   UNL     1      35.960 -35.841  30.829  1.00  0.00    -0.025 C 
ATOM     21  C   UNL     1      35.768 -38.326  30.158  1.00  0.00     0.005 C 
ATOM     22  C   UNL     1      36.719 -37.132  30.348  1.00  0.00     0.003 C 
ATOM     23  C   UNL     1      37.025 -34.964  31.548  1.00  0.00     0.010 C 
ATOM     24  C   UNL     1      35.413 -34.980  29.639  1.00  0.00     0.012 C 
ATOM     25  C   UNL     1      37.918 -36.922  29.342  1.00  0.00    -0.006 C 
ATOM     26  C   UNL     1      38.259 -34.650  30.659  1.00  0.00     0.033 C 
ATOM     27  C   UNL     1      38.916 -35.893  30.003  1.00  0.00     0.120 C 
ATOM     28  C   UNL     1      38.700 -38.261  29.173  1.00  0.00     0.014 C 
ATOM     29  C   UNL     1      37.480 -36.485  27.917  1.00  0.00     0.014 C 
ENDROOT
BRANCH   1  30
ATOM     30  C   UNL     1      31.589 -34.989  35.290  1.00  0.00     0.048 C 
ATOM     31  O   UNL     1      32.113 -34.416  36.284  1.00  0.00    -0.550 OA
ATOM     32  O   UNL     1      31.199 -34.199  34.213  1.00  0.00    -0.550 OA
ENDBRANCH   1  30
BRANCH  27  33
ATOM     33  O   UNL     1      39.868 -35.451  29.066  1.00  0.00    -0.393 OA
ATOM     34  H   UNL     1      40.562 -36.155  28.986  1.00  0.00     0.210 HD
ENDBRANCH  27  33
TORSDOF 2
ENDMDL
