MODEL 1
REMARK VINA RESULT:    -6.483      0.000      0.000
REMARK INTER + INTRA:          -8.666
REMARK INTER:                  -9.705
REMARK INTRA:                   1.039
REMARK UNBOUND:                 1.039
REMARK SMILES C=C(CC[C@@H](C(=O)[O-])[C@@H]1[C@H](O)C[C@@]2(C)C3=C(CC[C@@]12C)[C@]1(C)CC[C@@H](OC(C)=O)C(C)(C)[C@H]1CC3)C(C)C
REMARK SMILES IDX 4 1 5 2 6 3 7 4 8 5 9 6 10 7 19 8 12 9 13 10 18 11 20 12
REMARK SMILES IDX 14 13 15 14 17 15 16 16 35 17 21 18 34 19 33 20 23 21 22 22
REMARK SMILES IDX 30 23 24 24 25 25 31 26 32 27 11 28 26 30 27 31 29 32 28 33
REMARK SMILES IDX 3 34 2 35 1 36 36 37 37 38 38 39
REMARK H PARENT 11 29
REMARK Flexibility Score: inf
ROOT
ATOM      1  C   UNL     1       5.740  26.804  16.897  1.00  0.00     0.014 C 
ENDROOT
BRANCH   1   2
ATOM      2  C   UNL     1       6.108  28.187  16.297  1.00  0.00     0.042 C 
BRANCH   2   3
ATOM      3  C   UNL     1       5.611  29.272  17.226  1.00  0.00     0.045 C 
ATOM      4  O   UNL     1       4.379  29.406  17.452  1.00  0.00    -0.550 OA
ATOM      5  O   UNL     1       6.514  30.097  17.884  1.00  0.00    -0.550 OA
ENDBRANCH   2   3
BRANCH   2   6
ATOM      6  C   UNL     1       7.651  28.359  16.054  1.00  0.00     0.033 C 
ATOM      7  C   UNL     1       8.063  29.821  15.842  1.00  0.00     0.119 C 
ATOM      8  C   UNL     1       8.361  27.560  14.883  1.00  0.00    -0.017 C 
ATOM      9  C   UNL     1       9.472  29.725  15.288  1.00  0.00     0.043 C 
ATOM     10  C   UNL     1       9.478  28.554  14.288  1.00  0.00    -0.003 C 
ATOM     11  C   UNL     1       9.025  26.293  15.491  1.00  0.00     0.012 C 
ATOM     12  C   UNL     1       7.341  27.094  13.788  1.00  0.00     0.013 C 
ATOM     13  C   UNL     1       9.114  29.124  12.875  1.00  0.00     0.017 C 
ATOM     14  C   UNL     1      10.929  27.988  14.185  1.00  0.00    -0.064 C 
ATOM     15  C   UNL     1      10.056  25.706  14.549  1.00  0.00     0.032 C 
ATOM     16  C   UNL     1      11.219  26.664  14.409  1.00  0.00    -0.064 C 
ATOM     17  C   UNL     1      12.036  29.005  13.871  1.00  0.00     0.032 C 
ATOM     18  C   UNL     1      12.664  26.095  14.301  1.00  0.00    -0.008 C 
ATOM     19  C   UNL     1      13.423  28.421  13.622  1.00  0.00     0.009 C 
ATOM     20  C   UNL     1      13.681  27.263  14.595  1.00  0.00     0.009 C 
ATOM     21  C   UNL     1      12.920  24.980  15.359  1.00  0.00     0.015 C 
ATOM     22  C   UNL     1      12.758  25.478  12.875  1.00  0.00     0.016 C 
ATOM     23  C   UNL     1      15.209  26.896  14.805  1.00  0.00     0.005 C 
ATOM     24  C   UNL     1      14.385  24.543  15.443  1.00  0.00     0.047 C 
ATOM     25  C   UNL     1      15.315  25.705  15.807  1.00  0.00     0.182 C 
ATOM     26  C   UNL     1      15.940  28.105  15.455  1.00  0.00     0.015 C 
ATOM     27  C   UNL     1      15.950  26.578  13.480  1.00  0.00     0.015 C 
BRANCH   7  28
ATOM     28  O   UNL     1       7.207  30.450  14.927  1.00  0.00    -0.393 OA
ATOM     29  H   UNL     1       6.341  30.607  15.385  1.00  0.00     0.210 HD
ENDBRANCH   7  28
BRANCH  25  30
ATOM     30  O   UNL     1      16.654  25.197  15.869  1.00  0.00    -0.462 OA
BRANCH  30  31
ATOM     31  C   UNL     1      17.181  24.228  15.006  1.00  0.00     0.302 C 
ATOM     32  O   UNL     1      16.450  23.315  14.534  1.00  0.00    -0.253 OA
ATOM     33  C   UNL     1      18.636  24.238  14.689  1.00  0.00     0.139 C 
ENDBRANCH  30  31
ENDBRANCH  25  30
ENDBRANCH   2   6
ENDBRANCH   1   2
BRANCH   1  34
ATOM     34  C   UNL     1       4.993  25.869  15.917  1.00  0.00     0.031 C 
BRANCH  34  35
ATOM     35  C   UNL     1       3.485  25.836  16.122  1.00  0.00    -0.075 C 
ATOM     36  C   UNL     1       2.763  26.958  15.942  1.00  0.00     0.008 C 
BRANCH  35  37
ATOM     37  C   UNL     1       2.804  24.517  16.470  1.00  0.00     0.008 C 
ATOM     38  C   UNL     1       3.268  24.015  17.841  1.00  0.00     0.012 C 
ATOM     39  C   UNL     1       3.015  23.446  15.393  1.00  0.00     0.012 C 
ENDBRANCH  35  37
ENDBRANCH  34  35
ENDBRANCH   1  34
TORSDOF 9
ENDMDL
MODEL 2
REMARK VINA RESULT:    -5.886      0.952      1.414
REMARK INTER + INTRA:          -7.771
REMARK INTER:                  -8.719
REMARK INTRA:                   0.948
REMARK UNBOUND:                 1.039
REMARK SMILES C=C(CC[C@@H](C(=O)[O-])[C@@H]1[C@H](O)C[C@@]2(C)C3=C(CC[C@@]12C)[C@]1(C)CC[C@@H](OC(C)=O)C(C)(C)[C@H]1CC3)C(C)C
REMARK SMILES IDX 4 1 5 2 6 3 7 4 8 5 9 6 10 7 19 8 12 9 13 10 18 11 20 12
REMARK SMILES IDX 14 13 15 14 17 15 16 16 35 17 21 18 34 19 33 20 23 21 22 22
REMARK SMILES IDX 30 23 24 24 25 25 31 26 32 27 11 28 26 30 27 31 29 32 28 33
REMARK SMILES IDX 3 34 2 35 1 36 36 37 37 38 38 39
REMARK H PARENT 11 29
REMARK Flexibility Score: inf
ROOT
ATOM      1  C   UNL     1       4.716  26.652  16.975  1.00  0.00     0.014 C 
ENDROOT
BRANCH   1   2
ATOM      2  C   UNL     1       5.077  27.942  16.190  1.00  0.00     0.042 C 
BRANCH   2   3
ATOM      3  C   UNL     1       4.504  29.136  16.921  1.00  0.00     0.045 C 
ATOM      4  O   UNL     1       5.251  29.891  17.598  1.00  0.00    -0.550 OA
ATOM      5  O   UNL     1       3.155  29.445  16.804  1.00  0.00    -0.550 OA
ENDBRANCH   2   3
BRANCH   2   6
ATOM      6  C   UNL     1       6.625  28.129  15.997  1.00  0.00     0.033 C 
ATOM      7  C   UNL     1       7.032  29.597  15.821  1.00  0.00     0.119 C 
ATOM      8  C   UNL     1       7.375  27.354  14.834  1.00  0.00    -0.017 C 
ATOM      9  C   UNL     1       8.458  29.520  15.307  1.00  0.00     0.043 C 
ATOM     10  C   UNL     1       8.502  28.366  14.288  1.00  0.00    -0.003 C 
ATOM     11  C   UNL     1       8.031  26.082  15.441  1.00  0.00     0.012 C 
ATOM     12  C   UNL     1       6.392  26.899  13.702  1.00  0.00     0.013 C 
ATOM     13  C   UNL     1       8.175  28.956  12.875  1.00  0.00     0.017 C 
ATOM     14  C   UNL     1       9.960  27.812  14.220  1.00  0.00    -0.064 C 
ATOM     15  C   UNL     1       9.093  25.518  14.521  1.00  0.00     0.032 C 
ATOM     16  C   UNL     1      10.253  26.486  14.431  1.00  0.00    -0.064 C 
ATOM     17  C   UNL     1      11.067  28.841  13.955  1.00  0.00     0.032 C 
ATOM     18  C   UNL     1      11.705  25.930  14.356  1.00  0.00    -0.008 C 
ATOM     19  C   UNL     1      12.466  28.271  13.738  1.00  0.00     0.009 C 
ATOM     20  C   UNL     1      12.704  27.099  14.699  1.00  0.00     0.009 C 
ATOM     21  C   UNL     1      11.937  24.799  15.403  1.00  0.00     0.015 C 
ATOM     22  C   UNL     1      11.845  25.336  12.924  1.00  0.00     0.016 C 
ATOM     23  C   UNL     1      14.227  26.740  14.948  1.00  0.00     0.005 C 
ATOM     24  C   UNL     1      13.403  24.371  15.523  1.00  0.00     0.047 C 
ATOM     25  C   UNL     1      14.313  25.533  15.934  1.00  0.00     0.182 C 
ATOM     26  C   UNL     1      14.930  27.943  15.640  1.00  0.00     0.015 C 
ATOM     27  C   UNL     1      15.010  26.448  13.641  1.00  0.00     0.015 C 
BRANCH   7  28
ATOM     28  O   UNL     1       6.199  30.235  14.891  1.00  0.00    -0.393 OA
ATOM     29  H   UNL     1       6.768  30.544  14.140  1.00  0.00     0.210 HD
ENDBRANCH   7  28
BRANCH  25  30
ATOM     30  O   UNL     1      15.654  25.034  16.027  1.00  0.00    -0.462 OA
BRANCH  30  31
ATOM     31  C   UNL     1      16.247  24.163  15.105  1.00  0.00     0.302 C 
ATOM     32  O   UNL     1      15.628  23.150  14.679  1.00  0.00    -0.253 OA
ATOM     33  C   UNL     1      17.650  24.400  14.666  1.00  0.00     0.139 C 
ENDBRANCH  30  31
ENDBRANCH  25  30
ENDBRANCH   2   6
ENDBRANCH   1   2
BRANCH   1  34
ATOM     34  C   UNL     1       3.502  25.884  16.402  1.00  0.00     0.031 C 
BRANCH  34  35
ATOM     35  C   UNL     1       3.411  24.437  16.865  1.00  0.00    -0.075 C 
ATOM     36  C   UNL     1       3.279  24.164  18.177  1.00  0.00     0.008 C 
BRANCH  35  37
ATOM     37  C   UNL     1       3.410  23.317  15.831  1.00  0.00     0.008 C 
ATOM     38  C   UNL     1       4.660  23.395  14.949  1.00  0.00     0.012 C 
ATOM     39  C   UNL     1       2.136  23.309  14.976  1.00  0.00     0.012 C 
ENDBRANCH  35  37
ENDBRANCH  34  35
ENDBRANCH   1  34
TORSDOF 9
ENDMDL
MODEL 3
REMARK VINA RESULT:    -4.825      1.975     10.226
REMARK INTER + INTRA:          -6.184
REMARK INTER:                  -7.521
REMARK INTRA:                   1.338
REMARK UNBOUND:                 1.039
REMARK SMILES C=C(CC[C@@H](C(=O)[O-])[C@@H]1[C@H](O)C[C@@]2(C)C3=C(CC[C@@]12C)[C@]1(C)CC[C@@H](OC(C)=O)C(C)(C)[C@H]1CC3)C(C)C
REMARK SMILES IDX 4 1 5 2 6 3 7 4 8 5 9 6 10 7 19 8 12 9 13 10 18 11 20 12
REMARK SMILES IDX 14 13 15 14 17 15 16 16 35 17 21 18 34 19 33 20 23 21 22 22
REMARK SMILES IDX 30 23 24 24 25 25 31 26 32 27 11 28 26 30 27 31 29 32 28 33
REMARK SMILES IDX 3 34 2 35 1 36 36 37 37 38 38 39
REMARK H PARENT 11 29
REMARK Flexibility Score: inf
ROOT
ATOM      1  C   UNL     1      16.439  24.755  13.736  1.00  0.00     0.014 C 
ENDROOT
BRANCH   1   2
ATOM      2  C   UNL     1      15.974  24.677  15.215  1.00  0.00     0.042 C 
BRANCH   2   3
ATOM      3  C   UNL     1      16.708  25.730  16.014  1.00  0.00     0.045 C 
ATOM      4  O   UNL     1      17.457  25.400  16.971  1.00  0.00    -0.550 OA
ATOM      5  O   UNL     1      16.608  27.071  15.663  1.00  0.00    -0.550 OA
ENDBRANCH   2   3
BRANCH   2   6
ATOM      6  C   UNL     1      14.423  24.868  15.380  1.00  0.00     0.033 C 
ATOM      7  C   UNL     1      13.680  23.546  15.611  1.00  0.00     0.119 C 
ATOM      8  C   UNL     1      13.593  25.613  14.253  1.00  0.00    -0.017 C 
ATOM      9  C   UNL     1      12.222  23.904  15.388  1.00  0.00     0.043 C 
ATOM     10  C   UNL     1      12.177  24.852  14.175  1.00  0.00    -0.003 C 
ATOM     11  C   UNL     1      13.397  27.091  14.690  1.00  0.00     0.012 C 
ATOM     12  C   UNL     1      14.341  25.610  12.875  1.00  0.00     0.013 C 
ATOM     13  C   UNL     1      12.011  23.978  12.886  1.00  0.00     0.017 C 
ATOM     14  C   UNL     1      10.901  25.745  14.283  1.00  0.00    -0.064 C 
ATOM     15  C   UNL     1      12.286  27.755  13.902  1.00  0.00     0.032 C 
ATOM     16  C   UNL     1      10.960  27.117  14.257  1.00  0.00    -0.064 C 
ATOM     17  C   UNL     1       9.568  25.008  14.474  1.00  0.00     0.032 C 
ATOM     18  C   UNL     1       9.689  28.010  14.357  1.00  0.00    -0.008 C 
ATOM     19  C   UNL     1       8.315  25.877  14.424  1.00  0.00     0.009 C 
ATOM     20  C   UNL     1       8.579  27.209  15.138  1.00  0.00     0.009 C 
ATOM     21  C   UNL     1       9.970  29.315  15.160  1.00  0.00     0.015 C 
ATOM     22  C   UNL     1       9.330  28.382  12.889  1.00  0.00     0.016 C 
ATOM     23  C   UNL     1       7.278  27.985  15.604  1.00  0.00     0.005 C 
ATOM     24  C   UNL     1       8.707  30.121  15.477  1.00  0.00     0.047 C 
ATOM     25  C   UNL     1       7.699  29.315  16.302  1.00  0.00     0.182 C 
ATOM     26  C   UNL     1       6.527  27.131  16.665  1.00  0.00     0.015 C 
ATOM     27  C   UNL     1       6.278  28.254  14.449  1.00  0.00     0.015 C 
BRANCH   7  28
ATOM     28  O   UNL     1      14.102  22.573  14.692  1.00  0.00    -0.393 OA
ATOM     29  H   UNL     1      13.468  22.585  13.930  1.00  0.00     0.210 HD
ENDBRANCH   7  28
BRANCH  25  30
ATOM     30  O   UNL     1       6.562  30.151  16.553  1.00  0.00    -0.462 OA
BRANCH  30  31
ATOM     31  C   UNL     1       5.411  29.749  17.241  1.00  0.00     0.302 C 
ATOM     32  O   UNL     1       5.479  29.330  18.429  1.00  0.00    -0.253 OA
ATOM     33  C   UNL     1       4.095  29.757  16.544  1.00  0.00     0.139 C 
ENDBRANCH  30  31
ENDBRANCH  25  30
ENDBRANCH   2   6
ENDBRANCH   1   2
BRANCH   1  34
ATOM     34  C   UNL     1      17.489  23.688  13.348  1.00  0.00     0.031 C 
BRANCH  34  35
ATOM     35  C   UNL     1      18.897  24.001  13.835  1.00  0.00    -0.075 C 
ATOM     36  C   UNL     1      19.544  25.080  13.353  1.00  0.00     0.008 C 
BRANCH  35  37
ATOM     37  C   UNL     1      19.534  23.124  14.907  1.00  0.00     0.008 C 
ATOM     38  C   UNL     1      20.345  23.975  15.888  1.00  0.00     0.012 C 
ATOM     39  C   UNL     1      20.394  22.002  14.312  1.00  0.00     0.012 C 
ENDBRANCH  35  37
ENDBRANCH  34  35
ENDBRANCH   1  34
TORSDOF 9
ENDMDL
MODEL 4
REMARK VINA RESULT:    -4.694      1.870     10.168
REMARK INTER + INTRA:          -5.987
REMARK INTER:                  -6.252
REMARK INTRA:                   0.264
REMARK UNBOUND:                 1.039
REMARK SMILES C=C(CC[C@@H](C(=O)[O-])[C@@H]1[C@H](O)C[C@@]2(C)C3=C(CC[C@@]12C)[C@]1(C)CC[C@@H](OC(C)=O)C(C)(C)[C@H]1CC3)C(C)C
REMARK SMILES IDX 4 1 5 2 6 3 7 4 8 5 9 6 10 7 19 8 12 9 13 10 18 11 20 12
REMARK SMILES IDX 14 13 15 14 17 15 16 16 35 17 21 18 34 19 33 20 23 21 22 22
REMARK SMILES IDX 30 23 24 24 25 25 31 26 32 27 11 28 26 30 27 31 29 32 28 33
REMARK SMILES IDX 3 34 2 35 1 36 36 37 37 38 38 39
REMARK H PARENT 11 29
REMARK Flexibility Score: inf
ROOT
ATOM      1  C   UNL     1      17.157  26.789  13.581  1.00  0.00     0.014 C 
ENDROOT
BRANCH   1   2
ATOM      2  C   UNL     1      16.647  27.741  14.697  1.00  0.00     0.042 C 
BRANCH   2   3
ATOM      3  C   UNL     1      16.674  29.161  14.178  1.00  0.00     0.045 C 
ATOM      4  O   UNL     1      17.446  30.015  14.690  1.00  0.00    -0.550 OA
ATOM      5  O   UNL     1      15.889  29.524  13.091  1.00  0.00    -0.550 OA
ENDBRANCH   2   3
BRANCH   2   6
ATOM      6  C   UNL     1      15.201  27.383  15.194  1.00  0.00     0.033 C 
ATOM      7  C   UNL     1      15.199  26.364  16.340  1.00  0.00     0.119 C 
ATOM      8  C   UNL     1      14.122  26.844  14.165  1.00  0.00    -0.017 C 
ATOM      9  C   UNL     1      13.754  25.906  16.417  1.00  0.00     0.043 C 
ATOM     10  C   UNL     1      13.260  25.746  14.967  1.00  0.00    -0.003 C 
ATOM     11  C   UNL     1      13.223  28.036  13.733  1.00  0.00     0.012 C 
ATOM     12  C   UNL     1      14.786  26.247  12.877  1.00  0.00     0.013 C 
ATOM     13  C   UNL     1      13.553  24.275  14.516  1.00  0.00     0.017 C 
ATOM     14  C   UNL     1      11.710  25.925  14.942  1.00  0.00    -0.064 C 
ATOM     15  C   UNL     1      11.936  27.552  13.096  1.00  0.00     0.032 C 
ATOM     16  C   UNL     1      11.089  26.848  14.135  1.00  0.00    -0.064 C 
ATOM     17  C   UNL     1      10.907  25.047  15.912  1.00  0.00     0.032 C 
ATOM     18  C   UNL     1       9.543  27.024  14.102  1.00  0.00    -0.008 C 
ATOM     19  C   UNL     1       9.389  25.117  15.771  1.00  0.00     0.009 C 
ATOM     20  C   UNL     1       8.961  26.564  15.493  1.00  0.00     0.009 C 
ATOM     21  C   UNL     1       9.142  28.516  13.902  1.00  0.00     0.015 C 
ATOM     22  C   UNL     1       9.060  26.196  12.875  1.00  0.00     0.016 C 
ATOM     23  C   UNL     1       7.443  26.884  15.817  1.00  0.00     0.005 C 
ATOM     24  C   UNL     1       7.644  28.775  14.083  1.00  0.00     0.047 C 
ATOM     25  C   UNL     1       7.153  28.379  15.479  1.00  0.00     0.182 C 
ATOM     26  C   UNL     1       7.197  26.706  17.342  1.00  0.00     0.015 C 
ATOM     27  C   UNL     1       6.449  25.945  15.085  1.00  0.00     0.015 C 
BRANCH   7  28
ATOM     28  O   UNL     1      16.050  25.288  16.050  1.00  0.00    -0.393 OA
ATOM     29  H   UNL     1      16.775  25.288  16.726  1.00  0.00     0.210 HD
ENDBRANCH   7  28
BRANCH  25  30
ATOM     30  O   UNL     1       5.750  28.665  15.552  1.00  0.00    -0.462 OA
BRANCH  30  31
ATOM     31  C   UNL     1       5.109  29.239  16.657  1.00  0.00     0.302 C 
ATOM     32  O   UNL     1       5.774  29.750  17.600  1.00  0.00    -0.253 OA
ATOM     33  C   UNL     1       3.623  29.192  16.753  1.00  0.00     0.139 C 
ENDBRANCH  30  31
ENDBRANCH  25  30
ENDBRANCH   2   6
ENDBRANCH   1   2
BRANCH   1  34
ATOM     34  C   UNL     1      18.543  26.166  13.869  1.00  0.00     0.031 C 
BRANCH  34  35
ATOM     35  C   UNL     1      18.575  24.649  13.753  1.00  0.00    -0.075 C 
ATOM     36  C   UNL     1      17.623  24.014  13.043  1.00  0.00     0.008 C 
BRANCH  35  37
ATOM     37  C   UNL     1      19.719  23.871  14.393  1.00  0.00     0.008 C 
ATOM     38  C   UNL     1      20.012  24.402  15.800  1.00  0.00     0.012 C 
ATOM     39  C   UNL     1      20.986  23.875  13.530  1.00  0.00     0.012 C 
ENDBRANCH  35  37
ENDBRANCH  34  35
ENDBRANCH   1  34
TORSDOF 9
ENDMDL
MODEL 5
REMARK VINA RESULT:    -4.246      3.316      6.596
REMARK INTER + INTRA:          -5.317
REMARK INTER:                  -5.503
REMARK INTRA:                   0.187
REMARK UNBOUND:                 1.039
REMARK SMILES C=C(CC[C@@H](C(=O)[O-])[C@@H]1[C@H](O)C[C@@]2(C)C3=C(CC[C@@]12C)[C@]1(C)CC[C@@H](OC(C)=O)C(C)(C)[C@H]1CC3)C(C)C
REMARK SMILES IDX 4 1 5 2 6 3 7 4 8 5 9 6 10 7 19 8 12 9 13 10 18 11 20 12
REMARK SMILES IDX 14 13 15 14 17 15 16 16 35 17 21 18 34 19 33 20 23 21 22 22
REMARK SMILES IDX 30 23 24 24 25 25 31 26 32 27 11 28 26 30 27 31 29 32 28 33
REMARK SMILES IDX 3 34 2 35 1 36 36 37 37 38 38 39
REMARK H PARENT 11 29
REMARK Flexibility Score: inf
ROOT
ATOM      1  C   UNL     1      11.274  26.843  13.381  1.00  0.00     0.014 C 
ENDROOT
BRANCH   1   2
ATOM      2  C   UNL     1      11.220  25.747  14.479  1.00  0.00     0.042 C 
BRANCH   2   3
ATOM      3  C   UNL     1      10.522  24.527  13.918  1.00  0.00     0.045 C 
ATOM      4  O   UNL     1       9.639  24.648  13.028  1.00  0.00    -0.550 OA
ATOM      5  O   UNL     1      10.891  23.256  14.339  1.00  0.00    -0.550 OA
ENDBRANCH   2   3
BRANCH   2   6
ATOM      6  C   UNL     1      12.641  25.347  15.017  1.00  0.00     0.033 C 
ATOM      7  C   UNL     1      13.014  26.074  16.315  1.00  0.00     0.119 C 
ATOM      8  C   UNL     1      13.912  25.502  14.082  1.00  0.00    -0.017 C 
ATOM      9  C   UNL     1      14.505  25.828  16.454  1.00  0.00     0.043 C 
ATOM     10  C   UNL     1      15.113  25.969  15.047  1.00  0.00    -0.003 C 
ATOM     11  C   UNL     1      14.225  24.115  13.453  1.00  0.00     0.012 C 
ATOM     12  C   UNL     1      13.663  26.518  12.915  1.00  0.00     0.013 C 
ATOM     13  C   UNL     1      15.523  27.467  14.846  1.00  0.00     0.017 C 
ATOM     14  C   UNL     1      16.426  25.129  14.980  1.00  0.00    -0.064 C 
ATOM     15  C   UNL     1      15.632  24.069  12.894  1.00  0.00     0.032 C 
ATOM     16  C   UNL     1      16.631  24.160  14.027  1.00  0.00    -0.064 C 
ATOM     17  C   UNL     1      17.466  25.403  16.075  1.00  0.00     0.032 C 
ATOM     18  C   UNL     1      17.943  23.325  13.954  1.00  0.00    -0.008 C 
ATOM     19  C   UNL     1      18.806  24.690  15.913  1.00  0.00     0.009 C 
ATOM     20  C   UNL     1      18.575  23.264  15.396  1.00  0.00     0.009 C 
ATOM     21  C   UNL     1      17.662  21.859  13.508  1.00  0.00     0.015 C 
ATOM     22  C   UNL     1      18.819  24.028  12.876  1.00  0.00     0.016 C 
ATOM     23  C   UNL     1      19.774  22.260  15.651  1.00  0.00     0.005 C 
ATOM     24  C   UNL     1      18.880  20.939  13.632  1.00  0.00     0.047 C 
ATOM     25  C   UNL     1      19.402  20.861  15.070  1.00  0.00     0.182 C 
ATOM     26  C   UNL     1      19.972  22.079  17.183  1.00  0.00     0.015 C 
ATOM     27  C   UNL     1      21.125  22.760  15.076  1.00  0.00     0.015 C 
BRANCH   7  28
ATOM     28  O   UNL     1      12.741  27.446  16.212  1.00  0.00    -0.393 OA
ATOM     29  H   UNL     1      11.872  27.545  15.744  1.00  0.00     0.210 HD
ENDBRANCH   7  28
BRANCH  25  30
ATOM     30  O   UNL     1      20.530  19.976  15.084  1.00  0.00    -0.462 OA
BRANCH  30  31
ATOM     31  C   UNL     1      20.525  18.686  15.628  1.00  0.00     0.302 C 
ATOM     32  O   UNL     1      21.107  18.440  16.720  1.00  0.00    -0.253 OA
ATOM     33  C   UNL     1      19.877  17.573  14.879  1.00  0.00     0.139 C 
ENDBRANCH  30  31
ENDBRANCH  25  30
ENDBRANCH   2   6
ENDBRANCH   1   2
BRANCH   1  34
ATOM     34  C   UNL     1       9.937  27.592  13.171  1.00  0.00     0.031 C 
BRANCH  34  35
ATOM     35  C   UNL     1       9.308  28.108  14.458  1.00  0.00    -0.075 C 
ATOM     36  C   UNL     1       9.874  29.142  15.108  1.00  0.00     0.008 C 
BRANCH  35  37
ATOM     37  C   UNL     1       8.011  27.486  14.961  1.00  0.00     0.008 C 
ATOM     38  C   UNL     1       7.158  26.993  13.788  1.00  0.00     0.012 C 
ATOM     39  C   UNL     1       7.212  28.440  15.857  1.00  0.00     0.012 C 
ENDBRANCH  35  37
ENDBRANCH  34  35
ENDBRANCH   1  34
TORSDOF 9
ENDMDL
MODEL 6
REMARK VINA RESULT:    -4.130      2.140     10.157
REMARK INTER + INTRA:          -5.143
REMARK INTER:                  -5.858
REMARK INTRA:                   0.715
REMARK UNBOUND:                 1.039
REMARK SMILES C=C(CC[C@@H](C(=O)[O-])[C@@H]1[C@H](O)C[C@@]2(C)C3=C(CC[C@@]12C)[C@]1(C)CC[C@@H](OC(C)=O)C(C)(C)[C@H]1CC3)C(C)C
REMARK SMILES IDX 4 1 5 2 6 3 7 4 8 5 9 6 10 7 19 8 12 9 13 10 18 11 20 12
REMARK SMILES IDX 14 13 15 14 17 15 16 16 35 17 21 18 34 19 33 20 23 21 22 22
REMARK SMILES IDX 30 23 24 24 25 25 31 26 32 27 11 28 26 30 27 31 29 32 28 33
REMARK SMILES IDX 3 34 2 35 1 36 36 37 37 38 38 39
REMARK H PARENT 11 29
REMARK Flexibility Score: inf
ROOT
ATOM      1  C   UNL     1      15.949  25.341  14.478  1.00  0.00     0.014 C 
ENDROOT
BRANCH   1   2
ATOM      2  C   UNL     1      14.935  24.855  13.409  1.00  0.00     0.042 C 
BRANCH   2   3
ATOM      3  C   UNL     1      14.566  23.418  13.702  1.00  0.00     0.045 C 
ATOM      4  O   UNL     1      13.886  22.751  12.877  1.00  0.00    -0.550 OA
ATOM      5  O   UNL     1      15.023  22.800  14.859  1.00  0.00    -0.550 OA
ENDBRANCH   2   3
BRANCH   2   6
ATOM      6  C   UNL     1      13.637  25.737  13.350  1.00  0.00     0.033 C 
ATOM      7  C   UNL     1      13.912  27.175  12.895  1.00  0.00     0.119 C 
ATOM      8  C   UNL     1      12.721  25.883  14.637  1.00  0.00    -0.017 C 
ATOM      9  C   UNL     1      12.636  27.919  13.245  1.00  0.00     0.043 C 
ATOM     10  C   UNL     1      12.183  27.400  14.622  1.00  0.00    -0.003 C 
ATOM     11  C   UNL     1      11.539  24.882  14.509  1.00  0.00     0.012 C 
ATOM     12  C   UNL     1      13.502  25.546  15.953  1.00  0.00     0.013 C 
ATOM     13  C   UNL     1      12.841  28.303  15.719  1.00  0.00     0.017 C 
ATOM     14  C   UNL     1      10.639  27.591  14.748  1.00  0.00    -0.064 C 
ATOM     15  C   UNL     1      10.414  25.236  15.460  1.00  0.00     0.032 C 
ATOM     16  C   UNL     1       9.791  26.550  15.042  1.00  0.00    -0.064 C 
ATOM     17  C   UNL     1      10.103  29.003  14.472  1.00  0.00     0.032 C 
ATOM     18  C   UNL     1       8.251  26.739  15.174  1.00  0.00    -0.008 C 
ATOM     19  C   UNL     1       8.617  29.215  14.746  1.00  0.00     0.009 C 
ATOM     20  C   UNL     1       7.825  27.979  14.299  1.00  0.00     0.009 C 
ATOM     21  C   UNL     1       7.476  25.501  14.634  1.00  0.00     0.015 C 
ATOM     22  C   UNL     1       7.984  26.883  16.701  1.00  0.00     0.016 C 
ATOM     23  C   UNL     1       6.280  28.230  14.051  1.00  0.00     0.005 C 
ATOM     24  C   UNL     1       5.964  25.723  14.537  1.00  0.00     0.047 C 
ATOM     25  C   UNL     1       5.609  26.892  13.612  1.00  0.00     0.182 C 
ATOM     26  C   UNL     1       6.108  29.233  12.875  1.00  0.00     0.015 C 
ATOM     27  C   UNL     1       5.554  28.841  15.278  1.00  0.00     0.015 C 
BRANCH   7  28
ATOM     28  O   UNL     1      15.009  27.713  13.584  1.00  0.00    -0.393 OA
ATOM     29  H   UNL     1      15.647  26.973  13.755  1.00  0.00     0.210 HD
ENDBRANCH   7  28
BRANCH  25  30
ATOM     30  O   UNL     1       4.181  27.014  13.581  1.00  0.00    -0.462 OA
BRANCH  30  31
ATOM     31  C   UNL     1       3.285  25.989  13.909  1.00  0.00     0.302 C 
ATOM     32  O   UNL     1       3.073  25.033  13.114  1.00  0.00    -0.253 OA
ATOM     33  C   UNL     1       2.524  26.059  15.188  1.00  0.00     0.139 C 
ENDBRANCH  30  31
ENDBRANCH  25  30
ENDBRANCH   2   6
ENDBRANCH   1   2
BRANCH   1  34
ATOM     34  C   UNL     1      17.337  25.714  13.908  1.00  0.00     0.031 C 
BRANCH  34  35
ATOM     35  C   UNL     1      18.506  25.184  14.726  1.00  0.00    -0.075 C 
ATOM     36  C   UNL     1      18.303  24.781  15.995  1.00  0.00     0.008 C 
BRANCH  35  37
ATOM     37  C   UNL     1      19.880  25.058  14.079  1.00  0.00     0.008 C 
ATOM     38  C   UNL     1      19.931  23.840  13.152  1.00  0.00     0.012 C 
ATOM     39  C   UNL     1      21.013  25.010  15.112  1.00  0.00     0.012 C 
ENDBRANCH  35  37
ENDBRANCH  34  35
ENDBRANCH   1  34
TORSDOF 9
ENDMDL
MODEL 7
REMARK VINA RESULT:    -3.876      2.338      9.990
REMARK INTER + INTRA:          -4.763
REMARK INTER:                  -5.470
REMARK INTRA:                   0.707
REMARK UNBOUND:                 1.039
REMARK SMILES C=C(CC[C@@H](C(=O)[O-])[C@@H]1[C@H](O)C[C@@]2(C)C3=C(CC[C@@]12C)[C@]1(C)CC[C@@H](OC(C)=O)C(C)(C)[C@H]1CC3)C(C)C
REMARK SMILES IDX 4 1 5 2 6 3 7 4 8 5 9 6 10 7 19 8 12 9 13 10 18 11 20 12
REMARK SMILES IDX 14 13 15 14 17 15 16 16 35 17 21 18 34 19 33 20 23 21 22 22
REMARK SMILES IDX 30 23 24 24 25 25 31 26 32 27 11 28 26 30 27 31 29 32 28 33
REMARK SMILES IDX 3 34 2 35 1 36 36 37 37 38 38 39
REMARK H PARENT 11 29
REMARK Flexibility Score: inf
ROOT
ATOM      1  C   UNL     1      14.246  26.230  14.834  1.00  0.00     0.014 C 
ENDROOT
BRANCH   1   2
ATOM      2  C   UNL     1      13.490  25.911  13.516  1.00  0.00     0.042 C 
BRANCH   2   3
ATOM      3  C   UNL     1      13.318  24.413  13.401  1.00  0.00     0.045 C 
ATOM      4  O   UNL     1      12.214  23.921  13.047  1.00  0.00    -0.550 OA
ATOM      5  O   UNL     1      14.395  23.566  13.628  1.00  0.00    -0.550 OA
ENDBRANCH   2   3
BRANCH   2   6
ATOM      6  C   UNL     1      12.090  26.617  13.427  1.00  0.00     0.033 C 
ATOM      7  C   UNL     1      12.175  28.045  12.875  1.00  0.00     0.119 C 
ATOM      8  C   UNL     1      11.178  26.731  14.720  1.00  0.00    -0.017 C 
ATOM      9  C   UNL     1      10.819  28.643  13.203  1.00  0.00     0.043 C 
ATOM     10  C   UNL     1      10.451  28.163  14.619  1.00  0.00    -0.003 C 
ATOM     11  C   UNL     1      10.132  25.582  14.680  1.00  0.00     0.012 C 
ATOM     12  C   UNL     1      12.011  26.582  16.039  1.00  0.00     0.013 C 
ATOM     13  C   UNL     1      11.002  29.213  15.643  1.00  0.00     0.017 C 
ATOM     14  C   UNL     1       8.897  28.166  14.763  1.00  0.00    -0.064 C 
ATOM     15  C   UNL     1       8.982  25.853  15.628  1.00  0.00     0.032 C 
ATOM     16  C   UNL     1       8.192  27.048  15.140  1.00  0.00    -0.064 C 
ATOM     17  C   UNL     1       8.183  29.477  14.408  1.00  0.00     0.032 C 
ATOM     18  C   UNL     1       6.643  27.050  15.290  1.00  0.00    -0.008 C 
ATOM     19  C   UNL     1       6.685  29.518  14.697  1.00  0.00     0.009 C 
ATOM     20  C   UNL     1       6.052  28.165  14.346  1.00  0.00     0.009 C 
ATOM     21  C   UNL     1       6.024  25.691  14.846  1.00  0.00     0.015 C 
ATOM     22  C   UNL     1       6.377  27.259  16.810  1.00  0.00     0.016 C 
ATOM     23  C   UNL     1       4.485  28.203  14.114  1.00  0.00     0.005 C 
ATOM     24  C   UNL     1       4.495  25.713  14.764  1.00  0.00     0.047 C 
ATOM     25  C   UNL     1       3.984  26.765  13.774  1.00  0.00     0.182 C 
ATOM     26  C   UNL     1       4.173  29.097  12.880  1.00  0.00     0.015 C 
ATOM     27  C   UNL     1       3.701  28.797  15.313  1.00  0.00     0.015 C 
BRANCH   7  28
ATOM     28  O   UNL     1      13.203  28.761  13.507  1.00  0.00    -0.393 OA
ATOM     29  H   UNL     1      13.307  29.623  13.027  1.00  0.00     0.210 HD
ENDBRANCH   7  28
BRANCH  25  30
ATOM     30  O   UNL     1       2.552  26.703  13.763  1.00  0.00    -0.462 OA
BRANCH  30  31
ATOM     31  C   UNL     1       1.792  25.695  14.368  1.00  0.00     0.302 C 
ATOM     32  O   UNL     1       1.607  25.682  15.616  1.00  0.00    -0.253 OA
ATOM     33  C   UNL     1       1.244  24.587  13.537  1.00  0.00     0.139 C 
ENDBRANCH  30  31
ENDBRANCH  25  30
ENDBRANCH   2   6
ENDBRANCH   1   2
BRANCH   1  34
ATOM     34  C   UNL     1      15.564  27.013  14.631  1.00  0.00     0.031 C 
BRANCH  34  35
ATOM     35  C   UNL     1      16.817  26.156  14.739  1.00  0.00    -0.075 C 
ATOM     36  C   UNL     1      17.131  25.579  15.914  1.00  0.00     0.008 C 
BRANCH  35  37
ATOM     37  C   UNL     1      17.667  25.910  13.497  1.00  0.00     0.008 C 
ATOM     38  C   UNL     1      18.397  24.567  13.601  1.00  0.00     0.012 C 
ATOM     39  C   UNL     1      18.655  27.052  13.227  1.00  0.00     0.012 C 
ENDBRANCH  35  37
ENDBRANCH  34  35
ENDBRANCH   1  34
TORSDOF 9
ENDMDL
MODEL 8
REMARK VINA RESULT:    -3.852      1.712      9.952
REMARK INTER + INTRA:          -4.728
REMARK INTER:                  -7.709
REMARK INTRA:                   2.982
REMARK UNBOUND:                 1.039
REMARK SMILES C=C(CC[C@@H](C(=O)[O-])[C@@H]1[C@H](O)C[C@@]2(C)C3=C(CC[C@@]12C)[C@]1(C)CC[C@@H](OC(C)=O)C(C)(C)[C@H]1CC3)C(C)C
REMARK SMILES IDX 4 1 5 2 6 3 7 4 8 5 9 6 10 7 19 8 12 9 13 10 18 11 20 12
REMARK SMILES IDX 14 13 15 14 17 15 16 16 35 17 21 18 34 19 33 20 23 21 22 22
REMARK SMILES IDX 30 23 24 24 25 25 31 26 32 27 11 28 26 30 27 31 29 32 28 33
REMARK SMILES IDX 3 34 2 35 1 36 36 37 37 38 38 39
REMARK H PARENT 11 29
REMARK Flexibility Score: inf
ROOT
ATOM      1  C   UNL     1      15.581  25.876  13.744  1.00  0.00     0.014 C 
ENDROOT
BRANCH   1   2
ATOM      2  C   UNL     1      15.113  26.344  15.148  1.00  0.00     0.042 C 
BRANCH   2   3
ATOM      3  C   UNL     1      15.433  27.814  15.306  1.00  0.00     0.045 C 
ATOM      4  O   UNL     1      14.524  28.680  15.217  1.00  0.00    -0.550 OA
ATOM      5  O   UNL     1      16.728  28.219  15.608  1.00  0.00    -0.550 OA
ENDBRANCH   2   3
BRANCH   2   6
ATOM      6  C   UNL     1      13.580  26.104  15.394  1.00  0.00     0.033 C 
ATOM      7  C   UNL     1      13.248  24.640  15.707  1.00  0.00     0.119 C 
ATOM      8  C   UNL     1      12.525  26.536  14.292  1.00  0.00    -0.017 C 
ATOM      9  C   UNL     1      11.740  24.569  15.556  1.00  0.00     0.043 C 
ATOM     10  C   UNL     1      11.376  25.409  14.318  1.00  0.00    -0.003 C 
ATOM     11  C   UNL     1      11.943  27.921  14.693  1.00  0.00     0.012 C 
ATOM     12  C   UNL     1      13.181  26.679  12.875  1.00  0.00     0.013 C 
ATOM     13  C   UNL     1      11.403  24.466  13.068  1.00  0.00     0.017 C 
ATOM     14  C   UNL     1       9.908  25.917  14.469  1.00  0.00    -0.064 C 
ATOM     15  C   UNL     1      10.656  28.213  13.947  1.00  0.00     0.032 C 
ATOM     16  C   UNL     1       9.579  27.249  14.396  1.00  0.00    -0.064 C 
ATOM     17  C   UNL     1       8.845  24.848  14.757  1.00  0.00     0.032 C 
ATOM     18  C   UNL     1       8.115  27.757  14.540  1.00  0.00    -0.008 C 
ATOM     19  C   UNL     1       7.397  25.331  14.750  1.00  0.00     0.009 C 
ATOM     20  C   UNL     1       7.309  26.716  15.406  1.00  0.00     0.009 C 
ATOM     21  C   UNL     1       8.055  29.124  15.284  1.00  0.00     0.015 C 
ATOM     22  C   UNL     1       7.601  27.947  13.082  1.00  0.00     0.016 C 
ATOM     23  C   UNL     1       5.866  27.120  15.919  1.00  0.00     0.005 C 
ATOM     24  C   UNL     1       6.633  29.561  15.646  1.00  0.00     0.047 C 
ATOM     25  C   UNL     1       5.928  28.545  16.551  1.00  0.00     0.182 C 
ATOM     26  C   UNL     1       5.432  26.140  17.047  1.00  0.00     0.015 C 
ATOM     27  C   UNL     1       4.780  27.048  14.814  1.00  0.00     0.015 C 
BRANCH   7  28
ATOM     28  O   UNL     1      13.883  23.781  14.797  1.00  0.00    -0.393 OA
ATOM     29  H   UNL     1      14.137  24.320  14.004  1.00  0.00     0.210 HD
ENDBRANCH   7  28
BRANCH  25  30
ATOM     30  O   UNL     1       4.616  29.043  16.838  1.00  0.00    -0.462 OA
BRANCH  30  31
ATOM     31  C   UNL     1       3.747  29.598  15.890  1.00  0.00     0.302 C 
ATOM     32  O   UNL     1       4.178  30.005  14.777  1.00  0.00    -0.253 OA
ATOM     33  C   UNL     1       2.305  29.767  16.222  1.00  0.00     0.139 C 
ENDBRANCH  30  31
ENDBRANCH  25  30
ENDBRANCH   2   6
ENDBRANCH   1   2
BRANCH   1  34
ATOM     34  C   UNL     1      17.117  25.778  13.592  1.00  0.00     0.031 C 
BRANCH  34  35
ATOM     35  C   UNL     1      17.766  24.755  14.513  1.00  0.00    -0.075 C 
ATOM     36  C   UNL     1      17.886  25.023  15.827  1.00  0.00     0.008 C 
BRANCH  35  37
ATOM     37  C   UNL     1      18.218  23.414  13.946  1.00  0.00     0.008 C 
ATOM     38  C   UNL     1      17.050  22.423  13.910  1.00  0.00     0.012 C 
ATOM     39  C   UNL     1      19.412  22.826  14.709  1.00  0.00     0.012 C 
ENDBRANCH  35  37
ENDBRANCH  34  35
ENDBRANCH   1  34
TORSDOF 9
ENDMDL
