MODEL 1
REMARK VINA RESULT:     5.927      0.000      0.000
REMARK INTER + INTRA:          11.106
REMARK INTER:                  10.777
REMARK INTRA:                   0.329
REMARK UNBOUND:                 0.329
REMARK SMILES CCCCCCCCCCCCCCCC(=O)[O-]
REMARK SMILES IDX 9 1 10 2 11 3 12 4 13 5 14 6 15 7 16 8 17 9 18 10 8 11 7 12
REMARK SMILES IDX 6 13 5 14 4 15 3 16 2 17 1 18
REMARK H PARENT
REMARK Flexibility Score: inf
ROOT
ATOM      1  C   UNL     1      89.124  82.824  19.976  1.00  0.00     0.000 C 
ENDROOT
BRANCH   1   2
ATOM      2  C   UNL     1      89.206  84.153  19.205  1.00  0.00     0.000 C 
BRANCH   2   3
ATOM      3  C   UNL     1      90.650  84.550  18.846  1.00  0.00     0.000 C 
BRANCH   3   4
ATOM      4  C   UNL     1      90.894  86.062  18.694  1.00  0.00     0.000 C 
BRANCH   4   5
ATOM      5  C   UNL     1      92.382  86.414  18.531  1.00  0.00     0.000 C 
BRANCH   5   6
ATOM      6  C   UNL     1      92.608  87.634  17.619  1.00  0.00     0.006 C 
BRANCH   6   7
ATOM      7  C   UNL     1      92.493  87.325  16.117  1.00  0.00     0.053 C 
BRANCH   7   8
ATOM      8  C   UNL     1      91.122  87.609  15.588  1.00  0.00     0.041 C 
ATOM      9  O   UNL     1      90.215  88.015  16.362  1.00  0.00    -0.550 OA
ATOM     10  O   UNL     1      90.855  87.461  14.233  1.00  0.00    -0.550 OA
ENDBRANCH   7   8
ENDBRANCH   6   7
ENDBRANCH   5   6
ENDBRANCH   4   5
ENDBRANCH   3   4
ENDBRANCH   2   3
ENDBRANCH   1   2
BRANCH   1  11
ATOM     11  C   UNL     1      88.768  81.630  19.071  1.00  0.00     0.000 C 
BRANCH  11  12
ATOM     12  C   UNL     1      87.504  81.814  18.206  1.00  0.00    -0.000 C 
BRANCH  12  13
ATOM     13  C   UNL     1      86.232  81.137  18.752  1.00  0.00    -0.000 C 
BRANCH  13  14
ATOM     14  C   UNL     1      85.294  82.066  19.542  1.00  0.00    -0.000 C 
BRANCH  14  15
ATOM     15  C   UNL     1      84.075  81.327  20.124  1.00  0.00    -0.000 C 
BRANCH  15  16
ATOM     16  C   UNL     1      83.061  80.926  19.033  1.00  0.00    -0.000 C 
BRANCH  16  17
ATOM     17  C   UNL     1      82.882  81.993  17.939  1.00  0.00    -0.003 C 
ATOM     18  C   UNL     1      83.069  83.418  18.457  1.00  0.00     0.004 C 
ENDBRANCH  16  17
ENDBRANCH  15  16
ENDBRANCH  14  15
ENDBRANCH  13  14
ENDBRANCH  12  13
ENDBRANCH  11  12
ENDBRANCH   1  11
TORSDOF 14
ENDMDL
MODEL 2
REMARK VINA RESULT:     8.293     15.500     19.458
REMARK INTER + INTRA:          15.410
REMARK INTER:                  15.945
REMARK INTRA:                  -0.535
REMARK UNBOUND:                 0.329
REMARK SMILES CCCCCCCCCCCCCCCC(=O)[O-]
REMARK SMILES IDX 9 1 10 2 11 3 12 4 13 5 14 6 15 7 16 8 17 9 18 10 8 11 7 12
REMARK SMILES IDX 6 13 5 14 4 15 3 16 2 17 1 18
REMARK H PARENT
REMARK Flexibility Score: inf
ROOT
ATOM      1  C   UNL     1      98.866  95.679  10.972  1.00  0.00     0.000 C 
ENDROOT
BRANCH   1   2
ATOM      2  C   UNL     1      98.330  95.472  12.399  1.00  0.00     0.000 C 
BRANCH   2   3
ATOM      3  C   UNL     1      98.357  93.998  12.842  1.00  0.00     0.000 C 
BRANCH   3   4
ATOM      4  C   UNL     1      98.654  93.769  14.335  1.00  0.00     0.000 C 
BRANCH   4   5
ATOM      5  C   UNL     1      98.706  95.078  15.141  1.00  0.00     0.000 C 
BRANCH   5   6
ATOM      6  C   UNL     1      99.828  95.083  16.196  1.00  0.00     0.006 C 
BRANCH   6   7
ATOM      7  C   UNL     1      99.419  95.696  17.546  1.00  0.00     0.053 C 
BRANCH   7   8
ATOM      8  C   UNL     1      99.820  97.134  17.655  1.00  0.00     0.041 C 
ATOM      9  O   UNL     1     101.028  97.466  17.528  1.00  0.00    -0.550 OA
ATOM     10  O   UNL     1      98.855  98.112  17.860  1.00  0.00    -0.550 OA
ENDBRANCH   7   8
ENDBRANCH   6   7
ENDBRANCH   5   6
ENDBRANCH   4   5
ENDBRANCH   3   4
ENDBRANCH   2   3
ENDBRANCH   1   2
BRANCH   1  11
ATOM     11  C   UNL     1     100.170  94.903  10.706  1.00  0.00     0.000 C 
BRANCH  11  12
ATOM     12  C   UNL     1     101.296  95.718  10.039  1.00  0.00    -0.000 C 
BRANCH  12  13
ATOM     13  C   UNL     1     101.871  96.865  10.894  1.00  0.00    -0.000 C 
BRANCH  13  14
ATOM     14  C   UNL     1     101.722  98.267  10.277  1.00  0.00    -0.000 C 
BRANCH  14  15
ATOM     15  C   UNL     1     100.377  98.931  10.624  1.00  0.00    -0.000 C 
BRANCH  15  16
ATOM     16  C   UNL     1     100.503 100.462  10.764  1.00  0.00    -0.000 C 
BRANCH  16  17
ATOM     17  C   UNL     1     101.262 101.125   9.602  1.00  0.00    -0.003 C 
ATOM     18  C   UNL     1     102.779 101.088   9.779  1.00  0.00     0.004 C 
ENDBRANCH  16  17
ENDBRANCH  15  16
ENDBRANCH  14  15
ENDBRANCH  13  14
ENDBRANCH  12  13
ENDBRANCH  11  12
ENDBRANCH   1  11
TORSDOF 14
ENDMDL
