MODEL 1
REMARK VINA RESULT:    -4.045      0.000      0.000
REMARK INTER + INTRA:          -7.104
REMARK INTER:                  -6.173
REMARK INTRA:                  -0.931
REMARK UNBOUND:                -0.931
REMARK SMILES O=C([O-])CCCCCCCCC(=O)[O-]
REMARK SMILES IDX 7 1 6 2 5 3 4 4 2 5 1 6 3 7 8 8 9 9 10 10 11 11 12 12 13 13
REMARK SMILES IDX 14 14
REMARK H PARENT
REMARK Flexibility Score: inf
ROOT
ATOM      1  C   UNL     1      -1.622  43.368  21.757  1.00  0.00     0.000 C 
ENDROOT
BRANCH   1   2
ATOM      2  C   UNL     1      -0.135  43.645  22.020  1.00  0.00     0.000 C 
BRANCH   2   3
ATOM      3  C   UNL     1       0.250  43.459  23.495  1.00  0.00     0.006 C 
BRANCH   3   4
ATOM      4  C   UNL     1      -0.890  43.821  24.455  1.00  0.00     0.053 C 
BRANCH   4   5
ATOM      5  C   UNL     1      -1.262  42.638  25.293  1.00  0.00     0.041 C 
ATOM      6  O   UNL     1      -1.870  42.800  26.383  1.00  0.00    -0.550 OA
ATOM      7  O   UNL     1      -0.979  41.354  24.847  1.00  0.00    -0.550 OA
ENDBRANCH   4   5
ENDBRANCH   3   4
ENDBRANCH   2   3
ENDBRANCH   1   2
BRANCH   1   8
ATOM      8  C   UNL     1      -2.181  44.331  20.699  1.00  0.00     0.000 C 
BRANCH   8   9
ATOM      9  C   UNL     1      -3.477  45.031  21.149  1.00  0.00     0.000 C 
BRANCH   9  10
ATOM     10  C   UNL     1      -3.432  45.642  22.564  1.00  0.00     0.006 C 
BRANCH  10  11
ATOM     11  C   UNL     1      -4.741  45.506  23.359  1.00  0.00     0.053 C 
BRANCH  11  12
ATOM     12  C   UNL     1      -4.586  44.599  24.541  1.00  0.00     0.041 C 
ATOM     13  O   UNL     1      -4.299  45.074  25.671  1.00  0.00    -0.550 OA
ATOM     14  O   UNL     1      -4.728  43.226  24.387  1.00  0.00    -0.550 OA
ENDBRANCH  11  12
ENDBRANCH  10  11
ENDBRANCH   9  10
ENDBRANCH   8   9
ENDBRANCH   1   8
TORSDOF 9
ENDMDL
MODEL 2
REMARK VINA RESULT:    -4.011      1.969      3.109
REMARK INTER + INTRA:          -7.052
REMARK INTER:                  -6.416
REMARK INTRA:                  -0.637
REMARK UNBOUND:                -0.931
REMARK SMILES O=C([O-])CCCCCCCCC(=O)[O-]
REMARK SMILES IDX 7 1 6 2 5 3 4 4 2 5 1 6 3 7 8 8 9 9 10 10 11 11 12 12 13 13
REMARK SMILES IDX 14 14
REMARK H PARENT
REMARK Flexibility Score: inf
ROOT
ATOM      1  C   UNL     1      -1.668  44.290  21.346  1.00  0.00     0.000 C 
ENDROOT
BRANCH   1   2
ATOM      2  C   UNL     1      -0.610  43.873  22.378  1.00  0.00     0.000 C 
BRANCH   2   3
ATOM      3  C   UNL     1      -1.064  44.119  23.825  1.00  0.00     0.006 C 
BRANCH   3   4
ATOM      4  C   UNL     1      -2.366  44.927  23.908  1.00  0.00     0.053 C 
BRANCH   4   5
ATOM      5  C   UNL     1      -3.378  44.201  24.738  1.00  0.00     0.041 C 
ATOM      6  O   UNL     1      -4.067  44.827  25.586  1.00  0.00    -0.550 OA
ATOM      7  O   UNL     1      -3.594  42.844  24.541  1.00  0.00    -0.550 OA
ENDBRANCH   4   5
ENDBRANCH   3   4
ENDBRANCH   2   3
ENDBRANCH   1   2
BRANCH   1   8
ATOM      8  C   UNL     1      -1.358  43.687  19.968  1.00  0.00     0.000 C 
BRANCH   8   9
ATOM      9  C   UNL     1      -2.202  44.306  18.838  1.00  0.00     0.000 C 
BRANCH   9  10
ATOM     10  C   UNL     1      -3.439  45.100  19.305  1.00  0.00     0.006 C 
BRANCH  10  11
ATOM     11  C   UNL     1      -4.772  44.351  19.154  1.00  0.00     0.053 C 
BRANCH  11  12
ATOM     12  C   UNL     1      -5.200  43.704  20.436  1.00  0.00     0.041 C 
ATOM     13  O   UNL     1      -5.684  42.543  20.428  1.00  0.00    -0.550 OA
ATOM     14  O   UNL     1      -5.094  44.399  21.634  1.00  0.00    -0.550 OA
ENDBRANCH  11  12
ENDBRANCH  10  11
ENDBRANCH   9  10
ENDBRANCH   8   9
ENDBRANCH   1   8
TORSDOF 9
ENDMDL
MODEL 3
REMARK VINA RESULT:    -4.007      2.111      4.190
REMARK INTER + INTRA:          -7.045
REMARK INTER:                  -6.358
REMARK INTRA:                  -0.687
REMARK UNBOUND:                -0.931
REMARK SMILES O=C([O-])CCCCCCCCC(=O)[O-]
REMARK SMILES IDX 7 1 6 2 5 3 4 4 2 5 1 6 3 7 8 8 9 9 10 10 11 11 12 12 13 13
REMARK SMILES IDX 14 14
REMARK H PARENT
REMARK Flexibility Score: inf
ROOT
ATOM      1  C   UNL     1      -0.275  43.543  22.505  1.00  0.00     0.000 C 
ENDROOT
BRANCH   1   2
ATOM      2  C   UNL     1      -1.077  43.807  21.222  1.00  0.00     0.000 C 
BRANCH   2   3
ATOM      3  C   UNL     1      -2.334  44.653  21.473  1.00  0.00     0.006 C 
BRANCH   3   4
ATOM      4  C   UNL     1      -3.126  44.932  20.190  1.00  0.00     0.053 C 
BRANCH   4   5
ATOM      5  C   UNL     1      -4.505  44.359  20.293  1.00  0.00     0.041 C 
ATOM      6  O   UNL     1      -5.114  43.982  19.257  1.00  0.00    -0.550 OA
ATOM      7  O   UNL     1      -5.099  44.197  21.537  1.00  0.00    -0.550 OA
ENDBRANCH   4   5
ENDBRANCH   3   4
ENDBRANCH   2   3
ENDBRANCH   1   2
BRANCH   1   8
ATOM      8  C   UNL     1      -0.935  44.222  23.714  1.00  0.00     0.000 C 
BRANCH   8   9
ATOM      9  C   UNL     1      -0.938  43.335  24.974  1.00  0.00     0.000 C 
BRANCH   9  10
ATOM     10  C   UNL     1      -2.314  43.161  25.647  1.00  0.00     0.006 C 
BRANCH  10  11
ATOM     11  C   UNL     1      -3.507  43.602  24.784  1.00  0.00     0.053 C 
BRANCH  11  12
ATOM     12  C   UNL     1      -4.020  44.951  25.184  1.00  0.00     0.041 C 
ATOM     13  O   UNL     1      -4.400  45.160  26.366  1.00  0.00    -0.550 OA
ATOM     14  O   UNL     1      -4.109  45.968  24.243  1.00  0.00    -0.550 OA
ENDBRANCH  11  12
ENDBRANCH  10  11
ENDBRANCH   9  10
ENDBRANCH   8   9
ENDBRANCH   1   8
TORSDOF 9
ENDMDL
MODEL 4
REMARK VINA RESULT:    -3.994      2.514      4.372
REMARK INTER + INTRA:          -7.026
REMARK INTER:                  -6.020
REMARK INTRA:                  -1.007
REMARK UNBOUND:                -0.931
REMARK SMILES O=C([O-])CCCCCCCCC(=O)[O-]
REMARK SMILES IDX 7 1 6 2 5 3 4 4 2 5 1 6 3 7 8 8 9 9 10 10 11 11 12 12 13 13
REMARK SMILES IDX 14 14
REMARK H PARENT
REMARK Flexibility Score: inf
ROOT
ATOM      1  C   UNL     1      -2.149  44.178  19.850  1.00  0.00     0.000 C 
ENDROOT
BRANCH   1   2
ATOM      2  C   UNL     1      -3.431  45.023  19.883  1.00  0.00     0.000 C 
BRANCH   2   3
ATOM      3  C   UNL     1      -4.652  44.267  19.339  1.00  0.00     0.006 C 
BRANCH   3   4
ATOM      4  C   UNL     1      -5.538  43.692  20.451  1.00  0.00     0.053 C 
BRANCH   4   5
ATOM      5  C   UNL     1      -5.313  42.219  20.589  1.00  0.00     0.041 C 
ATOM      6  O   UNL     1      -5.062  41.518  19.573  1.00  0.00    -0.550 OA
ATOM      7  O   UNL     1      -5.334  41.627  21.845  1.00  0.00    -0.550 OA
ENDBRANCH   4   5
ENDBRANCH   3   4
ENDBRANCH   2   3
ENDBRANCH   1   2
BRANCH   1   8
ATOM      8  C   UNL     1      -1.467  44.162  21.226  1.00  0.00     0.000 C 
BRANCH   8   9
ATOM      9  C   UNL     1      -2.221  43.306  22.261  1.00  0.00     0.000 C 
BRANCH   9  10
ATOM     10  C   UNL     1      -2.543  44.020  23.590  1.00  0.00     0.006 C 
BRANCH  10  11
ATOM     11  C   UNL     1      -2.707  45.544  23.472  1.00  0.00     0.053 C 
BRANCH  11  12
ATOM     12  C   UNL     1      -4.147  45.952  23.440  1.00  0.00     0.041 C 
ATOM     13  O   UNL     1      -5.053  45.097  23.622  1.00  0.00    -0.550 OA
ATOM     14  O   UNL     1      -4.490  47.272  23.175  1.00  0.00    -0.550 OA
ENDBRANCH  11  12
ENDBRANCH  10  11
ENDBRANCH   9  10
ENDBRANCH   8   9
ENDBRANCH   1   8
TORSDOF 9
ENDMDL
MODEL 5
REMARK VINA RESULT:    -3.988      0.681      3.797
REMARK INTER + INTRA:          -7.017
REMARK INTER:                  -6.144
REMARK INTRA:                  -0.873
REMARK UNBOUND:                -0.931
REMARK SMILES O=C([O-])CCCCCCCCC(=O)[O-]
REMARK SMILES IDX 7 1 6 2 5 3 4 4 2 5 1 6 3 7 8 8 9 9 10 10 11 11 12 12 13 13
REMARK SMILES IDX 14 14
REMARK H PARENT
REMARK Flexibility Score: inf
ROOT
ATOM      1  C   UNL     1      -2.809  43.794  21.380  1.00  0.00     0.000 C 
ENDROOT
BRANCH   1   2
ATOM      2  C   UNL     1      -3.627  45.078  21.184  1.00  0.00     0.000 C 
BRANCH   2   3
ATOM      3  C   UNL     1      -3.722  45.921  22.464  1.00  0.00     0.006 C 
BRANCH   3   4
ATOM      4  C   UNL     1      -4.990  45.628  23.275  1.00  0.00     0.053 C 
BRANCH   4   5
ATOM      5  C   UNL     1      -4.680  44.713  24.418  1.00  0.00     0.041 C 
ATOM      6  O   UNL     1      -4.799  43.467  24.282  1.00  0.00    -0.550 OA
ATOM      7  O   UNL     1      -4.212  45.234  25.617  1.00  0.00    -0.550 OA
ENDBRANCH   4   5
ENDBRANCH   3   4
ENDBRANCH   2   3
ENDBRANCH   1   2
BRANCH   1   8
ATOM      8  C   UNL     1      -1.327  44.032  21.054  1.00  0.00     0.000 C 
BRANCH   8   9
ATOM      9  C   UNL     1      -0.389  43.672  22.222  1.00  0.00     0.000 C 
BRANCH   9  10
ATOM     10  C   UNL     1      -0.845  44.177  23.606  1.00  0.00     0.006 C 
BRANCH  10  11
ATOM     11  C   UNL     1      -0.463  43.258  24.777  1.00  0.00     0.053 C 
BRANCH  11  12
ATOM     12  C   UNL     1      -1.615  42.410  25.223  1.00  0.00     0.041 C 
ATOM     13  O   UNL     1      -2.159  42.617  26.339  1.00  0.00    -0.550 OA
ATOM     14  O   UNL     1      -2.065  41.371  24.420  1.00  0.00    -0.550 OA
ENDBRANCH  11  12
ENDBRANCH  10  11
ENDBRANCH   9  10
ENDBRANCH   8   9
ENDBRANCH   1   8
TORSDOF 9
ENDMDL
MODEL 6
REMARK VINA RESULT:    -3.959      2.288      3.131
REMARK INTER + INTRA:          -6.973
REMARK INTER:                  -6.238
REMARK INTRA:                  -0.735
REMARK UNBOUND:                -0.931
REMARK SMILES O=C([O-])CCCCCCCCC(=O)[O-]
REMARK SMILES IDX 7 1 6 2 5 3 4 4 2 5 1 6 3 7 8 8 9 9 10 10 11 11 12 12 13 13
REMARK SMILES IDX 14 14
REMARK H PARENT
REMARK Flexibility Score: inf
ROOT
ATOM      1  C   UNL     1      -3.194  45.069  21.061  1.00  0.00     0.000 C 
ENDROOT
BRANCH   1   2
ATOM      2  C   UNL     1      -1.870  44.312  21.242  1.00  0.00     0.000 C 
BRANCH   2   3
ATOM      3  C   UNL     1      -1.441  44.213  22.714  1.00  0.00     0.006 C 
BRANCH   3   4
ATOM      4  C   UNL     1      -2.323  45.052  23.646  1.00  0.00     0.053 C 
BRANCH   4   5
ATOM      5  C   UNL     1      -2.855  44.208  24.762  1.00  0.00     0.041 C 
ATOM      6  O   UNL     1      -2.077  43.476  25.428  1.00  0.00    -0.550 OA
ATOM      7  O   UNL     1      -4.201  44.267  25.097  1.00  0.00    -0.550 OA
ENDBRANCH   4   5
ENDBRANCH   3   4
ENDBRANCH   2   3
ENDBRANCH   1   2
BRANCH   1   8
ATOM      8  C   UNL     1      -3.578  45.156  19.576  1.00  0.00     0.000 C 
BRANCH   8   9
ATOM      9  C   UNL     1      -4.684  44.160  19.182  1.00  0.00     0.000 C 
BRANCH   9  10
ATOM     10  C   UNL     1      -5.502  43.591  20.359  1.00  0.00     0.006 C 
BRANCH  10  11
ATOM     11  C   UNL     1      -5.521  42.057  20.440  1.00  0.00     0.053 C 
BRANCH  11  12
ATOM     12  C   UNL     1      -5.302  41.567  21.838  1.00  0.00     0.041 C 
ATOM     13  O   UNL     1      -4.393  42.068  22.550  1.00  0.00    -0.550 OA
ATOM     14  O   UNL     1      -6.081  40.533  22.342  1.00  0.00    -0.550 OA
ENDBRANCH  11  12
ENDBRANCH  10  11
ENDBRANCH   9  10
ENDBRANCH   8   9
ENDBRANCH   1   8
TORSDOF 9
ENDMDL
MODEL 7
REMARK VINA RESULT:    -3.951      2.654      3.251
REMARK INTER + INTRA:          -6.960
REMARK INTER:                  -6.424
REMARK INTRA:                  -0.536
REMARK UNBOUND:                -0.931
REMARK SMILES O=C([O-])CCCCCCCCC(=O)[O-]
REMARK SMILES IDX 7 1 6 2 5 3 4 4 2 5 1 6 3 7 8 8 9 9 10 10 11 11 12 12 13 13
REMARK SMILES IDX 14 14
REMARK H PARENT
REMARK Flexibility Score: inf
ROOT
ATOM      1  C   UNL     1      -1.111  44.201  23.752  1.00  0.00     0.000 C 
ENDROOT
BRANCH   1   2
ATOM      2  C   UNL     1       0.282  43.612  24.017  1.00  0.00     0.000 C 
BRANCH   2   3
ATOM      3  C   UNL     1       1.123  43.484  22.738  1.00  0.00     0.006 C 
BRANCH   3   4
ATOM      4  C   UNL     1       2.561  43.030  23.017  1.00  0.00     0.053 C 
BRANCH   4   5
ATOM      5  C   UNL     1       3.464  44.215  23.162  1.00  0.00     0.041 C 
ATOM      6  O   UNL     1       3.845  44.849  22.144  1.00  0.00    -0.550 OA
ATOM      7  O   UNL     1       3.845  44.647  24.426  1.00  0.00    -0.550 OA
ENDBRANCH   4   5
ENDBRANCH   3   4
ENDBRANCH   2   3
ENDBRANCH   1   2
BRANCH   1   8
ATOM      8  C   UNL     1      -1.438  44.187  22.252  1.00  0.00     0.000 C 
BRANCH   8   9
ATOM      9  C   UNL     1      -2.792  44.845  21.925  1.00  0.00     0.000 C 
BRANCH   9  10
ATOM     10  C   UNL     1      -3.317  45.825  22.994  1.00  0.00     0.006 C 
BRANCH  10  11
ATOM     11  C   UNL     1      -4.713  45.485  23.539  1.00  0.00     0.053 C 
BRANCH  11  12
ATOM     12  C   UNL     1      -4.646  44.553  24.710  1.00  0.00     0.041 C 
ATOM     13  O   UNL     1      -4.455  45.005  25.869  1.00  0.00    -0.550 OA
ATOM     14  O   UNL     1      -4.761  43.183  24.516  1.00  0.00    -0.550 OA
ENDBRANCH  11  12
ENDBRANCH  10  11
ENDBRANCH   9  10
ENDBRANCH   8   9
ENDBRANCH   1   8
TORSDOF 9
ENDMDL
MODEL 8
REMARK VINA RESULT:    -3.848      3.084      4.940
REMARK INTER + INTRA:          -6.803
REMARK INTER:                  -6.166
REMARK INTRA:                  -0.637
REMARK UNBOUND:                -0.931
REMARK SMILES O=C([O-])CCCCCCCCC(=O)[O-]
REMARK SMILES IDX 7 1 6 2 5 3 4 4 2 5 1 6 3 7 8 8 9 9 10 10 11 11 12 12 13 13
REMARK SMILES IDX 14 14
REMARK H PARENT
REMARK Flexibility Score: inf
ROOT
ATOM      1  C   UNL     1      -1.625  44.179  20.677  1.00  0.00     0.000 C 
ENDROOT
BRANCH   1   2
ATOM      2  C   UNL     1      -3.038  44.752  20.853  1.00  0.00     0.000 C 
BRANCH   2   3
ATOM      3  C   UNL     1      -3.629  45.286  19.540  1.00  0.00     0.006 C 
BRANCH   3   4
ATOM      4  C   UNL     1      -4.702  44.360  18.953  1.00  0.00     0.053 C 
BRANCH   4   5
ATOM      5  C   UNL     1      -4.090  43.406  17.976  1.00  0.00     0.041 C 
ATOM      6  O   UNL     1      -4.055  42.173  18.231  1.00  0.00    -0.550 OA
ATOM      7  O   UNL     1      -3.603  43.871  16.762  1.00  0.00    -0.550 OA
ENDBRANCH   4   5
ENDBRANCH   3   4
ENDBRANCH   2   3
ENDBRANCH   1   2
BRANCH   1   8
ATOM      8  C   UNL     1      -0.988  43.859  22.037  1.00  0.00     0.000 C 
BRANCH   8   9
ATOM      9  C   UNL     1      -1.669  44.594  23.207  1.00  0.00     0.000 C 
BRANCH   9  10
ATOM     10  C   UNL     1      -2.162  43.685  24.351  1.00  0.00     0.006 C 
BRANCH  10  11
ATOM     11  C   UNL     1      -3.682  43.457  24.375  1.00  0.00     0.053 C 
BRANCH  11  12
ATOM     12  C   UNL     1      -4.433  44.720  24.663  1.00  0.00     0.041 C 
ATOM     13  O   UNL     1      -5.111  45.275  23.759  1.00  0.00    -0.550 OA
ATOM     14  O   UNL     1      -4.357  45.303  25.922  1.00  0.00    -0.550 OA
ENDBRANCH  11  12
ENDBRANCH  10  11
ENDBRANCH   9  10
ENDBRANCH   8   9
ENDBRANCH   1   8
TORSDOF 9
ENDMDL
MODEL 9
REMARK VINA RESULT:    -3.824      3.459      4.748
REMARK INTER + INTRA:          -6.767
REMARK INTER:                  -6.081
REMARK INTRA:                  -0.686
REMARK UNBOUND:                -0.931
REMARK SMILES O=C([O-])CCCCCCCCC(=O)[O-]
REMARK SMILES IDX 7 1 6 2 5 3 4 4 2 5 1 6 3 7 8 8 9 9 10 10 11 11 12 12 13 13
REMARK SMILES IDX 14 14
REMARK H PARENT
REMARK Flexibility Score: inf
ROOT
ATOM      1  C   UNL     1      -2.163  44.008  20.966  1.00  0.00     0.000 C 
ENDROOT
BRANCH   1   2
ATOM      2  C   UNL     1      -1.378  44.192  22.273  1.00  0.00     0.000 C 
BRANCH   2   3
ATOM      3  C   UNL     1      -2.170  44.968  23.335  1.00  0.00     0.006 C 
BRANCH   3   4
ATOM      4  C   UNL     1      -2.678  44.069  24.469  1.00  0.00     0.053 C 
BRANCH   4   5
ATOM      5  C   UNL     1      -4.140  43.798  24.307  1.00  0.00     0.041 C 
ATOM      6  O   UNL     1      -4.988  44.519  24.896  1.00  0.00    -0.550 OA
ATOM      7  O   UNL     1      -4.569  42.778  23.466  1.00  0.00    -0.550 OA
ENDBRANCH   4   5
ENDBRANCH   3   4
ENDBRANCH   2   3
ENDBRANCH   1   2
BRANCH   1   8
ATOM      8  C   UNL     1      -3.292  45.042  20.853  1.00  0.00     0.000 C 
BRANCH   8   9
ATOM      9  C   UNL     1      -3.666  45.368  19.395  1.00  0.00     0.000 C 
BRANCH   9  10
ATOM     10  C   UNL     1      -4.605  44.349  18.717  1.00  0.00     0.006 C 
BRANCH  10  11
ATOM     11  C   UNL     1      -4.211  43.977  17.279  1.00  0.00     0.053 C 
BRANCH  11  12
ATOM     12  C   UNL     1      -2.921  43.216  17.230  1.00  0.00     0.041 C 
ATOM     13  O   UNL     1      -1.981  43.610  16.493  1.00  0.00    -0.550 OA
ATOM     14  O   UNL     1      -2.773  42.053  17.975  1.00  0.00    -0.550 OA
ENDBRANCH  11  12
ENDBRANCH  10  11
ENDBRANCH   9  10
ENDBRANCH   8   9
ENDBRANCH   1   8
TORSDOF 9
ENDMDL
