MODEL 1
REMARK VINA RESULT:    -4.354      0.000      0.000
REMARK INTER + INTRA:          -5.681
REMARK INTER:                  -5.372
REMARK INTRA:                  -0.309
REMARK UNBOUND:                -0.309
REMARK SMILES C=CC[C@H](C)C(=O)CC
REMARK SMILES IDX 4 1 5 2 6 3 7 4 8 5 9 6 3 7 2 8 1 9
REMARK H PARENT
REMARK Flexibility Score: inf
ROOT
ATOM      1  C   UNL     1      18.719  -9.510  67.662  1.00  0.00     0.057 C 
ATOM      2  C   UNL     1      19.674  -9.799  66.499  1.00  0.00     0.016 C 
ENDROOT
BRANCH   1   3
ATOM      3  C   UNL     1      19.134 -10.310  68.881  1.00  0.00     0.135 C 
ATOM      4  O   UNL     1      19.477  -9.728  69.900  1.00  0.00    -0.299 OA
BRANCH   3   5
ATOM      5  C   UNL     1      19.115 -11.817  68.868  1.00  0.00     0.072 C 
ATOM      6  C   UNL     1      20.488 -12.383  69.216  1.00  0.00     0.012 C 
ENDBRANCH   3   5
ENDBRANCH   1   3
BRANCH   1   7
ATOM      7  C   UNL     1      17.263  -9.823  67.257  1.00  0.00     0.038 C 
BRANCH   7   8
ATOM      8  C   UNL     1      17.167 -10.373  65.859  1.00  0.00    -0.034 C 
ATOM      9  C   UNL     1      16.280 -11.318  65.532  1.00  0.00     0.004 C 
ENDBRANCH   7   8
ENDBRANCH   1   7
TORSDOF 4
ENDMDL
MODEL 2
REMARK VINA RESULT:    -3.972     15.485     17.080
REMARK INTER + INTRA:          -5.210
REMARK INTER:                  -4.750
REMARK INTRA:                  -0.460
REMARK UNBOUND:                -0.309
REMARK SMILES C=CC[C@H](C)C(=O)CC
REMARK SMILES IDX 4 1 5 2 6 3 7 4 8 5 9 6 3 7 2 8 1 9
REMARK H PARENT
REMARK Flexibility Score: inf
ROOT
ATOM      1  C   UNL     1       6.291  -7.802  55.915  1.00  0.00     0.057 C 
ATOM      2  C   UNL     1       6.620  -7.764  54.419  1.00  0.00     0.016 C 
ENDROOT
BRANCH   1   3
ATOM      3  C   UNL     1       6.426  -9.218  56.437  1.00  0.00     0.135 C 
ATOM      4  O   UNL     1       5.851 -10.133  55.864  1.00  0.00    -0.299 OA
BRANCH   3   5
ATOM      5  C   UNL     1       7.272  -9.526  57.646  1.00  0.00     0.072 C 
ATOM      6  C   UNL     1       6.568  -9.100  58.929  1.00  0.00     0.012 C 
ENDBRANCH   3   5
ENDBRANCH   1   3
BRANCH   1   7
ATOM      7  C   UNL     1       4.875  -7.244  56.171  1.00  0.00     0.038 C 
BRANCH   7   8
ATOM      8  C   UNL     1       4.875  -6.140  57.194  1.00  0.00    -0.034 C 
ATOM      9  C   UNL     1       6.010  -5.593  57.641  1.00  0.00     0.004 C 
ENDBRANCH   7   8
ENDBRANCH   1   7
TORSDOF 4
ENDMDL
MODEL 3
REMARK VINA RESULT:    -3.799      2.972      4.759
REMARK INTER + INTRA:          -4.997
REMARK INTER:                  -4.593
REMARK INTRA:                  -0.403
REMARK UNBOUND:                -0.309
REMARK SMILES C=CC[C@H](C)C(=O)CC
REMARK SMILES IDX 4 1 5 2 6 3 7 4 8 5 9 6 3 7 2 8 1 9
REMARK H PARENT
REMARK Flexibility Score: inf
ROOT
ATOM      1  C   UNL     1      16.562 -10.591  65.021  1.00  0.00     0.057 C 
ATOM      2  C   UNL     1      15.331 -11.447  64.706  1.00  0.00     0.016 C 
ENDROOT
BRANCH   1   3
ATOM      3  C   UNL     1      17.547 -10.660  63.870  1.00  0.00     0.135 C 
ATOM      4  O   UNL     1      17.559 -11.642  63.142  1.00  0.00    -0.299 OA
BRANCH   3   5
ATOM      5  C   UNL     1      18.504  -9.529  63.595  1.00  0.00     0.072 C 
ATOM      6  C   UNL     1      19.931  -9.918  63.967  1.00  0.00     0.012 C 
ENDBRANCH   3   5
ENDBRANCH   1   3
BRANCH   1   7
ATOM      7  C   UNL     1      17.215 -11.049  66.343  1.00  0.00     0.038 C 
BRANCH   7   8
ATOM      8  C   UNL     1      17.492  -9.895  67.270  1.00  0.00    -0.034 C 
ATOM      9  C   UNL     1      18.736  -9.559  67.625  1.00  0.00     0.004 C 
ENDBRANCH   7   8
ENDBRANCH   1   7
TORSDOF 4
ENDMDL
MODEL 4
REMARK VINA RESULT:    -3.782      1.436      3.605
REMARK INTER + INTRA:          -4.975
REMARK INTER:                  -4.516
REMARK INTRA:                  -0.460
REMARK UNBOUND:                -0.309
REMARK SMILES C=CC[C@H](C)C(=O)CC
REMARK SMILES IDX 4 1 5 2 6 3 7 4 8 5 9 6 3 7 2 8 1 9
REMARK H PARENT
REMARK Flexibility Score: inf
ROOT
ATOM      1  C   UNL     1      19.113 -11.855  69.010  1.00  0.00     0.057 C 
ATOM      2  C   UNL     1      18.227 -12.500  67.939  1.00  0.00     0.016 C 
ENDROOT
BRANCH   1   3
ATOM      3  C   UNL     1      19.053 -10.346  68.889  1.00  0.00     0.135 C 
ATOM      4  O   UNL     1      19.487  -9.648  69.795  1.00  0.00    -0.299 OA
BRANCH   3   5
ATOM      5  C   UNL     1      18.482  -9.684  67.662  1.00  0.00     0.072 C 
ATOM      6  C   UNL     1      19.577  -9.379  66.646  1.00  0.00     0.012 C 
ENDBRANCH   3   5
ENDBRANCH   1   3
BRANCH   1   7
ATOM      7  C   UNL     1      20.565 -12.368  68.891  1.00  0.00     0.038 C 
BRANCH   7   8
ATOM      8  C   UNL     1      20.866 -12.909  67.519  1.00  0.00    -0.034 C 
ATOM      9  C   UNL     1      21.742 -12.313  66.704  1.00  0.00     0.004 C 
ENDBRANCH   7   8
ENDBRANCH   1   7
TORSDOF 4
ENDMDL
MODEL 5
REMARK VINA RESULT:    -3.766      1.165      2.301
REMARK INTER + INTRA:          -4.956
REMARK INTER:                  -4.633
REMARK INTRA:                  -0.323
REMARK UNBOUND:                -0.309
REMARK SMILES C=CC[C@H](C)C(=O)CC
REMARK SMILES IDX 4 1 5 2 6 3 7 4 8 5 9 6 3 7 2 8 1 9
REMARK H PARENT
REMARK Flexibility Score: inf
ROOT
ATOM      1  C   UNL     1      18.783 -10.411  67.316  1.00  0.00     0.057 C 
ATOM      2  C   UNL     1      17.351  -9.873  67.398  1.00  0.00     0.016 C 
ENDROOT
BRANCH   1   3
ATOM      3  C   UNL     1      19.344 -10.599  68.712  1.00  0.00     0.135 C 
ATOM      4  O   UNL     1      19.339  -9.662  69.497  1.00  0.00    -0.299 OA
BRANCH   3   5
ATOM      5  C   UNL     1      19.895 -11.928  69.158  1.00  0.00     0.072 C 
ATOM      6  C   UNL     1      19.948 -12.915  67.997  1.00  0.00     0.012 C 
ENDBRANCH   3   5
ENDBRANCH   1   3
BRANCH   1   7
ATOM      7  C   UNL     1      19.670  -9.463  66.480  1.00  0.00     0.038 C 
BRANCH   7   8
ATOM      8  C   UNL     1      20.311 -10.166  65.313  1.00  0.00    -0.034 C 
ATOM      9  C   UNL     1      20.256  -9.667  64.074  1.00  0.00     0.004 C 
ENDBRANCH   7   8
ENDBRANCH   1   7
TORSDOF 4
ENDMDL
MODEL 6
REMARK VINA RESULT:    -3.728     16.308     17.473
REMARK INTER + INTRA:          -4.909
REMARK INTER:                  -4.599
REMARK INTRA:                  -0.311
REMARK UNBOUND:                -0.309
REMARK SMILES C=CC[C@H](C)C(=O)CC
REMARK SMILES IDX 4 1 5 2 6 3 7 4 8 5 9 6 3 7 2 8 1 9
REMARK H PARENT
REMARK Flexibility Score: inf
ROOT
ATOM      1  C   UNL     1       7.069  -6.976  55.347  1.00  0.00     0.057 C 
ATOM      2  C   UNL     1       8.358  -7.245  56.131  1.00  0.00     0.016 C 
ENDROOT
BRANCH   1   3
ATOM      3  C   UNL     1       5.867  -7.157  56.252  1.00  0.00     0.135 C 
ATOM      4  O   UNL     1       4.875  -7.737  55.832  1.00  0.00    -0.299 OA
BRANCH   3   5
ATOM      5  C   UNL     1       5.876  -6.651  57.671  1.00  0.00     0.072 C 
ATOM      6  C   UNL     1       5.551  -5.162  57.722  1.00  0.00     0.012 C 
ENDBRANCH   3   5
ENDBRANCH   1   3
BRANCH   1   7
ATOM      7  C   UNL     1       6.985  -7.900  54.113  1.00  0.00     0.038 C 
BRANCH   7   8
ATOM      8  C   UNL     1       7.707  -9.203  54.327  1.00  0.00    -0.034 C 
ATOM      9  C   UNL     1       7.058 -10.370  54.366  1.00  0.00     0.004 C 
ENDBRANCH   7   8
ENDBRANCH   1   7
TORSDOF 4
ENDMDL
MODEL 7
REMARK VINA RESULT:    -3.694      1.715      2.794
REMARK INTER + INTRA:          -4.867
REMARK INTER:                  -4.423
REMARK INTRA:                  -0.444
REMARK UNBOUND:                -0.309
REMARK SMILES C=CC[C@H](C)C(=O)CC
REMARK SMILES IDX 4 1 5 2 6 3 7 4 8 5 9 6 3 7 2 8 1 9
REMARK H PARENT
REMARK Flexibility Score: inf
ROOT
ATOM      1  C   UNL     1      17.587 -11.383  66.805  1.00  0.00     0.057 C 
ATOM      2  C   UNL     1      16.142 -11.620  66.353  1.00  0.00     0.016 C 
ENDROOT
BRANCH   1   3
ATOM      3  C   UNL     1      18.002 -12.456  67.792  1.00  0.00     0.135 C 
ATOM      4  O   UNL     1      17.179 -12.911  68.573  1.00  0.00    -0.299 OA
BRANCH   3   5
ATOM      5  C   UNL     1      19.412 -12.987  67.819  1.00  0.00     0.072 C 
ATOM      6  C   UNL     1      20.176 -12.449  69.024  1.00  0.00     0.012 C 
ENDBRANCH   3   5
ENDBRANCH   1   3
BRANCH   1   7
ATOM      7  C   UNL     1      17.738  -9.973  67.415  1.00  0.00     0.038 C 
BRANCH   7   8
ATOM      8  C   UNL     1      19.101  -9.386  67.161  1.00  0.00    -0.034 C 
ATOM      9  C   UNL     1      19.778  -9.637  66.037  1.00  0.00     0.004 C 
ENDBRANCH   7   8
ENDBRANCH   1   7
TORSDOF 4
ENDMDL
MODEL 8
REMARK VINA RESULT:    -3.682      2.258      2.822
REMARK INTER + INTRA:          -4.852
REMARK INTER:                  -4.376
REMARK INTRA:                  -0.476
REMARK UNBOUND:                -0.309
REMARK SMILES C=CC[C@H](C)C(=O)CC
REMARK SMILES IDX 4 1 5 2 6 3 7 4 8 5 9 6 3 7 2 8 1 9
REMARK H PARENT
REMARK Flexibility Score: inf
ROOT
ATOM      1  C   UNL     1      16.720 -11.121  66.956  1.00  0.00     0.057 C 
ATOM      2  C   UNL     1      17.536  -9.888  67.357  1.00  0.00     0.016 C 
ENDROOT
BRANCH   1   3
ATOM      3  C   UNL     1      17.502 -12.381  67.271  1.00  0.00     0.135 C 
ATOM      4  O   UNL     1      17.524 -12.810  68.416  1.00  0.00    -0.299 OA
BRANCH   3   5
ATOM      5  C   UNL     1      18.241 -13.130  66.193  1.00  0.00     0.072 C 
ATOM      6  C   UNL     1      19.698 -12.684  66.119  1.00  0.00     0.012 C 
ENDBRANCH   3   5
ENDBRANCH   1   3
BRANCH   1   7
ATOM      7  C   UNL     1      16.343 -11.057  65.461  1.00  0.00     0.038 C 
BRANCH   7   8
ATOM      8  C   UNL     1      16.990  -9.893  64.760  1.00  0.00    -0.034 C 
ATOM      9  C   UNL     1      17.729 -10.055  63.658  1.00  0.00     0.004 C 
ENDBRANCH   7   8
ENDBRANCH   1   7
TORSDOF 4
ENDMDL
MODEL 9
REMARK VINA RESULT:    -3.657     16.153     17.298
REMARK INTER + INTRA:          -4.821
REMARK INTER:                  -4.585
REMARK INTRA:                  -0.236
REMARK UNBOUND:                -0.309
REMARK SMILES C=CC[C@H](C)C(=O)CC
REMARK SMILES IDX 4 1 5 2 6 3 7 4 8 5 9 6 3 7 2 8 1 9
REMARK H PARENT
REMARK Flexibility Score: inf
ROOT
ATOM      1  C   UNL     1       5.968  -8.743  56.350  1.00  0.00     0.057 C 
ATOM      2  C   UNL     1       6.770  -8.807  57.654  1.00  0.00     0.016 C 
ENDROOT
BRANCH   1   3
ATOM      3  C   UNL     1       6.903  -8.857  55.162  1.00  0.00     0.135 C 
ATOM      4  O   UNL     1       6.527  -9.426  54.147  1.00  0.00    -0.299 OA
BRANCH   3   5
ATOM      5  C   UNL     1       8.288  -8.265  55.202  1.00  0.00     0.072 C 
ATOM      6  C   UNL     1       9.201  -8.943  54.186  1.00  0.00     0.012 C 
ENDBRANCH   3   5
ENDBRANCH   1   3
BRANCH   1   7
ATOM      7  C   UNL     1       5.141  -7.441  56.287  1.00  0.00     0.038 C 
BRANCH   7   8
ATOM      8  C   UNL     1       5.204  -6.664  57.575  1.00  0.00    -0.034 C 
ATOM      9  C   UNL     1       5.275  -5.330  57.591  1.00  0.00     0.004 C 
ENDBRANCH   7   8
ENDBRANCH   1   7
TORSDOF 4
ENDMDL
