MODEL 1
REMARK VINA RESULT:    -8.063      0.000      0.000
REMARK INTER + INTRA:          -9.777
REMARK INTER:                  -9.713
REMARK INTRA:                  -0.064
REMARK UNBOUND:                -0.064
REMARK SMILES O=c1c(O)c(-c2ccc(O)c(O)c2)oc2cc(O)cc(O)c12
REMARK SMILES IDX 5 1 3 2 2 3 1 4 22 5 20 6 19 7 17 8 16 9 15 10 14 11 6 12
REMARK SMILES IDX 7 13 8 14 9 15 13 16 11 17 10 18 12 20 4 22 21 24 18 26
REMARK H PARENT 10 19 12 21 4 23 21 25 18 27
REMARK Flexibility Score: inf
ROOT
ATOM      1  C   UNL     1      46.384  -5.367  26.087  1.00  0.00     0.180 A 
ATOM      2  C   UNL     1      45.388  -6.072  26.785  1.00  0.00     0.208 A 
ATOM      3  C   UNL     1      44.582  -5.382  27.704  1.00  0.00     0.238 A 
ATOM      4  O   UNL     1      43.730  -6.030  28.366  1.00  0.00    -0.285 OA
ATOM      5  C   UNL     1      44.772  -3.993  27.903  1.00  0.00     0.111 A 
ATOM      6  C   UNL     1      43.986  -3.186  28.781  1.00  0.00     0.134 A 
ATOM      7  C   UNL     1      44.347  -1.850  28.996  1.00  0.00     0.093 A 
ATOM      8  C   UNL     1      45.424  -1.274  28.318  1.00  0.00     0.123 A 
ATOM      9  C   UNL     1      46.159  -2.039  27.414  1.00  0.00     0.094 A 
ATOM     10  C   UNL     1      45.847  -3.384  27.204  1.00  0.00     0.146 A 
ATOM     11  O   UNL     1      46.580  -4.079  26.344  1.00  0.00    -0.452 OA
ENDROOT
BRANCH   1  12
ATOM     12  C   UNL     1      47.255  -6.020  25.084  1.00  0.00     0.025 A 
ATOM     13  C   UNL     1      46.674  -6.700  24.004  1.00  0.00     0.016 A 
ATOM     14  C   UNL     1      47.476  -7.341  23.057  1.00  0.00     0.051 A 
ATOM     15  C   UNL     1      48.871  -7.327  23.177  1.00  0.00     0.157 A 
ATOM     16  C   UNL     1      48.654  -6.024  25.219  1.00  0.00     0.062 A 
ATOM     17  C   UNL     1      49.467  -6.666  24.275  1.00  0.00     0.158 A 
BRANCH  15  18
ATOM     18  O   UNL     1      49.616  -7.979  22.193  1.00  0.00    -0.504 OA
ATOM     19  H   UNL     1      50.536  -8.366  22.345  1.00  0.00     0.293 HD
ENDBRANCH  15  18
BRANCH  17  20
ATOM     20  O   UNL     1      50.849  -6.626  24.472  1.00  0.00    -0.504 OA
ATOM     21  H   UNL     1      51.445  -5.878  24.148  1.00  0.00     0.293 HD
ENDBRANCH  17  20
ENDBRANCH   1  12
BRANCH   2  22
ATOM     22  O   UNL     1      45.233  -7.447  26.588  1.00  0.00    -0.502 OA
ATOM     23  H   UNL     1      45.985  -8.036  26.252  1.00  0.00     0.293 HD
ENDBRANCH   2  22
BRANCH   6  24
ATOM     24  O   UNL     1      42.837  -3.636  29.436  1.00  0.00    -0.507 OA
ATOM     25  H   UNL     1      42.411  -4.539  29.294  1.00  0.00     0.293 HD
ENDBRANCH   6  24
BRANCH   8  26
ATOM     26  O   UNL     1      45.765   0.059  28.527  1.00  0.00    -0.508 OA
ATOM     27  H   UNL     1      46.512   0.323  29.160  1.00  0.00     0.293 HD
ENDBRANCH   8  26
TORSDOF 6
ENDMDL
MODEL 2
REMARK VINA RESULT:    -8.056      0.947      1.690
REMARK INTER + INTRA:          -9.769
REMARK INTER:                  -9.745
REMARK INTRA:                  -0.024
REMARK UNBOUND:                -0.064
REMARK SMILES O=c1c(O)c(-c2ccc(O)c(O)c2)oc2cc(O)cc(O)c12
REMARK SMILES IDX 5 1 3 2 2 3 1 4 22 5 20 6 19 7 17 8 16 9 15 10 14 11 6 12
REMARK SMILES IDX 7 13 8 14 9 15 13 16 11 17 10 18 12 20 4 22 21 24 18 26
REMARK H PARENT 10 19 12 21 4 23 21 25 18 27
REMARK Flexibility Score: inf
ROOT
ATOM      1  C   UNL     1      46.766  -4.790  26.829  1.00  0.00     0.180 A 
ATOM      2  C   UNL     1      45.701  -5.544  27.352  1.00  0.00     0.208 A 
ATOM      3  C   UNL     1      44.671  -4.883  28.037  1.00  0.00     0.238 A 
ATOM      4  O   UNL     1      43.749  -5.569  28.550  1.00  0.00    -0.285 OA
ATOM      5  C   UNL     1      44.709  -3.475  28.178  1.00  0.00     0.111 A 
ATOM      6  C   UNL     1      43.698  -2.697  28.820  1.00  0.00     0.134 A 
ATOM      7  C   UNL     1      43.904  -1.326  29.017  1.00  0.00     0.093 A 
ATOM      8  C   UNL     1      45.054  -0.693  28.538  1.00  0.00     0.123 A 
ATOM      9  C   UNL     1      46.018  -1.434  27.858  1.00  0.00     0.094 A 
ATOM     10  C   UNL     1      45.859  -2.810  27.678  1.00  0.00     0.146 A 
ATOM     11  O   UNL     1      46.807  -3.479  27.035  1.00  0.00    -0.452 OA
ENDROOT
BRANCH   1  12
ATOM     12  C   UNL     1      47.876  -5.414  26.072  1.00  0.00     0.025 A 
ATOM     13  C   UNL     1      49.201  -5.082  26.390  1.00  0.00     0.016 A 
ATOM     14  C   UNL     1      50.261  -5.643  25.675  1.00  0.00     0.051 A 
ATOM     15  C   UNL     1      50.021  -6.532  24.622  1.00  0.00     0.157 A 
ATOM     16  C   UNL     1      47.631  -6.289  25.000  1.00  0.00     0.062 A 
ATOM     17  C   UNL     1      48.688  -6.854  24.275  1.00  0.00     0.158 A 
BRANCH  15  18
ATOM     18  O   UNL     1      51.125  -7.064  23.953  1.00  0.00    -0.504 OA
ATOM     19  H   UNL     1      51.093  -7.898  23.385  1.00  0.00     0.293 HD
ENDBRANCH  15  18
BRANCH  17  20
ATOM     20  O   UNL     1      48.370  -7.717  23.225  1.00  0.00    -0.504 OA
ATOM     21  H   UNL     1      47.875  -8.590  23.340  1.00  0.00     0.293 HD
ENDBRANCH  17  20
ENDBRANCH   1  12
BRANCH   2  22
ATOM     22  O   UNL     1      45.695  -6.936  27.219  1.00  0.00    -0.502 OA
ATOM     23  H   UNL     1      44.931  -7.510  27.555  1.00  0.00     0.293 HD
ENDBRANCH   2  22
BRANCH   6  24
ATOM     24  O   UNL     1      42.474  -3.212  29.253  1.00  0.00    -0.507 OA
ATOM     25  H   UNL     1      42.189  -3.281  30.218  1.00  0.00     0.293 HD
ENDBRANCH   6  24
BRANCH   8  26
ATOM     26  O   UNL     1      45.243   0.674  28.725  1.00  0.00    -0.508 OA
ATOM     27  H   UNL     1      45.258   1.086  29.651  1.00  0.00     0.293 HD
ENDBRANCH   8  26
TORSDOF 6
ENDMDL
MODEL 3
REMARK VINA RESULT:    -7.823      2.271      7.184
REMARK INTER + INTRA:          -9.488
REMARK INTER:                  -9.410
REMARK INTRA:                  -0.078
REMARK UNBOUND:                -0.064
REMARK SMILES O=c1c(O)c(-c2ccc(O)c(O)c2)oc2cc(O)cc(O)c12
REMARK SMILES IDX 5 1 3 2 2 3 1 4 22 5 20 6 19 7 17 8 16 9 15 10 14 11 6 12
REMARK SMILES IDX 7 13 8 14 9 15 13 16 11 17 10 18 12 20 4 22 21 24 18 26
REMARK H PARENT 10 19 12 21 4 23 21 25 18 27
REMARK Flexibility Score: inf
ROOT
ATOM      1  C   UNL     1      44.931  -5.600  26.334  1.00  0.00     0.180 A 
ATOM      2  C   UNL     1      46.020  -4.807  26.733  1.00  0.00     0.208 A 
ATOM      3  C   UNL     1      47.224  -4.892  26.014  1.00  0.00     0.238 A 
ATOM      4  O   UNL     1      48.212  -4.221  26.410  1.00  0.00    -0.285 OA
ATOM      5  C   UNL     1      47.317  -5.756  24.897  1.00  0.00     0.111 A 
ATOM      6  C   UNL     1      48.475  -5.892  24.073  1.00  0.00     0.134 A 
ATOM      7  C   UNL     1      48.499  -6.873  23.074  1.00  0.00     0.093 A 
ATOM      8  C   UNL     1      47.385  -7.678  22.826  1.00  0.00     0.123 A 
ATOM      9  C   UNL     1      46.230  -7.512  23.587  1.00  0.00     0.094 A 
ATOM     10  C   UNL     1      46.187  -6.567  24.615  1.00  0.00     0.146 A 
ATOM     11  O   UNL     1      45.071  -6.449  25.322  1.00  0.00    -0.452 OA
ENDROOT
BRANCH   1  12
ATOM     12  C   UNL     1      43.623  -5.547  27.025  1.00  0.00     0.025 A 
ATOM     13  C   UNL     1      43.548  -5.871  28.387  1.00  0.00     0.016 A 
ATOM     14  C   UNL     1      42.321  -5.846  29.054  1.00  0.00     0.051 A 
ATOM     15  C   UNL     1      41.145  -5.513  28.373  1.00  0.00     0.157 A 
ATOM     16  C   UNL     1      42.440  -5.234  26.333  1.00  0.00     0.062 A 
ATOM     17  C   UNL     1      41.204  -5.209  26.993  1.00  0.00     0.158 A 
BRANCH  15  18
ATOM     18  O   UNL     1      39.953  -5.499  29.099  1.00  0.00    -0.504 OA
ATOM     19  H   UNL     1      39.491  -4.657  29.411  1.00  0.00     0.293 HD
ENDBRANCH  15  18
BRANCH  17  20
ATOM     20  O   UNL     1      40.071  -4.888  26.243  1.00  0.00    -0.504 OA
ATOM     21  H   UNL     1      40.028  -4.124  25.584  1.00  0.00     0.293 HD
ENDBRANCH  17  20
ENDBRANCH   1  12
BRANCH   2  22
ATOM     22  O   UNL     1      45.912  -3.977  27.852  1.00  0.00    -0.502 OA
ATOM     23  H   UNL     1      46.644  -3.330  28.121  1.00  0.00     0.293 HD
ENDBRANCH   2  22
BRANCH   6  24
ATOM     24  O   UNL     1      49.606  -5.078  24.175  1.00  0.00    -0.507 OA
ATOM     25  H   UNL     1      50.536  -5.409  24.380  1.00  0.00     0.293 HD
ENDBRANCH   6  24
BRANCH   8  26
ATOM     26  O   UNL     1      47.413  -8.641  21.820  1.00  0.00    -0.508 OA
ATOM     27  H   UNL     1      47.752  -9.580  21.994  1.00  0.00     0.293 HD
ENDBRANCH   8  26
TORSDOF 6
ENDMDL
MODEL 4
REMARK VINA RESULT:    -7.658      1.621      6.792
REMARK INTER + INTRA:          -9.289
REMARK INTER:                  -9.351
REMARK INTRA:                   0.063
REMARK UNBOUND:                -0.064
REMARK SMILES O=c1c(O)c(-c2ccc(O)c(O)c2)oc2cc(O)cc(O)c12
REMARK SMILES IDX 5 1 3 2 2 3 1 4 22 5 20 6 19 7 17 8 16 9 15 10 14 11 6 12
REMARK SMILES IDX 7 13 8 14 9 15 13 16 11 17 10 18 12 20 4 22 21 24 18 26
REMARK H PARENT 10 19 12 21 4 23 21 25 18 27
REMARK Flexibility Score: inf
ROOT
ATOM      1  C   UNL     1      45.020  -4.747  27.364  1.00  0.00     0.180 A 
ATOM      2  C   UNL     1      44.409  -5.655  26.482  1.00  0.00     0.208 A 
ATOM      3  C   UNL     1      45.202  -6.318  25.531  1.00  0.00     0.238 A 
ATOM      4  O   UNL     1      44.640  -7.088  24.709  1.00  0.00    -0.285 OA
ATOM      5  C   UNL     1      46.595  -6.077  25.485  1.00  0.00     0.111 A 
ATOM      6  C   UNL     1      47.500  -6.723  24.589  1.00  0.00     0.134 A 
ATOM      7  C   UNL     1      48.837  -6.312  24.544  1.00  0.00     0.093 A 
ATOM      8  C   UNL     1      49.318  -5.323  25.406  1.00  0.00     0.123 A 
ATOM      9  C   UNL     1      48.456  -4.729  26.325  1.00  0.00     0.094 A 
ATOM     10  C   UNL     1      47.107  -5.092  26.370  1.00  0.00     0.146 A 
ATOM     11  O   UNL     1      46.318  -4.494  27.253  1.00  0.00    -0.452 OA
ENDROOT
BRANCH   1  12
ATOM     12  C   UNL     1      44.255  -4.029  28.410  1.00  0.00     0.025 A 
ATOM     13  C   UNL     1      43.357  -4.740  29.218  1.00  0.00     0.016 A 
ATOM     14  C   UNL     1      42.611  -4.080  30.196  1.00  0.00     0.051 A 
ATOM     15  C   UNL     1      42.735  -2.697  30.377  1.00  0.00     0.157 A 
ATOM     16  C   UNL     1      44.365  -2.638  28.573  1.00  0.00     0.062 A 
ATOM     17  C   UNL     1      43.619  -1.966  29.550  1.00  0.00     0.158 A 
BRANCH  15  18
ATOM     18  O   UNL     1      41.967  -2.099  31.377  1.00  0.00    -0.504 OA
ATOM     19  H   UNL     1      42.336  -1.792  32.266  1.00  0.00     0.293 HD
ENDBRANCH  15  18
BRANCH  17  20
ATOM     20  O   UNL     1      43.780  -0.583  29.658  1.00  0.00    -0.504 OA
ATOM     21  H   UNL     1      44.518  -0.140  30.186  1.00  0.00     0.293 HD
ENDBRANCH  17  20
ENDBRANCH   1  12
BRANCH   2  22
ATOM     22  O   UNL     1      43.028  -5.861  26.532  1.00  0.00    -0.502 OA
ATOM     23  H   UNL     1      42.574  -6.622  26.040  1.00  0.00     0.293 HD
ENDBRANCH   2  22
BRANCH   6  24
ATOM     24  O   UNL     1      47.145  -7.784  23.751  1.00  0.00    -0.507 OA
ATOM     25  H   UNL     1      47.693  -8.620  23.619  1.00  0.00     0.293 HD
ENDBRANCH   6  24
BRANCH   8  26
ATOM     26  O   UNL     1      50.654  -4.931  25.364  1.00  0.00    -0.508 OA
ATOM     27  H   UNL     1      51.084  -4.606  24.506  1.00  0.00     0.293 HD
ENDBRANCH   8  26
TORSDOF 6
ENDMDL
MODEL 5
REMARK VINA RESULT:    -7.542      2.321      3.399
REMARK INTER + INTRA:          -9.149
REMARK INTER:                  -8.976
REMARK INTRA:                  -0.174
REMARK UNBOUND:                -0.064
REMARK SMILES O=c1c(O)c(-c2ccc(O)c(O)c2)oc2cc(O)cc(O)c12
REMARK SMILES IDX 5 1 3 2 2 3 1 4 22 5 20 6 19 7 17 8 16 9 15 10 14 11 6 12
REMARK SMILES IDX 7 13 8 14 9 15 13 16 11 17 10 18 12 20 4 22 21 24 18 26
REMARK H PARENT 10 19 12 21 4 23 21 25 18 27
REMARK Flexibility Score: inf
ROOT
ATOM      1  C   UNL     1      43.850  -4.733  27.475  1.00  0.00     0.180 A 
ATOM      2  C   UNL     1      42.514  -4.899  27.072  1.00  0.00     0.208 A 
ATOM      3  C   UNL     1      41.510  -4.158  27.716  1.00  0.00     0.238 A 
ATOM      4  O   UNL     1      40.311  -4.353  27.387  1.00  0.00    -0.285 OA
ATOM      5  C   UNL     1      41.857  -3.249  28.743  1.00  0.00     0.111 A 
ATOM      6  C   UNL     1      40.926  -2.417  29.437  1.00  0.00     0.134 A 
ATOM      7  C   UNL     1      41.363  -1.651  30.525  1.00  0.00     0.093 A 
ATOM      8  C   UNL     1      42.709  -1.636  30.903  1.00  0.00     0.123 A 
ATOM      9  C   UNL     1      43.634  -2.399  30.194  1.00  0.00     0.094 A 
ATOM     10  C   UNL     1      43.223  -3.202  29.127  1.00  0.00     0.146 A 
ATOM     11  O   UNL     1      44.135  -3.921  28.486  1.00  0.00    -0.452 OA
ENDROOT
BRANCH   1  12
ATOM     12  C   UNL     1      44.965  -5.460  26.826  1.00  0.00     0.025 A 
ATOM     13  C   UNL     1      45.074  -6.847  26.993  1.00  0.00     0.016 A 
ATOM     14  C   UNL     1      46.129  -7.550  26.406  1.00  0.00     0.051 A 
ATOM     15  C   UNL     1      47.102  -6.880  25.656  1.00  0.00     0.157 A 
ATOM     16  C   UNL     1      45.953  -4.781  26.092  1.00  0.00     0.062 A 
ATOM     17  C   UNL     1      47.017  -5.477  25.502  1.00  0.00     0.158 A 
BRANCH  15  18
ATOM     18  O   UNL     1      48.126  -7.641  25.090  1.00  0.00    -0.504 OA
ATOM     19  H   UNL     1      47.989  -8.547  24.666  1.00  0.00     0.293 HD
ENDBRANCH  15  18
BRANCH  17  20
ATOM     20  O   UNL     1      47.960  -4.739  24.785  1.00  0.00    -0.504 OA
ATOM     21  H   UNL     1      48.840  -5.112  24.458  1.00  0.00     0.293 HD
ENDBRANCH  17  20
ENDBRANCH   1  12
BRANCH   2  22
ATOM     22  O   UNL     1      42.192  -5.819  26.069  1.00  0.00    -0.502 OA
ATOM     23  H   UNL     1      41.916  -5.532  25.137  1.00  0.00     0.293 HD
ENDBRANCH   2  22
BRANCH   6  24
ATOM     24  O   UNL     1      39.581  -2.287  29.083  1.00  0.00    -0.507 OA
ATOM     25  H   UNL     1      39.211  -1.562  28.487  1.00  0.00     0.293 HD
ENDBRANCH   6  24
BRANCH   8  26
ATOM     26  O   UNL     1      43.137  -0.859  31.976  1.00  0.00    -0.508 OA
ATOM     27  H   UNL     1      43.539  -1.278  32.807  1.00  0.00     0.293 HD
ENDBRANCH   8  26
TORSDOF 6
ENDMDL
MODEL 6
REMARK VINA RESULT:    -7.319      1.670      3.374
REMARK INTER + INTRA:          -8.881
REMARK INTER:                  -9.337
REMARK INTRA:                   0.456
REMARK UNBOUND:                -0.064
REMARK SMILES O=c1c(O)c(-c2ccc(O)c(O)c2)oc2cc(O)cc(O)c12
REMARK SMILES IDX 5 1 3 2 2 3 1 4 22 5 20 6 19 7 17 8 16 9 15 10 14 11 6 12
REMARK SMILES IDX 7 13 8 14 9 15 13 16 11 17 10 18 12 20 4 22 21 24 18 26
REMARK H PARENT 10 19 12 21 4 23 21 25 18 27
REMARK Flexibility Score: inf
ROOT
ATOM      1  C   UNL     1      45.611  -4.254  27.184  1.00  0.00     0.180 A 
ATOM      2  C   UNL     1      46.029  -2.935  27.432  1.00  0.00     0.208 A 
ATOM      3  C   UNL     1      45.220  -2.101  28.219  1.00  0.00     0.238 A 
ATOM      4  O   UNL     1      45.573  -0.905  28.391  1.00  0.00    -0.285 OA
ATOM      5  C   UNL     1      44.012  -2.600  28.761  1.00  0.00     0.111 A 
ATOM      6  C   UNL     1      43.133  -1.854  29.605  1.00  0.00     0.134 A 
ATOM      7  C   UNL     1      41.901  -2.406  29.977  1.00  0.00     0.093 A 
ATOM      8  C   UNL     1      41.543  -3.700  29.589  1.00  0.00     0.123 A 
ATOM      9  C   UNL     1      42.420  -4.456  28.816  1.00  0.00     0.094 A 
ATOM     10  C   UNL     1      43.641  -3.921  28.398  1.00  0.00     0.146 A 
ATOM     11  O   UNL     1      44.441  -4.672  27.653  1.00  0.00    -0.452 OA
ENDROOT
BRANCH   1  12
ATOM     12  C   UNL     1      46.423  -5.201  26.386  1.00  0.00     0.025 A 
ATOM     13  C   UNL     1      46.107  -6.567  26.404  1.00  0.00     0.016 A 
ATOM     14  C   UNL     1      46.872  -7.480  25.674  1.00  0.00     0.051 A 
ATOM     15  C   UNL     1      47.974  -7.051  24.926  1.00  0.00     0.157 A 
ATOM     16  C   UNL     1      47.542  -4.770  25.654  1.00  0.00     0.062 A 
ATOM     17  C   UNL     1      48.317  -5.679  24.921  1.00  0.00     0.158 A 
BRANCH  15  18
ATOM     18  O   UNL     1      48.692  -8.012  24.213  1.00  0.00    -0.504 OA
ATOM     19  H   UNL     1      48.465  -8.996  24.205  1.00  0.00     0.293 HD
ENDBRANCH  15  18
BRANCH  17  20
ATOM     20  O   UNL     1      49.414  -5.179  24.214  1.00  0.00    -0.504 OA
ATOM     21  H   UNL     1      50.156  -5.754  23.843  1.00  0.00     0.293 HD
ENDBRANCH  17  20
ENDBRANCH   1  12
BRANCH   2  22
ATOM     22  O   UNL     1      47.216  -2.457  26.868  1.00  0.00    -0.502 OA
ATOM     23  H   UNL     1      47.296  -2.227  25.885  1.00  0.00     0.293 HD
ENDBRANCH   2  22
BRANCH   6  24
ATOM     24  O   UNL     1      43.434  -0.592  30.123  1.00  0.00    -0.507 OA
ATOM     25  H   UNL     1      43.444   0.262  29.586  1.00  0.00     0.293 HD
ENDBRANCH   6  24
BRANCH   8  26
ATOM     26  O   UNL     1      40.322  -4.246  29.977  1.00  0.00    -0.508 OA
ATOM     27  H   UNL     1      39.948  -5.077  29.533  1.00  0.00     0.293 HD
ENDBRANCH   8  26
TORSDOF 6
ENDMDL
MODEL 7
REMARK VINA RESULT:    -7.222      3.088      7.117
REMARK INTER + INTRA:          -8.763
REMARK INTER:                  -8.471
REMARK INTRA:                  -0.292
REMARK UNBOUND:                -0.064
REMARK SMILES O=c1c(O)c(-c2ccc(O)c(O)c2)oc2cc(O)cc(O)c12
REMARK SMILES IDX 5 1 3 2 2 3 1 4 22 5 20 6 19 7 17 8 16 9 15 10 14 11 6 12
REMARK SMILES IDX 7 13 8 14 9 15 13 16 11 17 10 18 12 20 4 22 21 24 18 26
REMARK H PARENT 10 19 12 21 4 23 21 25 18 27
REMARK Flexibility Score: inf
ROOT
ATOM      1  C   UNL     1      43.350  -5.103  27.183  1.00  0.00     0.180 A 
ATOM      2  C   UNL     1      43.984  -3.961  27.701  1.00  0.00     0.208 A 
ATOM      3  C   UNL     1      45.354  -3.774  27.461  1.00  0.00     0.238 A 
ATOM      4  O   UNL     1      45.928  -2.778  27.974  1.00  0.00    -0.285 OA
ATOM      5  C   UNL     1      46.070  -4.723  26.691  1.00  0.00     0.111 A 
ATOM      6  C   UNL     1      47.452  -4.614  26.352  1.00  0.00     0.134 A 
ATOM      7  C   UNL     1      48.087  -5.676  25.697  1.00  0.00     0.093 A 
ATOM      8  C   UNL     1      47.376  -6.815  25.312  1.00  0.00     0.123 A 
ATOM      9  C   UNL     1      46.014  -6.904  25.586  1.00  0.00     0.094 A 
ATOM     10  C   UNL     1      45.359  -5.877  26.270  1.00  0.00     0.146 A 
ATOM     11  O   UNL     1      44.062  -6.007  26.521  1.00  0.00    -0.452 OA
ENDROOT
BRANCH   1  12
ATOM     12  C   UNL     1      41.903  -5.355  27.373  1.00  0.00     0.025 A 
ATOM     13  C   UNL     1      41.452  -5.909  28.580  1.00  0.00     0.016 A 
ATOM     14  C   UNL     1      40.095  -6.173  28.773  1.00  0.00     0.051 A 
ATOM     15  C   UNL     1      39.165  -5.906  27.762  1.00  0.00     0.157 A 
ATOM     16  C   UNL     1      40.975  -5.107  26.348  1.00  0.00     0.062 A 
ATOM     17  C   UNL     1      39.612  -5.373  26.531  1.00  0.00     0.158 A 
BRANCH  15  18
ATOM     18  O   UNL     1      37.822  -6.187  28.020  1.00  0.00    -0.504 OA
ATOM     19  H   UNL     1      37.265  -6.831  27.478  1.00  0.00     0.293 HD
ENDBRANCH  15  18
BRANCH  17  20
ATOM     20  O   UNL     1      38.746  -5.099  25.469  1.00  0.00    -0.504 OA
ATOM     21  H   UNL     1      37.743  -5.201  25.518  1.00  0.00     0.293 HD
ENDBRANCH  17  20
ENDBRANCH   1  12
BRANCH   2  22
ATOM     22  O   UNL     1      43.263  -3.048  28.476  1.00  0.00    -0.502 OA
ATOM     23  H   UNL     1      42.542  -3.337  29.127  1.00  0.00     0.293 HD
ENDBRANCH   2  22
BRANCH   6  24
ATOM     24  O   UNL     1      48.232  -3.483  26.608  1.00  0.00    -0.507 OA
ATOM     25  H   UNL     1      48.762  -2.981  25.911  1.00  0.00     0.293 HD
ENDBRANCH   6  24
BRANCH   8  26
ATOM     26  O   UNL     1      48.013  -7.860  24.647  1.00  0.00    -0.508 OA
ATOM     27  H   UNL     1      48.138  -7.851  23.641  1.00  0.00     0.293 HD
ENDBRANCH   8  26
TORSDOF 6
ENDMDL
MODEL 8
REMARK VINA RESULT:    -7.081      2.059      6.632
REMARK INTER + INTRA:          -8.593
REMARK INTER:                  -9.050
REMARK INTRA:                   0.456
REMARK UNBOUND:                -0.064
REMARK SMILES O=c1c(O)c(-c2ccc(O)c(O)c2)oc2cc(O)cc(O)c12
REMARK SMILES IDX 5 1 3 2 2 3 1 4 22 5 20 6 19 7 17 8 16 9 15 10 14 11 6 12
REMARK SMILES IDX 7 13 8 14 9 15 13 16 11 17 10 18 12 20 4 22 21 24 18 26
REMARK H PARENT 10 19 12 21 4 23 21 25 18 27
REMARK Flexibility Score: inf
ROOT
ATOM      1  C   UNL     1      45.274  -5.255  26.496  1.00  0.00     0.180 A 
ATOM      2  C   UNL     1      45.212  -6.317  25.578  1.00  0.00     0.208 A 
ATOM      3  C   UNL     1      46.400  -6.779  24.990  1.00  0.00     0.238 A 
ATOM      4  O   UNL     1      46.331  -7.694  24.128  1.00  0.00    -0.285 OA
ATOM      5  C   UNL     1      47.636  -6.185  25.339  1.00  0.00     0.111 A 
ATOM      6  C   UNL     1      48.906  -6.600  24.835  1.00  0.00     0.134 A 
ATOM      7  C   UNL     1      50.049  -5.855  25.149  1.00  0.00     0.093 A 
ATOM      8  C   UNL     1      49.979  -4.750  26.000  1.00  0.00     0.123 A 
ATOM      9  C   UNL     1      48.754  -4.373  26.544  1.00  0.00     0.094 A 
ATOM     10  C   UNL     1      47.589  -5.074  26.221  1.00  0.00     0.146 A 
ATOM     11  O   UNL     1      46.441  -4.675  26.753  1.00  0.00    -0.452 OA
ENDROOT
BRANCH   1  12
ATOM     12  C   UNL     1      44.068  -4.730  27.175  1.00  0.00     0.025 A 
ATOM     13  C   UNL     1      44.213  -3.873  28.276  1.00  0.00     0.016 A 
ATOM     14  C   UNL     1      43.090  -3.383  28.944  1.00  0.00     0.051 A 
ATOM     15  C   UNL     1      41.801  -3.749  28.538  1.00  0.00     0.157 A 
ATOM     16  C   UNL     1      42.777  -5.117  26.779  1.00  0.00     0.062 A 
ATOM     17  C   UNL     1      41.643  -4.633  27.445  1.00  0.00     0.158 A 
BRANCH  15  18
ATOM     18  O   UNL     1      40.720  -3.218  29.243  1.00  0.00    -0.504 OA
ATOM     19  H   UNL     1      40.708  -2.292  29.646  1.00  0.00     0.293 HD
ENDBRANCH  15  18
BRANCH  17  20
ATOM     20  O   UNL     1      40.391  -5.058  26.995  1.00  0.00    -0.504 OA
ATOM     21  H   UNL     1      40.024  -5.987  27.143  1.00  0.00     0.293 HD
ENDBRANCH  17  20
ENDBRANCH   1  12
BRANCH   2  22
ATOM     22  O   UNL     1      43.978  -6.875  25.231  1.00  0.00    -0.502 OA
ATOM     23  H   UNL     1      43.700  -7.805  25.525  1.00  0.00     0.293 HD
ENDBRANCH   2  22
BRANCH   6  24
ATOM     24  O   UNL     1      49.100  -7.742  24.053  1.00  0.00    -0.507 OA
ATOM     25  H   UNL     1      48.364  -8.255  23.594  1.00  0.00     0.293 HD
ENDBRANCH   6  24
BRANCH   8  26
ATOM     26  O   UNL     1      51.125  -4.024  26.319  1.00  0.00    -0.508 OA
ATOM     27  H   UNL     1      51.654  -3.530  25.610  1.00  0.00     0.293 HD
ENDBRANCH   8  26
TORSDOF 6
ENDMDL
MODEL 9
REMARK VINA RESULT:    -7.049      2.956      4.526
REMARK INTER + INTRA:          -8.555
REMARK INTER:                  -8.623
REMARK INTRA:                   0.068
REMARK UNBOUND:                -0.064
REMARK SMILES O=c1c(O)c(-c2ccc(O)c(O)c2)oc2cc(O)cc(O)c12
REMARK SMILES IDX 5 1 3 2 2 3 1 4 22 5 20 6 19 7 17 8 16 9 15 10 14 11 6 12
REMARK SMILES IDX 7 13 8 14 9 15 13 16 11 17 10 18 12 20 4 22 21 24 18 26
REMARK H PARENT 10 19 12 21 4 23 21 25 18 27
REMARK Flexibility Score: inf
ROOT
ATOM      1  C   UNL     1      43.765  -5.037  27.130  1.00  0.00     0.180 A 
ATOM      2  C   UNL     1      43.838  -3.917  27.975  1.00  0.00     0.208 A 
ATOM      3  C   UNL     1      42.649  -3.360  28.473  1.00  0.00     0.238 A 
ATOM      4  O   UNL     1      42.719  -2.324  29.184  1.00  0.00    -0.285 OA
ATOM      5  C   UNL     1      41.404  -3.941  28.132  1.00  0.00     0.111 A 
ATOM      6  C   UNL     1      40.139  -3.483  28.612  1.00  0.00     0.134 A 
ATOM      7  C   UNL     1      38.964  -4.051  28.106  1.00  0.00     0.093 A 
ATOM      8  C   UNL     1      39.008  -5.103  27.187  1.00  0.00     0.123 A 
ATOM      9  C   UNL     1      40.238  -5.596  26.760  1.00  0.00     0.094 A 
ATOM     10  C   UNL     1      41.429  -5.026  27.219  1.00  0.00     0.146 A 
ATOM     11  O   UNL     1      42.579  -5.518  26.777  1.00  0.00    -0.452 OA
ENDROOT
BRANCH   1  12
ATOM     12  C   UNL     1      44.976  -5.695  26.587  1.00  0.00     0.025 A 
ATOM     13  C   UNL     1      45.114  -7.086  26.697  1.00  0.00     0.016 A 
ATOM     14  C   UNL     1      46.257  -7.724  26.211  1.00  0.00     0.051 A 
ATOM     15  C   UNL     1      47.289  -6.986  25.619  1.00  0.00     0.157 A 
ATOM     16  C   UNL     1      46.020  -4.949  26.015  1.00  0.00     0.062 A 
ATOM     17  C   UNL     1      47.172  -5.580  25.526  1.00  0.00     0.158 A 
BRANCH  15  18
ATOM     18  O   UNL     1      48.401  -7.685  25.146  1.00  0.00    -0.504 OA
ATOM     19  H   UNL     1      48.637  -7.774  24.168  1.00  0.00     0.293 HD
ENDBRANCH  15  18
BRANCH  17  20
ATOM     20  O   UNL     1      48.168  -4.776  24.967  1.00  0.00    -0.504 OA
ATOM     21  H   UNL     1      48.041  -3.803  24.728  1.00  0.00     0.293 HD
ENDBRANCH  17  20
ENDBRANCH   1  12
BRANCH   2  22
ATOM     22  O   UNL     1      45.078  -3.348  28.281  1.00  0.00    -0.502 OA
ATOM     23  H   UNL     1      45.847  -3.335  27.623  1.00  0.00     0.293 HD
ENDBRANCH   2  22
BRANCH   6  24
ATOM     24  O   UNL     1      39.985  -2.502  29.595  1.00  0.00    -0.507 OA
ATOM     25  H   UNL     1      40.744  -2.002  30.031  1.00  0.00     0.293 HD
ENDBRANCH   6  24
BRANCH   8  26
ATOM     26  O   UNL     1      37.833  -5.673  26.701  1.00  0.00    -0.508 OA
ATOM     27  H   UNL     1      36.953  -5.170  26.720  1.00  0.00     0.293 HD
ENDBRANCH   8  26
TORSDOF 6
ENDMDL
