MODEL 1
REMARK VINA RESULT:    -5.933      0.000      0.000
REMARK INTER + INTRA:          -6.556
REMARK INTER:                  -6.453
REMARK INTRA:                  -0.103
REMARK UNBOUND:                -0.103
REMARK SMILES Cc1ccc(C(C)C)cc1O
REMARK SMILES IDX 1 1 2 2 10 3 9 4 5 5 4 6 3 7 11 8 6 10 7 11 8 12
REMARK H PARENT 11 9
REMARK Flexibility Score: inf
ROOT
ATOM      1  C   UNL     1     -25.387  17.958  59.778  1.00  0.00     0.048 C 
ATOM      2  C   UNL     1     -26.568  17.854  58.857  1.00  0.00    -0.009 A 
ATOM      3  C   UNL     1     -27.789  18.466  59.196  1.00  0.00     0.118 A 
ATOM      4  C   UNL     1     -28.887  18.363  58.331  1.00  0.00     0.050 A 
ATOM      5  C   UNL     1     -28.786  17.653  57.122  1.00  0.00    -0.042 A 
ATOM      6  C   UNL     1     -27.563  17.045  56.792  1.00  0.00     0.004 A 
ATOM      7  C   UNL     1     -26.465  17.144  57.650  1.00  0.00     0.007 A 
ENDROOT
BRANCH   3   8
ATOM      8  O   UNL     1     -27.904  19.174  60.392  1.00  0.00    -0.508 OA
ATOM      9  H   UNL     1     -27.325  18.957  61.195  1.00  0.00     0.293 HD
ENDBRANCH   3   8
BRANCH   5  10
ATOM     10  C   UNL     1     -29.986  17.553  56.198  1.00  0.00     0.013 C 
ATOM     11  C   UNL     1     -31.283  17.361  56.994  1.00  0.00     0.012 C 
ATOM     12  C   UNL     1     -30.079  18.778  55.280  1.00  0.00     0.012 C 
ENDBRANCH   5  10
TORSDOF 2
ENDMDL
MODEL 2
REMARK VINA RESULT:    -5.793      6.376      7.875
REMARK INTER + INTRA:          -6.403
REMARK INTER:                  -6.278
REMARK INTRA:                  -0.125
REMARK UNBOUND:                -0.103
REMARK SMILES Cc1ccc(C(C)C)cc1O
REMARK SMILES IDX 1 1 2 2 10 3 9 4 5 5 4 6 3 7 11 8 6 10 7 11 8 12
REMARK H PARENT 11 9
REMARK Flexibility Score: inf
ROOT
ATOM      1  C   UNL     1     -30.775  11.994  55.863  1.00  0.00     0.048 C 
ATOM      2  C   UNL     1     -32.080  12.403  56.483  1.00  0.00    -0.009 A 
ATOM      3  C   UNL     1     -32.406  13.765  56.619  1.00  0.00     0.118 A 
ATOM      4  C   UNL     1     -33.626  14.138  57.199  1.00  0.00     0.050 A 
ATOM      5  C   UNL     1     -34.534  13.165  57.652  1.00  0.00    -0.042 A 
ATOM      6  C   UNL     1     -34.200  11.807  57.513  1.00  0.00     0.004 A 
ATOM      7  C   UNL     1     -32.985  11.430  56.935  1.00  0.00     0.007 A 
ENDROOT
BRANCH   3   8
ATOM      8  O   UNL     1     -31.516  14.742  56.174  1.00  0.00    -0.508 OA
ATOM      9  H   UNL     1     -30.941  14.601  55.351  1.00  0.00     0.293 HD
ENDBRANCH   3   8
BRANCH   5  10
ATOM     10  C   UNL     1     -35.851  13.588  58.277  1.00  0.00     0.013 C 
ATOM     11  C   UNL     1     -37.002  13.479  57.270  1.00  0.00     0.012 C 
ATOM     12  C   UNL     1     -36.146  12.775  59.543  1.00  0.00     0.012 C 
ENDBRANCH   5  10
TORSDOF 2
ENDMDL
MODEL 3
REMARK VINA RESULT:    -5.757      2.658      4.481
REMARK INTER + INTRA:          -6.365
REMARK INTER:                  -6.238
REMARK INTRA:                  -0.127
REMARK UNBOUND:                -0.103
REMARK SMILES Cc1ccc(C(C)C)cc1O
REMARK SMILES IDX 1 1 2 2 10 3 9 4 5 5 4 6 3 7 11 8 6 10 7 11 8 12
REMARK H PARENT 11 9
REMARK Flexibility Score: inf
ROOT
ATOM      1  C   UNL     1     -27.834  19.524  52.972  1.00  0.00     0.048 C 
ATOM      2  C   UNL     1     -28.247  19.450  54.414  1.00  0.00    -0.009 A 
ATOM      3  C   UNL     1     -27.622  18.539  55.285  1.00  0.00     0.118 A 
ATOM      4  C   UNL     1     -28.013  18.476  56.630  1.00  0.00     0.050 A 
ATOM      5  C   UNL     1     -29.027  19.316  57.123  1.00  0.00    -0.042 A 
ATOM      6  C   UNL     1     -29.646  20.223  56.245  1.00  0.00     0.004 A 
ATOM      7  C   UNL     1     -29.259  20.289  54.905  1.00  0.00     0.007 A 
ENDROOT
BRANCH   3   8
ATOM      8  O   UNL     1     -26.615  17.700  54.810  1.00  0.00    -0.508 OA
ATOM      9  H   UNL     1     -26.372  17.667  53.826  1.00  0.00     0.293 HD
ENDBRANCH   3   8
BRANCH   5  10
ATOM     10  C   UNL     1     -29.436  19.234  58.583  1.00  0.00     0.013 C 
ATOM     11  C   UNL     1     -28.210  19.249  59.503  1.00  0.00     0.012 C 
ATOM     12  C   UNL     1     -30.413  20.359  58.946  1.00  0.00     0.012 C 
ENDBRANCH   5  10
TORSDOF 2
ENDMDL
MODEL 4
REMARK VINA RESULT:    -5.748      6.031      8.801
REMARK INTER + INTRA:          -6.355
REMARK INTER:                  -6.230
REMARK INTRA:                  -0.125
REMARK UNBOUND:                -0.103
REMARK SMILES Cc1ccc(C(C)C)cc1O
REMARK SMILES IDX 1 1 2 2 10 3 9 4 5 5 4 6 3 7 11 8 6 10 7 11 8 12
REMARK H PARENT 11 9
REMARK Flexibility Score: inf
ROOT
ATOM      1  C   UNL     1     -36.380  12.395  54.107  1.00  0.00     0.048 C 
ATOM      2  C   UNL     1     -35.471  12.948  55.166  1.00  0.00    -0.009 A 
ATOM      3  C   UNL     1     -34.349  12.214  55.593  1.00  0.00     0.118 A 
ATOM      4  C   UNL     1     -33.505  12.737  56.582  1.00  0.00     0.050 A 
ATOM      5  C   UNL     1     -33.766  13.992  57.159  1.00  0.00    -0.042 A 
ATOM      6  C   UNL     1     -34.889  14.718  56.727  1.00  0.00     0.004 A 
ATOM      7  C   UNL     1     -35.733  14.201  55.741  1.00  0.00     0.007 A 
ENDROOT
BRANCH   3   8
ATOM      8  O   UNL     1     -34.077  10.967  55.029  1.00  0.00    -0.508 OA
ATOM      9  H   UNL     1     -34.733  10.514  54.402  1.00  0.00     0.293 HD
ENDBRANCH   3   8
BRANCH   5  10
ATOM     10  C   UNL     1     -32.841  14.542  58.229  1.00  0.00     0.013 C 
ATOM     11  C   UNL     1     -32.032  15.733  57.701  1.00  0.00     0.012 C 
ATOM     12  C   UNL     1     -33.622  14.922  59.492  1.00  0.00     0.012 C 
ENDBRANCH   5  10
TORSDOF 2
ENDMDL
MODEL 5
REMARK VINA RESULT:    -5.722      2.677      4.256
REMARK INTER + INTRA:          -6.327
REMARK INTER:                  -6.201
REMARK INTRA:                  -0.126
REMARK UNBOUND:                -0.103
REMARK SMILES Cc1ccc(C(C)C)cc1O
REMARK SMILES IDX 1 1 2 2 10 3 9 4 5 5 4 6 3 7 11 8 6 10 7 11 8 12
REMARK H PARENT 11 9
REMARK Flexibility Score: inf
ROOT
ATOM      1  C   UNL     1     -30.628  22.294  58.617  1.00  0.00     0.048 C 
ATOM      2  C   UNL     1     -29.885  21.082  58.133  1.00  0.00    -0.009 A 
ATOM      3  C   UNL     1     -29.781  20.816  56.756  1.00  0.00     0.118 A 
ATOM      4  C   UNL     1     -29.085  19.682  56.312  1.00  0.00     0.050 A 
ATOM      5  C   UNL     1     -28.486  18.802  57.230  1.00  0.00    -0.042 A 
ATOM      6  C   UNL     1     -28.595  19.077  58.605  1.00  0.00     0.004 A 
ATOM      7  C   UNL     1     -29.287  20.205  59.052  1.00  0.00     0.007 A 
ENDROOT
BRANCH   3   8
ATOM      8  O   UNL     1     -30.370  21.680  55.833  1.00  0.00    -0.508 OA
ATOM      9  H   UNL     1     -30.594  22.639  56.072  1.00  0.00     0.293 HD
ENDBRANCH   3   8
BRANCH   5  10
ATOM     10  C   UNL     1     -27.737  17.580  56.732  1.00  0.00     0.013 C 
ATOM     11  C   UNL     1     -27.114  17.838  55.354  1.00  0.00     0.012 C 
ATOM     12  C   UNL     1     -26.675  17.134  57.743  1.00  0.00     0.012 C 
ENDBRANCH   5  10
TORSDOF 2
ENDMDL
MODEL 6
REMARK VINA RESULT:    -5.684      2.468      4.392
REMARK INTER + INTRA:          -6.286
REMARK INTER:                  -6.163
REMARK INTRA:                  -0.122
REMARK UNBOUND:                -0.103
REMARK SMILES Cc1ccc(C(C)C)cc1O
REMARK SMILES IDX 1 1 2 2 10 3 9 4 5 5 4 6 3 7 11 8 6 10 7 11 8 12
REMARK H PARENT 11 9
REMARK Flexibility Score: inf
ROOT
ATOM      1  C   UNL     1     -28.396  19.887  53.052  1.00  0.00     0.048 C 
ATOM      2  C   UNL     1     -28.303  19.479  54.494  1.00  0.00    -0.009 A 
ATOM      3  C   UNL     1     -28.950  20.235  55.489  1.00  0.00     0.118 A 
ATOM      4  C   UNL     1     -28.858  19.848  56.833  1.00  0.00     0.050 A 
ATOM      5  C   UNL     1     -28.123  18.709  57.204  1.00  0.00    -0.042 A 
ATOM      6  C   UNL     1     -27.480  17.959  56.203  1.00  0.00     0.004 A 
ATOM      7  C   UNL     1     -27.569  18.341  54.862  1.00  0.00     0.007 A 
ENDROOT
BRANCH   3   8
ATOM      8  O   UNL     1     -29.682  21.368  55.136  1.00  0.00    -0.508 OA
ATOM      9  H   UNL     1     -30.106  21.966  55.837  1.00  0.00     0.293 HD
ENDBRANCH   3   8
BRANCH   5  10
ATOM     10  C   UNL     1     -28.034  18.305  58.664  1.00  0.00     0.013 C 
ATOM     11  C   UNL     1     -26.595  17.944  59.052  1.00  0.00     0.012 C 
ATOM     12  C   UNL     1     -28.593  19.404  59.575  1.00  0.00     0.012 C 
ENDBRANCH   5  10
TORSDOF 2
ENDMDL
MODEL 7
REMARK VINA RESULT:    -5.658      6.173      8.469
REMARK INTER + INTRA:          -6.256
REMARK INTER:                  -6.130
REMARK INTRA:                  -0.127
REMARK UNBOUND:                -0.103
REMARK SMILES Cc1ccc(C(C)C)cc1O
REMARK SMILES IDX 1 1 2 2 10 3 9 4 5 5 4 6 3 7 11 8 6 10 7 11 8 12
REMARK H PARENT 11 9
REMARK Flexibility Score: inf
ROOT
ATOM      1  C   UNL     1     -36.644  12.747  59.858  1.00  0.00     0.048 C 
ATOM      2  C   UNL     1     -35.528  13.026  58.892  1.00  0.00    -0.009 A 
ATOM      3  C   UNL     1     -35.207  12.092  57.890  1.00  0.00     0.118 A 
ATOM      4  C   UNL     1     -34.164  12.359  56.992  1.00  0.00     0.050 A 
ATOM      5  C   UNL     1     -33.429  13.554  57.080  1.00  0.00    -0.042 A 
ATOM      6  C   UNL     1     -33.757  14.482  58.084  1.00  0.00     0.004 A 
ATOM      7  C   UNL     1     -34.796  14.220  58.981  1.00  0.00     0.007 A 
ENDROOT
BRANCH   3   8
ATOM      8  O   UNL     1     -35.927  10.901  57.791  1.00  0.00    -0.508 OA
ATOM      9  H   UNL     1     -36.434  10.521  58.582  1.00  0.00     0.293 HD
ENDBRANCH   3   8
BRANCH   5  10
ATOM     10  C   UNL     1     -32.304  13.827  56.099  1.00  0.00     0.013 C 
ATOM     11  C   UNL     1     -31.579  15.135  56.438  1.00  0.00     0.012 C 
ATOM     12  C   UNL     1     -31.322  12.650  56.044  1.00  0.00     0.012 C 
ENDBRANCH   5  10
TORSDOF 2
ENDMDL
MODEL 8
REMARK VINA RESULT:    -5.639      5.608      7.841
REMARK INTER + INTRA:          -6.237
REMARK INTER:                  -6.117
REMARK INTRA:                  -0.120
REMARK UNBOUND:                -0.103
REMARK SMILES Cc1ccc(C(C)C)cc1O
REMARK SMILES IDX 1 1 2 2 10 3 9 4 5 5 4 6 3 7 11 8 6 10 7 11 8 12
REMARK H PARENT 11 9
REMARK Flexibility Score: inf
ROOT
ATOM      1  C   UNL     1     -31.939  16.098  57.842  1.00  0.00     0.048 C 
ATOM      2  C   UNL     1     -33.206  15.291  57.859  1.00  0.00    -0.009 A 
ATOM      3  C   UNL     1     -33.660  14.706  59.055  1.00  0.00     0.118 A 
ATOM      4  C   UNL     1     -34.843  13.955  59.062  1.00  0.00     0.050 A 
ATOM      5  C   UNL     1     -35.587  13.776  57.883  1.00  0.00    -0.042 A 
ATOM      6  C   UNL     1     -35.126  14.363  56.693  1.00  0.00     0.004 A 
ATOM      7  C   UNL     1     -33.948  15.114  56.681  1.00  0.00     0.007 A 
ENDROOT
BRANCH   3   8
ATOM      8  O   UNL     1     -32.932  14.876  60.233  1.00  0.00    -0.508 OA
ATOM      9  H   UNL     1     -32.729  14.096  60.848  1.00  0.00     0.293 HD
ENDBRANCH   3   8
BRANCH   5  10
ATOM     10  C   UNL     1     -36.867  12.959  57.910  1.00  0.00     0.013 C 
ATOM     11  C   UNL     1     -36.853  11.874  56.827  1.00  0.00     0.012 C 
ATOM     12  C   UNL     1     -37.104  12.350  59.298  1.00  0.00     0.012 C 
ENDBRANCH   5  10
TORSDOF 2
ENDMDL
MODEL 9
REMARK VINA RESULT:    -5.567      6.043      8.672
REMARK INTER + INTRA:          -6.158
REMARK INTER:                  -6.056
REMARK INTRA:                  -0.102
REMARK UNBOUND:                -0.103
REMARK SMILES Cc1ccc(C(C)C)cc1O
REMARK SMILES IDX 1 1 2 2 10 3 9 4 5 5 4 6 3 7 11 8 6 10 7 11 8 12
REMARK H PARENT 11 9
REMARK Flexibility Score: inf
ROOT
ATOM      1  C   UNL     1     -36.352  12.111  54.351  1.00  0.00     0.048 C 
ATOM      2  C   UNL     1     -35.408  12.700  55.361  1.00  0.00    -0.009 A 
ATOM      3  C   UNL     1     -35.827  13.753  56.194  1.00  0.00     0.118 A 
ATOM      4  C   UNL     1     -34.941  14.297  57.134  1.00  0.00     0.050 A 
ATOM      5  C   UNL     1     -33.630  13.803  57.255  1.00  0.00    -0.042 A 
ATOM      6  C   UNL     1     -33.220  12.751  56.418  1.00  0.00     0.004 A 
ATOM      7  C   UNL     1     -34.100  12.205  55.480  1.00  0.00     0.007 A 
ENDROOT
BRANCH   3   8
ATOM      8  O   UNL     1     -37.124  14.253  56.085  1.00  0.00    -0.508 OA
ATOM      9  H   UNL     1     -37.612  14.275  55.197  1.00  0.00     0.293 HD
ENDBRANCH   3   8
BRANCH   5  10
ATOM     10  C   UNL     1     -32.684  14.404  58.279  1.00  0.00     0.013 C 
ATOM     11  C   UNL     1     -32.016  15.673  57.735  1.00  0.00     0.012 C 
ATOM     12  C   UNL     1     -33.408  14.684  59.601  1.00  0.00     0.012 C 
ENDBRANCH   5  10
TORSDOF 2
ENDMDL
