MODEL 1
REMARK VINA RESULT:    -3.301      0.000      0.000
REMARK INTER + INTRA:          -4.096
REMARK INTER:                  -5.038
REMARK INTRA:                   0.941
REMARK UNBOUND:                 0.941
REMARK SMILES CC1=CCC[C@H](C)C(=O)C[C@@H](C(C)C)C(=O)C1
REMARK SMILES IDX 8 1 9 2 6 3 7 4 5 5 4 6 3 7 2 8 1 9 10 11 11 12 15 13 16 14
REMARK SMILES IDX 17 15 12 17 13 18 14 19
REMARK H PARENT
REMARK Flexibility Score: 70.00
ROOT
ATOM      1  C   UNL     1     -10.903 -16.627  28.875  1.00  0.00     0.136 C 
ATOM      2  O   UNL     1     -10.047 -15.811  29.185  1.00  0.00    -0.299 OA
ENDROOT
BRANCH   1   3
ATOM      3  C   UNL     1     -11.786 -16.386  27.662  1.00  0.00     0.053 C 
ATOM      4  C   UNL     1     -11.788 -17.579  26.692  1.00  0.00     0.016 C 
BRANCH   3   5
ATOM      5  C   UNL     1     -13.218 -15.990  28.077  1.00  0.00     0.015 C 
BRANCH   5   6
ATOM      6  C   UNL     1     -13.332 -14.553  28.625  1.00  0.00     0.028 C 
BRANCH   6   7
ATOM      7  C   UNL     1     -14.274 -14.501  29.799  1.00  0.00    -0.028 C 
ATOM      8  C   UNL     1     -14.019 -15.038  31.016  1.00  0.00    -0.070 CG0
ATOM      9  C   UNL     1     -15.045 -14.845  32.103  1.00  0.00     0.039 C 
ATOM     10  G   UNL     1     -12.760 -15.837  31.323  1.00  0.00     0.000 G0
ENDBRANCH   6   7
ENDBRANCH   5   6
ENDBRANCH   3   5
ENDBRANCH   1   3
BRANCH   1  11
ATOM     11  C   UNL     1     -11.062 -17.874  29.711  1.00  0.00     0.087 C 
BRANCH  11  12
ATOM     12  C   UNL     1     -12.548 -18.165  30.052  1.00  0.00     0.066 C 
BRANCH  12  13
ATOM     13  C   UNL     1     -13.006 -17.354  31.254  1.00  0.00     0.140 C 
ATOM     14  O   UNL     1     -13.645 -17.895  32.146  1.00  0.00    -0.299 OA
BRANCH  13  15
ATOM     15  C   UNL     1     -12.760 -15.866  31.324  1.00  0.00     0.106 CG0
ATOM     16  G   UNL     1     -14.012 -15.054  31.024  1.00  0.00     0.000 G0
ENDBRANCH  13  15
ENDBRANCH  12  13
BRANCH  12  17
ATOM     17  C   UNL     1     -12.853 -19.684  30.259  1.00  0.00    -0.006 C 
ATOM     18  C   UNL     1     -11.767 -20.439  31.048  1.00  0.00     0.008 C 
ATOM     19  C   UNL     1     -13.113 -20.395  28.921  1.00  0.00     0.008 C 
ENDBRANCH  12  17
ENDBRANCH  11  12
ENDBRANCH   1  11
TORSDOF 1
ENDMDL
MODEL 2
REMARK VINA RESULT:    -3.272      1.863      4.461
REMARK INTER + INTRA:          -4.052
REMARK INTER:                  -4.369
REMARK INTRA:                   0.317
REMARK UNBOUND:                 0.941
REMARK SMILES CC1=CCC[C@H](C)C(=O)C[C@@H](C(C)C)C(=O)C1
REMARK SMILES IDX 8 1 9 2 6 3 7 4 5 5 4 6 3 7 2 8 1 9 10 11 11 12 15 13 16 14
REMARK SMILES IDX 17 15 12 17 13 18 14 19
REMARK H PARENT
REMARK Flexibility Score: 70.00
ROOT
ATOM      1  C   UNL     1     -10.978 -18.414  30.443  1.00  0.00     0.136 C 
ATOM      2  O   UNL     1      -9.981 -18.354  29.738  1.00  0.00    -0.299 OA
ENDROOT
BRANCH   1   3
ATOM      3  C   UNL     1     -11.733 -19.724  30.591  1.00  0.00     0.053 C 
ATOM      4  C   UNL     1     -12.816 -19.656  31.681  1.00  0.00     0.016 C 
BRANCH   3   5
ATOM      5  C   UNL     1     -12.313 -20.197  29.242  1.00  0.00     0.015 C 
BRANCH   5   6
ATOM      6  C   UNL     1     -13.124 -19.115  28.502  1.00  0.00     0.028 C 
BRANCH   6   7
ATOM      7  C   UNL     1     -12.344 -18.564  27.337  1.00  0.00    -0.028 C 
ATOM      8  C   UNL     1     -12.211 -17.247  27.053  1.00  0.00    -0.070 CG0
ATOM      9  C   UNL     1     -11.344 -16.860  25.881  1.00  0.00     0.039 C 
ATOM     10  G   UNL     1     -12.910 -16.152  27.847  1.00  0.00     0.000 G0
ENDBRANCH   6   7
ENDBRANCH   5   6
ENDBRANCH   3   5
ENDBRANCH   1   3
BRANCH   1  11
ATOM     11  C   UNL     1     -11.439 -17.170  31.164  1.00  0.00     0.087 C 
BRANCH  11  12
ATOM     12  C   UNL     1     -12.630 -16.483  30.444  1.00  0.00     0.066 C 
BRANCH  12  13
ATOM     13  C   UNL     1     -12.188 -15.837  29.139  1.00  0.00     0.140 C 
ATOM     14  O   UNL     1     -11.288 -15.009  29.146  1.00  0.00    -0.299 OA
BRANCH  13  15
ATOM     15  C   UNL     1     -12.901 -16.139  27.844  1.00  0.00     0.106 CG0
ATOM     16  G   UNL     1     -12.217 -17.239  27.046  1.00  0.00     0.000 G0
ENDBRANCH  13  15
ENDBRANCH  12  13
BRANCH  12  17
ATOM     17  C   UNL     1     -13.392 -15.456  31.342  1.00  0.00    -0.006 C 
ATOM     18  C   UNL     1     -14.161 -16.097  32.513  1.00  0.00     0.008 C 
ATOM     19  C   UNL     1     -14.344 -14.578  30.512  1.00  0.00     0.008 C 
ENDBRANCH  12  17
ENDBRANCH  11  12
ENDBRANCH   1  11
TORSDOF 1
ENDMDL
MODEL 3
REMARK VINA RESULT:    -3.250      1.572      4.165
REMARK INTER + INTRA:          -4.019
REMARK INTER:                  -4.924
REMARK INTRA:                   0.905
REMARK UNBOUND:                 0.941
REMARK SMILES CC1=CCC[C@H](C)C(=O)C[C@@H](C(C)C)C(=O)C1
REMARK SMILES IDX 8 1 9 2 6 3 7 4 5 5 4 6 3 7 2 8 1 9 10 11 11 12 15 13 16 14
REMARK SMILES IDX 17 15 12 17 13 18 14 19
REMARK H PARENT
REMARK Flexibility Score: 70.00
ROOT
ATOM      1  C   UNL     1     -11.812 -16.093  28.709  1.00  0.00     0.136 C 
ATOM      2  O   UNL     1     -11.099 -15.119  28.907  1.00  0.00    -0.299 OA
ENDROOT
BRANCH   1   3
ATOM      3  C   UNL     1     -11.306 -17.256  27.874  1.00  0.00     0.053 C 
ATOM      4  C   UNL     1     -11.081 -16.868  26.403  1.00  0.00     0.016 C 
BRANCH   3   5
ATOM      5  C   UNL     1     -10.042 -17.887  28.493  1.00  0.00     0.015 C 
BRANCH   5   6
ATOM      6  C   UNL     1      -9.994 -17.801  30.031  1.00  0.00     0.028 C 
BRANCH   6   7
ATOM      7  C   UNL     1     -10.365 -19.121  30.654  1.00  0.00    -0.028 C 
ATOM      8  C   UNL     1     -11.626 -19.608  30.734  1.00  0.00    -0.070 CG0
ATOM      9  C   UNL     1     -11.819 -20.976  31.336  1.00  0.00     0.039 C 
ATOM     10  G   UNL     1     -12.847 -18.830  30.264  1.00  0.00     0.000 G0
ENDBRANCH   6   7
ENDBRANCH   5   6
ENDBRANCH   3   5
ENDBRANCH   1   3
BRANCH   1  11
ATOM     11  C   UNL     1     -13.196 -16.118  29.312  1.00  0.00     0.087 C 
BRANCH  11  12
ATOM     12  C   UNL     1     -13.159 -16.295  30.854  1.00  0.00     0.066 C 
BRANCH  12  13
ATOM     13  C   UNL     1     -13.267 -17.761  31.244  1.00  0.00     0.140 C 
ATOM     14  O   UNL     1     -13.618 -18.065  32.375  1.00  0.00    -0.299 OA
BRANCH  13  15
ATOM     15  C   UNL     1     -12.864 -18.850  30.280  1.00  0.00     0.106 CG0
ATOM     16  G   UNL     1     -11.637 -19.618  30.751  1.00  0.00     0.000 G0
ENDBRANCH  13  15
ENDBRANCH  12  13
BRANCH  12  17
ATOM     17  C   UNL     1     -14.232 -15.440  31.603  1.00  0.00    -0.006 C 
ATOM     18  C   UNL     1     -14.697 -14.195  30.825  1.00  0.00     0.008 C 
ATOM     19  C   UNL     1     -13.749 -15.029  33.004  1.00  0.00     0.008 C 
ENDBRANCH  12  17
ENDBRANCH  11  12
ENDBRANCH   1  11
TORSDOF 1
ENDMDL
MODEL 4
REMARK VINA RESULT:    -2.965      1.833      3.226
REMARK INTER + INTRA:          -3.583
REMARK INTER:                  -3.928
REMARK INTRA:                   0.345
REMARK UNBOUND:                 0.941
REMARK SMILES CC1=CCC[C@H](C)C(=O)C[C@@H](C(C)C)C(=O)C1
REMARK SMILES IDX 8 1 9 2 6 3 7 4 5 5 4 6 3 7 2 8 1 9 10 11 11 12 15 13 16 14
REMARK SMILES IDX 17 15 12 17 13 18 14 19
REMARK H PARENT
REMARK Flexibility Score: 70.00
ROOT
ATOM      1  C   UNL     1     -13.731 -14.567  28.202  1.00  0.00     0.136 C 
ATOM      2  O   UNL     1     -14.221 -14.933  27.142  1.00  0.00    -0.299 OA
ENDROOT
BRANCH   1   3
ATOM      3  C   UNL     1     -14.383 -13.452  29.002  1.00  0.00     0.053 C 
ATOM      4  C   UNL     1     -15.103 -12.431  28.106  1.00  0.00     0.016 C 
BRANCH   3   5
ATOM      5  C   UNL     1     -15.322 -14.014  30.089  1.00  0.00     0.015 C 
BRANCH   5   6
ATOM      6  C   UNL     1     -14.764 -13.882  31.520  1.00  0.00     0.028 C 
BRANCH   6   7
ATOM      7  C   UNL     1     -14.901 -15.182  32.270  1.00  0.00    -0.028 C 
ATOM      8  C   UNL     1     -13.975 -16.170  32.273  1.00  0.00    -0.070 CG0
ATOM      9  C   UNL     1     -14.240 -17.385  33.126  1.00  0.00     0.039 C 
ATOM     10  G   UNL     1     -12.700 -16.115  31.444  1.00  0.00     0.000 G0
ENDBRANCH   6   7
ENDBRANCH   5   6
ENDBRANCH   3   5
ENDBRANCH   1   3
BRANCH   1  11
ATOM     11  C   UNL     1     -12.476 -15.244  28.699  1.00  0.00     0.087 C 
BRANCH  11  12
ATOM     12  C   UNL     1     -12.666 -16.775  28.871  1.00  0.00     0.066 C 
BRANCH  12  13
ATOM     13  C   UNL     1     -12.663 -17.169  30.341  1.00  0.00     0.140 C 
ATOM     14  O   UNL     1     -12.706 -18.350  30.654  1.00  0.00    -0.299 OA
BRANCH  13  15
ATOM     15  C   UNL     1     -12.696 -16.118  31.424  1.00  0.00     0.106 CG0
ATOM     16  G   UNL     1     -13.978 -16.168  32.243  1.00  0.00     0.000 G0
ENDBRANCH  13  15
ENDBRANCH  12  13
BRANCH  12  17
ATOM     17  C   UNL     1     -11.631 -17.625  28.067  1.00  0.00    -0.006 C 
ATOM     18  C   UNL     1     -10.240 -17.706  28.725  1.00  0.00     0.008 C 
ATOM     19  C   UNL     1     -11.493 -17.125  26.619  1.00  0.00     0.008 C 
ENDBRANCH  12  17
ENDBRANCH  11  12
ENDBRANCH   1  11
TORSDOF 1
ENDMDL
MODEL 5
REMARK VINA RESULT:    -2.613      2.009      4.723
REMARK INTER + INTRA:          -3.046
REMARK INTER:                  -4.174
REMARK INTRA:                   1.127
REMARK UNBOUND:                 0.941
REMARK SMILES CC1=CCC[C@H](C)C(=O)C[C@@H](C(C)C)C(=O)C1
REMARK SMILES IDX 8 1 9 2 6 3 7 4 5 5 4 6 3 7 2 8 1 9 10 11 11 12 15 13 16 14
REMARK SMILES IDX 17 15 12 17 13 18 14 19
REMARK H PARENT
REMARK Flexibility Score: 70.00
ROOT
ATOM      1  C   UNL     1     -13.598 -15.280  30.612  1.00  0.00     0.136 C 
ATOM      2  O   UNL     1     -14.629 -14.625  30.548  1.00  0.00    -0.299 OA
ENDROOT
BRANCH   1   3
ATOM      3  C   UNL     1     -13.226 -15.998  31.898  1.00  0.00     0.053 C 
ATOM      4  C   UNL     1     -13.528 -15.155  33.149  1.00  0.00     0.016 C 
BRANCH   3   5
ATOM      5  C   UNL     1     -13.888 -17.390  31.979  1.00  0.00     0.015 C 
BRANCH   5   6
ATOM      6  C   UNL     1     -12.887 -18.559  31.890  1.00  0.00     0.028 C 
BRANCH   6   7
ATOM      7  C   UNL     1     -13.217 -19.459  30.727  1.00  0.00    -0.028 C 
ATOM      8  C   UNL     1     -12.409 -19.665  29.660  1.00  0.00    -0.070 CG0
ATOM      9  C   UNL     1     -12.863 -20.645  28.609  1.00  0.00     0.039 C 
ATOM     10  G   UNL     1     -11.083 -18.942  29.471  1.00  0.00     0.000 G0
ENDBRANCH   6   7
ENDBRANCH   5   6
ENDBRANCH   3   5
ENDBRANCH   1   3
BRANCH   1  11
ATOM     11  C   UNL     1     -12.709 -15.365  29.395  1.00  0.00     0.087 C 
BRANCH  11  12
ATOM     12  C   UNL     1     -12.553 -16.823  28.885  1.00  0.00     0.066 C 
BRANCH  12  13
ATOM     13  C   UNL     1     -11.239 -17.432  29.350  1.00  0.00     0.140 C 
ATOM     14  O   UNL     1     -10.279 -16.708  29.574  1.00  0.00    -0.299 OA
BRANCH  13  15
ATOM     15  C   UNL     1     -11.074 -18.928  29.457  1.00  0.00     0.106 CG0
ATOM     16  G   UNL     1     -12.403 -19.647  29.645  1.00  0.00     0.000 G0
ENDBRANCH  13  15
ENDBRANCH  12  13
BRANCH  12  17
ATOM     17  C   UNL     1     -12.711 -16.960  27.336  1.00  0.00    -0.006 C 
ATOM     18  C   UNL     1     -11.374 -16.993  26.571  1.00  0.00     0.008 C 
ATOM     19  C   UNL     1     -13.614 -15.857  26.760  1.00  0.00     0.008 C 
ENDBRANCH  12  17
ENDBRANCH  11  12
ENDBRANCH   1  11
TORSDOF 1
ENDMDL
MODEL 6
REMARK VINA RESULT:    -2.172      1.864      3.979
REMARK INTER + INTRA:          -2.374
REMARK INTER:                  -3.741
REMARK INTRA:                   1.367
REMARK UNBOUND:                 0.941
REMARK SMILES CC1=CCC[C@H](C)C(=O)C[C@@H](C(C)C)C(=O)C1
REMARK SMILES IDX 8 1 9 2 6 3 7 4 5 5 4 6 3 7 2 8 1 9 10 11 11 12 15 13 16 14
REMARK SMILES IDX 17 15 12 17 13 18 14 19
REMARK H PARENT
REMARK Flexibility Score: 70.00
ROOT
ATOM      1  C   UNL     1     -12.829 -19.684  29.078  1.00  0.00     0.136 C 
ATOM      2  O   UNL     1     -12.901 -20.809  28.606  1.00  0.00    -0.299 OA
ENDROOT
BRANCH   1   3
ATOM      3  C   UNL     1     -12.090 -19.448  30.384  1.00  0.00     0.053 C 
ATOM      4  C   UNL     1     -12.122 -20.678  31.307  1.00  0.00     0.016 C 
BRANCH   3   5
ATOM      5  C   UNL     1     -10.646 -18.963  30.136  1.00  0.00     0.015 C 
BRANCH   5   6
ATOM      6  C   UNL     1     -10.388 -17.517  30.604  1.00  0.00     0.028 C 
BRANCH   6   7
ATOM      7  C   UNL     1     -11.594 -16.960  31.314  1.00  0.00    -0.028 C 
ATOM      8  C   UNL     1     -12.428 -16.026  30.799  1.00  0.00    -0.070 CG0
ATOM      9  C   UNL     1     -13.626 -15.618  31.619  1.00  0.00     0.039 C 
ATOM     10  G   UNL     1     -12.198 -15.363  29.448  1.00  0.00     0.000 G0
ENDBRANCH   6   7
ENDBRANCH   5   6
ENDBRANCH   3   5
ENDBRANCH   1   3
BRANCH   1  11
ATOM     11  C   UNL     1     -13.480 -18.539  28.341  1.00  0.00     0.087 C 
BRANCH  11  12
ATOM     12  C   UNL     1     -12.449 -17.469  27.893  1.00  0.00     0.066 C 
BRANCH  12  13
ATOM     13  C   UNL     1     -12.884 -16.073  28.315  1.00  0.00     0.140 C 
ATOM     14  O   UNL     1     -13.756 -15.492  27.685  1.00  0.00    -0.299 OA
BRANCH  13  15
ATOM     15  C   UNL     1     -12.195 -15.357  29.451  1.00  0.00     0.106 CG0
ATOM     16  G   UNL     1     -12.440 -16.029  30.795  1.00  0.00     0.000 G0
ENDBRANCH  13  15
ENDBRANCH  12  13
BRANCH  12  17
ATOM     17  C   UNL     1     -12.130 -17.512  26.364  1.00  0.00    -0.006 C 
ATOM     18  C   UNL     1     -10.628 -17.612  26.039  1.00  0.00     0.008 C 
ATOM     19  C   UNL     1     -12.744 -16.311  25.625  1.00  0.00     0.008 C 
ENDBRANCH  12  17
ENDBRANCH  11  12
ENDBRANCH   1  11
TORSDOF 1
ENDMDL
MODEL 7
REMARK VINA RESULT:    -2.115      1.841      3.691
REMARK INTER + INTRA:          -2.286
REMARK INTER:                  -3.536
REMARK INTRA:                   1.250
REMARK UNBOUND:                 0.941
REMARK SMILES CC1=CCC[C@H](C)C(=O)C[C@@H](C(C)C)C(=O)C1
REMARK SMILES IDX 8 1 9 2 6 3 7 4 5 5 4 6 3 7 2 8 1 9 10 11 11 12 15 13 16 14
REMARK SMILES IDX 17 15 12 17 13 18 14 19
REMARK H PARENT
REMARK Flexibility Score: 70.00
ROOT
ATOM      1  C   UNL     1     -12.516 -19.026  29.175  1.00  0.00     0.136 C 
ATOM      2  O   UNL     1     -12.298 -20.183  28.844  1.00  0.00    -0.299 OA
ENDROOT
BRANCH   1   3
ATOM      3  C   UNL     1     -12.208 -18.563  30.588  1.00  0.00     0.053 C 
ATOM      4  C   UNL     1     -10.791 -17.980  30.718  1.00  0.00     0.016 C 
BRANCH   3   5
ATOM      5  C   UNL     1     -13.276 -17.578  31.105  1.00  0.00     0.015 C 
BRANCH   5   6
ATOM      6  C   UNL     1     -12.820 -16.105  31.094  1.00  0.00     0.028 C 
BRANCH   6   7
ATOM      7  C   UNL     1     -13.994 -15.183  30.895  1.00  0.00    -0.028 C 
ATOM      8  C   UNL     1     -14.196 -14.420  29.795  1.00  0.00    -0.070 CG0
ATOM      9  C   UNL     1     -15.456 -13.594  29.728  1.00  0.00     0.039 C 
ATOM     10  G   UNL     1     -13.204 -14.347  28.643  1.00  0.00     0.000 G0
ENDBRANCH   6   7
ENDBRANCH   5   6
ENDBRANCH   3   5
ENDBRANCH   1   3
BRANCH   1  11
ATOM     11  C   UNL     1     -13.089 -18.071  28.156  1.00  0.00     0.087 C 
BRANCH  11  12
ATOM     12  C   UNL     1     -12.284 -16.746  28.078  1.00  0.00     0.066 C 
BRANCH  12  13
ATOM     13  C   UNL     1     -13.192 -15.568  27.759  1.00  0.00     0.140 C 
ATOM     14  O   UNL     1     -13.877 -15.584  26.746  1.00  0.00    -0.299 OA
BRANCH  13  15
ATOM     15  C   UNL     1     -13.196 -14.336  28.631  1.00  0.00     0.106 CG0
ATOM     16  G   UNL     1     -14.204 -14.432  29.768  1.00  0.00     0.000 G0
ENDBRANCH  13  15
ENDBRANCH  12  13
BRANCH  12  17
ATOM     17  C   UNL     1     -11.082 -16.806  27.081  1.00  0.00    -0.006 C 
ATOM     18  C   UNL     1     -11.470 -17.251  25.658  1.00  0.00     0.008 C 
ATOM     19  C   UNL     1      -9.950 -17.699  27.615  1.00  0.00     0.008 C 
ENDBRANCH  12  17
ENDBRANCH  11  12
ENDBRANCH   1  11
TORSDOF 1
ENDMDL
MODEL 8
REMARK VINA RESULT:    -1.905      2.383      3.634
REMARK INTER + INTRA:          -1.966
REMARK INTER:                  -2.810
REMARK INTRA:                   0.845
REMARK UNBOUND:                 0.941
REMARK SMILES CC1=CCC[C@H](C)C(=O)C[C@@H](C(C)C)C(=O)C1
REMARK SMILES IDX 8 1 9 2 6 3 7 4 5 5 4 6 3 7 2 8 1 9 10 11 11 12 15 13 16 14
REMARK SMILES IDX 17 15 12 17 13 18 14 19
REMARK H PARENT
REMARK Flexibility Score: 70.00
ROOT
ATOM      1  C   UNL     1     -12.193 -16.507  30.716  1.00  0.00     0.136 C 
ATOM      2  O   UNL     1     -12.858 -15.531  30.400  1.00  0.00    -0.299 OA
ENDROOT
BRANCH   1   3
ATOM      3  C   UNL     1     -10.687 -16.388  30.876  1.00  0.00     0.053 C 
ATOM      4  C   UNL     1      -9.996 -17.759  30.968  1.00  0.00     0.016 C 
BRANCH   3   5
ATOM      5  C   UNL     1     -10.069 -15.515  29.764  1.00  0.00     0.015 C 
BRANCH   5   6
ATOM      6  C   UNL     1      -9.957 -16.230  28.403  1.00  0.00     0.028 C 
BRANCH   6   7
ATOM      7  C   UNL     1     -11.162 -15.944  27.546  1.00  0.00    -0.028 C 
ATOM      8  C   UNL     1     -12.073 -16.871  27.166  1.00  0.00    -0.070 CG0
ATOM      9  C   UNL     1     -13.258 -16.407  26.356  1.00  0.00     0.039 C 
ATOM     10  G   UNL     1     -11.943 -18.350  27.502  1.00  0.00     0.000 G0
ENDBRANCH   6   7
ENDBRANCH   5   6
ENDBRANCH   3   5
ENDBRANCH   1   3
BRANCH   1  11
ATOM     11  C   UNL     1     -12.893 -17.824  30.949  1.00  0.00     0.087 C 
BRANCH  11  12
ATOM     12  C   UNL     1     -12.347 -18.948  30.027  1.00  0.00     0.066 C 
BRANCH  12  13
ATOM     13  C   UNL     1     -12.862 -18.793  28.604  1.00  0.00     0.140 C 
ATOM     14  O   UNL     1     -14.017 -19.097  28.339  1.00  0.00    -0.299 OA
BRANCH  13  15
ATOM     15  C   UNL     1     -11.943 -18.350  27.492  1.00  0.00     0.106 CG0
ATOM     16  G   UNL     1     -12.072 -16.865  27.188  1.00  0.00     0.000 G0
ENDBRANCH  13  15
ENDBRANCH  12  13
BRANCH  12  17
ATOM     17  C   UNL     1     -12.631 -20.388  30.566  1.00  0.00    -0.006 C 
ATOM     18  C   UNL     1     -11.751 -20.793  31.764  1.00  0.00     0.008 C 
ATOM     19  C   UNL     1     -12.512 -21.441  29.453  1.00  0.00     0.008 C 
ENDBRANCH  12  17
ENDBRANCH  11  12
ENDBRANCH   1  11
TORSDOF 1
ENDMDL
MODEL 9
REMARK VINA RESULT:    -1.715      1.833      4.236
REMARK INTER + INTRA:          -1.676
REMARK INTER:                  -3.103
REMARK INTRA:                   1.426
REMARK UNBOUND:                 0.941
REMARK SMILES CC1=CCC[C@H](C)C(=O)C[C@@H](C(C)C)C(=O)C1
REMARK SMILES IDX 8 1 9 2 6 3 7 4 5 5 4 6 3 7 2 8 1 9 10 11 11 12 15 13 16 14
REMARK SMILES IDX 17 15 12 17 13 18 14 19
REMARK H PARENT
REMARK Flexibility Score: 70.00
ROOT
ATOM      1  C   UNL     1     -13.130 -15.765  27.736  1.00  0.00     0.136 C 
ATOM      2  O   UNL     1     -14.038 -15.442  26.981  1.00  0.00    -0.299 OA
ENDROOT
BRANCH   1   3
ATOM      3  C   UNL     1     -12.557 -17.171  27.686  1.00  0.00     0.053 C 
ATOM      4  C   UNL     1     -13.570 -18.199  27.155  1.00  0.00     0.016 C 
BRANCH   3   5
ATOM      5  C   UNL     1     -11.236 -17.214  26.890  1.00  0.00     0.015 C 
BRANCH   5   6
ATOM      6  C   UNL     1      -9.977 -17.241  27.779  1.00  0.00     0.028 C 
BRANCH   6   7
ATOM      7  C   UNL     1     -10.068 -18.340  28.805  1.00  0.00    -0.028 C 
ATOM      8  C   UNL     1     -10.518 -18.175  30.072  1.00  0.00    -0.070 CG0
ATOM      9  C   UNL     1     -10.602 -19.393  30.957  1.00  0.00     0.039 C 
ATOM     10  G   UNL     1     -10.920 -16.821  30.640  1.00  0.00     0.000 G0
ENDBRANCH   6   7
ENDBRANCH   5   6
ENDBRANCH   3   5
ENDBRANCH   1   3
BRANCH   1  11
ATOM     11  C   UNL     1     -12.590 -14.744  28.707  1.00  0.00     0.087 C 
BRANCH  11  12
ATOM     12  C   UNL     1     -12.883 -15.127  30.183  1.00  0.00     0.066 C 
BRANCH  12  13
ATOM     13  C   UNL     1     -12.387 -16.530  30.497  1.00  0.00     0.140 C 
ATOM     14  O   UNL     1     -13.191 -17.427  30.707  1.00  0.00    -0.299 OA
BRANCH  13  15
ATOM     15  C   UNL     1     -10.911 -16.816  30.639  1.00  0.00     0.106 CG0
ATOM     16  G   UNL     1     -10.521 -18.164  30.051  1.00  0.00     0.000 G0
ENDBRANCH  13  15
ENDBRANCH  12  13
BRANCH  12  17
ATOM     17  C   UNL     1     -14.386 -14.969  30.580  1.00  0.00    -0.006 C 
ATOM     18  C   UNL     1     -15.124 -13.856  29.811  1.00  0.00     0.008 C 
ATOM     19  C   UNL     1     -14.550 -14.752  32.094  1.00  0.00     0.008 C 
ENDBRANCH  12  17
ENDBRANCH  11  12
ENDBRANCH   1  11
TORSDOF 1
ENDMDL
