MODEL 1
REMARK VINA RESULT:    -3.373      0.000      0.000
REMARK INTER + INTRA:          -8.657
REMARK INTER:                  -6.133
REMARK INTRA:                  -2.524
REMARK UNBOUND:                -2.524
REMARK SMILES CCCCCCCCCCCCCCCC(=O)[O-]
REMARK SMILES IDX 9 1 10 2 11 3 12 4 13 5 14 6 15 7 16 8 17 9 18 10 8 11 7 12
REMARK SMILES IDX 6 13 5 14 4 15 3 16 2 17 1 18
REMARK H PARENT
REMARK Flexibility Score: inf
ROOT
ATOM      1  C   UNL     1      -6.249  -1.665  37.253  1.00  0.00     0.000 C 
ENDROOT
BRANCH   1   2
ATOM      2  C   UNL     1      -5.142  -2.688  36.924  1.00  0.00     0.000 C 
BRANCH   2   3
ATOM      3  C   UNL     1      -5.189  -3.277  35.502  1.00  0.00     0.000 C 
BRANCH   3   4
ATOM      4  C   UNL     1      -3.798  -3.659  34.967  1.00  0.00     0.000 C 
BRANCH   4   5
ATOM      5  C   UNL     1      -2.682  -3.470  36.009  1.00  0.00     0.000 C 
BRANCH   5   6
ATOM      6  C   UNL     1      -1.545  -2.521  35.587  1.00  0.00     0.006 C 
BRANCH   6   7
ATOM      7  C   UNL     1      -0.319  -2.608  36.505  1.00  0.00     0.053 C 
BRANCH   7   8
ATOM      8  C   UNL     1       0.930  -2.309  35.739  1.00  0.00     0.041 C 
ATOM      9  O   UNL     1       1.289  -1.117  35.552  1.00  0.00    -0.550 OA
ATOM     10  O   UNL     1       1.725  -3.348  35.272  1.00  0.00    -0.550 OA
ENDBRANCH   7   8
ENDBRANCH   6   7
ENDBRANCH   5   6
ENDBRANCH   4   5
ENDBRANCH   3   4
ENDBRANCH   2   3
ENDBRANCH   1   2
BRANCH   1  11
ATOM     11  C   UNL     1      -5.972  -0.765  38.471  1.00  0.00     0.000 C 
BRANCH  11  12
ATOM     12  C   UNL     1      -4.609  -1.049  39.125  1.00  0.00    -0.000 C 
BRANCH  12  13
ATOM     13  C   UNL     1      -3.646   0.146  39.027  1.00  0.00    -0.000 C 
BRANCH  13  14
ATOM     14  C   UNL     1      -2.482  -0.113  38.056  1.00  0.00    -0.000 C 
BRANCH  14  15
ATOM     15  C   UNL     1      -2.450   0.891  36.892  1.00  0.00    -0.000 C 
BRANCH  15  16
ATOM     16  C   UNL     1      -3.792   0.974  36.143  1.00  0.00    -0.000 C 
BRANCH  16  17
ATOM     17  C   UNL     1      -3.779   0.187  34.823  1.00  0.00    -0.003 C 
ATOM     18  C   UNL     1      -5.144   0.169  34.135  1.00  0.00     0.004 C 
ENDBRANCH  16  17
ENDBRANCH  15  16
ENDBRANCH  14  15
ENDBRANCH  13  14
ENDBRANCH  12  13
ENDBRANCH  11  12
ENDBRANCH   1  11
TORSDOF 14
ENDMDL
MODEL 2
REMARK VINA RESULT:    -3.369      3.109      5.484
REMARK INTER + INTRA:          -8.651
REMARK INTER:                  -5.736
REMARK INTRA:                  -2.914
REMARK UNBOUND:                -2.524
REMARK SMILES CCCCCCCCCCCCCCCC(=O)[O-]
REMARK SMILES IDX 9 1 10 2 11 3 12 4 13 5 14 6 15 7 16 8 17 9 18 10 8 11 7 12
REMARK SMILES IDX 6 13 5 14 4 15 3 16 2 17 1 18
REMARK H PARENT
REMARK Flexibility Score: inf
ROOT
ATOM      1  C   UNL     1      -5.766  -0.717  38.125  1.00  0.00     0.000 C 
ENDROOT
BRANCH   1   2
ATOM      2  C   UNL     1      -4.325  -1.023  38.579  1.00  0.00     0.000 C 
BRANCH   2   3
ATOM      3  C   UNL     1      -3.233  -0.132  37.958  1.00  0.00     0.000 C 
BRANCH   3   4
ATOM      4  C   UNL     1      -3.773   0.795  36.856  1.00  0.00     0.000 C 
BRANCH   4   5
ATOM      5  C   UNL     1      -3.317   0.379  35.446  1.00  0.00     0.000 C 
BRANCH   5   6
ATOM      6  C   UNL     1      -4.399   0.470  34.354  1.00  0.00     0.006 C 
BRANCH   6   7
ATOM      7  C   UNL     1      -5.590   1.348  34.761  1.00  0.00     0.053 C 
BRANCH   7   8
ATOM      8  C   UNL     1      -6.877   0.622  34.532  1.00  0.00     0.041 C 
ATOM      9  O   UNL     1      -6.978  -0.206  33.588  1.00  0.00    -0.550 OA
ATOM     10  O   UNL     1      -7.951   0.822  35.390  1.00  0.00    -0.550 OA
ENDBRANCH   7   8
ENDBRANCH   6   7
ENDBRANCH   5   6
ENDBRANCH   4   5
ENDBRANCH   3   4
ENDBRANCH   2   3
ENDBRANCH   1   2
BRANCH   1  11
ATOM     11  C   UNL     1      -6.418  -1.788  37.232  1.00  0.00     0.000 C 
BRANCH  11  12
ATOM     12  C   UNL     1      -5.421  -2.865  36.770  1.00  0.00    -0.000 C 
BRANCH  12  13
ATOM     13  C   UNL     1      -5.331  -2.969  35.239  1.00  0.00    -0.000 C 
BRANCH  13  14
ATOM     14  C   UNL     1      -3.926  -3.367  34.756  1.00  0.00    -0.000 C 
BRANCH  14  15
ATOM     15  C   UNL     1      -2.881  -3.320  35.882  1.00  0.00    -0.000 C 
BRANCH  15  16
ATOM     16  C   UNL     1      -1.550  -2.692  35.431  1.00  0.00    -0.000 C 
BRANCH  16  17
ATOM     17  C   UNL     1      -0.632  -2.348  36.614  1.00  0.00    -0.003 C 
ATOM     18  C   UNL     1       0.117  -1.029  36.415  1.00  0.00     0.004 C 
ENDBRANCH  16  17
ENDBRANCH  15  16
ENDBRANCH  14  15
ENDBRANCH  13  14
ENDBRANCH  12  13
ENDBRANCH  11  12
ENDBRANCH   1  11
TORSDOF 14
ENDMDL
MODEL 3
REMARK VINA RESULT:    -3.316      1.212      1.812
REMARK INTER + INTRA:          -8.554
REMARK INTER:                  -6.021
REMARK INTRA:                  -2.532
REMARK UNBOUND:                -2.524
REMARK SMILES CCCCCCCCCCCCCCCC(=O)[O-]
REMARK SMILES IDX 9 1 10 2 11 3 12 4 13 5 14 6 15 7 16 8 17 9 18 10 8 11 7 12
REMARK SMILES IDX 6 13 5 14 4 15 3 16 2 17 1 18
REMARK H PARENT
REMARK Flexibility Score: inf
ROOT
ATOM      1  C   UNL     1      -5.841  -2.215  36.991  1.00  0.00     0.000 C 
ENDROOT
BRANCH   1   2
ATOM      2  C   UNL     1      -5.237  -3.258  36.029  1.00  0.00     0.000 C 
BRANCH   2   3
ATOM      3  C   UNL     1      -5.064  -2.791  34.572  1.00  0.00     0.000 C 
BRANCH   3   4
ATOM      4  C   UNL     1      -3.597  -2.806  34.110  1.00  0.00     0.000 C 
BRANCH   4   5
ATOM      5  C   UNL     1      -2.599  -2.835  35.282  1.00  0.00     0.000 C 
BRANCH   5   6
ATOM      6  C   UNL     1      -1.743  -1.565  35.445  1.00  0.00     0.006 C 
BRANCH   6   7
ATOM      7  C   UNL     1      -0.819  -1.618  36.669  1.00  0.00     0.053 C 
BRANCH   7   8
ATOM      8  C   UNL     1       0.598  -1.838  36.244  1.00  0.00     0.041 C 
ATOM      9  O   UNL     1       1.424  -0.888  36.274  1.00  0.00    -0.550 OA
ATOM     10  O   UNL     1       1.021  -3.104  35.860  1.00  0.00    -0.550 OA
ENDBRANCH   7   8
ENDBRANCH   6   7
ENDBRANCH   5   6
ENDBRANCH   4   5
ENDBRANCH   3   4
ENDBRANCH   2   3
ENDBRANCH   1   2
BRANCH   1  11
ATOM     11  C   UNL     1      -4.992  -1.897  38.235  1.00  0.00     0.000 C 
BRANCH  11  12
ATOM     12  C   UNL     1      -4.159  -0.614  38.076  1.00  0.00    -0.000 C 
BRANCH  12  13
ATOM     13  C   UNL     1      -4.922   0.497  37.335  1.00  0.00    -0.000 C 
BRANCH  13  14
ATOM     14  C   UNL     1      -4.100   1.115  36.191  1.00  0.00    -0.000 C 
BRANCH  14  15
ATOM     15  C   UNL     1      -4.711   0.836  34.808  1.00  0.00    -0.000 C 
BRANCH  15  16
ATOM     16  C   UNL     1      -6.243   0.703  34.852  1.00  0.00    -0.000 C 
BRANCH  16  17
ATOM     17  C   UNL     1      -6.845   0.378  33.476  1.00  0.00    -0.003 C 
ATOM     18  C   UNL     1      -6.134   1.106  32.335  1.00  0.00     0.004 C 
ENDBRANCH  16  17
ENDBRANCH  15  16
ENDBRANCH  14  15
ENDBRANCH  13  14
ENDBRANCH  12  13
ENDBRANCH  11  12
ENDBRANCH   1  11
TORSDOF 14
ENDMDL
MODEL 4
REMARK VINA RESULT:    -3.313      0.949      2.203
REMARK INTER + INTRA:          -8.548
REMARK INTER:                  -6.053
REMARK INTRA:                  -2.496
REMARK UNBOUND:                -2.524
REMARK SMILES CCCCCCCCCCCCCCCC(=O)[O-]
REMARK SMILES IDX 9 1 10 2 11 3 12 4 13 5 14 6 15 7 16 8 17 9 18 10 8 11 7 12
REMARK SMILES IDX 6 13 5 14 4 15 3 16 2 17 1 18
REMARK H PARENT
REMARK Flexibility Score: inf
ROOT
ATOM      1  C   UNL     1      -5.361  -2.907  35.112  1.00  0.00     0.000 C 
ENDROOT
BRANCH   1   2
ATOM      2  C   UNL     1      -3.960  -3.396  34.692  1.00  0.00     0.000 C 
BRANCH   2   3
ATOM      3  C   UNL     1      -2.887  -3.354  35.796  1.00  0.00     0.000 C 
BRANCH   3   4
ATOM      4  C   UNL     1      -1.620  -2.593  35.371  1.00  0.00     0.000 C 
BRANCH   4   5
ATOM      5  C   UNL     1      -0.608  -2.424  36.518  1.00  0.00     0.000 C 
BRANCH   5   6
ATOM      6  C   UNL     1       0.402  -1.276  36.338  1.00  0.00     0.006 C 
BRANCH   6   7
ATOM      7  C   UNL     1       1.107  -1.306  34.976  1.00  0.00     0.053 C 
BRANCH   7   8
ATOM      8  C   UNL     1       2.319  -2.180  35.034  1.00  0.00     0.041 C 
ATOM      9  O   UNL     1       3.402  -1.732  35.495  1.00  0.00    -0.550 OA
ATOM     10  O   UNL     1       2.241  -3.505  34.625  1.00  0.00    -0.550 OA
ENDBRANCH   7   8
ENDBRANCH   6   7
ENDBRANCH   5   6
ENDBRANCH   4   5
ENDBRANCH   3   4
ENDBRANCH   2   3
ENDBRANCH   1   2
BRANCH   1  11
ATOM     11  C   UNL     1      -5.586  -2.779  36.630  1.00  0.00     0.000 C 
BRANCH  11  12
ATOM     12  C   UNL     1      -6.347  -1.498  37.013  1.00  0.00    -0.000 C 
BRANCH  12  13
ATOM     13  C   UNL     1      -5.685  -0.746  38.180  1.00  0.00    -0.000 C 
BRANCH  13  14
ATOM     14  C   UNL     1      -4.321  -1.343  38.568  1.00  0.00    -0.000 C 
BRANCH  14  15
ATOM     15  C   UNL     1      -3.162  -0.360  38.338  1.00  0.00    -0.000 C 
BRANCH  15  16
ATOM     16  C   UNL     1      -3.535   0.787  37.383  1.00  0.00    -0.000 C 
BRANCH  16  17
ATOM     17  C   UNL     1      -2.879   0.639  36.001  1.00  0.00    -0.003 C 
ATOM     18  C   UNL     1      -3.901   0.447  34.881  1.00  0.00     0.004 C 
ENDBRANCH  16  17
ENDBRANCH  15  16
ENDBRANCH  14  15
ENDBRANCH  13  14
ENDBRANCH  12  13
ENDBRANCH  11  12
ENDBRANCH   1  11
TORSDOF 14
ENDMDL
MODEL 5
REMARK VINA RESULT:    -3.297      3.072      5.740
REMARK INTER + INTRA:          -8.519
REMARK INTER:                  -5.816
REMARK INTRA:                  -2.703
REMARK UNBOUND:                -2.524
REMARK SMILES CCCCCCCCCCCCCCCC(=O)[O-]
REMARK SMILES IDX 9 1 10 2 11 3 12 4 13 5 14 6 15 7 16 8 17 9 18 10 8 11 7 12
REMARK SMILES IDX 6 13 5 14 4 15 3 16 2 17 1 18
REMARK H PARENT
REMARK Flexibility Score: inf
ROOT
ATOM      1  C   UNL     1      -1.249  -1.321  36.539  1.00  0.00     0.000 C 
ENDROOT
BRANCH   1   2
ATOM      2  C   UNL     1      -2.357  -0.867  37.511  1.00  0.00     0.000 C 
BRANCH   2   3
ATOM      3  C   UNL     1      -2.783   0.607  37.384  1.00  0.00     0.000 C 
BRANCH   3   4
ATOM      4  C   UNL     1      -2.834   1.091  35.924  1.00  0.00     0.000 C 
BRANCH   4   5
ATOM      5  C   UNL     1      -4.234   0.960  35.298  1.00  0.00     0.000 C 
BRANCH   5   6
ATOM      6  C   UNL     1      -4.354  -0.088  34.176  1.00  0.00     0.006 C 
BRANCH   6   7
ATOM      7  C   UNL     1      -5.786  -0.235  33.643  1.00  0.00     0.053 C 
BRANCH   7   8
ATOM      8  C   UNL     1      -6.192   0.993  32.891  1.00  0.00     0.041 C 
ATOM      9  O   UNL     1      -5.478   1.424  31.948  1.00  0.00    -0.550 OA
ATOM     10  O   UNL     1      -7.385   1.634  33.200  1.00  0.00    -0.550 OA
ENDBRANCH   7   8
ENDBRANCH   6   7
ENDBRANCH   5   6
ENDBRANCH   4   5
ENDBRANCH   3   4
ENDBRANCH   2   3
ENDBRANCH   1   2
BRANCH   1  11
ATOM     11  C   UNL     1      -1.633  -2.477  35.597  1.00  0.00     0.000 C 
BRANCH  11  12
ATOM     12  C   UNL     1      -2.810  -3.313  36.129  1.00  0.00    -0.000 C 
BRANCH  12  13
ATOM     13  C   UNL     1      -3.859  -3.610  35.044  1.00  0.00    -0.000 C 
BRANCH  13  14
ATOM     14  C   UNL     1      -5.299  -3.391  35.542  1.00  0.00    -0.000 C 
BRANCH  14  15
ATOM     15  C   UNL     1      -5.349  -2.830  36.973  1.00  0.00    -0.000 C 
BRANCH  15  16
ATOM     16  C   UNL     1      -6.202  -1.554  37.081  1.00  0.00    -0.000 C 
BRANCH  16  17
ATOM     17  C   UNL     1      -5.957  -0.792  38.393  1.00  0.00    -0.003 C 
ATOM     18  C   UNL     1      -6.812   0.470  38.509  1.00  0.00     0.004 C 
ENDBRANCH  16  17
ENDBRANCH  15  16
ENDBRANCH  14  15
ENDBRANCH  13  14
ENDBRANCH  12  13
ENDBRANCH  11  12
ENDBRANCH   1  11
TORSDOF 14
ENDMDL
MODEL 6
REMARK VINA RESULT:    -3.276      1.223      3.249
REMARK INTER + INTRA:          -8.481
REMARK INTER:                  -5.716
REMARK INTRA:                  -2.765
REMARK UNBOUND:                -2.524
REMARK SMILES CCCCCCCCCCCCCCCC(=O)[O-]
REMARK SMILES IDX 9 1 10 2 11 3 12 4 13 5 14 6 15 7 16 8 17 9 18 10 8 11 7 12
REMARK SMILES IDX 6 13 5 14 4 15 3 16 2 17 1 18
REMARK H PARENT
REMARK Flexibility Score: inf
ROOT
ATOM      1  C   UNL     1      -6.786   0.171  34.535  1.00  0.00     0.000 C 
ENDROOT
BRANCH   1   2
ATOM      2  C   UNL     1      -5.355   0.371  33.994  1.00  0.00     0.000 C 
BRANCH   2   3
ATOM      3  C   UNL     1      -4.331   0.898  35.016  1.00  0.00     0.000 C 
BRANCH   3   4
ATOM      4  C   UNL     1      -3.054   0.043  35.078  1.00  0.00     0.000 C 
BRANCH   4   5
ATOM      5  C   UNL     1      -2.324   0.153  36.429  1.00  0.00     0.000 C 
BRANCH   5   6
ATOM      6  C   UNL     1      -1.746  -1.167  36.971  1.00  0.00     0.006 C 
BRANCH   6   7
ATOM      7  C   UNL     1      -1.075  -2.019  35.885  1.00  0.00     0.053 C 
BRANCH   7   8
ATOM      8  C   UNL     1       0.412  -1.996  36.047  1.00  0.00     0.041 C 
ATOM      9  O   UNL     1       1.000  -0.925  36.349  1.00  0.00    -0.550 OA
ATOM     10  O   UNL     1       1.143  -3.170  35.914  1.00  0.00    -0.550 OA
ENDBRANCH   7   8
ENDBRANCH   6   7
ENDBRANCH   5   6
ENDBRANCH   4   5
ENDBRANCH   3   4
ENDBRANCH   2   3
ENDBRANCH   1   2
BRANCH   1  11
ATOM     11  C   UNL     1      -7.051   0.767  35.929  1.00  0.00     0.000 C 
BRANCH  11  12
ATOM     12  C   UNL     1      -7.318  -0.309  36.996  1.00  0.00    -0.000 C 
BRANCH  12  13
ATOM     13  C   UNL     1      -6.227  -0.347  38.080  1.00  0.00    -0.000 C 
BRANCH  13  14
ATOM     14  C   UNL     1      -5.280  -1.550  37.921  1.00  0.00    -0.000 C 
BRANCH  14  15
ATOM     15  C   UNL     1      -5.804  -2.582  36.909  1.00  0.00    -0.000 C 
BRANCH  15  16
ATOM     16  C   UNL     1      -4.685  -3.184  36.042  1.00  0.00    -0.000 C 
BRANCH  16  17
ATOM     17  C   UNL     1      -5.001  -3.109  34.540  1.00  0.00    -0.003 C 
ATOM     18  C   UNL     1      -3.752  -3.242  33.668  1.00  0.00     0.004 C 
ENDBRANCH  16  17
ENDBRANCH  15  16
ENDBRANCH  14  15
ENDBRANCH  13  14
ENDBRANCH  12  13
ENDBRANCH  11  12
ENDBRANCH   1  11
TORSDOF 14
ENDMDL
MODEL 7
REMARK VINA RESULT:    -3.262      1.291      1.989
REMARK INTER + INTRA:          -8.455
REMARK INTER:                  -6.018
REMARK INTRA:                  -2.437
REMARK UNBOUND:                -2.524
REMARK SMILES CCCCCCCCCCCCCCCC(=O)[O-]
REMARK SMILES IDX 9 1 10 2 11 3 12 4 13 5 14 6 15 7 16 8 17 9 18 10 8 11 7 12
REMARK SMILES IDX 6 13 5 14 4 15 3 16 2 17 1 18
REMARK H PARENT
REMARK Flexibility Score: inf
ROOT
ATOM      1  C   UNL     1      -5.386  -3.359  35.738  1.00  0.00     0.000 C 
ENDROOT
BRANCH   1   2
ATOM      2  C   UNL     1      -3.861  -3.507  35.562  1.00  0.00     0.000 C 
BRANCH   2   3
ATOM      3  C   UNL     1      -3.244  -2.676  34.421  1.00  0.00     0.000 C 
BRANCH   3   4
ATOM      4  C   UNL     1      -2.001  -1.885  34.862  1.00  0.00     0.000 C 
BRANCH   4   5
ATOM      5  C   UNL     1      -1.549  -2.227  36.293  1.00  0.00     0.000 C 
BRANCH   5   6
ATOM      6  C   UNL     1      -0.109  -2.757  36.416  1.00  0.00     0.006 C 
BRANCH   6   7
ATOM      7  C   UNL     1       0.850  -2.132  35.394  1.00  0.00     0.053 C 
BRANCH   7   8
ATOM      8  C   UNL     1       1.612  -1.004  36.015  1.00  0.00     0.041 C 
ATOM      9  O   UNL     1       1.009   0.030  36.403  1.00  0.00    -0.550 OA
ATOM     10  O   UNL     1       2.983  -1.116  36.209  1.00  0.00    -0.550 OA
ENDBRANCH   7   8
ENDBRANCH   6   7
ENDBRANCH   5   6
ENDBRANCH   4   5
ENDBRANCH   3   4
ENDBRANCH   2   3
ENDBRANCH   1   2
BRANCH   1  11
ATOM     11  C   UNL     1      -5.829  -2.390  36.850  1.00  0.00     0.000 C 
BRANCH  11  12
ATOM     12  C   UNL     1      -4.859  -2.368  38.043  1.00  0.00    -0.000 C 
BRANCH  12  13
ATOM     13  C   UNL     1      -4.320  -0.958  38.338  1.00  0.00    -0.000 C 
BRANCH  13  14
ATOM     14  C   UNL     1      -5.196   0.148  37.726  1.00  0.00    -0.000 C 
BRANCH  14  15
ATOM     15  C   UNL     1      -4.392   1.115  36.841  1.00  0.00    -0.000 C 
BRANCH  15  16
ATOM     16  C   UNL     1      -4.458   0.746  35.348  1.00  0.00    -0.000 C 
BRANCH  16  17
ATOM     17  C   UNL     1      -5.892   0.782  34.797  1.00  0.00    -0.003 C 
ATOM     18  C   UNL     1      -6.147  -0.304  33.751  1.00  0.00     0.004 C 
ENDBRANCH  16  17
ENDBRANCH  15  16
ENDBRANCH  14  15
ENDBRANCH  13  14
ENDBRANCH  12  13
ENDBRANCH  11  12
ENDBRANCH   1  11
TORSDOF 14
ENDMDL
MODEL 8
REMARK VINA RESULT:    -3.209      3.788      6.031
REMARK INTER + INTRA:          -8.360
REMARK INTER:                  -5.856
REMARK INTRA:                  -2.504
REMARK UNBOUND:                -2.524
REMARK SMILES CCCCCCCCCCCCCCCC(=O)[O-]
REMARK SMILES IDX 9 1 10 2 11 3 12 4 13 5 14 6 15 7 16 8 17 9 18 10 8 11 7 12
REMARK SMILES IDX 6 13 5 14 4 15 3 16 2 17 1 18
REMARK H PARENT
REMARK Flexibility Score: inf
ROOT
ATOM      1  C   UNL     1      -5.765  -2.681  36.480  1.00  0.00     0.000 C 
ENDROOT
BRANCH   1   2
ATOM      2  C   UNL     1      -4.934  -2.101  37.642  1.00  0.00     0.000 C 
BRANCH   2   3
ATOM      3  C   UNL     1      -4.763  -0.571  37.633  1.00  0.00     0.000 C 
BRANCH   3   4
ATOM      4  C   UNL     1      -5.737   0.134  36.674  1.00  0.00     0.000 C 
BRANCH   4   5
ATOM      5  C   UNL     1      -5.040   1.148  35.749  1.00  0.00     0.000 C 
BRANCH   5   6
ATOM      6  C   UNL     1      -5.501   1.119  34.280  1.00  0.00     0.006 C 
BRANCH   6   7
ATOM      7  C   UNL     1      -6.609   0.090  34.019  1.00  0.00     0.053 C 
BRANCH   7   8
ATOM      8  C   UNL     1      -7.852   0.771  33.542  1.00  0.00     0.041 C 
ATOM      9  O   UNL     1      -8.914   0.695  34.214  1.00  0.00    -0.550 OA
ATOM     10  O   UNL     1      -7.826   1.531  32.380  1.00  0.00    -0.550 OA
ENDBRANCH   7   8
ENDBRANCH   6   7
ENDBRANCH   5   6
ENDBRANCH   4   5
ENDBRANCH   3   4
ENDBRANCH   2   3
ENDBRANCH   1   2
BRANCH   1  11
ATOM     11  C   UNL     1      -4.998  -3.610  35.522  1.00  0.00     0.000 C 
BRANCH  11  12
ATOM     12  C   UNL     1      -4.641  -2.929  34.189  1.00  0.00    -0.000 C 
BRANCH  12  13
ATOM     13  C   UNL     1      -3.127  -2.711  34.025  1.00  0.00    -0.000 C 
BRANCH  13  14
ATOM     14  C   UNL     1      -2.721  -1.237  34.200  1.00  0.00    -0.000 C 
BRANCH  14  15
ATOM     15  C   UNL     1      -1.790  -1.021  35.404  1.00  0.00    -0.000 C 
BRANCH  15  16
ATOM     16  C   UNL     1      -1.588  -2.300  36.236  1.00  0.00    -0.000 C 
BRANCH  16  17
ATOM     17  C   UNL     1      -0.116  -2.735  36.298  1.00  0.00    -0.003 C 
ATOM     18  C   UNL     1       0.852  -1.565  36.119  1.00  0.00     0.004 C 
ENDBRANCH  16  17
ENDBRANCH  15  16
ENDBRANCH  14  15
ENDBRANCH  13  14
ENDBRANCH  12  13
ENDBRANCH  11  12
ENDBRANCH   1  11
TORSDOF 14
ENDMDL
MODEL 9
REMARK VINA RESULT:    -3.162      1.092      3.911
REMARK INTER + INTRA:          -8.273
REMARK INTER:                  -5.584
REMARK INTRA:                  -2.689
REMARK UNBOUND:                -2.524
REMARK SMILES CCCCCCCCCCCCCCCC(=O)[O-]
REMARK SMILES IDX 9 1 10 2 11 3 12 4 13 5 14 6 15 7 16 8 17 9 18 10 8 11 7 12
REMARK SMILES IDX 6 13 5 14 4 15 3 16 2 17 1 18
REMARK H PARENT
REMARK Flexibility Score: inf
ROOT
ATOM      1  C   UNL     1      -4.259  -0.326  34.048  1.00  0.00     0.000 C 
ENDROOT
BRANCH   1   2
ATOM      2  C   UNL     1      -3.919   0.698  35.150  1.00  0.00     0.000 C 
BRANCH   2   3
ATOM      3  C   UNL     1      -2.451   0.704  35.615  1.00  0.00     0.000 C 
BRANCH   3   4
ATOM      4  C   UNL     1      -2.283   0.225  37.067  1.00  0.00     0.000 C 
BRANCH   4   5
ATOM      5  C   UNL     1      -1.244  -0.903  37.210  1.00  0.00     0.000 C 
BRANCH   5   6
ATOM      6  C   UNL     1      -0.365  -1.145  35.970  1.00  0.00     0.006 C 
BRANCH   6   7
ATOM      7  C   UNL     1       0.280  -2.537  35.954  1.00  0.00     0.053 C 
BRANCH   7   8
ATOM      8  C   UNL     1       1.699  -2.450  35.491  1.00  0.00     0.041 C 
ATOM      9  O   UNL     1       2.141  -3.271  34.645  1.00  0.00    -0.550 OA
ATOM     10  O   UNL     1       2.521  -1.433  35.958  1.00  0.00    -0.550 OA
ENDBRANCH   7   8
ENDBRANCH   6   7
ENDBRANCH   5   6
ENDBRANCH   4   5
ENDBRANCH   3   4
ENDBRANCH   2   3
ENDBRANCH   1   2
BRANCH   1  11
ATOM     11  C   UNL     1      -3.274  -1.502  33.915  1.00  0.00     0.000 C 
BRANCH  11  12
ATOM     12  C   UNL     1      -3.916  -2.858  34.256  1.00  0.00    -0.000 C 
BRANCH  12  13
ATOM     13  C   UNL     1      -3.387  -3.445  35.576  1.00  0.00    -0.000 C 
BRANCH  13  14
ATOM     14  C   UNL     1      -4.244  -3.038  36.787  1.00  0.00    -0.000 C 
BRANCH  14  15
ATOM     15  C   UNL     1      -5.701  -2.731  36.402  1.00  0.00    -0.000 C 
BRANCH  15  16
ATOM     16  C   UNL     1      -6.314  -1.602  37.247  1.00  0.00    -0.000 C 
BRANCH  16  17
ATOM     17  C   UNL     1      -5.411  -1.189  38.420  1.00  0.00    -0.003 C 
ATOM     18  C   UNL     1      -5.618   0.267  38.839  1.00  0.00     0.004 C 
ENDBRANCH  16  17
ENDBRANCH  15  16
ENDBRANCH  14  15
ENDBRANCH  13  14
ENDBRANCH  12  13
ENDBRANCH  11  12
ENDBRANCH   1  11
TORSDOF 14
ENDMDL
