MODEL 1
REMARK VINA RESULT:    -4.387      0.000      0.000
REMARK INTER + INTRA:          -4.516
REMARK INTER:                  -4.516
REMARK INTRA:                   0.000
REMARK UNBOUND:                 0.000
REMARK SMILES Cc1cccc(O)c1C
REMARK SMILES IDX 1 1 2 2 8 3 6 4 5 5 4 6 3 7 9 8 7 9
REMARK H PARENT 7 10
REMARK Flexibility Score: inf
ROOT
ATOM      1  C   UNL     1    -108.288 -16.123  51.492  1.00  0.00     0.045 C 
ATOM      2  C   UNL     1    -108.439 -15.216  52.687  1.00  0.00    -0.045 A 
ATOM      3  C   UNL     1    -107.530 -14.155  52.932  1.00  0.00    -0.006 A 
ATOM      4  C   UNL     1    -107.728 -13.321  54.054  1.00  0.00     0.118 A 
ATOM      5  C   UNL     1    -108.789 -13.569  54.935  1.00  0.00     0.046 A 
ATOM      6  C   UNL     1    -109.659 -14.633  54.707  1.00  0.00     0.004 A 
ATOM      7  C   UNL     1    -109.488 -15.451  53.592  1.00  0.00     0.004 A 
ATOM      8  C   UNL     1    -106.393 -13.878  51.976  1.00  0.00     0.048 C 
ENDROOT
BRANCH   4   9
ATOM      9  O   UNL     1    -106.874 -12.244  54.295  1.00  0.00    -0.508 OA
ATOM     10  H   UNL     1    -107.174 -11.434  54.823  1.00  0.00     0.293 HD
ENDBRANCH   4   9
TORSDOF 1
ENDMDL
MODEL 2
REMARK VINA RESULT:    -4.244      1.147      2.599
REMARK INTER + INTRA:          -4.368
REMARK INTER:                  -4.368
REMARK INTRA:                   0.000
REMARK UNBOUND:                 0.000
REMARK SMILES Cc1cccc(O)c1C
REMARK SMILES IDX 1 1 2 2 8 3 6 4 5 5 4 6 3 7 9 8 7 9
REMARK H PARENT 7 10
REMARK Flexibility Score: inf
ROOT
ATOM      1  C   UNL     1    -108.153 -16.253  51.330  1.00  0.00     0.045 C 
ATOM      2  C   UNL     1    -107.749 -15.117  52.234  1.00  0.00    -0.045 A 
ATOM      3  C   UNL     1    -108.513 -14.773  53.378  1.00  0.00    -0.006 A 
ATOM      4  C   UNL     1    -108.080 -13.713  54.205  1.00  0.00     0.118 A 
ATOM      5  C   UNL     1    -106.930 -12.986  53.870  1.00  0.00     0.046 A 
ATOM      6  C   UNL     1    -106.202 -13.308  52.726  1.00  0.00     0.004 A 
ATOM      7  C   UNL     1    -106.606 -14.365  51.913  1.00  0.00     0.004 A 
ATOM      8  C   UNL     1    -109.746 -15.563  53.747  1.00  0.00     0.048 C 
ENDROOT
BRANCH   4   9
ATOM      9  O   UNL     1    -108.790 -13.381  55.360  1.00  0.00    -0.508 OA
ATOM     10  H   UNL     1    -108.387 -12.798  56.083  1.00  0.00     0.293 HD
ENDBRANCH   4   9
TORSDOF 1
ENDMDL
MODEL 3
REMARK VINA RESULT:    -4.173      0.896      2.627
REMARK INTER + INTRA:          -4.295
REMARK INTER:                  -4.295
REMARK INTRA:                   0.000
REMARK UNBOUND:                 0.000
REMARK SMILES Cc1cccc(O)c1C
REMARK SMILES IDX 1 1 2 2 8 3 6 4 5 5 4 6 3 7 9 8 7 9
REMARK H PARENT 7 10
REMARK Flexibility Score: inf
ROOT
ATOM      1  C   UNL     1    -109.873 -15.527  53.141  1.00  0.00     0.045 C 
ATOM      2  C   UNL     1    -108.586 -14.754  53.012  1.00  0.00    -0.045 A 
ATOM      3  C   UNL     1    -108.285 -13.665  53.870  1.00  0.00    -0.006 A 
ATOM      4  C   UNL     1    -107.055 -12.987  53.720  1.00  0.00     0.118 A 
ATOM      5  C   UNL     1    -106.164 -13.364  52.707  1.00  0.00     0.046 A 
ATOM      6  C   UNL     1    -106.480 -14.413  51.846  1.00  0.00     0.004 A 
ATOM      7  C   UNL     1    -107.680 -15.105  51.996  1.00  0.00     0.004 A 
ATOM      8  C   UNL     1    -109.239 -13.265  54.970  1.00  0.00     0.048 C 
ENDROOT
BRANCH   4   9
ATOM      9  O   UNL     1    -106.716 -11.940  54.578  1.00  0.00    -0.508 OA
ATOM     10  H   UNL     1    -106.623 -12.079  55.577  1.00  0.00     0.293 HD
ENDBRANCH   4   9
TORSDOF 1
ENDMDL
MODEL 4
REMARK VINA RESULT:    -4.045      1.568      2.809
REMARK INTER + INTRA:          -4.163
REMARK INTER:                  -4.163
REMARK INTRA:                   0.000
REMARK UNBOUND:                 0.000
REMARK SMILES Cc1cccc(O)c1C
REMARK SMILES IDX 1 1 2 2 8 3 6 4 5 5 4 6 3 7 9 8 7 9
REMARK H PARENT 7 10
REMARK Flexibility Score: inf
ROOT
ATOM      1  C   UNL     1    -106.439 -13.424  52.168  1.00  0.00     0.045 C 
ATOM      2  C   UNL     1    -107.559 -14.321  52.631  1.00  0.00    -0.045 A 
ATOM      3  C   UNL     1    -108.230 -14.096  53.860  1.00  0.00    -0.006 A 
ATOM      4  C   UNL     1    -109.287 -14.953  54.238  1.00  0.00     0.118 A 
ATOM      5  C   UNL     1    -109.636 -16.038  53.423  1.00  0.00     0.046 A 
ATOM      6  C   UNL     1    -108.951 -16.274  52.232  1.00  0.00     0.004 A 
ATOM      7  C   UNL     1    -107.921 -15.423  51.837  1.00  0.00     0.004 A 
ATOM      8  C   UNL     1    -107.863 -12.920  54.734  1.00  0.00     0.048 C 
ENDROOT
BRANCH   4   9
ATOM      9  O   UNL     1    -109.991 -14.729  55.421  1.00  0.00    -0.508 OA
ATOM     10  H   UNL     1    -110.416 -13.832  55.626  1.00  0.00     0.293 HD
ENDBRANCH   4   9
TORSDOF 1
ENDMDL
MODEL 5
REMARK VINA RESULT:    -4.014     13.085     14.433
REMARK INTER + INTRA:          -4.131
REMARK INTER:                  -4.131
REMARK INTRA:                   0.000
REMARK UNBOUND:                 0.000
REMARK SMILES Cc1cccc(O)c1C
REMARK SMILES IDX 1 1 2 2 8 3 6 4 5 5 4 6 3 7 9 8 7 9
REMARK H PARENT 7 10
REMARK Flexibility Score: inf
ROOT
ATOM      1  C   UNL     1    -102.451  -3.552  45.007  1.00  0.00     0.045 C 
ATOM      2  C   UNL     1    -101.923  -3.142  46.358  1.00  0.00    -0.045 A 
ATOM      3  C   UNL     1    -102.764  -3.089  47.498  1.00  0.00    -0.006 A 
ATOM      4  C   UNL     1    -102.215  -2.719  48.746  1.00  0.00     0.118 A 
ATOM      5  C   UNL     1    -100.861  -2.368  48.840  1.00  0.00     0.046 A 
ATOM      6  C   UNL     1    -100.048  -2.390  47.709  1.00  0.00     0.004 A 
ATOM      7  C   UNL     1    -100.571  -2.774  46.476  1.00  0.00     0.004 A 
ATOM      8  C   UNL     1    -104.220  -3.479  47.400  1.00  0.00     0.048 C 
ENDROOT
BRANCH   4   9
ATOM      9  O   UNL     1    -103.010  -2.701  49.892  1.00  0.00    -0.508 OA
ATOM     10  H   UNL     1    -103.469  -1.856  50.208  1.00  0.00     0.293 HD
ENDBRANCH   4   9
TORSDOF 1
ENDMDL
MODEL 6
REMARK VINA RESULT:    -3.786      1.592      2.905
REMARK INTER + INTRA:          -3.897
REMARK INTER:                  -3.897
REMARK INTRA:                   0.000
REMARK UNBOUND:                 0.000
REMARK SMILES Cc1cccc(O)c1C
REMARK SMILES IDX 1 1 2 2 8 3 6 4 5 5 4 6 3 7 9 8 7 9
REMARK H PARENT 7 10
REMARK Flexibility Score: inf
ROOT
ATOM      1  C   UNL     1    -110.095 -14.989  54.417  1.00  0.00     0.045 C 
ATOM      2  C   UNL     1    -108.787 -14.432  53.915  1.00  0.00    -0.045 A 
ATOM      3  C   UNL     1    -108.157 -14.949  52.754  1.00  0.00    -0.006 A 
ATOM      4  C   UNL     1    -106.943 -14.377  52.314  1.00  0.00     0.118 A 
ATOM      5  C   UNL     1    -106.351 -13.338  53.045  1.00  0.00     0.046 A 
ATOM      6  C   UNL     1    -106.958 -12.857  54.203  1.00  0.00     0.004 A 
ATOM      7  C   UNL     1    -108.167 -13.397  54.637  1.00  0.00     0.004 A 
ATOM      8  C   UNL     1    -108.801 -16.060  51.959  1.00  0.00     0.048 C 
ENDROOT
BRANCH   4   9
ATOM      9  O   UNL     1    -106.325 -14.838  51.151  1.00  0.00    -0.508 OA
ATOM     10  H   UNL     1    -106.809 -14.857  50.263  1.00  0.00     0.293 HD
ENDBRANCH   4   9
TORSDOF 1
ENDMDL
MODEL 7
REMARK VINA RESULT:    -3.734     12.881     14.303
REMARK INTER + INTRA:          -3.843
REMARK INTER:                  -3.843
REMARK INTRA:                   0.000
REMARK UNBOUND:                 0.000
REMARK SMILES Cc1cccc(O)c1C
REMARK SMILES IDX 1 1 2 2 8 3 6 4 5 5 4 6 3 7 9 8 7 9
REMARK H PARENT 7 10
REMARK Flexibility Score: inf
ROOT
ATOM      1  C   UNL     1    -100.527  -2.763  45.001  1.00  0.00     0.045 C 
ATOM      2  C   UNL     1    -101.592  -3.120  46.005  1.00  0.00    -0.045 A 
ATOM      3  C   UNL     1    -101.494  -2.722  47.363  1.00  0.00    -0.006 A 
ATOM      4  C   UNL     1    -102.531  -3.063  48.260  1.00  0.00     0.118 A 
ATOM      5  C   UNL     1    -103.621  -3.823  47.816  1.00  0.00     0.046 A 
ATOM      6  C   UNL     1    -103.695  -4.240  46.488  1.00  0.00     0.004 A 
ATOM      7  C   UNL     1    -102.690  -3.892  45.587  1.00  0.00     0.004 A 
ATOM      8  C   UNL     1    -100.326  -1.892  47.840  1.00  0.00     0.048 C 
ENDROOT
BRANCH   4   9
ATOM      9  O   UNL     1    -102.481  -2.647  49.591  1.00  0.00    -0.508 OA
ATOM     10  H   UNL     1    -102.923  -3.178  50.331  1.00  0.00     0.293 HD
ENDBRANCH   4   9
TORSDOF 1
ENDMDL
MODEL 8
REMARK VINA RESULT:    -3.685      1.996      2.927
REMARK INTER + INTRA:          -3.793
REMARK INTER:                  -3.793
REMARK INTRA:                   0.000
REMARK UNBOUND:                 0.000
REMARK SMILES Cc1cccc(O)c1C
REMARK SMILES IDX 1 1 2 2 8 3 6 4 5 5 4 6 3 7 9 8 7 9
REMARK H PARENT 7 10
REMARK Flexibility Score: inf
ROOT
ATOM      1  C   UNL     1    -106.578 -14.027  51.927  1.00  0.00     0.045 C 
ATOM      2  C   UNL     1    -107.720 -14.366  52.850  1.00  0.00    -0.045 A 
ATOM      3  C   UNL     1    -108.568 -15.476  52.604  1.00  0.00    -0.006 A 
ATOM      4  C   UNL     1    -109.612 -15.762  53.512  1.00  0.00     0.118 A 
ATOM      5  C   UNL     1    -109.828 -14.930  54.618  1.00  0.00     0.046 A 
ATOM      6  C   UNL     1    -109.012 -13.822  54.836  1.00  0.00     0.004 A 
ATOM      7  C   UNL     1    -107.965 -13.539  53.960  1.00  0.00     0.004 A 
ATOM      8  C   UNL     1    -108.328 -16.381  51.419  1.00  0.00     0.048 C 
ENDROOT
BRANCH   4   9
ATOM      9  O   UNL     1    -110.433 -16.874  53.317  1.00  0.00    -0.508 OA
ATOM     10  H   UNL     1    -111.215 -17.071  53.929  1.00  0.00     0.293 HD
ENDBRANCH   4   9
TORSDOF 1
ENDMDL
MODEL 9
REMARK VINA RESULT:    -3.669     13.351     14.307
REMARK INTER + INTRA:          -3.776
REMARK INTER:                  -3.776
REMARK INTRA:                   0.000
REMARK UNBOUND:                 0.000
REMARK SMILES Cc1cccc(O)c1C
REMARK SMILES IDX 1 1 2 2 8 3 6 4 5 5 4 6 3 7 9 8 7 9
REMARK H PARENT 7 10
REMARK Flexibility Score: inf
ROOT
ATOM      1  C   UNL     1    -103.592  -4.078  45.287  1.00  0.00     0.045 C 
ATOM      2  C   UNL     1    -102.818  -3.613  46.495  1.00  0.00    -0.045 A 
ATOM      3  C   UNL     1    -101.491  -3.125  46.382  1.00  0.00    -0.006 A 
ATOM      4  C   UNL     1    -100.817  -2.682  47.542  1.00  0.00     0.118 A 
ATOM      5  C   UNL     1    -101.444  -2.765  48.793  1.00  0.00     0.046 A 
ATOM      6  C   UNL     1    -102.736  -3.276  48.901  1.00  0.00     0.004 A 
ATOM      7  C   UNL     1    -103.420  -3.697  47.762  1.00  0.00     0.004 A 
ATOM      8  C   UNL     1    -100.819  -3.023  45.033  1.00  0.00     0.048 C 
ENDROOT
BRANCH   4   9
ATOM      9  O   UNL     1     -99.527  -2.157  47.454  1.00  0.00    -0.508 OA
ATOM     10  H   UNL     1     -98.958  -2.002  48.277  1.00  0.00     0.293 HD
ENDBRANCH   4   9
TORSDOF 1
ENDMDL
