MODEL 1
REMARK VINA RESULT:    -7.936      0.000      0.000
REMARK INTER + INTRA:          -8.629
REMARK INTER:                  -8.400
REMARK INTRA:                  -0.229
REMARK UNBOUND:                -0.229
REMARK SMILES O=c1cc(-c2ccccc2)oc2ccccc12
REMARK SMILES IDX 4 1 3 2 2 3 1 4 17 5 16 6 15 7 14 8 13 9 12 10 11 11 5 12
REMARK SMILES IDX 8 13 7 14 9 15 6 16 10 17
REMARK H PARENT
REMARK Flexibility Score: inf
ROOT
ATOM      1  C   UNL     1     -11.008  -5.538  31.326  1.00  0.00     0.138 A 
ATOM      2  C   UNL     1     -12.168  -4.748  31.186  1.00  0.00     0.100 A 
ATOM      3  C   UNL     1     -12.069  -3.358  31.275  1.00  0.00     0.193 A 
ATOM      4  O   UNL     1     -13.107  -2.650  31.150  1.00  0.00    -0.289 OA
ATOM      5  C   UNL     1     -10.817  -2.768  31.502  1.00  0.00     0.065 A 
ATOM      6  C   UNL     1     -10.648  -1.374  31.601  1.00  0.00     0.016 A 
ATOM      7  C   UNL     1      -9.376  -0.838  31.828  1.00  0.00     0.001 A 
ATOM      8  C   UNL     1      -8.271  -1.683  31.956  1.00  0.00     0.004 A 
ATOM      9  C   UNL     1      -8.430  -3.068  31.858  1.00  0.00     0.048 A 
ATOM     10  C   UNL     1      -9.697  -3.615  31.632  1.00  0.00     0.138 A 
ATOM     11  O   UNL     1      -9.838  -4.934  31.540  1.00  0.00    -0.456 OA
ENDROOT
BRANCH   1  12
ATOM     12  C   UNL     1     -11.026  -7.031  31.244  1.00  0.00     0.017 A 
ATOM     13  C   UNL     1     -11.083  -9.842  30.994  1.00  0.00     0.000 A 
ATOM     14  C   UNL     1     -11.370  -9.037  29.892  1.00  0.00     0.001 A 
ATOM     15  C   UNL     1     -10.768  -9.257  32.220  1.00  0.00     0.001 A 
ATOM     16  C   UNL     1     -11.342  -7.645  30.014  1.00  0.00     0.012 A 
ATOM     17  C   UNL     1     -10.738  -7.865  32.349  1.00  0.00     0.012 A 
ENDBRANCH   1  12
TORSDOF 1
ENDMDL
MODEL 2
REMARK VINA RESULT:    -7.639      1.427      5.909
REMARK INTER + INTRA:          -8.314
REMARK INTER:                  -8.063
REMARK INTRA:                  -0.251
REMARK UNBOUND:                -0.229
REMARK SMILES O=c1cc(-c2ccccc2)oc2ccccc12
REMARK SMILES IDX 4 1 3 2 2 3 1 4 17 5 16 6 15 7 14 8 13 9 12 10 11 11 5 12
REMARK SMILES IDX 8 13 7 14 9 15 6 16 10 17
REMARK H PARENT
REMARK Flexibility Score: inf
ROOT
ATOM      1  C   UNL     1     -11.085  -4.905  31.213  1.00  0.00     0.138 A 
ATOM      2  C   UNL     1     -12.131  -5.093  30.286  1.00  0.00     0.100 A 
ATOM      3  C   UNL     1     -12.701  -6.359  30.139  1.00  0.00     0.193 A 
ATOM      4  O   UNL     1     -13.637  -6.528  29.308  1.00  0.00    -0.289 OA
ATOM      5  C   UNL     1     -12.226  -7.425  30.916  1.00  0.00     0.065 A 
ATOM      6  C   UNL     1     -12.757  -8.725  30.818  1.00  0.00     0.016 A 
ATOM      7  C   UNL     1     -12.246  -9.752  31.617  1.00  0.00     0.001 A 
ATOM      8  C   UNL     1     -11.209  -9.491  32.516  1.00  0.00     0.004 A 
ATOM      9  C   UNL     1     -10.676  -8.204  32.621  1.00  0.00     0.048 A 
ATOM     10  C   UNL     1     -11.179  -7.169  31.826  1.00  0.00     0.138 A 
ATOM     11  O   UNL     1     -10.666  -5.948  31.932  1.00  0.00    -0.456 OA
ENDROOT
BRANCH   1  12
ATOM     12  C   UNL     1     -10.420  -3.584  31.433  1.00  0.00     0.017 A 
ATOM     13  C   UNL     1      -9.079  -1.137  31.858  1.00  0.00     0.000 A 
ATOM     14  C   UNL     1      -8.369  -2.336  31.887  1.00  0.00     0.001 A 
ATOM     15  C   UNL     1     -10.452  -1.147  31.617  1.00  0.00     0.001 A 
ATOM     16  C   UNL     1      -9.031  -3.549  31.677  1.00  0.00     0.012 A 
ATOM     17  C   UNL     1     -11.122  -2.357  31.406  1.00  0.00     0.012 A 
ENDBRANCH   1  12
TORSDOF 1
ENDMDL
MODEL 3
REMARK VINA RESULT:    -7.380      8.813     11.411
REMARK INTER + INTRA:          -8.041
REMARK INTER:                  -7.810
REMARK INTRA:                  -0.231
REMARK UNBOUND:                -0.229
REMARK SMILES O=c1cc(-c2ccccc2)oc2ccccc12
REMARK SMILES IDX 4 1 3 2 2 3 1 4 17 5 16 6 15 7 14 8 13 9 12 10 11 11 5 12
REMARK SMILES IDX 8 13 7 14 9 15 6 16 10 17
REMARK H PARENT
REMARK Flexibility Score: inf
ROOT
ATOM      1  C   UNL     1     -14.407  -8.963  23.152  1.00  0.00     0.138 A 
ATOM      2  C   UNL     1     -13.434  -9.951  23.412  1.00  0.00     0.100 A 
ATOM      3  C   UNL     1     -12.553 -10.333  22.398  1.00  0.00     0.193 A 
ATOM      4  O   UNL     1     -11.683 -11.217  22.631  1.00  0.00    -0.289 OA
ATOM      5  C   UNL     1     -12.647  -9.727  21.137  1.00  0.00     0.065 A 
ATOM      6  C   UNL     1     -11.790 -10.065  20.073  1.00  0.00     0.016 A 
ATOM      7  C   UNL     1     -11.928  -9.430  18.835  1.00  0.00     0.001 A 
ATOM      8  C   UNL     1     -12.915  -8.458  18.650  1.00  0.00     0.004 A 
ATOM      9  C   UNL     1     -13.770  -8.116  19.701  1.00  0.00     0.048 A 
ATOM     10  C   UNL     1     -13.642  -8.745  20.944  1.00  0.00     0.138 A 
ATOM     11  O   UNL     1     -14.460  -8.413  21.937  1.00  0.00    -0.456 OA
ENDROOT
BRANCH   1  12
ATOM     12  C   UNL     1     -15.388  -8.497  24.180  1.00  0.00     0.017 A 
ATOM     13  C   UNL     1     -17.164  -7.583  26.174  1.00  0.00     0.000 A 
ATOM     14  C   UNL     1     -15.790  -7.411  26.332  1.00  0.00     0.001 A 
ATOM     15  C   UNL     1     -17.661  -8.206  25.030  1.00  0.00     0.001 A 
ATOM     16  C   UNL     1     -14.908  -7.862  25.346  1.00  0.00     0.012 A 
ATOM     17  C   UNL     1     -16.785  -8.661  24.039  1.00  0.00     0.012 A 
ENDBRANCH   1  12
TORSDOF 1
ENDMDL
MODEL 4
REMARK VINA RESULT:    -7.081      1.817      6.225
REMARK INTER + INTRA:          -7.724
REMARK INTER:                  -7.482
REMARK INTRA:                  -0.242
REMARK UNBOUND:                -0.229
REMARK SMILES O=c1cc(-c2ccccc2)oc2ccccc12
REMARK SMILES IDX 4 1 3 2 2 3 1 4 17 5 16 6 15 7 14 8 13 9 12 10 11 11 5 12
REMARK SMILES IDX 8 13 7 14 9 15 6 16 10 17
REMARK H PARENT
REMARK Flexibility Score: inf
ROOT
ATOM      1  C   UNL     1     -11.079  -5.197  31.118  1.00  0.00     0.138 A 
ATOM      2  C   UNL     1     -10.619  -6.322  31.835  1.00  0.00     0.100 A 
ATOM      3  C   UNL     1     -11.192  -7.572  31.595  1.00  0.00     0.193 A 
ATOM      4  O   UNL     1     -10.782  -8.578  32.236  1.00  0.00    -0.289 OA
ATOM      5  C   UNL     1     -12.216  -7.692  30.644  1.00  0.00     0.065 A 
ATOM      6  C   UNL     1     -12.835  -8.922  30.354  1.00  0.00     0.016 A 
ATOM      7  C   UNL     1     -13.852  -8.984  29.396  1.00  0.00     0.001 A 
ATOM      8  C   UNL     1     -14.255  -7.828  28.723  1.00  0.00     0.004 A 
ATOM      9  C   UNL     1     -13.646  -6.602  29.005  1.00  0.00     0.048 A 
ATOM     10  C   UNL     1     -12.628  -6.527  29.962  1.00  0.00     0.138 A 
ATOM     11  O   UNL     1     -12.054  -5.357  30.222  1.00  0.00    -0.456 OA
ENDROOT
BRANCH   1  12
ATOM     12  C   UNL     1     -10.520  -3.824  31.314  1.00  0.00     0.017 A 
ATOM     13  C   UNL     1      -9.558  -1.197  31.693  1.00  0.00     0.000 A 
ATOM     14  C   UNL     1     -10.930  -1.445  31.696  1.00  0.00     0.001 A 
ATOM     15  C   UNL     1      -8.661  -2.248  31.503  1.00  0.00     0.001 A 
ATOM     16  C   UNL     1     -11.408  -2.744  31.509  1.00  0.00     0.012 A 
ATOM     17  C   UNL     1      -9.133  -3.552  31.315  1.00  0.00     0.012 A 
ENDBRANCH   1  12
TORSDOF 1
ENDMDL
MODEL 5
REMARK VINA RESULT:    -6.976      7.549      9.584
REMARK INTER + INTRA:          -7.613
REMARK INTER:                  -7.379
REMARK INTRA:                  -0.234
REMARK UNBOUND:                -0.229
REMARK SMILES O=c1cc(-c2ccccc2)oc2ccccc12
REMARK SMILES IDX 4 1 3 2 2 3 1 4 17 5 16 6 15 7 14 8 13 9 12 10 11 11 5 12
REMARK SMILES IDX 8 13 7 14 9 15 6 16 10 17
REMARK H PARENT
REMARK Flexibility Score: inf
ROOT
ATOM      1  C   UNL     1     -13.544  -8.625  23.102  1.00  0.00     0.138 A 
ATOM      2  C   UNL     1     -14.881  -8.621  23.551  1.00  0.00     0.100 A 
ATOM      3  C   UNL     1     -15.154  -8.376  24.899  1.00  0.00     0.193 A 
ATOM      4  O   UNL     1     -16.350  -8.373  25.301  1.00  0.00    -0.289 OA
ATOM      5  C   UNL     1     -14.095  -8.135  25.785  1.00  0.00     0.065 A 
ATOM      6  C   UNL     1     -14.300  -7.880  27.154  1.00  0.00     0.016 A 
ATOM      7  C   UNL     1     -13.207  -7.647  27.994  1.00  0.00     0.001 A 
ATOM      8  C   UNL     1     -11.908  -7.664  27.478  1.00  0.00     0.004 A 
ATOM      9  C   UNL     1     -11.695  -7.916  26.120  1.00  0.00     0.048 A 
ATOM     10  C   UNL     1     -12.781  -8.152  25.270  1.00  0.00     0.138 A 
ATOM     11  O   UNL     1     -12.568  -8.390  23.981  1.00  0.00    -0.456 OA
ENDROOT
BRANCH   1  12
ATOM     12  C   UNL     1     -13.165  -8.878  21.678  1.00  0.00     0.017 A 
ATOM     13  C   UNL     1     -12.506  -9.281  18.963  1.00  0.00     0.000 A 
ATOM     14  C   UNL     1     -13.365  -8.245  19.326  1.00  0.00     0.001 A 
ATOM     15  C   UNL     1     -11.971 -10.117  19.942  1.00  0.00     0.001 A 
ATOM     16  C   UNL     1     -13.693  -8.044  20.670  1.00  0.00     0.012 A 
ATOM     17  C   UNL     1     -12.295  -9.922  21.289  1.00  0.00     0.012 A 
ENDBRANCH   1  12
TORSDOF 1
ENDMDL
MODEL 6
REMARK VINA RESULT:    -6.854      1.887      3.007
REMARK INTER + INTRA:          -7.484
REMARK INTER:                  -7.262
REMARK INTRA:                  -0.222
REMARK UNBOUND:                -0.229
REMARK SMILES O=c1cc(-c2ccccc2)oc2ccccc12
REMARK SMILES IDX 4 1 3 2 2 3 1 4 17 5 16 6 15 7 14 8 13 9 12 10 11 11 5 12
REMARK SMILES IDX 8 13 7 14 9 15 6 16 10 17
REMARK H PARENT
REMARK Flexibility Score: inf
ROOT
ATOM      1  C   UNL     1     -11.692  -5.957  30.214  1.00  0.00     0.138 A 
ATOM      2  C   UNL     1     -10.358  -5.929  29.754  1.00  0.00     0.100 A 
ATOM      3  C   UNL     1      -9.578  -4.792  29.971  1.00  0.00     0.193 A 
ATOM      4  O   UNL     1      -8.385  -4.767  29.560  1.00  0.00    -0.289 OA
ATOM      5  C   UNL     1     -10.132  -3.693  30.644  1.00  0.00     0.065 A 
ATOM      6  C   UNL     1      -9.400  -2.517  30.896  1.00  0.00     0.016 A 
ATOM      7  C   UNL     1     -10.001  -1.451  31.571  1.00  0.00     0.001 A 
ATOM      8  C   UNL     1     -11.328  -1.549  32.000  1.00  0.00     0.004 A 
ATOM      9  C   UNL     1     -12.062  -2.713  31.754  1.00  0.00     0.048 A 
ATOM     10  C   UNL     1     -11.471  -3.786  31.079  1.00  0.00     0.138 A 
ATOM     11  O   UNL     1     -12.176  -4.888  30.850  1.00  0.00    -0.456 OA
ENDROOT
BRANCH   1  12
ATOM     12  C   UNL     1     -12.594  -7.133  30.024  1.00  0.00     0.017 A 
ATOM     13  C   UNL     1     -14.253  -9.400  29.740  1.00  0.00     0.000 A 
ATOM     14  C   UNL     1     -13.270  -9.374  30.729  1.00  0.00     0.001 A 
ATOM     15  C   UNL     1     -14.416  -8.305  28.891  1.00  0.00     0.001 A 
ATOM     16  C   UNL     1     -12.448  -8.253  30.871  1.00  0.00     0.012 A 
ATOM     17  C   UNL     1     -13.597  -7.180  29.028  1.00  0.00     0.012 A 
ENDBRANCH   1  12
TORSDOF 1
ENDMDL
MODEL 7
REMARK VINA RESULT:    -6.851      8.353     10.634
REMARK INTER + INTRA:          -7.480
REMARK INTER:                  -7.251
REMARK INTRA:                  -0.229
REMARK UNBOUND:                -0.229
REMARK SMILES O=c1cc(-c2ccccc2)oc2ccccc12
REMARK SMILES IDX 4 1 3 2 2 3 1 4 17 5 16 6 15 7 14 8 13 9 12 10 11 11 5 12
REMARK SMILES IDX 8 13 7 14 9 15 6 16 10 17
REMARK H PARENT
REMARK Flexibility Score: inf
ROOT
ATOM      1  C   UNL     1     -13.769  -8.434  22.668  1.00  0.00     0.138 A 
ATOM      2  C   UNL     1     -12.987  -7.921  23.724  1.00  0.00     0.100 A 
ATOM      3  C   UNL     1     -13.591  -7.632  24.950  1.00  0.00     0.193 A 
ATOM      4  O   UNL     1     -12.893  -7.172  25.895  1.00  0.00    -0.289 OA
ATOM      5  C   UNL     1     -14.965  -7.858  25.113  1.00  0.00     0.065 A 
ATOM      6  C   UNL     1     -15.635  -7.589  26.321  1.00  0.00     0.016 A 
ATOM      7  C   UNL     1     -17.008  -7.833  26.430  1.00  0.00     0.001 A 
ATOM      8  C   UNL     1     -17.718  -8.344  25.340  1.00  0.00     0.004 A 
ATOM      9  C   UNL     1     -17.061  -8.614  24.137  1.00  0.00     0.048 A 
ATOM     10  C   UNL     1     -15.689  -8.374  24.017  1.00  0.00     0.138 A 
ATOM     11  O   UNL     1     -15.073  -8.634  22.868  1.00  0.00    -0.456 OA
ENDROOT
BRANCH   1  12
ATOM     12  C   UNL     1     -13.202  -8.770  21.326  1.00  0.00     0.017 A 
ATOM     13  C   UNL     1     -12.185  -9.329  18.753  1.00  0.00     0.000 A 
ATOM     14  C   UNL     1     -13.104  -8.296  18.930  1.00  0.00     0.001 A 
ATOM     15  C   UNL     1     -11.768 -10.085  19.848  1.00  0.00     0.001 A 
ATOM     16  C   UNL     1     -13.609  -8.017  20.203  1.00  0.00     0.012 A 
ATOM     17  C   UNL     1     -12.268  -9.812  21.125  1.00  0.00     0.012 A 
ENDBRANCH   1  12
TORSDOF 1
ENDMDL
MODEL 8
REMARK VINA RESULT:    -6.820      7.247      9.800
REMARK INTER + INTRA:          -7.447
REMARK INTER:                  -7.221
REMARK INTRA:                  -0.226
REMARK UNBOUND:                -0.229
REMARK SMILES O=c1cc(-c2ccccc2)oc2ccccc12
REMARK SMILES IDX 4 1 3 2 2 3 1 4 17 5 16 6 15 7 14 8 13 9 12 10 11 11 5 12
REMARK SMILES IDX 8 13 7 14 9 15 6 16 10 17
REMARK H PARENT
REMARK Flexibility Score: inf
ROOT
ATOM      1  C   UNL     1     -13.398  -8.615  24.543  1.00  0.00     0.138 A 
ATOM      2  C   UNL     1     -13.605  -7.397  23.862  1.00  0.00     0.100 A 
ATOM      3  C   UNL     1     -13.369  -7.329  22.487  1.00  0.00     0.193 A 
ATOM      4  O   UNL     1     -13.554  -6.240  21.877  1.00  0.00    -0.289 OA
ATOM      5  C   UNL     1     -12.930  -8.472  21.804  1.00  0.00     0.065 A 
ATOM      6  C   UNL     1     -12.674  -8.471  20.420  1.00  0.00     0.016 A 
ATOM      7  C   UNL     1     -12.238  -9.640  19.789  1.00  0.00     0.001 A 
ATOM      8  C   UNL     1     -12.055 -10.812  20.528  1.00  0.00     0.004 A 
ATOM      9  C   UNL     1     -12.307 -10.822  21.903  1.00  0.00     0.048 A 
ATOM     10  C   UNL     1     -12.744  -9.658  22.545  1.00  0.00     0.138 A 
ATOM     11  O   UNL     1     -12.981  -9.678  23.853  1.00  0.00    -0.456 OA
ENDROOT
BRANCH   1  12
ATOM     12  C   UNL     1     -13.628  -8.774  26.012  1.00  0.00     0.017 A 
ATOM     13  C   UNL     1     -14.140  -9.130  28.765  1.00  0.00     0.000 A 
ATOM     14  C   UNL     1     -14.991  -9.698  27.818  1.00  0.00     0.001 A 
ATOM     15  C   UNL     1     -13.035  -8.387  28.351  1.00  0.00     0.001 A 
ATOM     16  C   UNL     1     -14.739  -9.523  26.455  1.00  0.00     0.012 A 
ATOM     17  C   UNL     1     -12.776  -8.208  26.989  1.00  0.00     0.012 A 
ENDBRANCH   1  12
TORSDOF 1
ENDMDL
MODEL 9
REMARK VINA RESULT:    -6.716      3.787      6.004
REMARK INTER + INTRA:          -7.338
REMARK INTER:                  -7.111
REMARK INTRA:                  -0.226
REMARK UNBOUND:                -0.229
REMARK SMILES O=c1cc(-c2ccccc2)oc2ccccc12
REMARK SMILES IDX 4 1 3 2 2 3 1 4 17 5 16 6 15 7 14 8 13 9 12 10 11 11 5 12
REMARK SMILES IDX 8 13 7 14 9 15 6 16 10 17
REMARK H PARENT
REMARK Flexibility Score: inf
ROOT
ATOM      1  C   UNL     1     -12.536  -8.211  28.157  1.00  0.00     0.138 A 
ATOM      2  C   UNL     1     -12.922  -7.003  28.776  1.00  0.00     0.100 A 
ATOM      3  C   UNL     1     -12.563  -6.766  30.105  1.00  0.00     0.193 A 
ATOM      4  O   UNL     1     -12.908  -5.685  30.658  1.00  0.00    -0.289 OA
ATOM      5  C   UNL     1     -11.825  -7.731  30.804  1.00  0.00     0.065 A 
ATOM      6  C   UNL     1     -11.431  -7.553  32.143  1.00  0.00     0.016 A 
ATOM      7  C   UNL     1     -10.695  -8.549  32.794  1.00  0.00     0.001 A 
ATOM      8  C   UNL     1     -10.347  -9.721  32.117  1.00  0.00     0.004 A 
ATOM      9  C   UNL     1     -10.734  -9.905  30.787  1.00  0.00     0.048 A 
ATOM     10  C   UNL     1     -11.471  -8.916  30.126  1.00  0.00     0.138 A 
ATOM     11  O   UNL     1     -11.833  -9.101  28.861  1.00  0.00    -0.456 OA
ENDROOT
BRANCH   1  12
ATOM     12  C   UNL     1     -12.878  -8.545  26.741  1.00  0.00     0.017 A 
ATOM     13  C   UNL     1     -13.589  -9.240  24.099  1.00  0.00     0.000 A 
ATOM     14  C   UNL     1     -14.201  -9.878  25.177  1.00  0.00     0.001 A 
ATOM     15  C   UNL     1     -12.627  -8.257  24.326  1.00  0.00     0.001 A 
ATOM     16  C   UNL     1     -13.850  -9.535  26.486  1.00  0.00     0.012 A 
ATOM     17  C   UNL     1     -12.271  -7.909  25.633  1.00  0.00     0.012 A 
ENDBRANCH   1  12
TORSDOF 1
ENDMDL
