MODEL 1
REMARK VINA RESULT:    -3.037      0.000      0.000
REMARK INTER + INTRA:          -3.754
REMARK INTER:                  -3.658
REMARK INTRA:                  -0.096
REMARK UNBOUND:                -0.096
REMARK SMILES Oc1cc(O)c2c(c1)O[C@@H](c1ccc(O)c(O)c1)[C@@H](O)C2
REMARK SMILES IDX 21 1 19 2 10 3 9 4 7 5 8 6 2 7 3 8 4 9 6 10 20 11 11 13
REMARK SMILES IDX 18 14 12 15 16 16 13 17 14 18 17 19 15 21 5 23 1 25
REMARK H PARENT 20 12 17 20 15 22 5 24 1 26
REMARK Flexibility Score: inf
ROOT
ATOM      1  C   UNL     1      13.985  30.853  28.614  1.00  0.00     0.079 C 
ATOM      2  C   UNL     1      14.345  30.948  27.116  1.00  0.00     0.164 C 
ATOM      3  C   UNL     1      13.284  30.236  26.243  1.00  0.00     0.232 C 
ATOM      4  O   UNL     1      13.210  28.872  26.667  1.00  0.00    -0.482 OA
ATOM      5  C   UNL     1      13.228  28.508  28.020  1.00  0.00     0.131 A 
ATOM      6  C   UNL     1      12.883  27.204  28.383  1.00  0.00     0.093 A 
ATOM      7  C   UNL     1      12.882  26.822  29.727  1.00  0.00     0.122 A 
ATOM      8  C   UNL     1      13.232  27.751  30.716  1.00  0.00     0.092 A 
ATOM      9  C   UNL     1      13.590  29.061  30.363  1.00  0.00     0.126 A 
ATOM     10  C   UNL     1      13.608  29.442  29.008  1.00  0.00     0.039 A 
ENDROOT
BRANCH   2  11
ATOM     11  O   UNL     1      14.533  32.278  26.708  1.00  0.00    -0.389 OA
ATOM     12  H   UNL     1      15.509  32.400  26.569  1.00  0.00     0.211 HD
ENDBRANCH   2  11
BRANCH   3  13
ATOM     13  C   UNL     1      11.871  30.820  26.212  1.00  0.00    -0.001 A 
ATOM     14  C   UNL     1      10.811  29.997  26.643  1.00  0.00     0.057 A 
ATOM     15  C   UNL     1      11.554  32.102  25.712  1.00  0.00     0.012 A 
ATOM     16  C   UNL     1       9.485  30.449  26.618  1.00  0.00     0.157 A 
ATOM     17  C   UNL     1      10.231  32.553  25.689  1.00  0.00     0.050 A 
ATOM     18  C   UNL     1       9.195  31.731  26.143  1.00  0.00     0.157 A 
BRANCH  16  19
ATOM     19  O   UNL     1       8.450  29.627  27.062  1.00  0.00    -0.504 OA
ATOM     20  H   UNL     1       8.493  28.619  26.961  1.00  0.00     0.293 HD
ENDBRANCH  16  19
BRANCH  18  21
ATOM     21  O   UNL     1       7.876  32.180  26.124  1.00  0.00    -0.504 OA
ATOM     22  H   UNL     1       7.222  31.935  26.859  1.00  0.00     0.293 HD
ENDBRANCH  18  21
ENDBRANCH   3  13
BRANCH   9  23
ATOM     23  O   UNL     1      13.929  29.982  31.354  1.00  0.00    -0.507 OA
ATOM     24  H   UNL     1      14.195  30.932  31.127  1.00  0.00     0.293 HD
ENDBRANCH   9  23
BRANCH   7  25
ATOM     25  O   UNL     1      12.530  25.519  30.071  1.00  0.00    -0.508 OA
ATOM     26  H   UNL     1      13.079  24.977  30.730  1.00  0.00     0.293 HD
ENDBRANCH   7  25
TORSDOF 6
ENDMDL
MODEL 2
REMARK VINA RESULT:    -2.632      3.728      5.442
REMARK INTER + INTRA:          -3.266
REMARK INTER:                  -3.256
REMARK INTRA:                  -0.010
REMARK UNBOUND:                -0.096
REMARK SMILES Oc1cc(O)c2c(c1)O[C@@H](c1ccc(O)c(O)c1)[C@@H](O)C2
REMARK SMILES IDX 21 1 19 2 10 3 9 4 7 5 8 6 2 7 3 8 4 9 6 10 20 11 11 13
REMARK SMILES IDX 18 14 12 15 16 16 13 17 14 18 17 19 15 21 5 23 1 25
REMARK H PARENT 20 12 17 20 15 22 5 24 1 26
REMARK Flexibility Score: inf
ROOT
ATOM      1  C   UNL     1      13.448  29.786  31.332  1.00  0.00     0.079 C 
ATOM      2  C   UNL     1      13.991  29.575  29.903  1.00  0.00     0.164 C 
ATOM      3  C   UNL     1      14.239  28.075  29.617  1.00  0.00     0.232 C 
ATOM      4  O   UNL     1      15.163  27.589  30.594  1.00  0.00    -0.482 OA
ATOM      5  C   UNL     1      15.077  27.944  31.947  1.00  0.00     0.131 A 
ATOM      6  C   UNL     1      15.827  27.236  32.890  1.00  0.00     0.093 A 
ATOM      7  C   UNL     1      15.748  27.566  34.245  1.00  0.00     0.122 A 
ATOM      8  C   UNL     1      14.914  28.613  34.661  1.00  0.00     0.092 A 
ATOM      9  C   UNL     1      14.165  29.338  33.723  1.00  0.00     0.126 A 
ATOM     10  C   UNL     1      14.257  29.018  32.354  1.00  0.00     0.039 A 
ENDROOT
BRANCH   2  11
ATOM     11  O   UNL     1      13.151  30.148  28.936  1.00  0.00    -0.389 OA
ATOM     12  H   UNL     1      13.735  30.464  28.198  1.00  0.00     0.211 HD
ENDBRANCH   2  11
BRANCH   3  13
ATOM     13  C   UNL     1      13.027  27.143  29.579  1.00  0.00    -0.001 A 
ATOM     14  C   UNL     1      12.844  26.258  30.661  1.00  0.00     0.057 A 
ATOM     15  C   UNL     1      12.124  27.062  28.496  1.00  0.00     0.012 A 
ATOM     16  C   UNL     1      11.774  25.354  30.686  1.00  0.00     0.157 A 
ATOM     17  C   UNL     1      11.056  26.160  28.523  1.00  0.00     0.050 A 
ATOM     18  C   UNL     1      10.876  25.307  29.616  1.00  0.00     0.157 A 
BRANCH  16  19
ATOM     19  O   UNL     1      11.600  24.496  31.771  1.00  0.00    -0.504 OA
ATOM     20  H   UNL     1      12.119  24.619  32.633  1.00  0.00     0.293 HD
ENDBRANCH  16  19
BRANCH  18  21
ATOM     21  O   UNL     1       9.811  24.410  29.645  1.00  0.00    -0.504 OA
ATOM     22  H   UNL     1       9.642  23.814  30.448  1.00  0.00     0.293 HD
ENDBRANCH  18  21
ENDBRANCH   3  13
BRANCH   9  23
ATOM     23  O   UNL     1      13.331  30.373  34.145  1.00  0.00    -0.507 OA
ATOM     24  H   UNL     1      13.697  31.184  34.629  1.00  0.00     0.293 HD
ENDBRANCH   9  23
BRANCH   7  25
ATOM     25  O   UNL     1      16.498  26.846  35.173  1.00  0.00    -0.508 OA
ATOM     26  H   UNL     1      17.511  26.839  35.145  1.00  0.00     0.293 HD
ENDBRANCH   7  25
TORSDOF 6
ENDMDL
MODEL 3
REMARK VINA RESULT:    -1.419      3.610      5.314
REMARK INTER + INTRA:          -1.805
REMARK INTER:                  -1.763
REMARK INTRA:                  -0.043
REMARK UNBOUND:                -0.096
REMARK SMILES Oc1cc(O)c2c(c1)O[C@@H](c1ccc(O)c(O)c1)[C@@H](O)C2
REMARK SMILES IDX 21 1 19 2 10 3 9 4 7 5 8 6 2 7 3 8 4 9 6 10 20 11 11 13
REMARK SMILES IDX 18 14 12 15 16 16 13 17 14 18 17 19 15 21 5 23 1 25
REMARK H PARENT 20 12 17 20 15 22 5 24 1 26
REMARK Flexibility Score: inf
ROOT
ATOM      1  C   UNL     1      13.196  29.570  31.104  1.00  0.00     0.079 C 
ATOM      2  C   UNL     1      13.705  29.291  29.674  1.00  0.00     0.164 C 
ATOM      3  C   UNL     1      14.029  27.791  29.481  1.00  0.00     0.232 C 
ATOM      4  O   UNL     1      15.009  27.424  30.455  1.00  0.00    -0.482 OA
ATOM      5  C   UNL     1      14.946  27.866  31.784  1.00  0.00     0.131 A 
ATOM      6  C   UNL     1      15.764  27.267  32.745  1.00  0.00     0.093 A 
ATOM      7  C   UNL     1      15.709  27.685  34.077  1.00  0.00     0.122 A 
ATOM      8  C   UNL     1      14.831  28.711  34.450  1.00  0.00     0.092 A 
ATOM      9  C   UNL     1      14.012  29.328  33.492  1.00  0.00     0.126 A 
ATOM     10  C   UNL     1      14.079  28.920  32.146  1.00  0.00     0.039 A 
ENDROOT
BRANCH   2  11
ATOM     11  O   UNL     1      12.803  29.750  28.701  1.00  0.00    -0.389 OA
ATOM     12  H   UNL     1      11.892  29.636  29.078  1.00  0.00     0.211 HD
ENDBRANCH   2  11
BRANCH   3  13
ATOM     13  C   UNL     1      12.870  26.793  29.548  1.00  0.00    -0.001 A 
ATOM     14  C   UNL     1      11.753  27.030  28.722  1.00  0.00     0.057 A 
ATOM     15  C   UNL     1      12.820  25.696  30.436  1.00  0.00     0.012 A 
ATOM     16  C   UNL     1      10.640  26.178  28.746  1.00  0.00     0.157 A 
ATOM     17  C   UNL     1      11.710  24.846  30.457  1.00  0.00     0.050 A 
ATOM     18  C   UNL     1      10.621  25.082  29.613  1.00  0.00     0.157 A 
BRANCH  16  19
ATOM     19  O   UNL     1       9.549  26.418  27.911  1.00  0.00    -0.504 OA
ATOM     20  H   UNL     1       9.020  25.658  27.499  1.00  0.00     0.293 HD
ENDBRANCH  16  19
BRANCH  18  21
ATOM     21  O   UNL     1       9.515  24.234  29.632  1.00  0.00    -0.504 OA
ATOM     22  H   UNL     1       8.589  24.565  29.383  1.00  0.00     0.293 HD
ENDBRANCH  18  21
ENDBRANCH   3  13
BRANCH   9  23
ATOM     23  O   UNL     1      13.135  30.343  33.874  1.00  0.00    -0.507 OA
ATOM     24  H   UNL     1      12.199  30.140  34.202  1.00  0.00     0.293 HD
ENDBRANCH   9  23
BRANCH   7  25
ATOM     25  O   UNL     1      16.527  27.073  35.023  1.00  0.00    -0.508 OA
ATOM     26  H   UNL     1      16.142  26.514  35.777  1.00  0.00     0.293 HD
ENDBRANCH   7  25
TORSDOF 6
ENDMDL
MODEL 4
REMARK VINA RESULT:    -1.334      2.597      4.430
REMARK INTER + INTRA:          -1.703
REMARK INTER:                  -1.610
REMARK INTRA:                  -0.093
REMARK UNBOUND:                -0.096
REMARK SMILES Oc1cc(O)c2c(c1)O[C@@H](c1ccc(O)c(O)c1)[C@@H](O)C2
REMARK SMILES IDX 21 1 19 2 10 3 9 4 7 5 8 6 2 7 3 8 4 9 6 10 20 11 11 13
REMARK SMILES IDX 18 14 12 15 16 16 13 17 14 18 17 19 15 21 5 23 1 25
REMARK H PARENT 20 12 17 20 15 22 5 24 1 26
REMARK Flexibility Score: inf
ROOT
ATOM      1  C   UNL     1      13.785  28.520  28.160  1.00  0.00     0.079 C 
ATOM      2  C   UNL     1      12.549  29.161  27.496  1.00  0.00     0.164 C 
ATOM      3  C   UNL     1      12.424  30.655  27.880  1.00  0.00     0.232 C 
ATOM      4  O   UNL     1      12.341  30.737  29.305  1.00  0.00    -0.482 OA
ATOM      5  C   UNL     1      13.147  29.959  30.147  1.00  0.00     0.131 A 
ATOM      6  C   UNL     1      13.219  30.270  31.507  1.00  0.00     0.093 A 
ATOM      7  C   UNL     1      14.025  29.515  32.362  1.00  0.00     0.122 A 
ATOM      8  C   UNL     1      14.763  28.438  31.854  1.00  0.00     0.092 A 
ATOM      9  C   UNL     1      14.692  28.109  30.492  1.00  0.00     0.126 A 
ATOM     10  C   UNL     1      13.866  28.859  29.632  1.00  0.00     0.039 A 
ENDROOT
BRANCH   2  11
ATOM     11  O   UNL     1      12.557  28.990  26.103  1.00  0.00    -0.389 OA
ATOM     12  H   UNL     1      13.271  29.580  25.745  1.00  0.00     0.211 HD
ENDBRANCH   2  11
BRANCH   3  13
ATOM     13  C   UNL     1      13.512  31.614  27.393  1.00  0.00    -0.001 A 
ATOM     14  C   UNL     1      13.620  31.833  26.005  1.00  0.00     0.057 A 
ATOM     15  C   UNL     1      14.458  32.235  28.239  1.00  0.00     0.012 A 
ATOM     16  C   UNL     1      14.609  32.675  25.478  1.00  0.00     0.157 A 
ATOM     17  C   UNL     1      15.442  33.075  27.712  1.00  0.00     0.050 A 
ATOM     18  C   UNL     1      15.520  33.300  26.334  1.00  0.00     0.157 A 
BRANCH  16  19
ATOM     19  O   UNL     1      14.693  32.892  24.103  1.00  0.00    -0.504 OA
ATOM     20  H   UNL     1      14.809  33.822  23.720  1.00  0.00     0.293 HD
ENDBRANCH  16  19
BRANCH  18  21
ATOM     21  O   UNL     1      16.499  34.140  25.809  1.00  0.00    -0.504 OA
ATOM     22  H   UNL     1      16.479  34.436  24.839  1.00  0.00     0.293 HD
ENDBRANCH  18  21
ENDBRANCH   3  13
BRANCH   9  23
ATOM     23  O   UNL     1      15.436  27.040  29.993  1.00  0.00    -0.507 OA
ATOM     24  H   UNL     1      16.443  27.002  30.095  1.00  0.00     0.293 HD
ENDBRANCH   9  23
BRANCH   7  25
ATOM     25  O   UNL     1      14.088  29.843  33.714  1.00  0.00    -0.508 OA
ATOM     26  H   UNL     1      13.788  30.749  34.056  1.00  0.00     0.293 HD
ENDBRANCH   7  25
TORSDOF 6
ENDMDL
MODEL 5
REMARK VINA RESULT:    -1.310      2.117      4.605
REMARK INTER + INTRA:          -1.674
REMARK INTER:                  -1.537
REMARK INTRA:                  -0.137
REMARK UNBOUND:                -0.096
REMARK SMILES Oc1cc(O)c2c(c1)O[C@@H](c1ccc(O)c(O)c1)[C@@H](O)C2
REMARK SMILES IDX 21 1 19 2 10 3 9 4 7 5 8 6 2 7 3 8 4 9 6 10 20 11 11 13
REMARK SMILES IDX 18 14 12 15 16 16 13 17 14 18 17 19 15 21 5 23 1 25
REMARK H PARENT 20 12 17 20 15 22 5 24 1 26
REMARK Flexibility Score: inf
ROOT
ATOM      1  C   UNL     1      12.145  29.344  27.354  1.00  0.00     0.079 C 
ATOM      2  C   UNL     1      11.433  30.713  27.369  1.00  0.00     0.164 C 
ATOM      3  C   UNL     1      12.402  31.840  27.798  1.00  0.00     0.232 C 
ATOM      4  O   UNL     1      12.912  31.513  29.093  1.00  0.00    -0.482 OA
ATOM      5  C   UNL     1      13.303  30.212  29.436  1.00  0.00     0.131 A 
ATOM      6  C   UNL     1      14.038  30.004  30.605  1.00  0.00     0.093 A 
ATOM      7  C   UNL     1      14.449  28.717  30.961  1.00  0.00     0.122 A 
ATOM      8  C   UNL     1      14.121  27.629  30.141  1.00  0.00     0.092 A 
ATOM      9  C   UNL     1      13.374  27.823  28.969  1.00  0.00     0.126 A 
ATOM     10  C   UNL     1      12.945  29.118  28.619  1.00  0.00     0.039 A 
ENDROOT
BRANCH   2  11
ATOM     11  O   UNL     1      10.828  30.999  26.135  1.00  0.00    -0.389 OA
ATOM     12  H   UNL     1      10.236  31.783  26.281  1.00  0.00     0.211 HD
ENDBRANCH   2  11
BRANCH   3  13
ATOM     13  C   UNL     1      13.577  32.165  26.873  1.00  0.00    -0.001 A 
ATOM     14  C   UNL     1      14.579  33.026  27.364  1.00  0.00     0.057 A 
ATOM     15  C   UNL     1      13.683  31.716  25.538  1.00  0.00     0.012 A 
ATOM     16  C   UNL     1      15.673  33.394  26.568  1.00  0.00     0.157 A 
ATOM     17  C   UNL     1      14.775  32.083  24.746  1.00  0.00     0.050 A 
ATOM     18  C   UNL     1      15.772  32.918  25.257  1.00  0.00     0.157 A 
BRANCH  16  19
ATOM     19  O   UNL     1      16.663  34.236  27.074  1.00  0.00    -0.504 OA
ATOM     20  H   UNL     1      17.647  34.014  26.977  1.00  0.00     0.293 HD
ENDBRANCH  16  19
BRANCH  18  21
ATOM     21  O   UNL     1      16.862  33.283  24.470  1.00  0.00    -0.504 OA
ATOM     22  H   UNL     1      16.807  34.052  23.812  1.00  0.00     0.293 HD
ENDBRANCH  18  21
ENDBRANCH   3  13
BRANCH   9  23
ATOM     23  O   UNL     1      13.058  26.736  28.155  1.00  0.00    -0.507 OA
ATOM     24  H   UNL     1      13.413  26.661  27.209  1.00  0.00     0.293 HD
ENDBRANCH   9  23
BRANCH   7  25
ATOM     25  O   UNL     1      15.186  28.527  32.127  1.00  0.00    -0.508 OA
ATOM     26  H   UNL     1      15.774  29.260  32.509  1.00  0.00     0.293 HD
ENDBRANCH   7  25
TORSDOF 6
ENDMDL
MODEL 6
REMARK VINA RESULT:    -1.307      1.553      6.159
REMARK INTER + INTRA:          -1.670
REMARK INTER:                  -1.585
REMARK INTRA:                  -0.085
REMARK UNBOUND:                -0.096
REMARK SMILES Oc1cc(O)c2c(c1)O[C@@H](c1ccc(O)c(O)c1)[C@@H](O)C2
REMARK SMILES IDX 21 1 19 2 10 3 9 4 7 5 8 6 2 7 3 8 4 9 6 10 20 11 11 13
REMARK SMILES IDX 18 14 12 15 16 16 13 17 14 18 17 19 15 21 5 23 1 25
REMARK H PARENT 20 12 17 20 15 22 5 24 1 26
REMARK Flexibility Score: inf
ROOT
ATOM      1  C   UNL     1      11.002  28.564  27.829  1.00  0.00     0.079 C 
ATOM      2  C   UNL     1      12.144  27.530  27.736  1.00  0.00     0.164 C 
ATOM      3  C   UNL     1      13.505  28.170  28.100  1.00  0.00     0.232 C 
ATOM      4  O   UNL     1      13.729  29.264  27.207  1.00  0.00    -0.482 OA
ATOM      5  C   UNL     1      12.712  30.160  26.851  1.00  0.00     0.131 A 
ATOM      6  C   UNL     1      13.044  31.351  26.202  1.00  0.00     0.093 A 
ATOM      7  C   UNL     1      12.047  32.264  25.849  1.00  0.00     0.122 A 
ATOM      8  C   UNL     1      10.707  31.982  26.145  1.00  0.00     0.092 A 
ATOM      9  C   UNL     1      10.359  30.785  26.788  1.00  0.00     0.126 A 
ATOM     10  C   UNL     1      11.361  29.856  27.129  1.00  0.00     0.039 A 
ENDROOT
BRANCH   2  11
ATOM     11  O   UNL     1      11.886  26.396  28.521  1.00  0.00    -0.389 OA
ATOM     12  H   UNL     1      11.786  26.711  29.458  1.00  0.00     0.211 HD
ENDBRANCH   2  11
BRANCH   3  13
ATOM     13  C   UNL     1      13.707  28.658  29.536  1.00  0.00    -0.001 A 
ATOM     14  C   UNL     1      14.239  27.745  30.470  1.00  0.00     0.057 A 
ATOM     15  C   UNL     1      13.327  29.936  30.000  1.00  0.00     0.012 A 
ATOM     16  C   UNL     1      14.427  28.106  31.811  1.00  0.00     0.157 A 
ATOM     17  C   UNL     1      13.517  30.295  31.338  1.00  0.00     0.050 A 
ATOM     18  C   UNL     1      14.068  29.386  32.244  1.00  0.00     0.157 A 
BRANCH  16  19
ATOM     19  O   UNL     1      14.968  27.196  32.718  1.00  0.00    -0.504 OA
ATOM     20  H   UNL     1      15.153  26.234  32.457  1.00  0.00     0.293 HD
ENDBRANCH  16  19
BRANCH  18  21
ATOM     21  O   UNL     1      14.261  29.744  33.577  1.00  0.00    -0.504 OA
ATOM     22  H   UNL     1      14.511  30.690  33.841  1.00  0.00     0.293 HD
ENDBRANCH  18  21
ENDBRANCH   3  13
BRANCH   9  23
ATOM     23  O   UNL     1       9.024  30.516  27.087  1.00  0.00    -0.507 OA
ATOM     24  H   UNL     1       8.681  30.528  28.039  1.00  0.00     0.293 HD
ENDBRANCH   9  23
BRANCH   7  25
ATOM     25  O   UNL     1      12.397  33.449  25.206  1.00  0.00    -0.508 OA
ATOM     26  H   UNL     1      13.363  33.676  24.999  1.00  0.00     0.293 HD
ENDBRANCH   7  25
TORSDOF 6
ENDMDL
MODEL 7
REMARK VINA RESULT:    -0.616      1.900      6.072
REMARK INTER + INTRA:          -0.838
REMARK INTER:                  -0.773
REMARK INTRA:                  -0.064
REMARK UNBOUND:                -0.096
REMARK SMILES Oc1cc(O)c2c(c1)O[C@@H](c1ccc(O)c(O)c1)[C@@H](O)C2
REMARK SMILES IDX 21 1 19 2 10 3 9 4 7 5 8 6 2 7 3 8 4 9 6 10 20 11 11 13
REMARK SMILES IDX 18 14 12 15 16 16 13 17 14 18 17 19 15 21 5 23 1 25
REMARK H PARENT 20 12 17 20 15 22 5 24 1 26
REMARK Flexibility Score: inf
ROOT
ATOM      1  C   UNL     1      11.337  31.079  26.540  1.00  0.00     0.079 C 
ATOM      2  C   UNL     1      11.469  29.542  26.476  1.00  0.00     0.164 C 
ATOM      3  C   UNL     1      12.897  29.090  26.861  1.00  0.00     0.232 C 
ATOM      4  O   UNL     1      13.814  29.722  25.964  1.00  0.00    -0.482 OA
ATOM      5  C   UNL     1      13.684  31.064  25.583  1.00  0.00     0.131 A 
ATOM      6  C   UNL     1      14.745  31.697  24.932  1.00  0.00     0.093 A 
ATOM      7  C   UNL     1      14.641  33.038  24.553  1.00  0.00     0.122 A 
ATOM      8  C   UNL     1      13.466  33.751  24.827  1.00  0.00     0.092 A 
ATOM      9  C   UNL     1      12.389  33.123  25.471  1.00  0.00     0.126 A 
ATOM     10  C   UNL     1      12.487  31.767  25.838  1.00  0.00     0.039 A 
ENDROOT
BRANCH   2  11
ATOM     11  O   UNL     1      10.499  28.903  27.265  1.00  0.00    -0.389 OA
ATOM     12  H   UNL     1      10.563  27.932  27.066  1.00  0.00     0.211 HD
ENDBRANCH   2  11
BRANCH   3  13
ATOM     13  C   UNL     1      13.364  29.335  28.297  1.00  0.00    -0.001 A 
ATOM     14  C   UNL     1      13.240  28.274  29.217  1.00  0.00     0.057 A 
ATOM     15  C   UNL     1      13.843  30.575  28.775  1.00  0.00     0.012 A 
ATOM     16  C   UNL     1      13.619  28.429  30.557  1.00  0.00     0.157 A 
ATOM     17  C   UNL     1      14.222  30.727  30.111  1.00  0.00     0.050 A 
ATOM     18  C   UNL     1      14.114  29.657  31.004  1.00  0.00     0.157 A 
BRANCH  16  19
ATOM     19  O   UNL     1      13.503  27.364  31.451  1.00  0.00    -0.504 OA
ATOM     20  H   UNL     1      12.600  27.054  31.791  1.00  0.00     0.293 HD
ENDBRANCH  16  19
BRANCH  18  21
ATOM     21  O   UNL     1      14.494  29.806  32.336  1.00  0.00    -0.504 OA
ATOM     22  H   UNL     1      15.470  29.865  32.606  1.00  0.00     0.293 HD
ENDBRANCH  18  21
ENDBRANCH   3  13
BRANCH   9  23
ATOM     23  O   UNL     1      11.226  33.841  25.747  1.00  0.00    -0.507 OA
ATOM     24  H   UNL     1      11.096  34.323  26.629  1.00  0.00     0.293 HD
ENDBRANCH   9  23
BRANCH   7  25
ATOM     25  O   UNL     1      15.710  33.656  23.909  1.00  0.00    -0.508 OA
ATOM     26  H   UNL     1      15.573  34.232  23.087  1.00  0.00     0.293 HD
ENDBRANCH   7  25
TORSDOF 6
ENDMDL
MODEL 8
REMARK VINA RESULT:    -0.190      3.088      5.699
REMARK INTER + INTRA:          -0.325
REMARK INTER:                  -0.231
REMARK INTRA:                  -0.094
REMARK UNBOUND:                -0.096
REMARK SMILES Oc1cc(O)c2c(c1)O[C@@H](c1ccc(O)c(O)c1)[C@@H](O)C2
REMARK SMILES IDX 21 1 19 2 10 3 9 4 7 5 8 6 2 7 3 8 4 9 6 10 20 11 11 13
REMARK SMILES IDX 18 14 12 15 16 16 13 17 14 18 17 19 15 21 5 23 1 25
REMARK H PARENT 20 12 17 20 15 22 5 24 1 26
REMARK Flexibility Score: inf
ROOT
ATOM      1  C   UNL     1      10.696  25.934  30.744  1.00  0.00     0.079 C 
ATOM      2  C   UNL     1      12.209  25.679  30.902  1.00  0.00     0.164 C 
ATOM      3  C   UNL     1      12.950  25.878  29.559  1.00  0.00     0.232 C 
ATOM      4  O   UNL     1      12.376  24.984  28.603  1.00  0.00    -0.482 OA
ATOM      5  C   UNL     1      10.993  24.776  28.509  1.00  0.00     0.131 A 
ATOM      6  C   UNL     1      10.474  24.111  27.395  1.00  0.00     0.093 A 
ATOM      7  C   UNL     1       9.098  23.904  27.275  1.00  0.00     0.122 A 
ATOM      8  C   UNL     1       8.234  24.364  28.278  1.00  0.00     0.092 A 
ATOM      9  C   UNL     1       8.744  25.023  29.406  1.00  0.00     0.126 A 
ATOM     10  C   UNL     1      10.132  25.217  29.536  1.00  0.00     0.039 A 
ENDROOT
BRANCH   2  11
ATOM     11  O   UNL     1      12.769  26.470  31.918  1.00  0.00    -0.389 OA
ATOM     12  H   UNL     1      12.899  27.377  31.536  1.00  0.00     0.211 HD
ENDBRANCH   2  11
BRANCH   3  13
ATOM     13  C   UNL     1      12.982  27.286  28.960  1.00  0.00    -0.001 A 
ATOM     14  C   UNL     1      13.775  28.256  29.606  1.00  0.00     0.057 A 
ATOM     15  C   UNL     1      12.212  27.691  27.847  1.00  0.00     0.012 A 
ATOM     16  C   UNL     1      13.834  29.574  29.135  1.00  0.00     0.157 A 
ATOM     17  C   UNL     1      12.274  29.007  27.378  1.00  0.00     0.050 A 
ATOM     18  C   UNL     1      13.085  29.949  28.017  1.00  0.00     0.157 A 
BRANCH  16  19
ATOM     19  O   UNL     1      14.635  30.518  29.778  1.00  0.00    -0.504 OA
ATOM     20  H   UNL     1      14.235  31.324  30.243  1.00  0.00     0.293 HD
ENDBRANCH  16  19
BRANCH  18  21
ATOM     21  O   UNL     1      13.149  31.260  27.548  1.00  0.00    -0.504 OA
ATOM     22  H   UNL     1      14.003  31.803  27.608  1.00  0.00     0.293 HD
ENDBRANCH  18  21
ENDBRANCH   3  13
BRANCH   9  23
ATOM     23  O   UNL     1       7.876  25.484  30.396  1.00  0.00    -0.507 OA
ATOM     24  H   UNL     1       8.162  26.187  31.067  1.00  0.00     0.293 HD
ENDBRANCH   9  23
BRANCH   7  25
ATOM     25  O   UNL     1       8.597  23.244  26.156  1.00  0.00    -0.508 OA
ATOM     26  H   UNL     1       7.600  23.157  25.992  1.00  0.00     0.293 HD
ENDBRANCH   7  25
TORSDOF 6
ENDMDL
