MODEL 1
REMARK VINA RESULT:    -5.239      0.000      0.000
REMARK INTER + INTRA:          -6.387
REMARK INTER:                  -6.158
REMARK INTRA:                  -0.229
REMARK UNBOUND:                -0.229
REMARK SMILES O=c1c(O)c(-c2ccc(O)c(O)c2)oc2cc(O)ccc12
REMARK SMILES IDX 5 1 3 2 2 3 1 4 21 5 15 6 14 7 16 8 17 9 19 10 20 11 6 12
REMARK SMILES IDX 7 13 8 14 9 15 13 16 11 17 10 18 12 20 4 22 18 24
REMARK H PARENT 10 19 12 21 4 23 18 25
REMARK Flexibility Score: inf
ROOT
ATOM      1  C   UNL     1       2.983   9.324  -0.981  1.00  0.00     0.180 A 
ATOM      2  C   UNL     1       1.707   9.474  -1.562  1.00  0.00     0.208 A 
ATOM      3  C   UNL     1       1.615   9.704  -2.944  1.00  0.00     0.235 A 
ATOM      4  O   UNL     1       0.485   9.831  -3.489  1.00  0.00    -0.285 OA
ATOM      5  C   UNL     1       2.790   9.797  -3.707  1.00  0.00     0.069 A 
ATOM      6  C   UNL     1       4.030   9.659  -3.047  1.00  0.00     0.142 A 
ATOM      7  O   UNL     1       4.073   9.435  -1.738  1.00  0.00    -0.452 OA
ATOM      8  C   UNL     1       5.223   9.756  -3.771  1.00  0.00     0.094 A 
ATOM      9  C   UNL     1       5.192   9.989  -5.153  1.00  0.00     0.119 A 
ATOM     10  C   UNL     1       3.965  10.124  -5.809  1.00  0.00     0.047 A 
ATOM     11  C   UNL     1       2.767  10.030  -5.094  1.00  0.00     0.020 A 
ENDROOT
BRANCH   1  12
ATOM     12  C   UNL     1       3.162   9.062   0.466  1.00  0.00     0.025 A 
ATOM     13  C   UNL     1       2.954  10.100   1.385  1.00  0.00     0.016 A 
ATOM     14  C   UNL     1       3.136   9.880   2.751  1.00  0.00     0.051 A 
ATOM     15  C   UNL     1       3.544   8.628   3.225  1.00  0.00     0.157 A 
ATOM     16  C   UNL     1       3.594   7.810   0.935  1.00  0.00     0.062 A 
ATOM     17  C   UNL     1       3.783   7.581   2.305  1.00  0.00     0.158 A 
BRANCH  15  18
ATOM     18  O   UNL     1       3.701   8.472   4.604  1.00  0.00    -0.504 OA
ATOM     19  H   UNL     1       3.818   7.580   5.061  1.00  0.00     0.293 HD
ENDBRANCH  15  18
BRANCH  17  20
ATOM     20  O   UNL     1       4.211   6.312   2.700  1.00  0.00    -0.504 OA
ATOM     21  H   UNL     1       3.640   5.481   2.646  1.00  0.00     0.293 HD
ENDBRANCH  17  20
ENDBRANCH   1  12
BRANCH   2  22
ATOM     22  O   UNL     1       0.558   9.425  -0.769  1.00  0.00    -0.502 OA
ATOM     23  H   UNL     1       0.451   9.989   0.066  1.00  0.00     0.293 HD
ENDBRANCH   2  22
BRANCH   9  24
ATOM     24  O   UNL     1       6.375  10.086  -5.883  1.00  0.00    -0.508 OA
ATOM     25  H   UNL     1       7.010  10.866  -5.760  1.00  0.00     0.293 HD
ENDBRANCH   9  24
TORSDOF 5
ENDMDL
MODEL 2
REMARK VINA RESULT:    -4.962      1.509      2.987
REMARK INTER + INTRA:          -6.062
REMARK INTER:                  -5.755
REMARK INTRA:                  -0.307
REMARK UNBOUND:                -0.229
REMARK SMILES O=c1c(O)c(-c2ccc(O)c(O)c2)oc2cc(O)ccc12
REMARK SMILES IDX 5 1 3 2 2 3 1 4 21 5 15 6 14 7 16 8 17 9 19 10 20 11 6 12
REMARK SMILES IDX 7 13 8 14 9 15 13 16 11 17 10 18 12 20 4 22 18 24
REMARK H PARENT 10 19 12 21 4 23 18 25
REMARK Flexibility Score: inf
ROOT
ATOM      1  C   UNL     1       3.601   9.092   0.167  1.00  0.00     0.180 A 
ATOM      2  C   UNL     1       4.909   8.947  -0.339  1.00  0.00     0.208 A 
ATOM      3  C   UNL     1       5.121   9.093  -1.720  1.00  0.00     0.235 A 
ATOM      4  O   UNL     1       6.284   8.978  -2.195  1.00  0.00    -0.285 OA
ATOM      5  C   UNL     1       4.030   9.358  -2.560  1.00  0.00     0.069 A 
ATOM      6  C   UNL     1       2.748   9.466  -1.980  1.00  0.00     0.142 A 
ATOM      7  O   UNL     1       2.590   9.330  -0.668  1.00  0.00    -0.452 OA
ATOM      8  C   UNL     1       1.633   9.720  -2.787  1.00  0.00     0.094 A 
ATOM      9  C   UNL     1       1.784   9.870  -4.172  1.00  0.00     0.119 A 
ATOM     10  C   UNL     1       3.054   9.765  -4.749  1.00  0.00     0.047 A 
ATOM     11  C   UNL     1       4.173   9.510  -3.952  1.00  0.00     0.020 A 
ENDROOT
BRANCH   1  12
ATOM     12  C   UNL     1       3.299   8.972   1.611  1.00  0.00     0.025 A 
ATOM     13  C   UNL     1       3.279  10.125   2.409  1.00  0.00     0.016 A 
ATOM     14  C   UNL     1       3.016  10.031   3.777  1.00  0.00     0.051 A 
ATOM     15  C   UNL     1       2.784   8.789   4.377  1.00  0.00     0.157 A 
ATOM     16  C   UNL     1       3.089   7.720   2.214  1.00  0.00     0.062 A 
ATOM     17  C   UNL     1       2.828   7.617   3.587  1.00  0.00     0.158 A 
BRANCH  15  18
ATOM     18  O   UNL     1       2.520   8.766   5.749  1.00  0.00    -0.504 OA
ATOM     19  H   UNL     1       3.186   8.467   6.446  1.00  0.00     0.293 HD
ENDBRANCH  15  18
BRANCH  17  20
ATOM     20  O   UNL     1       2.628   6.341   4.118  1.00  0.00    -0.504 OA
ATOM     21  H   UNL     1       3.222   5.548   3.920  1.00  0.00     0.293 HD
ENDBRANCH  17  20
ENDBRANCH   1  12
BRANCH   2  22
ATOM     22  O   UNL     1       5.968   8.634   0.516  1.00  0.00    -0.502 OA
ATOM     23  H   UNL     1       5.911   7.887   1.198  1.00  0.00     0.293 HD
ENDBRANCH   2  22
BRANCH   9  24
ATOM     24  O   UNL     1       0.680  10.124  -4.983  1.00  0.00    -0.508 OA
ATOM     25  H   UNL     1       0.170   9.373  -5.433  1.00  0.00     0.293 HD
ENDBRANCH   9  24
TORSDOF 5
ENDMDL
MODEL 3
REMARK VINA RESULT:    -4.911      1.361      6.695
REMARK INTER + INTRA:          -6.001
REMARK INTER:                  -6.378
REMARK INTRA:                   0.377
REMARK UNBOUND:                -0.229
REMARK SMILES O=c1c(O)c(-c2ccc(O)c(O)c2)oc2cc(O)ccc12
REMARK SMILES IDX 5 1 3 2 2 3 1 4 21 5 15 6 14 7 16 8 17 9 19 10 20 11 6 12
REMARK SMILES IDX 7 13 8 14 9 15 13 16 11 17 10 18 12 20 4 22 18 24
REMARK H PARENT 10 19 12 21 4 23 18 25
REMARK Flexibility Score: inf
ROOT
ATOM      1  C   UNL     1       3.776   9.084  -2.123  1.00  0.00     0.180 A 
ATOM      2  C   UNL     1       2.510   9.495  -1.655  1.00  0.00     0.208 A 
ATOM      3  C   UNL     1       2.164   9.232  -0.320  1.00  0.00     0.235 A 
ATOM      4  O   UNL     1       1.042   9.599   0.125  1.00  0.00    -0.285 OA
ATOM      5  C   UNL     1       3.073   8.554   0.507  1.00  0.00     0.069 A 
ATOM      6  C   UNL     1       4.310   8.155  -0.043  1.00  0.00     0.142 A 
ATOM      7  O   UNL     1       4.603   8.430  -1.309  1.00  0.00    -0.452 OA
ATOM      8  C   UNL     1       5.238   7.468   0.748  1.00  0.00     0.094 A 
ATOM      9  C   UNL     1       4.945   7.174   2.086  1.00  0.00     0.119 A 
ATOM     10  C   UNL     1       3.721   7.570   2.634  1.00  0.00     0.047 A 
ATOM     11  C   UNL     1       2.786   8.256   1.852  1.00  0.00     0.020 A 
ENDROOT
BRANCH   1  12
ATOM     12  C   UNL     1       4.221   9.340  -3.512  1.00  0.00     0.025 A 
ATOM     13  C   UNL     1       5.593   9.377  -3.799  1.00  0.00     0.016 A 
ATOM     14  C   UNL     1       6.035   9.636  -5.097  1.00  0.00     0.051 A 
ATOM     15  C   UNL     1       5.121   9.879  -6.128  1.00  0.00     0.157 A 
ATOM     16  C   UNL     1       3.301   9.606  -4.539  1.00  0.00     0.062 A 
ATOM     17  C   UNL     1       3.735   9.871  -5.845  1.00  0.00     0.158 A 
BRANCH  15  18
ATOM     18  O   UNL     1       5.629  10.125  -7.406  1.00  0.00    -0.504 OA
ATOM     19  H   UNL     1       5.147   9.886  -8.261  1.00  0.00     0.293 HD
ENDBRANCH  15  18
BRANCH  17  20
ATOM     20  O   UNL     1       2.765  10.125  -6.815  1.00  0.00    -0.504 OA
ATOM     21  H   UNL     1       2.573  11.041  -7.196  1.00  0.00     0.293 HD
ENDBRANCH  17  20
ENDBRANCH   1  12
BRANCH   2  22
ATOM     22  O   UNL     1       1.608  10.124  -2.515  1.00  0.00    -0.502 OA
ATOM     23  H   UNL     1       1.908  10.762  -3.243  1.00  0.00     0.293 HD
ENDBRANCH   2  22
BRANCH   9  24
ATOM     24  O   UNL     1       5.863   6.491   2.881  1.00  0.00    -0.508 OA
ATOM     25  H   UNL     1       5.628   5.609   3.321  1.00  0.00     0.293 HD
ENDBRANCH   9  24
TORSDOF 5
ENDMDL
MODEL 4
REMARK VINA RESULT:    -4.443      1.467      6.524
REMARK INTER + INTRA:          -5.452
REMARK INTER:                  -5.971
REMARK INTRA:                   0.520
REMARK UNBOUND:                -0.229
REMARK SMILES O=c1c(O)c(-c2ccc(O)c(O)c2)oc2cc(O)ccc12
REMARK SMILES IDX 5 1 3 2 2 3 1 4 21 5 15 6 14 7 16 8 17 9 19 10 20 11 6 12
REMARK SMILES IDX 7 13 8 14 9 15 13 16 11 17 10 18 12 20 4 22 18 24
REMARK H PARENT 10 19 12 21 4 23 18 25
REMARK Flexibility Score: inf
ROOT
ATOM      1  C   UNL     1       3.372   9.169  -1.753  1.00  0.00     0.180 A 
ATOM      2  C   UNL     1       2.265   9.538  -0.960  1.00  0.00     0.208 A 
ATOM      3  C   UNL     1       2.304   9.278   0.419  1.00  0.00     0.235 A 
ATOM      4  O   UNL     1       1.331   9.609   1.151  1.00  0.00    -0.285 OA
ATOM      5  C   UNL     1       3.427   8.643   0.970  1.00  0.00     0.069 A 
ATOM      6  C   UNL     1       4.484   8.283   0.106  1.00  0.00     0.142 A 
ATOM      7  O   UNL     1       4.412   8.554  -1.193  1.00  0.00    -0.452 OA
ATOM      8  C   UNL     1       5.616   7.639   0.616  1.00  0.00     0.094 A 
ATOM      9  C   UNL     1       5.707   7.350   1.984  1.00  0.00     0.119 A 
ATOM     10  C   UNL     1       4.663   7.707   2.842  1.00  0.00     0.047 A 
ATOM     11  C   UNL     1       3.526   8.349   2.343  1.00  0.00     0.020 A 
ENDROOT
BRANCH   1  12
ATOM     12  C   UNL     1       3.415   9.425  -3.211  1.00  0.00     0.025 A 
ATOM     13  C   UNL     1       2.246   9.824  -3.874  1.00  0.00     0.016 A 
ATOM     14  C   UNL     1       2.260  10.053  -5.252  1.00  0.00     0.051 A 
ATOM     15  C   UNL     1       3.432   9.873  -5.994  1.00  0.00     0.157 A 
ATOM     16  C   UNL     1       4.588   9.222  -3.956  1.00  0.00     0.062 A 
ATOM     17  C   UNL     1       4.611   9.445  -5.339  1.00  0.00     0.158 A 
BRANCH  15  18
ATOM     18  O   UNL     1       3.380  10.125  -7.367  1.00  0.00    -0.504 OA
ATOM     19  H   UNL     1       4.139   9.935  -8.005  1.00  0.00     0.293 HD
ENDBRANCH  15  18
BRANCH  17  20
ATOM     20  O   UNL     1       5.812   9.224  -6.015  1.00  0.00    -0.504 OA
ATOM     21  H   UNL     1       6.547   9.912  -6.100  1.00  0.00     0.293 HD
ENDBRANCH  17  20
ENDBRANCH   1  12
BRANCH   2  22
ATOM     22  O   UNL     1       1.140  10.125  -1.545  1.00  0.00    -0.502 OA
ATOM     23  H   UNL     1       0.358   9.578  -1.882  1.00  0.00     0.293 HD
ENDBRANCH   2  22
BRANCH   9  24
ATOM     24  O   UNL     1       6.832   6.709   2.501  1.00  0.00    -0.508 OA
ATOM     25  H   UNL     1       7.706   6.680   1.989  1.00  0.00     0.293 HD
ENDBRANCH   9  24
TORSDOF 5
ENDMDL
MODEL 5
REMARK VINA RESULT:    -3.976      1.843      7.126
REMARK INTER + INTRA:          -4.902
REMARK INTER:                  -5.152
REMARK INTRA:                   0.250
REMARK UNBOUND:                -0.229
REMARK SMILES O=c1c(O)c(-c2ccc(O)c(O)c2)oc2cc(O)ccc12
REMARK SMILES IDX 5 1 3 2 2 3 1 4 21 5 15 6 14 7 16 8 17 9 19 10 20 11 6 12
REMARK SMILES IDX 7 13 8 14 9 15 13 16 11 17 10 18 12 20 4 22 18 24
REMARK H PARENT 10 19 12 21 4 23 18 25
REMARK Flexibility Score: inf
ROOT
ATOM      1  C   UNL     1       4.435   9.453  -1.768  1.00  0.00     0.180 A 
ATOM      2  C   UNL     1       5.733   9.693  -1.269  1.00  0.00     0.208 A 
ATOM      3  C   UNL     1       5.973   9.518   0.103  1.00  0.00     0.235 A 
ATOM      4  O   UNL     1       7.128   9.716   0.572  1.00  0.00    -0.285 OA
ATOM      5  C   UNL     1       4.919   9.130   0.944  1.00  0.00     0.069 A 
ATOM      6  C   UNL     1       3.644   8.932   0.372  1.00  0.00     0.142 A 
ATOM      7  O   UNL     1       3.459   9.100  -0.933  1.00  0.00    -0.452 OA
ATOM      8  C   UNL     1       2.565   8.555   1.179  1.00  0.00     0.094 A 
ATOM      9  C   UNL     1       2.745   8.371   2.557  1.00  0.00     0.119 A 
ATOM     10  C   UNL     1       4.008   8.565   3.126  1.00  0.00     0.047 A 
ATOM     11  C   UNL     1       5.092   8.943   2.328  1.00  0.00     0.020 A 
ENDROOT
BRANCH   1  12
ATOM     12  C   UNL     1       4.107   9.597  -3.204  1.00  0.00     0.025 A 
ATOM     13  C   UNL     1       2.795   9.914  -3.582  1.00  0.00     0.016 A 
ATOM     14  C   UNL     1       2.459  10.035  -4.932  1.00  0.00     0.051 A 
ATOM     15  C   UNL     1       3.418   9.828  -5.928  1.00  0.00     0.157 A 
ATOM     16  C   UNL     1       5.068   9.365  -4.203  1.00  0.00     0.062 A 
ATOM     17  C   UNL     1       4.739   9.481  -5.560  1.00  0.00     0.158 A 
BRANCH  15  18
ATOM     18  O   UNL     1       3.019   9.971  -7.259  1.00  0.00    -0.504 OA
ATOM     19  H   UNL     1       2.616  10.815  -7.640  1.00  0.00     0.293 HD
ENDBRANCH  15  18
BRANCH  17  20
ATOM     20  O   UNL     1       5.745   9.238  -6.497  1.00  0.00    -0.504 OA
ATOM     21  H   UNL     1       5.803   8.400  -7.058  1.00  0.00     0.293 HD
ENDBRANCH  17  20
ENDBRANCH   1  12
BRANCH   2  22
ATOM     22  O   UNL     1       6.750  10.125  -2.123  1.00  0.00    -0.502 OA
ATOM     23  H   UNL     1       7.241  10.999  -1.981  1.00  0.00     0.293 HD
ENDBRANCH   2  22
BRANCH   9  24
ATOM     24  O   UNL     1       1.677   7.995   3.369  1.00  0.00    -0.508 OA
ATOM     25  H   UNL     1       1.040   8.681   3.757  1.00  0.00     0.293 HD
ENDBRANCH   9  24
TORSDOF 5
ENDMDL
MODEL 6
REMARK VINA RESULT:    -3.307      1.446      1.854
REMARK INTER + INTRA:          -4.115
REMARK INTER:                  -4.442
REMARK INTRA:                   0.326
REMARK UNBOUND:                -0.229
REMARK SMILES O=c1c(O)c(-c2ccc(O)c(O)c2)oc2cc(O)ccc12
REMARK SMILES IDX 5 1 3 2 2 3 1 4 21 5 15 6 14 7 16 8 17 9 19 10 20 11 6 12
REMARK SMILES IDX 7 13 8 14 9 15 13 16 11 17 10 18 12 20 4 22 18 24
REMARK H PARENT 10 19 12 21 4 23 18 25
REMARK Flexibility Score: inf
ROOT
ATOM      1  C   UNL     1       3.936   8.468  -1.035  1.00  0.00     0.180 A 
ATOM      2  C   UNL     1       2.656   9.052  -1.130  1.00  0.00     0.208 A 
ATOM      3  C   UNL     1       2.254   9.605  -2.357  1.00  0.00     0.235 A 
ATOM      4  O   UNL     1       1.110  10.124  -2.470  1.00  0.00    -0.285 OA
ATOM      5  C   UNL     1       3.139   9.583  -3.446  1.00  0.00     0.069 A 
ATOM      6  C   UNL     1       4.412   9.002  -3.263  1.00  0.00     0.142 A 
ATOM      7  O   UNL     1       4.751   8.481  -2.089  1.00  0.00    -0.452 OA
ATOM      8  C   UNL     1       5.325   8.970  -4.322  1.00  0.00     0.094 A 
ATOM      9  C   UNL     1       4.981   9.511  -5.567  1.00  0.00     0.119 A 
ATOM     10  C   UNL     1       3.720  10.086  -5.752  1.00  0.00     0.047 A 
ATOM     11  C   UNL     1       2.800  10.125  -4.700  1.00  0.00     0.020 A 
ENDROOT
BRANCH   1  12
ATOM     12  C   UNL     1       4.425   7.847   0.218  1.00  0.00     0.025 A 
ATOM     13  C   UNL     1       5.803   7.679   0.410  1.00  0.00     0.016 A 
ATOM     14  C   UNL     1       6.285   7.078   1.575  1.00  0.00     0.051 A 
ATOM     15  C   UNL     1       5.403   6.621   2.560  1.00  0.00     0.157 A 
ATOM     16  C   UNL     1       3.535   7.369   1.194  1.00  0.00     0.062 A 
ATOM     17  C   UNL     1       4.009   6.761   2.364  1.00  0.00     0.158 A 
BRANCH  15  18
ATOM     18  O   UNL     1       5.950   6.035   3.704  1.00  0.00    -0.504 OA
ATOM     19  H   UNL     1       5.411   5.530   4.392  1.00  0.00     0.293 HD
ENDBRANCH  15  18
BRANCH  17  20
ATOM     20  O   UNL     1       3.068   6.311   3.292  1.00  0.00    -0.504 OA
ATOM     21  H   UNL     1       2.080   6.227   3.098  1.00  0.00     0.293 HD
ENDBRANCH  17  20
ENDBRANCH   1  12
BRANCH   2  22
ATOM     22  O   UNL     1       1.816   9.103  -0.015  1.00  0.00    -0.502 OA
ATOM     23  H   UNL     1       1.721   9.935   0.553  1.00  0.00     0.293 HD
ENDBRANCH   2  22
BRANCH   9  24
ATOM     24  O   UNL     1       5.884   9.483  -6.628  1.00  0.00    -0.508 OA
ATOM     25  H   UNL     1       6.806   9.074  -6.528  1.00  0.00     0.293 HD
ENDBRANCH   9  24
TORSDOF 5
ENDMDL
MODEL 7
REMARK VINA RESULT:    -2.363      2.142      7.242
REMARK INTER + INTRA:          -3.006
REMARK INTER:                  -3.332
REMARK INTRA:                   0.326
REMARK UNBOUND:                -0.229
REMARK SMILES O=c1c(O)c(-c2ccc(O)c(O)c2)oc2cc(O)ccc12
REMARK SMILES IDX 5 1 3 2 2 3 1 4 21 5 15 6 14 7 16 8 17 9 19 10 20 11 6 12
REMARK SMILES IDX 7 13 8 14 9 15 13 16 11 17 10 18 12 20 4 22 18 24
REMARK H PARENT 10 19 12 21 4 23 18 25
REMARK Flexibility Score: inf
ROOT
ATOM      1  C   UNL     1       4.296   9.860   0.076  1.00  0.00     0.180 A 
ATOM      2  C   UNL     1       5.646   9.992   0.464  1.00  0.00     0.208 A 
ATOM      3  C   UNL     1       5.957  10.018   1.833  1.00  0.00     0.235 A 
ATOM      4  O   UNL     1       7.157  10.125   2.206  1.00  0.00    -0.285 OA
ATOM      5  C   UNL     1       4.921   9.934   2.777  1.00  0.00     0.069 A 
ATOM      6  C   UNL     1       3.595   9.828   2.308  1.00  0.00     0.142 A 
ATOM      7  O   UNL     1       3.343   9.798   1.004  1.00  0.00    -0.452 OA
ATOM      8  C   UNL     1       2.535   9.752   3.218  1.00  0.00     0.094 A 
ATOM      9  C   UNL     1       2.785   9.779   4.596  1.00  0.00     0.119 A 
ATOM     10  C   UNL     1       4.099   9.883   5.064  1.00  0.00     0.047 A 
ATOM     11  C   UNL     1       5.165   9.961   4.163  1.00  0.00     0.020 A 
ENDROOT
BRANCH   1  12
ATOM     12  C   UNL     1       3.890   9.805  -1.347  1.00  0.00     0.025 A 
ATOM     13  C   UNL     1       2.567  10.109  -1.697  1.00  0.00     0.016 A 
ATOM     14  C   UNL     1       2.158  10.044  -3.031  1.00  0.00     0.051 A 
ATOM     15  C   UNL     1       3.053   9.661  -4.035  1.00  0.00     0.157 A 
ATOM     16  C   UNL     1       4.786   9.397  -2.349  1.00  0.00     0.062 A 
ATOM     17  C   UNL     1       4.383   9.325  -3.690  1.00  0.00     0.158 A 
BRANCH  15  18
ATOM     18  O   UNL     1       2.582   9.623  -5.349  1.00  0.00    -0.504 OA
ATOM     19  H   UNL     1       2.133   8.820  -5.765  1.00  0.00     0.293 HD
ENDBRANCH  15  18
BRANCH  17  20
ATOM     20  O   UNL     1       5.327   8.914  -4.632  1.00  0.00    -0.504 OA
ATOM     21  H   UNL     1       5.806   9.541  -5.262  1.00  0.00     0.293 HD
ENDBRANCH  17  20
ENDBRANCH   1  12
BRANCH   2  22
ATOM     22  O   UNL     1       6.650  10.122  -0.498  1.00  0.00    -0.502 OA
ATOM     23  H   UNL     1       6.998   9.333  -1.028  1.00  0.00     0.293 HD
ENDBRANCH   2  22
BRANCH   9  24
ATOM     24  O   UNL     1       1.736   9.703   5.510  1.00  0.00    -0.508 OA
ATOM     25  H   UNL     1       1.496  10.486   6.107  1.00  0.00     0.293 HD
ENDBRANCH   9  24
TORSDOF 5
ENDMDL
