MODEL 1
REMARK VINA RESULT:    -6.006      0.000      0.000
REMARK INTER + INTRA:          -7.778
REMARK INTER:                  -7.411
REMARK INTRA:                  -0.367
REMARK UNBOUND:                -0.367
REMARK SMILES O=c1c(O)c(-c2cc(O)c(O)c(O)c2)oc2cc(O)cc(O)c12
REMARK SMILES IDX 5 1 3 2 2 3 1 4 23 5 21 6 20 7 18 8 17 9 16 10 15 11 6 12
REMARK SMILES IDX 7 13 8 14 14 15 10 16 12 17 9 18 11 20 13 22 4 24 22 26
REMARK SMILES IDX 19 28
REMARK H PARENT 9 19 11 21 13 23 4 25 22 27 19 29
REMARK Flexibility Score: inf
ROOT
ATOM      1  C   UNL     1     124.194 132.920 110.856  1.00  0.00     0.180 A 
ATOM      2  C   UNL     1     125.261 132.092 111.254  1.00  0.00     0.208 A 
ATOM      3  C   UNL     1     126.540 132.652 111.392  1.00  0.00     0.238 A 
ATOM      4  O   UNL     1     127.501 131.922 111.758  1.00  0.00    -0.285 OA
ATOM      5  C   UNL     1     126.736 134.020 111.111  1.00  0.00     0.111 A 
ATOM      6  C   UNL     1     127.994 134.661 111.221  1.00  0.00     0.134 A 
ATOM      7  C   UNL     1     128.109 136.025 110.916  1.00  0.00     0.093 A 
ATOM      8  C   UNL     1     126.991 136.759 110.502  1.00  0.00     0.123 A 
ATOM      9  C   UNL     1     125.750 136.132 110.392  1.00  0.00     0.094 A 
ATOM     10  C   UNL     1     125.614 134.773 110.694  1.00  0.00     0.146 A 
ATOM     11  O   UNL     1     124.420 134.204 110.586  1.00  0.00    -0.452 OA
ENDROOT
BRANCH   1  12
ATOM     12  C   UNL     1     122.813 132.408 110.707  1.00  0.00     0.029 A 
ATOM     13  C   UNL     1     121.910 132.418 111.783  1.00  0.00     0.062 A 
ATOM     14  C   UNL     1     120.599 131.953 111.625  1.00  0.00     0.162 A 
ATOM     15  C   UNL     1     122.375 131.959 109.455  1.00  0.00     0.062 A 
ATOM     16  C   UNL     1     120.172 131.475 110.363  1.00  0.00     0.200 A 
ATOM     17  C   UNL     1     121.071 131.488 109.280  1.00  0.00     0.162 A 
BRANCH  14  18
ATOM     18  O   UNL     1     119.759 131.993 112.741  1.00  0.00    -0.504 OA
ATOM     19  H   UNL     1     118.864 131.530 112.794  1.00  0.00     0.293 HD
ENDBRANCH  14  18
BRANCH  16  20
ATOM     20  O   UNL     1     118.880 130.988 110.148  1.00  0.00    -0.502 OA
ATOM     21  H   UNL     1     118.370 131.094 109.283  1.00  0.00     0.293 HD
ENDBRANCH  16  20
BRANCH  17  22
ATOM     22  O   UNL     1     120.685 131.035 108.019  1.00  0.00    -0.504 OA
ATOM     23  H   UNL     1     121.350 130.889 107.269  1.00  0.00     0.293 HD
ENDBRANCH  17  22
ENDBRANCH   1  12
BRANCH   2  24
ATOM     24  O   UNL     1     125.050 130.729 111.479  1.00  0.00    -0.502 OA
ATOM     25  H   UNL     1     125.045 130.326 112.408  1.00  0.00     0.293 HD
ENDBRANCH   2  24
BRANCH   6  26
ATOM     26  O   UNL     1     129.126 133.955 111.630  1.00  0.00    -0.507 OA
ATOM     27  H   UNL     1     130.022 134.073 111.171  1.00  0.00     0.293 HD
ENDBRANCH   6  26
BRANCH   8  28
ATOM     28  O   UNL     1     127.105 138.114 110.197  1.00  0.00    -0.508 OA
ATOM     29  H   UNL     1     127.547 138.765 110.835  1.00  0.00     0.293 HD
ENDBRANCH   8  28
TORSDOF 7
ENDMDL
MODEL 2
REMARK VINA RESULT:    -5.930      0.074      1.767
REMARK INTER + INTRA:          -7.684
REMARK INTER:                  -7.324
REMARK INTRA:                  -0.359
REMARK UNBOUND:                -0.367
REMARK SMILES O=c1c(O)c(-c2cc(O)c(O)c(O)c2)oc2cc(O)cc(O)c12
REMARK SMILES IDX 5 1 3 2 2 3 1 4 23 5 21 6 20 7 18 8 17 9 16 10 15 11 6 12
REMARK SMILES IDX 7 13 8 14 14 15 10 16 12 17 9 18 11 20 13 22 4 24 22 26
REMARK SMILES IDX 19 28
REMARK H PARENT 9 19 11 21 13 23 4 25 22 27 19 29
REMARK Flexibility Score: inf
ROOT
ATOM      1  C   UNL     1     124.205 132.928 110.812  1.00  0.00     0.180 A 
ATOM      2  C   UNL     1     125.264 132.088 111.209  1.00  0.00     0.208 A 
ATOM      3  C   UNL     1     126.548 132.637 111.356  1.00  0.00     0.238 A 
ATOM      4  O   UNL     1     127.500 131.897 111.721  1.00  0.00    -0.285 OA
ATOM      5  C   UNL     1     126.756 134.005 111.083  1.00  0.00     0.111 A 
ATOM      6  C   UNL     1     128.018 134.635 111.202  1.00  0.00     0.134 A 
ATOM      7  C   UNL     1     128.145 136.000 110.905  1.00  0.00     0.093 A 
ATOM      8  C   UNL     1     127.036 136.746 110.491  1.00  0.00     0.123 A 
ATOM      9  C   UNL     1     125.789 136.129 110.373  1.00  0.00     0.094 A 
ATOM     10  C   UNL     1     125.641 134.770 110.666  1.00  0.00     0.146 A 
ATOM     11  O   UNL     1     124.443 134.211 110.550  1.00  0.00    -0.452 OA
ENDROOT
BRANCH   1  12
ATOM     12  C   UNL     1     122.821 132.428 110.655  1.00  0.00     0.029 A 
ATOM     13  C   UNL     1     122.373 131.888 109.438  1.00  0.00     0.062 A 
ATOM     14  C   UNL     1     121.069 131.396 109.306  1.00  0.00     0.162 A 
ATOM     15  C   UNL     1     121.955 132.437 111.755  1.00  0.00     0.062 A 
ATOM     16  C   UNL     1     120.191 131.434 110.416  1.00  0.00     0.200 A 
ATOM     17  C   UNL     1     120.648 131.954 111.641  1.00  0.00     0.162 A 
BRANCH  14  18
ATOM     18  O   UNL     1     120.695 130.875 108.065  1.00  0.00    -0.504 OA
ATOM     19  H   UNL     1     119.838 130.371 107.897  1.00  0.00     0.293 HD
ENDBRANCH  14  18
BRANCH  16  20
ATOM     20  O   UNL     1     118.875 130.969 110.342  1.00  0.00    -0.502 OA
ATOM     21  H   UNL     1     118.454 130.347 111.016  1.00  0.00     0.293 HD
ENDBRANCH  16  20
BRANCH  17  22
ATOM     22  O   UNL     1     119.817 131.999 112.760  1.00  0.00    -0.504 OA
ATOM     23  H   UNL     1     119.982 131.429 113.581  1.00  0.00     0.293 HD
ENDBRANCH  17  22
ENDBRANCH   1  12
BRANCH   2  24
ATOM     24  O   UNL     1     125.041 130.726 111.425  1.00  0.00    -0.502 OA
ATOM     25  H   UNL     1     125.791 130.045 111.416  1.00  0.00     0.293 HD
ENDBRANCH   2  24
BRANCH   6  26
ATOM     26  O   UNL     1     129.143 133.917 111.612  1.00  0.00    -0.507 OA
ATOM     27  H   UNL     1     129.931 134.371 112.058  1.00  0.00     0.293 HD
ENDBRANCH   6  26
BRANCH   8  28
ATOM     28  O   UNL     1     127.162 138.101 110.194  1.00  0.00    -0.508 OA
ATOM     29  H   UNL     1     127.748 138.712 110.750  1.00  0.00     0.293 HD
ENDBRANCH   8  28
TORSDOF 7
ENDMDL
MODEL 3
REMARK VINA RESULT:    -5.671      3.114      4.621
REMARK INTER + INTRA:          -7.364
REMARK INTER:                  -7.002
REMARK INTRA:                  -0.362
REMARK UNBOUND:                -0.367
REMARK SMILES O=c1c(O)c(-c2cc(O)c(O)c(O)c2)oc2cc(O)cc(O)c12
REMARK SMILES IDX 5 1 3 2 2 3 1 4 23 5 21 6 20 7 18 8 17 9 16 10 15 11 6 12
REMARK SMILES IDX 7 13 8 14 14 15 10 16 12 17 9 18 11 20 13 22 4 24 22 26
REMARK SMILES IDX 19 28
REMARK H PARENT 9 19 11 21 13 23 4 25 22 27 19 29
REMARK Flexibility Score: inf
ROOT
ATOM      1  C   UNL     1     126.885 134.461 111.095  1.00  0.00     0.180 A 
ATOM      2  C   UNL     1     126.661 134.790 109.744  1.00  0.00     0.208 A 
ATOM      3  C   UNL     1     127.442 135.794 109.151  1.00  0.00     0.238 A 
ATOM      4  O   UNL     1     127.257 136.089 107.940  1.00  0.00    -0.285 OA
ATOM      5  C   UNL     1     128.416 136.465 109.920  1.00  0.00     0.111 A 
ATOM      6  C   UNL     1     129.241 137.490 109.400  1.00  0.00     0.134 A 
ATOM      7  C   UNL     1     130.182 138.115 110.232  1.00  0.00     0.093 A 
ATOM      8  C   UNL     1     130.311 137.735 111.573  1.00  0.00     0.123 A 
ATOM      9  C   UNL     1     129.500 136.725 112.090  1.00  0.00     0.094 A 
ATOM     10  C   UNL     1     128.558 136.088 111.276  1.00  0.00     0.146 A 
ATOM     11  O   UNL     1     127.803 135.126 111.793  1.00  0.00    -0.452 OA
ENDROOT
BRANCH   1  12
ATOM     12  C   UNL     1     126.115 133.402 111.786  1.00  0.00     0.029 A 
ATOM     13  C   UNL     1     126.588 132.082 111.853  1.00  0.00     0.062 A 
ATOM     14  C   UNL     1     125.864 131.092 112.529  1.00  0.00     0.162 A 
ATOM     15  C   UNL     1     124.920 133.731 112.437  1.00  0.00     0.062 A 
ATOM     16  C   UNL     1     124.643 131.426 113.162  1.00  0.00     0.200 A 
ATOM     17  C   UNL     1     124.182 132.755 113.113  1.00  0.00     0.162 A 
BRANCH  14  18
ATOM     18  O   UNL     1     126.398 129.801 112.552  1.00  0.00    -0.504 OA
ATOM     19  H   UNL     1     126.970 129.410 111.818  1.00  0.00     0.293 HD
ENDBRANCH  14  18
BRANCH  16  20
ATOM     20  O   UNL     1     123.871 130.480 113.840  1.00  0.00    -0.502 OA
ATOM     21  H   UNL     1     124.235 129.840 114.532  1.00  0.00     0.293 HD
ENDBRANCH  16  20
BRANCH  17  22
ATOM     22  O   UNL     1     122.989 133.126 113.733  1.00  0.00    -0.504 OA
ATOM     23  H   UNL     1     122.501 132.517 114.378  1.00  0.00     0.293 HD
ENDBRANCH  17  22
ENDBRANCH   1  12
BRANCH   2  24
ATOM     24  O   UNL     1     125.656 134.145 109.019  1.00  0.00    -0.502 OA
ATOM     25  H   UNL     1     124.706 134.064 109.360  1.00  0.00     0.293 HD
ENDBRANCH   2  24
BRANCH   6  26
ATOM     26  O   UNL     1     129.135 137.892 108.068  1.00  0.00    -0.507 OA
ATOM     27  H   UNL     1     128.322 137.664 107.506  1.00  0.00     0.293 HD
ENDBRANCH   6  26
BRANCH   8  28
ATOM     28  O   UNL     1     131.244 138.357 112.400  1.00  0.00    -0.508 OA
ATOM     29  H   UNL     1     132.036 137.852 112.780  1.00  0.00     0.293 HD
ENDBRANCH   8  28
TORSDOF 7
ENDMDL
MODEL 4
REMARK VINA RESULT:    -5.668      1.458      6.952
REMARK INTER + INTRA:          -7.361
REMARK INTER:                  -7.358
REMARK INTRA:                  -0.003
REMARK UNBOUND:                -0.367
REMARK SMILES O=c1c(O)c(-c2cc(O)c(O)c(O)c2)oc2cc(O)cc(O)c12
REMARK SMILES IDX 5 1 3 2 2 3 1 4 23 5 21 6 20 7 18 8 17 9 16 10 15 11 6 12
REMARK SMILES IDX 7 13 8 14 14 15 10 16 12 17 9 18 11 20 13 22 4 24 22 26
REMARK SMILES IDX 19 28
REMARK H PARENT 9 19 11 21 13 23 4 25 22 27 19 29
REMARK Flexibility Score: inf
ROOT
ATOM      1  C   UNL     1     124.519 133.942 111.169  1.00  0.00     0.180 A 
ATOM      2  C   UNL     1     124.160 133.254 112.345  1.00  0.00     0.208 A 
ATOM      3  C   UNL     1     122.902 132.636 112.412  1.00  0.00     0.238 A 
ATOM      4  O   UNL     1     122.574 132.009 113.455  1.00  0.00    -0.285 OA
ATOM      5  C   UNL     1     122.018 132.734 111.316  1.00  0.00     0.111 A 
ATOM      6  C   UNL     1     120.731 132.144 111.305  1.00  0.00     0.134 A 
ATOM      7  C   UNL     1     119.908 132.293 110.180  1.00  0.00     0.093 A 
ATOM      8  C   UNL     1     120.346 133.021 109.067  1.00  0.00     0.123 A 
ATOM      9  C   UNL     1     121.614 133.603 109.074  1.00  0.00     0.094 A 
ATOM     10  C   UNL     1     122.451 133.464 110.185  1.00  0.00     0.146 A 
ATOM     11  O   UNL     1     123.654 134.025 110.162  1.00  0.00    -0.452 OA
ENDROOT
BRANCH   1  12
ATOM     12  C   UNL     1     125.835 134.602 111.015  1.00  0.00     0.029 A 
ATOM     13  C   UNL     1     127.027 133.948 111.367  1.00  0.00     0.062 A 
ATOM     14  C   UNL     1     128.268 134.572 111.195  1.00  0.00     0.162 A 
ATOM     15  C   UNL     1     125.903 135.883 110.452  1.00  0.00     0.062 A 
ATOM     16  C   UNL     1     128.326 135.878 110.650  1.00  0.00     0.200 A 
ATOM     17  C   UNL     1     127.133 136.523 110.276  1.00  0.00     0.162 A 
BRANCH  14  18
ATOM     18  O   UNL     1     129.410 133.859 111.569  1.00  0.00    -0.504 OA
ATOM     19  H   UNL     1     130.346 134.094 111.276  1.00  0.00     0.293 HD
ENDBRANCH  14  18
BRANCH  16  20
ATOM     20  O   UNL     1     129.534 136.556 110.466  1.00  0.00    -0.502 OA
ATOM     21  H   UNL     1     130.433 136.103 110.386  1.00  0.00     0.293 HD
ENDBRANCH  16  20
BRANCH  17  22
ATOM     22  O   UNL     1     127.149 137.804 109.726  1.00  0.00    -0.504 OA
ATOM     23  H   UNL     1     127.993 138.362 109.677  1.00  0.00     0.293 HD
ENDBRANCH  17  22
ENDBRANCH   1  12
BRANCH   2  24
ATOM     24  O   UNL     1     125.034 133.215 113.434  1.00  0.00    -0.502 OA
ATOM     25  H   UNL     1     125.451 134.050 113.826  1.00  0.00     0.293 HD
ENDBRANCH   2  24
BRANCH   6  26
ATOM     26  O   UNL     1     120.266 131.414 112.400  1.00  0.00    -0.507 OA
ATOM     27  H   UNL     1     120.085 131.854 113.295  1.00  0.00     0.293 HD
ENDBRANCH   6  26
BRANCH   8  28
ATOM     28  O   UNL     1     119.527 133.170 107.950  1.00  0.00    -0.508 OA
ATOM     29  H   UNL     1     119.099 132.372 107.496  1.00  0.00     0.293 HD
ENDBRANCH   8  28
TORSDOF 7
ENDMDL
MODEL 5
REMARK VINA RESULT:    -5.646      1.442      6.991
REMARK INTER + INTRA:          -7.334
REMARK INTER:                  -7.385
REMARK INTRA:                   0.051
REMARK UNBOUND:                -0.367
REMARK SMILES O=c1c(O)c(-c2cc(O)c(O)c(O)c2)oc2cc(O)cc(O)c12
REMARK SMILES IDX 5 1 3 2 2 3 1 4 23 5 21 6 20 7 18 8 17 9 16 10 15 11 6 12
REMARK SMILES IDX 7 13 8 14 14 15 10 16 12 17 9 18 11 20 13 22 4 24 22 26
REMARK SMILES IDX 19 28
REMARK H PARENT 9 19 11 21 13 23 4 25 22 27 19 29
REMARK Flexibility Score: inf
ROOT
ATOM      1  C   UNL     1     124.533 133.976 111.134  1.00  0.00     0.180 A 
ATOM      2  C   UNL     1     124.191 133.301 112.322  1.00  0.00     0.208 A 
ATOM      3  C   UNL     1     122.945 132.659 112.404  1.00  0.00     0.238 A 
ATOM      4  O   UNL     1     122.633 132.044 113.458  1.00  0.00    -0.285 OA
ATOM      5  C   UNL     1     122.057 132.720 111.310  1.00  0.00     0.111 A 
ATOM      6  C   UNL     1     120.782 132.104 111.313  1.00  0.00     0.134 A 
ATOM      7  C   UNL     1     119.953 132.217 110.188  1.00  0.00     0.093 A 
ATOM      8  C   UNL     1     120.373 132.934 109.061  1.00  0.00     0.123 A 
ATOM      9  C   UNL     1     121.629 133.542 109.054  1.00  0.00     0.094 A 
ATOM     10  C   UNL     1     122.472 133.439 110.165  1.00  0.00     0.146 A 
ATOM     11  O   UNL     1     123.663 134.023 110.128  1.00  0.00    -0.452 OA
ENDROOT
BRANCH   1  12
ATOM     12  C   UNL     1     125.835 134.659 110.964  1.00  0.00     0.029 A 
ATOM     13  C   UNL     1     125.912 135.972 110.471  1.00  0.00     0.062 A 
ATOM     14  C   UNL     1     127.146 136.618 110.336  1.00  0.00     0.162 A 
ATOM     15  C   UNL     1     127.012 134.010 111.356  1.00  0.00     0.062 A 
ATOM     16  C   UNL     1     128.334 135.945 110.710  1.00  0.00     0.200 A 
ATOM     17  C   UNL     1     128.253 134.638 111.225  1.00  0.00     0.162 A 
BRANCH  14  18
ATOM     18  O   UNL     1     127.143 137.924 109.837  1.00  0.00    -0.504 OA
ATOM     19  H   UNL     1     126.312 138.482 109.715  1.00  0.00     0.293 HD
ENDBRANCH  14  18
BRANCH  16  20
ATOM     20  O   UNL     1     129.595 136.534 110.587  1.00  0.00    -0.502 OA
ATOM     21  H   UNL     1     129.786 137.356 110.032  1.00  0.00     0.293 HD
ENDBRANCH  16  20
BRANCH  17  22
ATOM     22  O   UNL     1     129.400 133.946 111.615  1.00  0.00    -0.504 OA
ATOM     23  H   UNL     1     129.442 132.934 111.631  1.00  0.00     0.293 HD
ENDBRANCH  17  22
ENDBRANCH   1  12
BRANCH   2  24
ATOM     24  O   UNL     1     125.069 133.298 113.409  1.00  0.00    -0.502 OA
ATOM     25  H   UNL     1     125.711 132.535 113.586  1.00  0.00     0.293 HD
ENDBRANCH   2  24
BRANCH   6  26
ATOM     26  O   UNL     1     120.335 131.385 112.421  1.00  0.00    -0.507 OA
ATOM     27  H   UNL     1     119.567 130.727 112.355  1.00  0.00     0.293 HD
ENDBRANCH   6  26
BRANCH   8  28
ATOM     28  O   UNL     1     119.548 133.047 107.944  1.00  0.00    -0.508 OA
ATOM     29  H   UNL     1     118.560 133.251 108.033  1.00  0.00     0.293 HD
ENDBRANCH   8  28
TORSDOF 7
ENDMDL
MODEL 6
REMARK VINA RESULT:    -5.626      2.045      7.566
REMARK INTER + INTRA:          -7.308
REMARK INTER:                  -6.946
REMARK INTRA:                  -0.362
REMARK UNBOUND:                -0.367
REMARK SMILES O=c1c(O)c(-c2cc(O)c(O)c(O)c2)oc2cc(O)cc(O)c12
REMARK SMILES IDX 5 1 3 2 2 3 1 4 23 5 21 6 20 7 18 8 17 9 16 10 15 11 6 12
REMARK SMILES IDX 7 13 8 14 14 15 10 16 12 17 9 18 11 20 13 22 4 24 22 26
REMARK SMILES IDX 19 28
REMARK H PARENT 9 19 11 21 13 23 4 25 22 27 19 29
REMARK Flexibility Score: inf
ROOT
ATOM      1  C   UNL     1     126.193 134.937 110.265  1.00  0.00     0.180 A 
ATOM      2  C   UNL     1     125.260 135.065 109.217  1.00  0.00     0.208 A 
ATOM      3  C   UNL     1     124.070 134.321 109.273  1.00  0.00     0.238 A 
ATOM      4  O   UNL     1     123.224 134.436 108.346  1.00  0.00    -0.285 OA
ATOM      5  C   UNL     1     123.843 133.450 110.359  1.00  0.00     0.111 A 
ATOM      6  C   UNL     1     122.673 132.664 110.488  1.00  0.00     0.134 A 
ATOM      7  C   UNL     1     122.525 131.815 111.595  1.00  0.00     0.093 A 
ATOM      8  C   UNL     1     123.523 131.738 112.573  1.00  0.00     0.123 A 
ATOM      9  C   UNL     1     124.678 132.512 112.449  1.00  0.00     0.094 A 
ATOM     10  C   UNL     1     124.844 133.366 111.355  1.00  0.00     0.146 A 
ATOM     11  O   UNL     1     125.950 134.094 111.266  1.00  0.00    -0.452 OA
ENDROOT
BRANCH   1  12
ATOM     12  C   UNL     1     127.460 135.701 110.288  1.00  0.00     0.029 A 
ATOM     13  C   UNL     1     127.513 137.013 110.785  1.00  0.00     0.062 A 
ATOM     14  C   UNL     1     128.722 137.719 110.824  1.00  0.00     0.162 A 
ATOM     15  C   UNL     1     128.644 135.086 109.861  1.00  0.00     0.062 A 
ATOM     16  C   UNL     1     129.910 137.100 110.365  1.00  0.00     0.200 A 
ATOM     17  C   UNL     1     129.859 135.777 109.889  1.00  0.00     0.162 A 
BRANCH  14  18
ATOM     18  O   UNL     1     128.696 139.020 111.331  1.00  0.00    -0.504 OA
ATOM     19  H   UNL     1     127.852 139.539 111.519  1.00  0.00     0.293 HD
ENDBRANCH  14  18
BRANCH  16  20
ATOM     20  O   UNL     1     131.142 137.758 110.368  1.00  0.00    -0.502 OA
ATOM     21  H   UNL     1     131.357 138.559 110.944  1.00  0.00     0.293 HD
ENDBRANCH  16  20
BRANCH  17  22
ATOM     22  O   UNL     1     131.009 135.129 109.438  1.00  0.00    -0.504 OA
ATOM     23  H   UNL     1     131.529 134.483 110.019  1.00  0.00     0.293 HD
ENDBRANCH  17  22
ENDBRANCH   1  12
BRANCH   2  24
ATOM     24  O   UNL     1     125.532 135.897 108.128  1.00  0.00    -0.502 OA
ATOM     25  H   UNL     1     124.823 136.482 107.702  1.00  0.00     0.293 HD
ENDBRANCH   2  24
BRANCH   6  26
ATOM     26  O   UNL     1     121.661 132.719 109.529  1.00  0.00    -0.507 OA
ATOM     27  H   UNL     1     121.408 131.908 108.975  1.00  0.00     0.293 HD
ENDBRANCH   6  26
BRANCH   8  28
ATOM     28  O   UNL     1     123.376 130.893 113.672  1.00  0.00    -0.508 OA
ATOM     29  H   UNL     1     123.706 131.159 114.592  1.00  0.00     0.293 HD
ENDBRANCH   8  28
TORSDOF 7
ENDMDL
MODEL 7
REMARK VINA RESULT:    -5.540      1.563      7.078
REMARK INTER + INTRA:          -7.203
REMARK INTER:                  -6.848
REMARK INTRA:                  -0.355
REMARK UNBOUND:                -0.367
REMARK SMILES O=c1c(O)c(-c2cc(O)c(O)c(O)c2)oc2cc(O)cc(O)c12
REMARK SMILES IDX 5 1 3 2 2 3 1 4 23 5 21 6 20 7 18 8 17 9 16 10 15 11 6 12
REMARK SMILES IDX 7 13 8 14 14 15 10 16 12 17 9 18 11 20 13 22 4 24 22 26
REMARK SMILES IDX 19 28
REMARK H PARENT 9 19 11 21 13 23 4 25 22 27 19 29
REMARK Flexibility Score: inf
ROOT
ATOM      1  C   UNL     1     125.027 132.559 111.397  1.00  0.00     0.180 A 
ATOM      2  C   UNL     1     124.391 132.709 112.645  1.00  0.00     0.208 A 
ATOM      3  C   UNL     1     123.009 132.481 112.734  1.00  0.00     0.238 A 
ATOM      4  O   UNL     1     122.432 132.601 113.849  1.00  0.00    -0.285 OA
ATOM      5  C   UNL     1     122.284 132.130 111.577  1.00  0.00     0.111 A 
ATOM      6  C   UNL     1     120.890 131.887 111.581  1.00  0.00     0.134 A 
ATOM      7  C   UNL     1     120.239 131.551 110.385  1.00  0.00     0.093 A 
ATOM      8  C   UNL     1     120.955 131.452 109.186  1.00  0.00     0.123 A 
ATOM      9  C   UNL     1     122.330 131.690 109.178  1.00  0.00     0.094 A 
ATOM     10  C   UNL     1     122.998 132.025 110.360  1.00  0.00     0.146 A 
ATOM     11  O   UNL     1     124.307 132.241 110.324  1.00  0.00    -0.452 OA
ENDROOT
BRANCH   1  12
ATOM     12  C   UNL     1     126.483 132.763 111.225  1.00  0.00     0.029 A 
ATOM     13  C   UNL     1     127.380 131.683 111.255  1.00  0.00     0.062 A 
ATOM     14  C   UNL     1     128.753 131.884 111.068  1.00  0.00     0.162 A 
ATOM     15  C   UNL     1     126.974 134.050 110.970  1.00  0.00     0.062 A 
ATOM     16  C   UNL     1     129.245 133.192 110.837  1.00  0.00     0.200 A 
ATOM     17  C   UNL     1     128.342 134.269 110.785  1.00  0.00     0.162 A 
BRANCH  14  18
ATOM     18  O   UNL     1     129.584 130.761 111.112  1.00  0.00    -0.504 OA
ATOM     19  H   UNL     1     130.192 130.477 110.359  1.00  0.00     0.293 HD
ENDBRANCH  14  18
BRANCH  16  20
ATOM     20  O   UNL     1     130.605 133.455 110.656  1.00  0.00    -0.502 OA
ATOM     21  H   UNL     1     131.079 133.410 109.765  1.00  0.00     0.293 HD
ENDBRANCH  16  20
BRANCH  17  22
ATOM     22  O   UNL     1     128.786 135.570 110.549  1.00  0.00    -0.504 OA
ATOM     23  H   UNL     1     129.135 136.166 111.290  1.00  0.00     0.293 HD
ENDBRANCH  17  22
ENDBRANCH   1  12
BRANCH   2  24
ATOM     24  O   UNL     1     125.124 133.105 113.766  1.00  0.00    -0.502 OA
ATOM     25  H   UNL     1     124.681 133.406 114.626  1.00  0.00     0.293 HD
ENDBRANCH   2  24
BRANCH   6  26
ATOM     26  O   UNL     1     120.148 131.979 112.759  1.00  0.00    -0.507 OA
ATOM     27  H   UNL     1     120.370 131.417 113.573  1.00  0.00     0.293 HD
ENDBRANCH   6  26
BRANCH   8  28
ATOM     28  O   UNL     1     120.309 131.119 107.998  1.00  0.00    -0.508 OA
ATOM     29  H   UNL     1     120.811 130.715 107.217  1.00  0.00     0.293 HD
ENDBRANCH   8  28
TORSDOF 7
ENDMDL
MODEL 8
REMARK VINA RESULT:    -5.440      1.204      7.109
REMARK INTER + INTRA:          -7.080
REMARK INTER:                  -6.735
REMARK INTRA:                  -0.344
REMARK UNBOUND:                -0.367
REMARK SMILES O=c1c(O)c(-c2cc(O)c(O)c(O)c2)oc2cc(O)cc(O)c12
REMARK SMILES IDX 5 1 3 2 2 3 1 4 23 5 21 6 20 7 18 8 17 9 16 10 15 11 6 12
REMARK SMILES IDX 7 13 8 14 14 15 10 16 12 17 9 18 11 20 13 22 4 24 22 26
REMARK SMILES IDX 19 28
REMARK H PARENT 9 19 11 21 13 23 4 25 22 27 19 29
REMARK Flexibility Score: inf
ROOT
ATOM      1  C   UNL     1     124.301 133.342 110.151  1.00  0.00     0.180 A 
ATOM      2  C   UNL     1     124.102 132.699 108.914  1.00  0.00     0.208 A 
ATOM      3  C   UNL     1     122.891 132.026 108.687  1.00  0.00     0.238 A 
ATOM      4  O   UNL     1     122.697 131.456 107.579  1.00  0.00    -0.285 OA
ATOM      5  C   UNL     1     121.913 131.989 109.702  1.00  0.00     0.111 A 
ATOM      6  C   UNL     1     120.669 131.330 109.555  1.00  0.00     0.134 A 
ATOM      7  C   UNL     1     119.751 131.331 110.616  1.00  0.00     0.093 A 
ATOM      8  C   UNL     1     120.054 131.978 111.819  1.00  0.00     0.123 A 
ATOM      9  C   UNL     1     121.279 132.629 111.969  1.00  0.00     0.094 A 
ATOM     10  C   UNL     1     122.206 132.641 110.923  1.00  0.00     0.146 A 
ATOM     11  O   UNL     1     123.362 133.274 111.091  1.00  0.00    -0.452 OA
ENDROOT
BRANCH   1  12
ATOM     12  C   UNL     1     125.542 134.088 110.459  1.00  0.00     0.029 A 
ATOM     13  C   UNL     1     126.697 133.430 110.912  1.00  0.00     0.062 A 
ATOM     14  C   UNL     1     127.873 134.141 111.178  1.00  0.00     0.162 A 
ATOM     15  C   UNL     1     125.589 135.471 110.240  1.00  0.00     0.062 A 
ATOM     16  C   UNL     1     127.904 135.543 110.979  1.00  0.00     0.200 A 
ATOM     17  C   UNL     1     126.753 136.198 110.504  1.00  0.00     0.162 A 
BRANCH  14  18
ATOM     18  O   UNL     1     128.981 133.417 111.626  1.00  0.00    -0.504 OA
ATOM     19  H   UNL     1     129.851 133.342 111.120  1.00  0.00     0.293 HD
ENDBRANCH  14  18
BRANCH  16  20
ATOM     20  O   UNL     1     129.044 136.308 111.239  1.00  0.00    -0.502 OA
ATOM     21  H   UNL     1     129.988 135.947 111.213  1.00  0.00     0.293 HD
ENDBRANCH  16  20
BRANCH  17  22
ATOM     22  O   UNL     1     126.747 137.575 110.286  1.00  0.00    -0.504 OA
ATOM     23  H   UNL     1     127.338 138.209 110.809  1.00  0.00     0.293 HD
ENDBRANCH  17  22
ENDBRANCH   1  12
BRANCH   2  24
ATOM     24  O   UNL     1     125.107 132.709 107.944  1.00  0.00    -0.502 OA
ATOM     25  H   UNL     1     125.961 133.242 108.053  1.00  0.00     0.293 HD
ENDBRANCH   2  24
BRANCH   6  26
ATOM     26  O   UNL     1     120.339 130.675 108.368  1.00  0.00    -0.507 OA
ATOM     27  H   UNL     1     119.380 130.600 108.049  1.00  0.00     0.293 HD
ENDBRANCH   6  26
BRANCH   8  28
ATOM     28  O   UNL     1     119.143 131.978 112.873  1.00  0.00    -0.508 OA
ATOM     29  H   UNL     1     118.327 132.579 112.869  1.00  0.00     0.293 HD
ENDBRANCH   8  28
TORSDOF 7
ENDMDL
MODEL 9
REMARK VINA RESULT:    -5.406     10.812     12.498
REMARK INTER + INTRA:          -7.038
REMARK INTER:                  -6.717
REMARK INTRA:                  -0.321
REMARK UNBOUND:                -0.367
REMARK SMILES O=c1c(O)c(-c2cc(O)c(O)c(O)c2)oc2cc(O)cc(O)c12
REMARK SMILES IDX 5 1 3 2 2 3 1 4 23 5 21 6 20 7 18 8 17 9 16 10 15 11 6 12
REMARK SMILES IDX 7 13 8 14 14 15 10 16 12 17 9 18 11 20 13 22 4 24 22 26
REMARK SMILES IDX 19 28
REMARK H PARENT 9 19 11 21 13 23 4 25 22 27 19 29
REMARK Flexibility Score: inf
ROOT
ATOM      1  C   UNL     1     131.676 123.896 110.936  1.00  0.00     0.180 A 
ATOM      2  C   UNL     1     131.296 124.904 110.028  1.00  0.00     0.208 A 
ATOM      3  C   UNL     1     132.000 126.119 110.030  1.00  0.00     0.238 A 
ATOM      4  O   UNL     1     131.676 127.024 109.215  1.00  0.00    -0.285 OA
ATOM      5  C   UNL     1     133.052 126.314 110.949  1.00  0.00     0.111 A 
ATOM      6  C   UNL     1     133.807 127.509 111.019  1.00  0.00     0.134 A 
ATOM      7  C   UNL     1     134.834 127.629 111.967  1.00  0.00     0.093 A 
ATOM      8  C   UNL     1     135.118 126.577 112.846  1.00  0.00     0.123 A 
ATOM      9  C   UNL     1     134.376 125.397 112.781  1.00  0.00     0.094 A 
ATOM     10  C   UNL     1     133.350 125.257 111.841  1.00  0.00     0.146 A 
ATOM     11  O   UNL     1     132.664 124.122 111.798  1.00  0.00    -0.452 OA
ENDROOT
BRANCH   1  12
ATOM     12  C   UNL     1     130.996 122.582 110.982  1.00  0.00     0.029 A 
ATOM     13  C   UNL     1     131.584 121.435 110.426  1.00  0.00     0.062 A 
ATOM     14  C   UNL     1     130.944 120.192 110.495  1.00  0.00     0.162 A 
ATOM     15  C   UNL     1     129.767 122.464 111.645  1.00  0.00     0.062 A 
ATOM     16  C   UNL     1     129.689 120.086 111.144  1.00  0.00     0.200 A 
ATOM     17  C   UNL     1     129.112 121.232 111.721  1.00  0.00     0.162 A 
BRANCH  14  18
ATOM     18  O   UNL     1     131.591 119.096 109.918  1.00  0.00    -0.504 OA
ATOM     19  H   UNL     1     132.558 118.861 110.078  1.00  0.00     0.293 HD
ENDBRANCH  14  18
BRANCH  16  20
ATOM     20  O   UNL     1     128.997 118.876 111.234  1.00  0.00    -0.502 OA
ATOM     21  H   UNL     1     128.762 118.419 112.104  1.00  0.00     0.293 HD
ENDBRANCH  16  20
BRANCH  17  22
ATOM     22  O   UNL     1     127.883 121.166 112.377  1.00  0.00    -0.504 OA
ATOM     23  H   UNL     1     127.269 121.967 112.459  1.00  0.00     0.293 HD
ENDBRANCH  17  22
ENDBRANCH   1  12
BRANCH   2  24
ATOM     24  O   UNL     1     130.218 124.704 109.162  1.00  0.00    -0.502 OA
ATOM     25  H   UNL     1     130.090 123.843 108.646  1.00  0.00     0.293 HD
ENDBRANCH   2  24
BRANCH   6  26
ATOM     26  O   UNL     1     133.547 128.575 110.156  1.00  0.00    -0.507 OA
ATOM     27  H   UNL     1     133.380 128.431 109.167  1.00  0.00     0.293 HD
ENDBRANCH   6  26
BRANCH   8  28
ATOM     28  O   UNL     1     136.137 126.697 113.789  1.00  0.00    -0.508 OA
ATOM     29  H   UNL     1     136.738 127.511 113.819  1.00  0.00     0.293 HD
ENDBRANCH   8  28
TORSDOF 7
ENDMDL
