MODEL 1
REMARK VINA RESULT:    -5.905      0.000      0.000
REMARK INTER + INTRA:         -10.472
REMARK INTER:                  -9.012
REMARK INTRA:                  -1.460
REMARK UNBOUND:                -1.460
REMARK SMILES OC[C@@H]1O[C@H](O[C@@]2(CO)O[C@@H](CO)[C@H](O)[C@H]2O)[C@H](O)[C@@H](O)[C@H]1O
REMARK SMILES IDX 6 1 5 2 3 3 22 4 4 5 20 6 18 7 2 8 1 9 23 11 21 13 19 15
REMARK SMILES IDX 7 17 16 18 10 19 14 20 11 21 8 22 9 23 17 25 15 27 12 29
REMARK SMILES IDX 13 30
REMARK H PARENT 1 10 23 12 21 14 19 16 9 24 17 26 15 28 13 31
REMARK Flexibility Score: inf
ROOT
ATOM      1  O   UNL     1      22.226   4.865  40.711  1.00  0.00    -0.313 OA
ENDROOT
BRANCH   1   2
ATOM      2  C   UNL     1      23.184   4.481  41.688  1.00  0.00     0.285 C 
ATOM      3  C   UNL     1      23.434   6.247  43.305  1.00  0.00     0.178 C 
ATOM      4  C   UNL     1      21.892   6.158  43.471  1.00  0.00     0.177 C 
ATOM      5  O   UNL     1      23.912   5.630  42.114  1.00  0.00    -0.341 OA
ATOM      6  C   UNL     1      21.437   4.675  43.515  1.00  0.00     0.179 C 
ATOM      7  C   UNL     1      22.466   3.746  42.842  1.00  0.00     0.202 C 
BRANCH   3   8
ATOM      8  C   UNL     1      23.922   7.703  43.318  1.00  0.00     0.191 C 
BRANCH   8   9
ATOM      9  O   UNL     1      24.333   8.104  42.037  1.00  0.00    -0.394 OA
ATOM     10  H   UNL     1      24.951   7.407  41.698  1.00  0.00     0.210 HD
ENDBRANCH   8   9
ENDBRANCH   3   8
BRANCH   4  11
ATOM     11  O   UNL     1      21.487   6.823  44.644  1.00  0.00    -0.387 OA
ATOM     12  H   UNL     1      20.700   6.335  45.006  1.00  0.00     0.211 HD
ENDBRANCH   4  11
BRANCH   6  13
ATOM     13  O   UNL     1      21.246   4.243  44.840  1.00  0.00    -0.387 OA
ATOM     14  H   UNL     1      21.905   4.733  45.398  1.00  0.00     0.211 HD
ENDBRANCH   6  13
BRANCH   7  15
ATOM     15  O   UNL     1      21.816   2.598  42.363  1.00  0.00    -0.385 OA
ATOM     16  H   UNL     1      21.043   2.911  41.824  1.00  0.00     0.211 HD
ENDBRANCH   7  15
ENDBRANCH   1   2
BRANCH   1  17
ATOM     17  C   UNL     1      22.667   4.692  39.366  1.00  0.00     0.224 C 
ATOM     18  C   UNL     1      21.551   5.168  38.417  1.00  0.00     0.208 C 
ATOM     19  O   UNL     1      22.883   3.313  39.102  1.00  0.00    -0.337 OA
ATOM     20  C   UNL     1      20.744   3.908  38.206  1.00  0.00     0.180 C 
ATOM     21  C   UNL     1      21.823   2.829  38.302  1.00  0.00     0.179 C 
BRANCH  17  22
ATOM     22  C   UNL     1      23.969   5.482  39.085  1.00  0.00     0.225 C 
BRANCH  22  23
ATOM     23  O   UNL     1      23.780   6.856  39.303  1.00  0.00    -0.391 OA
ATOM     24  H   UNL     1      23.522   6.960  40.256  1.00  0.00     0.210 HD
ENDBRANCH  22  23
ENDBRANCH  17  22
BRANCH  18  25
ATOM     25  O   UNL     1      20.793   6.240  38.932  1.00  0.00    -0.385 OA
ATOM     26  H   UNL     1      19.968   5.879  39.347  1.00  0.00     0.211 HD
ENDBRANCH  18  25
BRANCH  20  27
ATOM     27  O   UNL     1      20.061   3.900  36.975  1.00  0.00    -0.387 OA
ATOM     28  H   UNL     1      20.079   4.819  36.603  1.00  0.00     0.211 HD
ENDBRANCH  20  27
BRANCH  21  29
ATOM     29  C   UNL     1      21.287   1.520  38.895  1.00  0.00     0.191 C 
BRANCH  29  30
ATOM     30  O   UNL     1      22.063   1.115  39.990  1.00  0.00    -0.394 OA
ATOM     31  H   UNL     1      21.745   1.634  40.774  1.00  0.00     0.210 HD
ENDBRANCH  29  30
ENDBRANCH  21  29
ENDBRANCH   1  17
TORSDOF 13
ENDMDL
MODEL 2
REMARK VINA RESULT:    -5.650     15.047     16.686
REMARK INTER + INTRA:         -10.083
REMARK INTER:                  -8.998
REMARK INTRA:                  -1.085
REMARK UNBOUND:                -1.460
REMARK SMILES OC[C@@H]1O[C@H](O[C@@]2(CO)O[C@@H](CO)[C@H](O)[C@H]2O)[C@H](O)[C@@H](O)[C@H]1O
REMARK SMILES IDX 6 1 5 2 3 3 22 4 4 5 20 6 18 7 2 8 1 9 23 11 21 13 19 15
REMARK SMILES IDX 7 17 16 18 10 19 14 20 11 21 8 22 9 23 17 25 15 27 12 29
REMARK SMILES IDX 13 30
REMARK H PARENT 1 10 23 12 21 14 19 16 9 24 17 26 15 28 13 31
REMARK Flexibility Score: inf
ROOT
ATOM      1  O   UNL     1      37.788   8.345  43.242  1.00  0.00    -0.313 OA
ENDROOT
BRANCH   1   2
ATOM      2  C   UNL     1      38.231   8.775  44.522  1.00  0.00     0.285 C 
ATOM      3  C   UNL     1      38.013  11.167  44.684  1.00  0.00     0.178 C 
ATOM      4  C   UNL     1      36.532  10.945  44.271  1.00  0.00     0.177 C 
ATOM      5  O   UNL     1      38.853  10.052  44.402  1.00  0.00    -0.341 OA
ATOM      6  C   UNL     1      35.936   9.727  45.025  1.00  0.00     0.179 C 
ATOM      7  C   UNL     1      37.038   8.762  45.503  1.00  0.00     0.202 C 
BRANCH   3   8
ATOM      8  C   UNL     1      38.614  12.402  43.999  1.00  0.00     0.191 C 
BRANCH   8   9
ATOM      9  O   UNL     1      38.531  13.528  44.832  1.00  0.00    -0.394 OA
ATOM     10  H   UNL     1      37.760  14.066  44.519  1.00  0.00     0.210 HD
ENDBRANCH   8   9
ENDBRANCH   3   8
BRANCH   4  11
ATOM     11  O   UNL     1      35.772  12.099  44.539  1.00  0.00    -0.387 OA
ATOM     12  H   UNL     1      34.854  11.939  44.191  1.00  0.00     0.211 HD
ENDBRANCH   4  11
BRANCH   6  13
ATOM     13  O   UNL     1      35.189  10.140  46.144  1.00  0.00    -0.387 OA
ATOM     14  H   UNL     1      35.026  11.113  46.034  1.00  0.00     0.211 HD
ENDBRANCH   6  13
BRANCH   7  15
ATOM     15  O   UNL     1      36.509   7.467  45.615  1.00  0.00    -0.385 OA
ATOM     16  H   UNL     1      35.533   7.542  45.449  1.00  0.00     0.211 HD
ENDBRANCH   7  15
ENDBRANCH   1   2
BRANCH   1  17
ATOM     17  C   UNL     1      38.757   7.594  42.514  1.00  0.00     0.224 C 
ATOM     18  C   UNL     1      38.148   6.227  42.147  1.00  0.00     0.208 C 
ATOM     19  O   UNL     1      39.889   7.343  43.334  1.00  0.00    -0.337 OA
ATOM     20  C   UNL     1      38.529   5.373  43.333  1.00  0.00     0.180 C 
ATOM     21  C   UNL     1      39.865   5.990  43.745  1.00  0.00     0.179 C 
BRANCH  17  22
ATOM     22  C   UNL     1      39.205   8.333  41.228  1.00  0.00     0.225 C 
BRANCH  22  23
ATOM     23  O   UNL     1      38.484   7.880  40.112  1.00  0.00    -0.391 OA
ATOM     24  H   UNL     1      38.825   6.973  39.900  1.00  0.00     0.210 HD
ENDBRANCH  22  23
ENDBRANCH  17  22
BRANCH  18  25
ATOM     25  O   UNL     1      36.758   6.275  41.912  1.00  0.00    -0.385 OA
ATOM     26  H   UNL     1      36.532   7.148  41.500  1.00  0.00     0.211 HD
ENDBRANCH  18  25
BRANCH  20  27
ATOM     27  O   UNL     1      38.626   4.006  43.009  1.00  0.00    -0.387 OA
ATOM     28  H   UNL     1      38.315   3.884  42.075  1.00  0.00     0.211 HD
ENDBRANCH  20  27
BRANCH  21  29
ATOM     29  C   UNL     1      40.105   5.907  45.257  1.00  0.00     0.191 C 
BRANCH  29  30
ATOM     30  O   UNL     1      40.125   4.572  45.685  1.00  0.00    -0.394 OA
ATOM     31  H   UNL     1      39.432   4.093  45.160  1.00  0.00     0.210 HD
ENDBRANCH  29  30
ENDBRANCH  21  29
ENDBRANCH   1  17
TORSDOF 13
ENDMDL
MODEL 3
REMARK VINA RESULT:    -5.509     13.713     16.321
REMARK INTER + INTRA:          -9.867
REMARK INTER:                  -8.570
REMARK INTRA:                  -1.297
REMARK UNBOUND:                -1.460
REMARK SMILES OC[C@@H]1O[C@H](O[C@@]2(CO)O[C@@H](CO)[C@H](O)[C@H]2O)[C@H](O)[C@@H](O)[C@H]1O
REMARK SMILES IDX 6 1 5 2 3 3 22 4 4 5 20 6 18 7 2 8 1 9 23 11 21 13 19 15
REMARK SMILES IDX 7 17 16 18 10 19 14 20 11 21 8 22 9 23 17 25 15 27 12 29
REMARK SMILES IDX 13 30
REMARK H PARENT 1 10 23 12 21 14 19 16 9 24 17 26 15 28 13 31
REMARK Flexibility Score: inf
ROOT
ATOM      1  O   UNL     1      37.557   6.516  44.551  1.00  0.00    -0.313 OA
ENDROOT
BRANCH   1   2
ATOM      2  C   UNL     1      37.344   5.549  43.531  1.00  0.00     0.285 C 
ATOM      3  C   UNL     1      37.225   3.356  44.518  1.00  0.00     0.178 C 
ATOM      4  C   UNL     1      36.124   3.953  45.436  1.00  0.00     0.177 C 
ATOM      5  O   UNL     1      38.024   4.344  43.874  1.00  0.00    -0.341 OA
ATOM      6  C   UNL     1      35.161   4.850  44.613  1.00  0.00     0.179 C 
ATOM      7  C   UNL     1      35.825   5.359  43.320  1.00  0.00     0.202 C 
BRANCH   3   8
ATOM      8  C   UNL     1      38.161   2.416  45.292  1.00  0.00     0.191 C 
BRANCH   8   9
ATOM      9  O   UNL     1      38.014   2.592  46.676  1.00  0.00    -0.394 OA
ATOM     10  H   UNL     1      37.422   3.376  46.809  1.00  0.00     0.210 HD
ENDBRANCH   8   9
ENDBRANCH   3   8
BRANCH   4  11
ATOM     11  O   UNL     1      35.404   2.923  46.070  1.00  0.00    -0.387 OA
ATOM     12  H   UNL     1      34.437   3.131  45.969  1.00  0.00     0.211 HD
ENDBRANCH   4  11
BRANCH   6  13
ATOM     13  O   UNL     1      33.990   4.150  44.268  1.00  0.00    -0.387 OA
ATOM     14  H   UNL     1      33.379   4.809  43.843  1.00  0.00     0.211 HD
ENDBRANCH   6  13
BRANCH   7  15
ATOM     15  O   UNL     1      35.229   6.569  42.934  1.00  0.00    -0.385 OA
ATOM     16  H   UNL     1      34.292   6.359  42.681  1.00  0.00     0.211 HD
ENDBRANCH   7  15
ENDBRANCH   1   2
BRANCH   1  17
ATOM     17  C   UNL     1      38.253   7.680  44.112  1.00  0.00     0.224 C 
ATOM     18  C   UNL     1      39.156   8.176  45.257  1.00  0.00     0.208 C 
ATOM     19  O   UNL     1      37.327   8.719  43.828  1.00  0.00    -0.337 OA
ATOM     20  C   UNL     1      38.246   9.126  46.000  1.00  0.00     0.180 C 
ATOM     21  C   UNL     1      37.379   9.675  44.868  1.00  0.00     0.179 C 
BRANCH  17  22
ATOM     22  C   UNL     1      39.109   7.393  42.853  1.00  0.00     0.225 C 
BRANCH  22  23
ATOM     23  O   UNL     1      38.681   8.172  41.767  1.00  0.00    -0.391 OA
ATOM     24  H   UNL     1      39.482   8.347  41.207  1.00  0.00     0.210 HD
ENDBRANCH  22  23
ENDBRANCH  17  22
BRANCH  18  25
ATOM     25  O   UNL     1      39.662   7.136  46.065  1.00  0.00    -0.385 OA
ATOM     26  H   UNL     1      39.193   7.151  46.938  1.00  0.00     0.211 HD
ENDBRANCH  18  25
BRANCH  20  27
ATOM     27  O   UNL     1      38.955  10.128  46.691  1.00  0.00    -0.387 OA
ATOM     28  H   UNL     1      39.306  10.776  46.026  1.00  0.00     0.211 HD
ENDBRANCH  20  27
BRANCH  21  29
ATOM     29  C   UNL     1      35.956  10.009  45.332  1.00  0.00     0.191 C 
BRANCH  29  30
ATOM     30  O   UNL     1      35.816   9.786  46.709  1.00  0.00    -0.394 OA
ATOM     31  H   UNL     1      36.158  10.598  47.166  1.00  0.00     0.210 HD
ENDBRANCH  29  30
ENDBRANCH  21  29
ENDBRANCH   1  17
TORSDOF 13
ENDMDL
MODEL 4
REMARK VINA RESULT:    -5.496     14.283     16.728
REMARK INTER + INTRA:          -9.849
REMARK INTER:                  -8.381
REMARK INTRA:                  -1.468
REMARK UNBOUND:                -1.460
REMARK SMILES OC[C@@H]1O[C@H](O[C@@]2(CO)O[C@@H](CO)[C@H](O)[C@H]2O)[C@H](O)[C@@H](O)[C@H]1O
REMARK SMILES IDX 6 1 5 2 3 3 22 4 4 5 20 6 18 7 2 8 1 9 23 11 21 13 19 15
REMARK SMILES IDX 7 17 16 18 10 19 14 20 11 21 8 22 9 23 17 25 15 27 12 29
REMARK SMILES IDX 13 30
REMARK H PARENT 1 10 23 12 21 14 19 16 9 24 17 26 15 28 13 31
REMARK Flexibility Score: inf
ROOT
ATOM      1  O   UNL     1      38.325   8.563  44.351  1.00  0.00    -0.313 OA
ENDROOT
BRANCH   1   2
ATOM      2  C   UNL     1      38.175   9.269  45.575  1.00  0.00     0.285 C 
ATOM      3  C   UNL     1      38.062  11.632  45.129  1.00  0.00     0.178 C 
ATOM      4  C   UNL     1      36.911  11.276  44.148  1.00  0.00     0.177 C 
ATOM      5  O   UNL     1      38.865  10.513  45.490  1.00  0.00    -0.341 OA
ATOM      6  C   UNL     1      35.964  10.223  44.783  1.00  0.00     0.179 C 
ATOM      7  C   UNL     1      36.671   9.421  45.893  1.00  0.00     0.202 C 
BRANCH   3   8
ATOM      8  C   UNL     1      38.984  12.715  44.551  1.00  0.00     0.191 C 
BRANCH   8   9
ATOM      9  O   UNL     1      38.606  13.989  45.004  1.00  0.00    -0.394 OA
ATOM     10  H   UNL     1      39.133  14.175  45.822  1.00  0.00     0.210 HD
ENDBRANCH   8   9
ENDBRANCH   3   8
BRANCH   4  11
ATOM     11  O   UNL     1      36.187  12.432  43.802  1.00  0.00    -0.387 OA
ATOM     12  H   UNL     1      36.043  12.953  44.637  1.00  0.00     0.211 HD
ENDBRANCH   4  11
BRANCH   6  13
ATOM     13  O   UNL     1      34.824  10.836  45.334  1.00  0.00    -0.387 OA
ATOM     14  H   UNL     1      34.965  11.817  45.264  1.00  0.00     0.211 HD
ENDBRANCH   6  13
BRANCH   7  15
ATOM     15  O   UNL     1      36.066   8.161  46.016  1.00  0.00    -0.385 OA
ATOM     16  H   UNL     1      36.789   7.486  45.927  1.00  0.00     0.211 HD
ENDBRANCH   7  15
ENDBRANCH   1   2
BRANCH   1  17
ATOM     17  C   UNL     1      38.987   7.306  44.482  1.00  0.00     0.224 C 
ATOM     18  C   UNL     1      39.574   6.913  43.113  1.00  0.00     0.208 C 
ATOM     19  O   UNL     1      38.049   6.302  44.841  1.00  0.00    -0.337 OA
ATOM     20  C   UNL     1      38.442   6.134  42.486  1.00  0.00     0.180 C 
ATOM     21  C   UNL     1      37.788   5.494  43.710  1.00  0.00     0.179 C 
BRANCH  17  22
ATOM     22  C   UNL     1      40.115   7.362  45.542  1.00  0.00     0.225 C 
BRANCH  22  23
ATOM     23  O   UNL     1      40.125   6.199  46.326  1.00  0.00    -0.391 OA
ATOM     24  H   UNL     1      39.504   6.360  47.083  1.00  0.00     0.210 HD
ENDBRANCH  22  23
ENDBRANCH  17  22
BRANCH  18  25
ATOM     25  O   UNL     1      39.991   8.017  42.341  1.00  0.00    -0.385 OA
ATOM     26  H   UNL     1      40.846   8.360  42.708  1.00  0.00     0.211 HD
ENDBRANCH  18  25
BRANCH  20  27
ATOM     27  O   UNL     1      38.889   5.192  41.540  1.00  0.00    -0.387 OA
ATOM     28  H   UNL     1      39.693   4.740  41.906  1.00  0.00     0.211 HD
ENDBRANCH  20  27
BRANCH  21  29
ATOM     29  C   UNL     1      36.274   5.321  43.540  1.00  0.00     0.191 C 
BRANCH  29  30
ATOM     30  O   UNL     1      35.639   6.566  43.437  1.00  0.00    -0.394 OA
ATOM     31  H   UNL     1      35.979   7.124  44.185  1.00  0.00     0.210 HD
ENDBRANCH  29  30
ENDBRANCH  21  29
ENDBRANCH   1  17
TORSDOF 13
ENDMDL
MODEL 5
REMARK VINA RESULT:    -5.427     15.809     17.467
REMARK INTER + INTRA:          -9.742
REMARK INTER:                  -8.374
REMARK INTRA:                  -1.369
REMARK UNBOUND:                -1.460
REMARK SMILES OC[C@@H]1O[C@H](O[C@@]2(CO)O[C@@H](CO)[C@H](O)[C@H]2O)[C@H](O)[C@@H](O)[C@H]1O
REMARK SMILES IDX 6 1 5 2 3 3 22 4 4 5 20 6 18 7 2 8 1 9 23 11 21 13 19 15
REMARK SMILES IDX 7 17 16 18 10 19 14 20 11 21 8 22 9 23 17 25 15 27 12 29
REMARK SMILES IDX 13 30
REMARK H PARENT 1 10 23 12 21 14 19 16 9 24 17 26 15 28 13 31
REMARK Flexibility Score: inf
ROOT
ATOM      1  O   UNL     1      38.707   1.142  45.604  1.00  0.00    -0.313 OA
ENDROOT
BRANCH   1   2
ATOM      2  C   UNL     1      37.498   0.484  45.961  1.00  0.00     0.285 C 
ATOM      3  C   UNL     1      37.961  -1.824  46.469  1.00  0.00     0.178 C 
ATOM      4  C   UNL     1      39.017  -1.274  47.467  1.00  0.00     0.177 C 
ATOM      5  O   UNL     1      37.542  -0.865  45.503  1.00  0.00    -0.341 OA
ATOM      6  C   UNL     1      38.443  -0.063  48.249  1.00  0.00     0.179 C 
ATOM      7  C   UNL     1      37.285   0.608  47.486  1.00  0.00     0.202 C 
BRANCH   3   8
ATOM      8  C   UNL     1      38.480  -3.060  45.720  1.00  0.00     0.191 C 
BRANCH   8   9
ATOM      9  O   UNL     1      39.845  -2.930  45.423  1.00  0.00    -0.394 OA
ATOM     10  H   UNL     1      40.216  -2.256  46.048  1.00  0.00     0.210 HD
ENDBRANCH   8   9
ENDBRANCH   3   8
BRANCH   4  11
ATOM     11  O   UNL     1      39.416  -2.284  48.363  1.00  0.00    -0.387 OA
ATOM     12  H   UNL     1      38.900  -3.103  48.136  1.00  0.00     0.211 HD
ENDBRANCH   4  11
BRANCH   6  13
ATOM     13  O   UNL     1      37.973  -0.456  49.517  1.00  0.00    -0.387 OA
ATOM     14  H   UNL     1      38.172  -1.425  49.606  1.00  0.00     0.211 HD
ENDBRANCH   6  13
BRANCH   7  15
ATOM     15  O   UNL     1      37.198   1.957  47.861  1.00  0.00    -0.385 OA
ATOM     16  H   UNL     1      36.274   2.104  48.193  1.00  0.00     0.211 HD
ENDBRANCH   7  15
ENDBRANCH   1   2
BRANCH   1  17
ATOM     17  C   UNL     1      38.612   1.928  44.418  1.00  0.00     0.224 C 
ATOM     18  C   UNL     1      39.067   3.364  44.741  1.00  0.00     0.208 C 
ATOM     19  O   UNL     1      37.258   2.002  43.995  1.00  0.00    -0.337 OA
ATOM     20  C   UNL     1      37.777   4.028  45.161  1.00  0.00     0.180 C 
ATOM     21  C   UNL     1      36.752   3.286  44.303  1.00  0.00     0.179 C 
BRANCH  17  22
ATOM     22  C   UNL     1      39.479   1.345  43.274  1.00  0.00     0.225 C 
BRANCH  22  23
ATOM     23  O   UNL     1      38.917   1.634  42.022  1.00  0.00    -0.391 OA
ATOM     24  H   UNL     1      39.629   1.479  41.347  1.00  0.00     0.210 HD
ENDBRANCH  22  23
ENDBRANCH  17  22
BRANCH  18  25
ATOM     25  O   UNL     1      40.077   3.427  45.724  1.00  0.00    -0.385 OA
ATOM     26  H   UNL     1      39.654   3.404  46.620  1.00  0.00     0.211 HD
ENDBRANCH  18  25
BRANCH  20  27
ATOM     27  O   UNL     1      37.784   5.418  44.938  1.00  0.00    -0.387 OA
ATOM     28  H   UNL     1      37.471   5.587  44.012  1.00  0.00     0.211 HD
ENDBRANCH  20  27
BRANCH  21  29
ATOM     29  C   UNL     1      35.394   3.151  45.002  1.00  0.00     0.191 C 
BRANCH  29  30
ATOM     30  O   UNL     1      35.452   3.664  46.305  1.00  0.00    -0.394 OA
ATOM     31  H   UNL     1      35.970   4.510  46.257  1.00  0.00     0.210 HD
ENDBRANCH  29  30
ENDBRANCH  21  29
ENDBRANCH   1  17
TORSDOF 13
ENDMDL
MODEL 6
REMARK VINA RESULT:    -5.419     14.149     16.502
REMARK INTER + INTRA:          -9.730
REMARK INTER:                  -8.351
REMARK INTRA:                  -1.380
REMARK UNBOUND:                -1.460
REMARK SMILES OC[C@@H]1O[C@H](O[C@@]2(CO)O[C@@H](CO)[C@H](O)[C@H]2O)[C@H](O)[C@@H](O)[C@H]1O
REMARK SMILES IDX 6 1 5 2 3 3 22 4 4 5 20 6 18 7 2 8 1 9 23 11 21 13 19 15
REMARK SMILES IDX 7 17 16 18 10 19 14 20 11 21 8 22 9 23 17 25 15 27 12 29
REMARK SMILES IDX 13 30
REMARK H PARENT 1 10 23 12 21 14 19 16 9 24 17 26 15 28 13 31
REMARK Flexibility Score: inf
ROOT
ATOM      1  O   UNL     1      37.876   6.330  44.618  1.00  0.00    -0.313 OA
ENDROOT
BRANCH   1   2
ATOM      2  C   UNL     1      37.740   5.383  43.567  1.00  0.00     0.285 C 
ATOM      3  C   UNL     1      37.374   3.195  44.503  1.00  0.00     0.178 C 
ATOM      4  C   UNL     1      36.200   3.850  45.282  1.00  0.00     0.177 C 
ATOM      5  O   UNL     1      38.302   4.139  43.978  1.00  0.00    -0.341 OA
ATOM      6  C   UNL     1      35.402   4.804  44.355  1.00  0.00     0.179 C 
ATOM      7  C   UNL     1      36.253   5.281  43.163  1.00  0.00     0.202 C 
BRANCH   3   8
ATOM      8  C   UNL     1      38.149   2.199  45.377  1.00  0.00     0.191 C 
BRANCH   8   9
ATOM      9  O   UNL     1      37.989   2.498  46.739  1.00  0.00    -0.394 OA
ATOM     10  H   UNL     1      38.179   3.464  46.850  1.00  0.00     0.210 HD
ENDBRANCH   8   9
ENDBRANCH   3   8
BRANCH   4  11
ATOM     11  O   UNL     1      35.349   2.859  45.806  1.00  0.00    -0.387 OA
ATOM     12  H   UNL     1      34.464   2.964  45.365  1.00  0.00     0.211 HD
ENDBRANCH   4  11
BRANCH   6  13
ATOM     13  O   UNL     1      34.246   4.175  43.855  1.00  0.00    -0.387 OA
ATOM     14  H   UNL     1      33.547   4.876  43.788  1.00  0.00     0.211 HD
ENDBRANCH   6  13
BRANCH   7  15
ATOM     15  O   UNL     1      35.779   6.526  42.719  1.00  0.00    -0.385 OA
ATOM     16  H   UNL     1      34.977   6.737  43.264  1.00  0.00     0.211 HD
ENDBRANCH   7  15
ENDBRANCH   1   2
BRANCH   1  17
ATOM     17  C   UNL     1      39.017   7.176  44.494  1.00  0.00     0.224 C 
ATOM     18  C   UNL     1      38.577   8.635  44.724  1.00  0.00     0.208 C 
ATOM     19  O   UNL     1      39.535   7.098  43.173  1.00  0.00    -0.337 OA
ATOM     20  C   UNL     1      38.216   9.090  43.330  1.00  0.00     0.180 C 
ATOM     21  C   UNL     1      39.191   8.279  42.476  1.00  0.00     0.179 C 
BRANCH  17  22
ATOM     22  C   UNL     1      40.125   6.794  45.507  1.00  0.00     0.225 C 
BRANCH  22  23
ATOM     23  O   UNL     1      39.899   7.404  46.750  1.00  0.00    -0.391 OA
ATOM     24  H   UNL     1      39.160   6.904  47.184  1.00  0.00     0.210 HD
ENDBRANCH  22  23
ENDBRANCH  17  22
BRANCH  18  25
ATOM     25  O   UNL     1      37.519   8.764  45.649  1.00  0.00    -0.385 OA
ATOM     26  H   UNL     1      37.881   9.113  46.503  1.00  0.00     0.211 HD
ENDBRANCH  18  25
BRANCH  20  27
ATOM     27  O   UNL     1      38.355  10.481  43.160  1.00  0.00    -0.387 OA
ATOM     28  H   UNL     1      37.448  10.884  43.137  1.00  0.00     0.211 HD
ENDBRANCH  20  27
BRANCH  21  29
ATOM     29  C   UNL     1      38.604   7.916  41.106  1.00  0.00     0.191 C 
BRANCH  29  30
ATOM     30  O   UNL     1      38.367   9.069  40.345  1.00  0.00    -0.394 OA
ATOM     31  H   UNL     1      37.399   9.276  40.433  1.00  0.00     0.210 HD
ENDBRANCH  29  30
ENDBRANCH  21  29
ENDBRANCH   1  17
TORSDOF 13
ENDMDL
MODEL 7
REMARK VINA RESULT:    -5.410      1.314      1.980
REMARK INTER + INTRA:          -9.717
REMARK INTER:                  -8.293
REMARK INTRA:                  -1.424
REMARK UNBOUND:                -1.460
REMARK SMILES OC[C@@H]1O[C@H](O[C@@]2(CO)O[C@@H](CO)[C@H](O)[C@H]2O)[C@H](O)[C@@H](O)[C@H]1O
REMARK SMILES IDX 6 1 5 2 3 3 22 4 4 5 20 6 18 7 2 8 1 9 23 11 21 13 19 15
REMARK SMILES IDX 7 17 16 18 10 19 14 20 11 21 8 22 9 23 17 25 15 27 12 29
REMARK SMILES IDX 13 30
REMARK H PARENT 1 10 23 12 21 14 19 16 9 24 17 26 15 28 13 31
REMARK Flexibility Score: inf
ROOT
ATOM      1  O   UNL     1      22.702   4.787  40.405  1.00  0.00    -0.313 OA
ENDROOT
BRANCH   1   2
ATOM      2  C   UNL     1      23.533   4.425  41.500  1.00  0.00     0.285 C 
ATOM      3  C   UNL     1      23.532   6.198  43.129  1.00  0.00     0.178 C 
ATOM      4  C   UNL     1      21.984   6.075  43.093  1.00  0.00     0.177 C 
ATOM      5  O   UNL     1      24.174   5.591  42.012  1.00  0.00    -0.341 OA
ATOM      6  C   UNL     1      21.560   4.583  43.083  1.00  0.00     0.179 C 
ATOM      7  C   UNL     1      22.687   3.676  42.554  1.00  0.00     0.202 C 
BRANCH   3   8
ATOM      8  C   UNL     1      23.983   7.664  43.198  1.00  0.00     0.191 C 
BRANCH   8   9
ATOM      9  O   UNL     1      24.370   8.130  41.932  1.00  0.00    -0.394 OA
ATOM     10  H   UNL     1      24.928   7.423  41.520  1.00  0.00     0.210 HD
ENDBRANCH   8   9
ENDBRANCH   3   8
BRANCH   4  11
ATOM     11  O   UNL     1      21.416   6.732  44.201  1.00  0.00    -0.387 OA
ATOM     12  H   UNL     1      21.759   6.286  45.020  1.00  0.00     0.211 HD
ENDBRANCH   4  11
BRANCH   6  13
ATOM     13  O   UNL     1      21.207   4.148  44.375  1.00  0.00    -0.387 OA
ATOM     14  H   UNL     1      20.525   3.436  44.259  1.00  0.00     0.211 HD
ENDBRANCH   6  13
BRANCH   7  15
ATOM     15  O   UNL     1      22.130   2.514  41.999  1.00  0.00    -0.385 OA
ATOM     16  H   UNL     1      22.198   1.805  42.692  1.00  0.00     0.211 HD
ENDBRANCH   7  15
ENDBRANCH   1   2
BRANCH   1  17
ATOM     17  C   UNL     1      23.317   4.622  39.130  1.00  0.00     0.224 C 
ATOM     18  C   UNL     1      23.565   6.014  38.517  1.00  0.00     0.208 C 
ATOM     19  O   UNL     1      22.437   3.930  38.255  1.00  0.00    -0.337 OA
ATOM     20  C   UNL     1      22.286   6.266  37.754  1.00  0.00     0.180 C 
ATOM     21  C   UNL     1      21.893   4.850  37.330  1.00  0.00     0.179 C 
BRANCH  17  22
ATOM     22  C   UNL     1      24.655   3.848  39.235  1.00  0.00     0.225 C 
BRANCH  22  23
ATOM     23  O   UNL     1      25.715   4.606  38.715  1.00  0.00    -0.391 OA
ATOM     24  H   UNL     1      26.469   3.978  38.567  1.00  0.00     0.210 HD
ENDBRANCH  22  23
ENDBRANCH  17  22
BRANCH  18  25
ATOM     25  O   UNL     1      23.850   7.007  39.477  1.00  0.00    -0.385 OA
ATOM     26  H   UNL     1      24.099   7.844  39.008  1.00  0.00     0.211 HD
ENDBRANCH  18  25
BRANCH  20  27
ATOM     27  O   UNL     1      22.467   7.140  36.665  1.00  0.00    -0.387 OA
ATOM     28  H   UNL     1      23.429   7.378  36.612  1.00  0.00     0.211 HD
ENDBRANCH  20  27
BRANCH  21  29
ATOM     29  C   UNL     1      20.372   4.665  37.254  1.00  0.00     0.191 C 
BRANCH  29  30
ATOM     30  O   UNL     1      19.875   4.132  38.451  1.00  0.00    -0.394 OA
ATOM     31  H   UNL     1      19.856   3.146  38.338  1.00  0.00     0.210 HD
ENDBRANCH  29  30
ENDBRANCH  21  29
ENDBRANCH   1  17
TORSDOF 13
ENDMDL
MODEL 8
REMARK VINA RESULT:    -5.099      2.372      6.111
REMARK INTER + INTRA:          -9.242
REMARK INTER:                  -7.624
REMARK INTRA:                  -1.618
REMARK UNBOUND:                -1.460
REMARK SMILES OC[C@@H]1O[C@H](O[C@@]2(CO)O[C@@H](CO)[C@H](O)[C@H]2O)[C@H](O)[C@@H](O)[C@H]1O
REMARK SMILES IDX 6 1 5 2 3 3 22 4 4 5 20 6 18 7 2 8 1 9 23 11 21 13 19 15
REMARK SMILES IDX 7 17 16 18 10 19 14 20 11 21 8 22 9 23 17 25 15 27 12 29
REMARK SMILES IDX 13 30
REMARK H PARENT 1 10 23 12 21 14 19 16 9 24 17 26 15 28 13 31
REMARK Flexibility Score: inf
ROOT
ATOM      1  O   UNL     1      21.549   1.922  40.139  1.00  0.00    -0.313 OA
ENDROOT
BRANCH   1   2
ATOM      2  C   UNL     1      20.452   1.030  39.991  1.00  0.00     0.285 C 
ATOM      3  C   UNL     1      21.264  -1.134  39.313  1.00  0.00     0.178 C 
ATOM      4  C   UNL     1      22.193  -1.047  40.555  1.00  0.00     0.177 C 
ATOM      5  O   UNL     1      20.721   0.124  38.924  1.00  0.00    -0.341 OA
ATOM      6  C   UNL     1      21.415  -0.491  41.776  1.00  0.00     0.179 C 
ATOM      7  C   UNL     1      20.184   0.326  41.340  1.00  0.00     0.202 C 
BRANCH   3   8
ATOM      8  C   UNL     1      21.990  -1.736  38.102  1.00  0.00     0.191 C 
BRANCH   8   9
ATOM      9  O   UNL     1      22.133  -3.125  38.243  1.00  0.00    -0.394 OA
ATOM     10  H   UNL     1      22.212  -3.504  37.331  1.00  0.00     0.210 HD
ENDBRANCH   8   9
ENDBRANCH   3   8
BRANCH   4  11
ATOM     11  O   UNL     1      22.726  -2.315  40.856  1.00  0.00    -0.387 OA
ATOM     12  H   UNL     1      23.352  -2.201  41.620  1.00  0.00     0.211 HD
ENDBRANCH   4  11
BRANCH   6  13
ATOM     13  O   UNL     1      20.983  -1.533  42.618  1.00  0.00    -0.387 OA
ATOM     14  H   UNL     1      21.106  -2.378  42.112  1.00  0.00     0.211 HD
ENDBRANCH   6  13
BRANCH   7  15
ATOM     15  O   UNL     1      19.875   1.270  42.332  1.00  0.00    -0.385 OA
ATOM     16  H   UNL     1      19.435   0.775  43.072  1.00  0.00     0.211 HD
ENDBRANCH   7  15
ENDBRANCH   1   2
BRANCH   1  17
ATOM     17  C   UNL     1      21.226   3.287  39.886  1.00  0.00     0.224 C 
ATOM     18  C   UNL     1      22.534   4.098  39.811  1.00  0.00     0.208 C 
ATOM     19  O   UNL     1      20.469   3.812  40.968  1.00  0.00    -0.337 OA
ATOM     20  C   UNL     1      22.739   4.519  41.247  1.00  0.00     0.180 C 
ATOM     21  C   UNL     1      21.298   4.659  41.739  1.00  0.00     0.179 C 
BRANCH  17  22
ATOM     22  C   UNL     1      20.428   3.451  38.569  1.00  0.00     0.225 C 
BRANCH  22  23
ATOM     23  O   UNL     1      21.179   3.010  37.469  1.00  0.00    -0.391 OA
ATOM     24  H   UNL     1      20.633   3.189  36.660  1.00  0.00     0.210 HD
ENDBRANCH  22  23
ENDBRANCH  17  22
BRANCH  18  25
ATOM     25  O   UNL     1      23.618   3.368  39.279  1.00  0.00    -0.385 OA
ATOM     26  H   UNL     1      24.302   4.005  38.950  1.00  0.00     0.211 HD
ENDBRANCH  18  25
BRANCH  20  27
ATOM     27  O   UNL     1      23.482   5.710  41.363  1.00  0.00    -0.387 OA
ATOM     28  H   UNL     1      24.429   5.507  41.148  1.00  0.00     0.211 HD
ENDBRANCH  20  27
BRANCH  21  29
ATOM     29  C   UNL     1      21.152   4.308  43.225  1.00  0.00     0.191 C 
BRANCH  29  30
ATOM     30  O   UNL     1      22.002   3.248  43.572  1.00  0.00    -0.394 OA
ATOM     31  H   UNL     1      22.245   2.788  42.726  1.00  0.00     0.210 HD
ENDBRANCH  29  30
ENDBRANCH  21  29
ENDBRANCH   1  17
TORSDOF 13
ENDMDL
MODEL 9
REMARK VINA RESULT:    -3.762     15.400     17.079
REMARK INTER + INTRA:          -7.202
REMARK INTER:                  -6.241
REMARK INTRA:                  -0.961
REMARK UNBOUND:                -1.460
REMARK SMILES OC[C@@H]1O[C@H](O[C@@]2(CO)O[C@@H](CO)[C@H](O)[C@H]2O)[C@H](O)[C@@H](O)[C@H]1O
REMARK SMILES IDX 6 1 5 2 3 3 22 4 4 5 20 6 18 7 2 8 1 9 23 11 21 13 19 15
REMARK SMILES IDX 7 17 16 18 10 19 14 20 11 21 8 22 9 23 17 25 15 27 12 29
REMARK SMILES IDX 13 30
REMARK H PARENT 1 10 23 12 21 14 19 16 9 24 17 26 15 28 13 31
REMARK Flexibility Score: inf
ROOT
ATOM      1  O   UNL     1      39.034   5.239  45.040  1.00  0.00    -0.313 OA
ENDROOT
BRANCH   1   2
ATOM      2  C   UNL     1      40.043   6.180  44.699  1.00  0.00     0.285 C 
ATOM      3  C   UNL     1      39.187   7.713  43.052  1.00  0.00     0.178 C 
ATOM      4  C   UNL     1      38.025   7.961  44.053  1.00  0.00     0.177 C 
ATOM      5  O   UNL     1      39.922   6.523  43.321  1.00  0.00    -0.341 OA
ATOM      6  C   UNL     1      38.574   8.084  45.499  1.00  0.00     0.179 C 
ATOM      7  C   UNL     1      39.944   7.396  45.646  1.00  0.00     0.202 C 
BRANCH   3   8
ATOM      8  C   UNL     1      38.682   7.644  41.603  1.00  0.00     0.191 C 
BRANCH   8   9
ATOM      9  O   UNL     1      37.731   6.623  41.452  1.00  0.00    -0.394 OA
ATOM     10  H   UNL     1      38.168   5.776  41.724  1.00  0.00     0.210 HD
ENDBRANCH   8   9
ENDBRANCH   3   8
BRANCH   4  11
ATOM     11  O   UNL     1      37.318   9.126  43.702  1.00  0.00    -0.387 OA
ATOM     12  H   UNL     1      37.963   9.748  43.271  1.00  0.00     0.211 HD
ENDBRANCH   4  11
BRANCH   6  13
ATOM     13  O   UNL     1      38.709   9.433  45.875  1.00  0.00    -0.387 OA
ATOM     14  H   UNL     1      38.446   9.977  45.087  1.00  0.00     0.211 HD
ENDBRANCH   6  13
BRANCH   7  15
ATOM     15  O   UNL     1      40.125   6.996  46.979  1.00  0.00    -0.385 OA
ATOM     16  H   UNL     1      41.079   6.737  47.073  1.00  0.00     0.211 HD
ENDBRANCH   7  15
ENDBRANCH   1   2
BRANCH   1  17
ATOM     17  C   UNL     1      39.115   4.013  44.316  1.00  0.00     0.224 C 
ATOM     18  C   UNL     1      37.702   3.630  43.836  1.00  0.00     0.208 C 
ATOM     19  O   UNL     1      39.562   2.974  45.175  1.00  0.00    -0.337 OA
ATOM     20  C   UNL     1      37.182   2.798  44.985  1.00  0.00     0.180 C 
ATOM     21  C   UNL     1      38.464   2.144  45.500  1.00  0.00     0.179 C 
BRANCH  17  22
ATOM     22  C   UNL     1      40.070   4.127  43.102  1.00  0.00     0.225 C 
BRANCH  22  23
ATOM     23  O   UNL     1      39.352   4.129  41.897  1.00  0.00    -0.391 OA
ATOM     24  H   UNL     1      39.035   5.059  41.755  1.00  0.00     0.210 HD
ENDBRANCH  22  23
ENDBRANCH  17  22
BRANCH  18  25
ATOM     25  O   UNL     1      36.889   4.743  43.536  1.00  0.00    -0.385 OA
ATOM     26  H   UNL     1      36.670   5.217  44.378  1.00  0.00     0.211 HD
ENDBRANCH  18  25
BRANCH  20  27
ATOM     27  O   UNL     1      36.207   1.865  44.583  1.00  0.00    -0.387 OA
ATOM     28  H   UNL     1      35.461   2.360  44.155  1.00  0.00     0.211 HD
ENDBRANCH  20  27
BRANCH  21  29
ATOM     29  C   UNL     1      38.430   1.906  47.014  1.00  0.00     0.191 C 
BRANCH  29  30
ATOM     30  O   UNL     1      37.139   2.109  47.521  1.00  0.00    -0.394 OA
ATOM     31  H   UNL     1      36.621   1.285  47.323  1.00  0.00     0.210 HD
ENDBRANCH  29  30
ENDBRANCH  21  29
ENDBRANCH   1  17
TORSDOF 13
ENDMDL
