MODEL 1
REMARK VINA RESULT:    -4.667      0.000      0.000
REMARK INTER + INTRA:          -9.851
REMARK INTER:                  -8.486
REMARK INTRA:                  -1.364
REMARK UNBOUND:                -1.364
REMARK SMILES CCCCCCCCCCCCCCCC(=O)[O-]
REMARK SMILES IDX 9 1 10 2 11 3 12 4 13 5 14 6 15 7 16 8 17 9 18 10 8 11 7 12
REMARK SMILES IDX 6 13 5 14 4 15 3 16 2 17 1 18
REMARK H PARENT
REMARK Flexibility Score: inf
ROOT
ATOM      1  C   UNL     1       2.861 -12.825 -14.281  1.00  0.00     0.000 C 
ENDROOT
BRANCH   1   2
ATOM      2  C   UNL     1       4.235 -12.306 -14.735  1.00  0.00     0.000 C 
BRANCH   2   3
ATOM      3  C   UNL     1       4.278 -10.772 -14.859  1.00  0.00     0.000 C 
BRANCH   3   4
ATOM      4  C   UNL     1       4.607 -10.303 -16.285  1.00  0.00     0.000 C 
BRANCH   4   5
ATOM      5  C   UNL     1       3.388  -9.699 -17.003  1.00  0.00     0.000 C 
BRANCH   5   6
ATOM      6  C   UNL     1       3.401  -9.967 -18.517  1.00  0.00     0.006 C 
BRANCH   6   7
ATOM      7  C   UNL     1       4.499 -10.955 -18.933  1.00  0.00     0.053 C 
BRANCH   7   8
ATOM      8  C   UNL     1       5.151 -10.505 -20.203  1.00  0.00     0.041 C 
ATOM      9  O   UNL     1       4.485  -9.882 -21.071  1.00  0.00    -0.550 OA
ATOM     10  O   UNL     1       6.507 -10.732 -20.406  1.00  0.00    -0.550 OA
ENDBRANCH   7   8
ENDBRANCH   6   7
ENDBRANCH   5   6
ENDBRANCH   4   5
ENDBRANCH   3   4
ENDBRANCH   2   3
ENDBRANCH   1   2
BRANCH   1  11
ATOM     11  C   UNL     1       2.018 -13.364 -15.451  1.00  0.00     0.000 C 
BRANCH  11  12
ATOM     12  C   UNL     1       2.796 -13.397 -16.776  1.00  0.00    -0.000 C 
BRANCH  12  13
ATOM     13  C   UNL     1       1.902 -13.739 -17.981  1.00  0.00    -0.000 C 
BRANCH  13  14
ATOM     14  C   UNL     1       1.399 -15.192 -17.947  1.00  0.00    -0.000 C 
BRANCH  14  15
ATOM     15  C   UNL     1      -0.056 -15.327 -18.429  1.00  0.00    -0.000 C 
BRANCH  15  16
ATOM     16  C   UNL     1      -0.433 -16.779 -18.764  1.00  0.00    -0.000 C 
BRANCH  16  17
ATOM     17  C   UNL     1       0.776 -17.724 -18.736  1.00  0.00    -0.003 C 
ATOM     18  C   UNL     1       0.399 -19.082 -18.148  1.00  0.00     0.004 C 
ENDBRANCH  16  17
ENDBRANCH  15  16
ENDBRANCH  14  15
ENDBRANCH  13  14
ENDBRANCH  12  13
ENDBRANCH  11  12
ENDBRANCH   1  11
TORSDOF 14
ENDMDL
MODEL 2
REMARK VINA RESULT:    -4.661      3.173      6.429
REMARK INTER + INTRA:          -9.840
REMARK INTER:                  -8.385
REMARK INTRA:                  -1.454
REMARK UNBOUND:                -1.364
REMARK SMILES CCCCCCCCCCCCCCCC(=O)[O-]
REMARK SMILES IDX 9 1 10 2 11 3 12 4 13 5 14 6 15 7 16 8 17 9 18 10 8 11 7 12
REMARK SMILES IDX 6 13 5 14 4 15 3 16 2 17 1 18
REMARK H PARENT
REMARK Flexibility Score: inf
ROOT
ATOM      1  C   UNL     1       4.129 -12.255 -14.830  1.00  0.00     0.000 C 
ENDROOT
BRANCH   1   2
ATOM      2  C   UNL     1       2.764 -12.817 -14.403  1.00  0.00     0.000 C 
BRANCH   2   3
ATOM      3  C   UNL     1       1.999 -13.468 -15.570  1.00  0.00     0.000 C 
BRANCH   3   4
ATOM      4  C   UNL     1       2.769 -13.391 -16.898  1.00  0.00     0.000 C 
BRANCH   4   5
ATOM      5  C   UNL     1       1.900 -13.780 -18.107  1.00  0.00     0.000 C 
BRANCH   5   6
ATOM      6  C   UNL     1       1.326 -15.202 -17.988  1.00  0.00     0.006 C 
BRANCH   6   7
ATOM      7  C   UNL     1      -0.153 -15.278 -18.387  1.00  0.00     0.053 C 
BRANCH   7   8
ATOM      8  C   UNL     1      -0.522 -16.680 -18.758  1.00  0.00     0.041 C 
ATOM      9  O   UNL     1       0.366 -17.569 -18.837  1.00  0.00    -0.550 OA
ATOM     10  O   UNL     1      -1.853 -17.016 -18.967  1.00  0.00    -0.550 OA
ENDBRANCH   7   8
ENDBRANCH   6   7
ENDBRANCH   5   6
ENDBRANCH   4   5
ENDBRANCH   3   4
ENDBRANCH   2   3
ENDBRANCH   1   2
BRANCH   1  11
ATOM     11  C   UNL     1       4.470 -10.932 -14.123  1.00  0.00     0.000 C 
BRANCH  11  12
ATOM     12  C   UNL     1       4.575  -9.748 -15.098  1.00  0.00    -0.000 C 
BRANCH  12  13
ATOM     13  C   UNL     1       4.317 -10.156 -16.559  1.00  0.00    -0.000 C 
BRANCH  13  14
ATOM     14  C   UNL     1       2.916  -9.751 -17.044  1.00  0.00    -0.000 C 
BRANCH  14  15
ATOM     15  C   UNL     1       2.671 -10.115 -18.519  1.00  0.00    -0.000 C 
BRANCH  15  16
ATOM     16  C   UNL     1       3.827 -10.927 -19.126  1.00  0.00    -0.000 C 
BRANCH  16  17
ATOM     17  C   UNL     1       4.608 -10.139 -20.187  1.00  0.00    -0.003 C 
ATOM     18  C   UNL     1       6.037 -10.660 -20.317  1.00  0.00     0.004 C 
ENDBRANCH  16  17
ENDBRANCH  15  16
ENDBRANCH  14  15
ENDBRANCH  13  14
ENDBRANCH  12  13
ENDBRANCH  11  12
ENDBRANCH   1  11
TORSDOF 14
ENDMDL
MODEL 3
REMARK VINA RESULT:    -4.656      3.818      7.264
REMARK INTER + INTRA:          -9.830
REMARK INTER:                  -8.642
REMARK INTRA:                  -1.189
REMARK UNBOUND:                -1.364
REMARK SMILES CCCCCCCCCCCCCCCC(=O)[O-]
REMARK SMILES IDX 9 1 10 2 11 3 12 4 13 5 14 6 15 7 16 8 17 9 18 10 8 11 7 12
REMARK SMILES IDX 6 13 5 14 4 15 3 16 2 17 1 18
REMARK H PARENT
REMARK Flexibility Score: inf
ROOT
ATOM      1  C   UNL     1       2.377 -13.352 -15.803  1.00  0.00     0.000 C 
ENDROOT
BRANCH   1   2
ATOM      2  C   UNL     1       2.799 -13.544 -17.269  1.00  0.00     0.000 C 
BRANCH   2   3
ATOM      3  C   UNL     1       1.616 -13.908 -18.184  1.00  0.00     0.000 C 
BRANCH   3   4
ATOM      4  C   UNL     1       1.014 -15.283 -17.854  1.00  0.00     0.000 C 
BRANCH   4   5
ATOM      5  C   UNL     1      -0.335 -15.520 -18.555  1.00  0.00     0.000 C 
BRANCH   5   6
ATOM      6  C   UNL     1      -0.530 -16.984 -18.982  1.00  0.00     0.006 C 
BRANCH   6   7
ATOM      7  C   UNL     1       0.709 -17.848 -18.714  1.00  0.00     0.053 C 
BRANCH   7   8
ATOM      8  C   UNL     1       0.335 -19.296 -18.663  1.00  0.00     0.041 C 
ATOM      9  O   UNL     1       0.429 -20.012 -19.695  1.00  0.00    -0.550 OA
ATOM     10  O   UNL     1      -0.071 -19.868 -17.464  1.00  0.00    -0.550 OA
ENDBRANCH   7   8
ENDBRANCH   6   7
ENDBRANCH   5   6
ENDBRANCH   4   5
ENDBRANCH   3   4
ENDBRANCH   2   3
ENDBRANCH   1   2
BRANCH   1  11
ATOM     11  C   UNL     1       3.212 -12.278 -15.084  1.00  0.00     0.000 C 
BRANCH  11  12
ATOM     12  C   UNL     1       4.337 -11.712 -15.967  1.00  0.00    -0.000 C 
BRANCH  12  13
ATOM     13  C   UNL     1       4.236 -10.188 -16.152  1.00  0.00    -0.000 C 
BRANCH  13  14
ATOM     14  C   UNL     1       2.974  -9.771 -16.924  1.00  0.00    -0.000 C 
BRANCH  14  15
ATOM     15  C   UNL     1       2.911 -10.384 -18.334  1.00  0.00    -0.000 C 
BRANCH  15  16
ATOM     16  C   UNL     1       4.112  -9.983 -19.205  1.00  0.00    -0.000 C 
BRANCH  16  17
ATOM     17  C   UNL     1       5.003 -11.180 -19.568  1.00  0.00    -0.003 C 
ATOM     18  C   UNL     1       6.175 -10.748 -20.446  1.00  0.00     0.004 C 
ENDBRANCH  16  17
ENDBRANCH  15  16
ENDBRANCH  14  15
ENDBRANCH  13  14
ENDBRANCH  12  13
ENDBRANCH  11  12
ENDBRANCH   1  11
TORSDOF 14
ENDMDL
MODEL 4
REMARK VINA RESULT:    -4.578      3.963      7.689
REMARK INTER + INTRA:          -9.689
REMARK INTER:                  -8.521
REMARK INTRA:                  -1.167
REMARK UNBOUND:                -1.364
REMARK SMILES CCCCCCCCCCCCCCCC(=O)[O-]
REMARK SMILES IDX 9 1 10 2 11 3 12 4 13 5 14 6 15 7 16 8 17 9 18 10 8 11 7 12
REMARK SMILES IDX 6 13 5 14 4 15 3 16 2 17 1 18
REMARK H PARENT
REMARK Flexibility Score: inf
ROOT
ATOM      1  C   UNL     1       2.786 -12.451 -18.112  1.00  0.00     0.000 C 
ENDROOT
BRANCH   1   2
ATOM      2  C   UNL     1       2.033 -13.614 -18.777  1.00  0.00     0.000 C 
BRANCH   2   3
ATOM      3  C   UNL     1       1.425 -14.590 -17.752  1.00  0.00     0.000 C 
BRANCH   3   4
ATOM      4  C   UNL     1       0.379 -15.526 -18.377  1.00  0.00     0.000 C 
BRANCH   4   5
ATOM      5  C   UNL     1       0.922 -16.948 -18.606  1.00  0.00     0.000 C 
BRANCH   5   6
ATOM      6  C   UNL     1      -0.164 -17.925 -19.085  1.00  0.00     0.006 C 
BRANCH   6   7
ATOM      7  C   UNL     1       0.245 -19.394 -18.918  1.00  0.00     0.053 C 
BRANCH   7   8
ATOM      8  C   UNL     1       0.238 -19.776 -17.472  1.00  0.00     0.041 C 
ATOM      9  O   UNL     1      -0.851 -20.011 -16.884  1.00  0.00    -0.550 OA
ATOM     10  O   UNL     1       1.436 -19.922 -16.785  1.00  0.00    -0.550 OA
ENDBRANCH   7   8
ENDBRANCH   6   7
ENDBRANCH   5   6
ENDBRANCH   4   5
ENDBRANCH   3   4
ENDBRANCH   2   3
ENDBRANCH   1   2
BRANCH   1  11
ATOM     11  C   UNL     1       3.596 -11.619 -19.121  1.00  0.00     0.000 C 
BRANCH  11  12
ATOM     12  C   UNL     1       3.684 -10.134 -18.732  1.00  0.00    -0.000 C 
BRANCH  12  13
ATOM     13  C   UNL     1       2.870  -9.801 -17.470  1.00  0.00    -0.000 C 
BRANCH  13  14
ATOM     14  C   UNL     1       3.754  -9.316 -16.310  1.00  0.00    -0.000 C 
BRANCH  14  15
ATOM     15  C   UNL     1       4.687 -10.417 -15.775  1.00  0.00    -0.000 C 
BRANCH  15  16
ATOM     16  C   UNL     1       4.175 -11.039 -14.466  1.00  0.00    -0.000 C 
BRANCH  16  17
ATOM     17  C   UNL     1       3.932 -12.550 -14.586  1.00  0.00    -0.003 C 
ATOM     18  C   UNL     1       2.440 -12.869 -14.586  1.00  0.00     0.004 C 
ENDBRANCH  16  17
ENDBRANCH  15  16
ENDBRANCH  14  15
ENDBRANCH  13  14
ENDBRANCH  12  13
ENDBRANCH  11  12
ENDBRANCH   1  11
TORSDOF 14
ENDMDL
MODEL 5
REMARK VINA RESULT:    -4.548      3.419      5.793
REMARK INTER + INTRA:          -9.634
REMARK INTER:                  -8.157
REMARK INTRA:                  -1.478
REMARK UNBOUND:                -1.364
REMARK SMILES CCCCCCCCCCCCCCCC(=O)[O-]
REMARK SMILES IDX 9 1 10 2 11 3 12 4 13 5 14 6 15 7 16 8 17 9 18 10 8 11 7 12
REMARK SMILES IDX 6 13 5 14 4 15 3 16 2 17 1 18
REMARK H PARENT
REMARK Flexibility Score: inf
ROOT
ATOM      1  C   UNL     1       2.066 -13.362 -15.432  1.00  0.00     0.000 C 
ENDROOT
BRANCH   1   2
ATOM      2  C   UNL     1       2.731 -12.450 -14.388  1.00  0.00     0.000 C 
BRANCH   2   3
ATOM      3  C   UNL     1       4.261 -12.378 -14.552  1.00  0.00     0.000 C 
BRANCH   3   4
ATOM      4  C   UNL     1       4.731 -11.035 -15.132  1.00  0.00     0.000 C 
BRANCH   4   5
ATOM      5  C   UNL     1       4.715  -9.904 -14.089  1.00  0.00     0.000 C 
BRANCH   5   6
ATOM      6  C   UNL     1       4.191  -8.578 -14.664  1.00  0.00     0.006 C 
BRANCH   6   7
ATOM      7  C   UNL     1       4.200  -7.441 -13.634  1.00  0.00     0.053 C 
BRANCH   7   8
ATOM      8  C   UNL     1       2.990  -6.577 -13.799  1.00  0.00     0.041 C 
ATOM      9  O   UNL     1       2.614  -6.227 -14.949  1.00  0.00    -0.550 OA
ATOM     10  O   UNL     1       2.249  -6.198 -12.687  1.00  0.00    -0.550 OA
ENDBRANCH   7   8
ENDBRANCH   6   7
ENDBRANCH   5   6
ENDBRANCH   4   5
ENDBRANCH   3   4
ENDBRANCH   2   3
ENDBRANCH   1   2
BRANCH   1  11
ATOM     11  C   UNL     1       2.946 -13.573 -16.677  1.00  0.00     0.000 C 
BRANCH  11  12
ATOM     12  C   UNL     1       2.145 -13.509 -17.988  1.00  0.00    -0.000 C 
BRANCH  12  13
ATOM     13  C   UNL     1       2.651 -12.413 -18.941  1.00  0.00    -0.000 C 
BRANCH  13  14
ATOM     14  C   UNL     1       2.647 -11.020 -18.290  1.00  0.00    -0.000 C 
BRANCH  14  15
ATOM     15  C   UNL     1       4.019 -10.327 -18.366  1.00  0.00    -0.000 C 
BRANCH  15  16
ATOM     16  C   UNL     1       5.137 -11.280 -18.817  1.00  0.00    -0.000 C 
BRANCH  16  17
ATOM     17  C   UNL     1       5.809 -10.827 -20.122  1.00  0.00    -0.003 C 
ATOM     18  C   UNL     1       4.818 -10.098 -21.026  1.00  0.00     0.004 C 
ENDBRANCH  16  17
ENDBRANCH  15  16
ENDBRANCH  14  15
ENDBRANCH  13  14
ENDBRANCH  12  13
ENDBRANCH  11  12
ENDBRANCH   1  11
TORSDOF 14
ENDMDL
MODEL 6
REMARK VINA RESULT:    -4.451      1.021      1.593
REMARK INTER + INTRA:          -9.459
REMARK INTER:                  -8.026
REMARK INTRA:                  -1.433
REMARK UNBOUND:                -1.364
REMARK SMILES CCCCCCCCCCCCCCCC(=O)[O-]
REMARK SMILES IDX 9 1 10 2 11 3 12 4 13 5 14 6 15 7 16 8 17 9 18 10 8 11 7 12
REMARK SMILES IDX 6 13 5 14 4 15 3 16 2 17 1 18
REMARK H PARENT
REMARK Flexibility Score: inf
ROOT
ATOM      1  C   UNL     1       3.983 -12.528 -14.704  1.00  0.00     0.000 C 
ENDROOT
BRANCH   1   2
ATOM      2  C   UNL     1       4.253 -11.017 -14.628  1.00  0.00     0.000 C 
BRANCH   2   3
ATOM      3  C   UNL     1       4.590 -10.405 -16.001  1.00  0.00     0.000 C 
BRANCH   3   4
ATOM      4  C   UNL     1       3.484  -9.474 -16.520  1.00  0.00     0.000 C 
BRANCH   4   5
ATOM      5  C   UNL     1       2.844  -9.988 -17.822  1.00  0.00     0.000 C 
BRANCH   5   6
ATOM      6  C   UNL     1       3.783  -9.857 -19.033  1.00  0.00     0.006 C 
BRANCH   6   7
ATOM      7  C   UNL     1       4.292 -11.213 -19.536  1.00  0.00     0.053 C 
BRANCH   7   8
ATOM      8  C   UNL     1       5.789 -11.239 -19.542  1.00  0.00     0.041 C 
ATOM      9  O   UNL     1       6.428 -10.711 -20.490  1.00  0.00    -0.550 OA
ATOM     10  O   UNL     1       6.479 -11.802 -18.476  1.00  0.00    -0.550 OA
ENDBRANCH   7   8
ENDBRANCH   6   7
ENDBRANCH   5   6
ENDBRANCH   4   5
ENDBRANCH   3   4
ENDBRANCH   2   3
ENDBRANCH   1   2
BRANCH   1  11
ATOM     11  C   UNL     1       2.482 -12.863 -14.644  1.00  0.00     0.000 C 
BRANCH  11  12
ATOM     12  C   UNL     1       2.018 -13.723 -15.831  1.00  0.00    -0.000 C 
BRANCH  12  13
ATOM     13  C   UNL     1       2.747 -13.373 -17.140  1.00  0.00    -0.000 C 
BRANCH  13  14
ATOM     14  C   UNL     1       2.028 -13.927 -18.381  1.00  0.00    -0.000 C 
BRANCH  14  15
ATOM     15  C   UNL     1       0.790 -14.769 -18.022  1.00  0.00    -0.000 C 
BRANCH  15  16
ATOM     16  C   UNL     1       0.944 -16.244 -18.425  1.00  0.00    -0.000 C 
BRANCH  16  17
ATOM     17  C   UNL     1      -0.360 -16.846 -18.968  1.00  0.00    -0.003 C 
ATOM     18  C   UNL     1      -1.555 -15.953 -18.645  1.00  0.00     0.004 C 
ENDBRANCH  16  17
ENDBRANCH  15  16
ENDBRANCH  14  15
ENDBRANCH  13  14
ENDBRANCH  12  13
ENDBRANCH  11  12
ENDBRANCH   1  11
TORSDOF 14
ENDMDL
MODEL 7
REMARK VINA RESULT:    -4.361      3.959      7.725
REMARK INTER + INTRA:          -9.294
REMARK INTER:                  -8.200
REMARK INTRA:                  -1.094
REMARK UNBOUND:                -1.364
REMARK SMILES CCCCCCCCCCCCCCCC(=O)[O-]
REMARK SMILES IDX 9 1 10 2 11 3 12 4 13 5 14 6 15 7 16 8 17 9 18 10 8 11 7 12
REMARK SMILES IDX 6 13 5 14 4 15 3 16 2 17 1 18
REMARK H PARENT
REMARK Flexibility Score: inf
ROOT
ATOM      1  C   UNL     1       2.760 -13.475 -17.503  1.00  0.00     0.000 C 
ENDROOT
BRANCH   1   2
ATOM      2  C   UNL     1       1.591 -13.928 -18.393  1.00  0.00     0.000 C 
BRANCH   2   3
ATOM      3  C   UNL     1       0.939 -15.232 -17.896  1.00  0.00     0.000 C 
BRANCH   3   4
ATOM      4  C   UNL     1      -0.370 -15.556 -18.633  1.00  0.00     0.000 C 
BRANCH   4   5
ATOM      5  C   UNL     1      -0.637 -17.068 -18.723  1.00  0.00     0.000 C 
BRANCH   5   6
ATOM      6  C   UNL     1       0.647 -17.883 -18.951  1.00  0.00     0.006 C 
BRANCH   6   7
ATOM      7  C   UNL     1       0.423 -19.394 -18.806  1.00  0.00     0.053 C 
BRANCH   7   8
ATOM      8  C   UNL     1       0.348 -19.774 -17.360  1.00  0.00     0.041 C 
ATOM      9  O   UNL     1       1.400 -19.860 -16.673  1.00  0.00    -0.550 OA
ATOM     10  O   UNL     1      -0.886 -19.985 -16.760  1.00  0.00    -0.550 OA
ENDBRANCH   7   8
ENDBRANCH   6   7
ENDBRANCH   5   6
ENDBRANCH   4   5
ENDBRANCH   3   4
ENDBRANCH   2   3
ENDBRANCH   1   2
BRANCH   1  11
ATOM     11  C   UNL     1       2.386 -13.442 -16.010  1.00  0.00     0.000 C 
BRANCH  11  12
ATOM     12  C   UNL     1       3.171 -12.379 -15.225  1.00  0.00    -0.000 C 
BRANCH  12  13
ATOM     13  C   UNL     1       4.303 -11.744 -16.051  1.00  0.00    -0.000 C 
BRANCH  13  14
ATOM     14  C   UNL     1       4.264 -10.208 -16.021  1.00  0.00    -0.000 C 
BRANCH  14  15
ATOM     15  C   UNL     1       3.172  -9.625 -16.935  1.00  0.00    -0.000 C 
BRANCH  15  16
ATOM     16  C   UNL     1       3.065 -10.369 -18.276  1.00  0.00    -0.000 C 
BRANCH  16  17
ATOM     17  C   UNL     1       4.167  -9.963 -19.265  1.00  0.00    -0.003 C 
ATOM     18  C   UNL     1       5.035 -11.160 -19.644  1.00  0.00     0.004 C 
ENDBRANCH  16  17
ENDBRANCH  15  16
ENDBRANCH  14  15
ENDBRANCH  13  14
ENDBRANCH  12  13
ENDBRANCH  11  12
ENDBRANCH   1  11
TORSDOF 14
ENDMDL
MODEL 8
REMARK VINA RESULT:    -4.174      2.372      3.848
REMARK INTER + INTRA:          -8.955
REMARK INTER:                  -7.686
REMARK INTRA:                  -1.269
REMARK UNBOUND:                -1.364
REMARK SMILES CCCCCCCCCCCCCCCC(=O)[O-]
REMARK SMILES IDX 9 1 10 2 11 3 12 4 13 5 14 6 15 7 16 8 17 9 18 10 8 11 7 12
REMARK SMILES IDX 6 13 5 14 4 15 3 16 2 17 1 18
REMARK H PARENT
REMARK Flexibility Score: inf
ROOT
ATOM      1  C   UNL     1       2.356 -13.652 -18.732  1.00  0.00     0.000 C 
ENDROOT
BRANCH   1   2
ATOM      2  C   UNL     1       2.413 -12.132 -18.510  1.00  0.00     0.000 C 
BRANCH   2   3
ATOM      3  C   UNL     1       3.719 -11.505 -19.032  1.00  0.00     0.000 C 
BRANCH   3   4
ATOM      4  C   UNL     1       3.866 -10.028 -18.636  1.00  0.00     0.000 C 
BRANCH   4   5
ATOM      5  C   UNL     1       3.519  -9.777 -17.158  1.00  0.00     0.000 C 
BRANCH   5   6
ATOM      6  C   UNL     1       4.569 -10.359 -16.198  1.00  0.00     0.006 C 
BRANCH   6   7
ATOM      7  C   UNL     1       3.942 -10.999 -14.952  1.00  0.00     0.053 C 
BRANCH   7   8
ATOM      8  C   UNL     1       3.698 -12.457 -15.181  1.00  0.00     0.041 C 
ATOM      9  O   UNL     1       4.550 -13.154 -15.793  1.00  0.00    -0.550 OA
ATOM     10  O   UNL     1       2.553 -13.059 -14.674  1.00  0.00    -0.550 OA
ENDBRANCH   7   8
ENDBRANCH   6   7
ENDBRANCH   5   6
ENDBRANCH   4   5
ENDBRANCH   3   4
ENDBRANCH   2   3
ENDBRANCH   1   2
BRANCH   1  11
ATOM     11  C   UNL     1       1.418 -14.358 -17.737  1.00  0.00     0.000 C 
BRANCH  11  12
ATOM     12  C   UNL     1       0.707 -15.574 -18.353  1.00  0.00    -0.000 C 
BRANCH  12  13
ATOM     13  C   UNL     1      -0.775 -15.301 -18.666  1.00  0.00    -0.000 C 
BRANCH  13  14
ATOM     14  C   UNL     1      -1.616 -16.588 -18.701  1.00  0.00    -0.000 C 
BRANCH  14  15
ATOM     15  C   UNL     1      -1.188 -17.545 -19.828  1.00  0.00    -0.000 C 
BRANCH  15  16
ATOM     16  C   UNL     1      -1.005 -18.990 -19.336  1.00  0.00    -0.000 C 
BRANCH  16  17
ATOM     17  C   UNL     1       0.472 -19.368 -19.153  1.00  0.00    -0.003 C 
ATOM     18  C   UNL     1       0.889 -19.265 -17.688  1.00  0.00     0.004 C 
ENDBRANCH  16  17
ENDBRANCH  15  16
ENDBRANCH  14  15
ENDBRANCH  13  14
ENDBRANCH  12  13
ENDBRANCH  11  12
ENDBRANCH   1  11
TORSDOF 14
ENDMDL
MODEL 9
REMARK VINA RESULT:    -3.782      2.324      4.435
REMARK INTER + INTRA:          -8.242
REMARK INTER:                  -7.553
REMARK INTRA:                  -0.689
REMARK UNBOUND:                -1.364
REMARK SMILES CCCCCCCCCCCCCCCC(=O)[O-]
REMARK SMILES IDX 9 1 10 2 11 3 12 4 13 5 14 6 15 7 16 8 17 9 18 10 8 11 7 12
REMARK SMILES IDX 6 13 5 14 4 15 3 16 2 17 1 18
REMARK H PARENT
REMARK Flexibility Score: inf
ROOT
ATOM      1  C   UNL     1       0.439 -15.666 -18.380  1.00  0.00     0.000 C 
ENDROOT
BRANCH   1   2
ATOM      2  C   UNL     1       1.163 -14.516 -17.661  1.00  0.00     0.000 C 
BRANCH   2   3
ATOM      3  C   UNL     1       2.099 -13.728 -18.596  1.00  0.00     0.000 C 
BRANCH   3   4
ATOM      4  C   UNL     1       2.768 -12.535 -17.894  1.00  0.00     0.000 C 
BRANCH   4   5
ATOM      5  C   UNL     1       2.753 -11.260 -18.756  1.00  0.00     0.000 C 
BRANCH   5   6
ATOM      6  C   UNL     1       3.734 -10.192 -18.247  1.00  0.00     0.006 C 
BRANCH   6   7
ATOM      7  C   UNL     1       3.335  -9.626 -16.878  1.00  0.00     0.053 C 
BRANCH   7   8
ATOM      8  C   UNL     1       4.285 -10.095 -15.822  1.00  0.00     0.041 C 
ATOM      9  O   UNL     1       4.816 -11.234 -15.907  1.00  0.00    -0.550 OA
ATOM     10  O   UNL     1       4.624  -9.254 -14.769  1.00  0.00    -0.550 OA
ENDBRANCH   7   8
ENDBRANCH   6   7
ENDBRANCH   5   6
ENDBRANCH   4   5
ENDBRANCH   3   4
ENDBRANCH   2   3
ENDBRANCH   1   2
BRANCH   1  11
ATOM     11  C   UNL     1      -1.030 -15.333 -18.693  1.00  0.00     0.000 C 
BRANCH  11  12
ATOM     12  C   UNL     1      -1.881 -16.588 -18.951  1.00  0.00    -0.000 C 
BRANCH  12  13
ATOM     13  C   UNL     1      -1.382 -17.407 -20.154  1.00  0.00    -0.000 C 
BRANCH  13  14
ATOM     14  C   UNL     1      -2.125 -18.744 -20.304  1.00  0.00    -0.000 C 
BRANCH  14  15
ATOM     15  C   UNL     1      -1.207 -19.960 -20.082  1.00  0.00    -0.000 C 
BRANCH  15  16
ATOM     16  C   UNL     1       0.129 -19.578 -19.425  1.00  0.00    -0.000 C 
BRANCH  16  17
ATOM     17  C   UNL     1       0.217 -20.028 -17.960  1.00  0.00    -0.003 C 
ATOM     18  C   UNL     1       1.402 -19.375 -17.254  1.00  0.00     0.004 C 
ENDBRANCH  16  17
ENDBRANCH  15  16
ENDBRANCH  14  15
ENDBRANCH  13  14
ENDBRANCH  12  13
ENDBRANCH  11  12
ENDBRANCH   1  11
TORSDOF 14
ENDMDL
