MODEL 1
REMARK VINA RESULT:    -4.263      0.000      0.000
REMARK INTER + INTRA:          -5.131
REMARK INTER:                  -5.011
REMARK INTRA:                  -0.120
REMARK UNBOUND:                -0.120
REMARK SMILES O=C([O-])CCC(=O)[O-]
REMARK SMILES IDX 4 1 2 2 1 3 3 4 5 5 6 6 7 7 8 8
REMARK H PARENT
REMARK Flexibility Score: inf
ROOT
ATOM      1  C   UNL     1     154.403 168.014 148.110  1.00  0.00     0.059 C 
ENDROOT
BRANCH   1   2
ATOM      2  C   UNL     1     153.882 167.527 146.792  1.00  0.00     0.042 C 
ATOM      3  O   UNL     1     152.817 168.003 146.317  1.00  0.00    -0.550 OA
ATOM      4  O   UNL     1     154.551 166.521 146.108  1.00  0.00    -0.550 OA
ENDBRANCH   1   2
BRANCH   1   5
ATOM      5  C   UNL     1     153.629 167.400 149.282  1.00  0.00     0.059 C 
BRANCH   5   6
ATOM      6  C   UNL     1     152.678 168.386 149.889  1.00  0.00     0.042 C 
ATOM      7  O   UNL     1     152.542 169.532 149.384  1.00  0.00    -0.550 OA
ATOM      8  O   UNL     1     151.970 168.052 151.037  1.00  0.00    -0.550 OA
ENDBRANCH   5   6
ENDBRANCH   1   5
TORSDOF 3
ENDMDL
MODEL 2
REMARK VINA RESULT:    -4.239      0.279      3.887
REMARK INTER + INTRA:          -5.103
REMARK INTER:                  -4.980
REMARK INTRA:                  -0.123
REMARK UNBOUND:                -0.120
REMARK SMILES O=C([O-])CCC(=O)[O-]
REMARK SMILES IDX 4 1 2 2 1 3 3 4 5 5 6 6 7 7 8 8
REMARK H PARENT
REMARK Flexibility Score: inf
ROOT
ATOM      1  C   UNL     1     153.423 167.358 149.199  1.00  0.00     0.059 C 
ENDROOT
BRANCH   1   2
ATOM      2  C   UNL     1     152.588 168.362 149.934  1.00  0.00     0.042 C 
ATOM      3  O   UNL     1     152.025 168.047 151.016  1.00  0.00    -0.550 OA
ATOM      4  O   UNL     1     152.399 169.631 149.403  1.00  0.00    -0.550 OA
ENDBRANCH   1   2
BRANCH   1   5
ATOM      5  C   UNL     1     154.316 168.028 148.150  1.00  0.00     0.059 C 
BRANCH   5   6
ATOM      6  C   UNL     1     153.864 167.710 146.758  1.00  0.00     0.042 C 
ATOM      7  O   UNL     1     154.647 167.146 145.949  1.00  0.00    -0.550 OA
ATOM      8  O   UNL     1     152.590 168.074 146.341  1.00  0.00    -0.550 OA
ENDBRANCH   5   6
ENDBRANCH   1   5
TORSDOF 3
ENDMDL
MODEL 3
REMARK VINA RESULT:    -3.499     12.666     13.734
REMARK INTER + INTRA:          -4.233
REMARK INTER:                  -4.168
REMARK INTRA:                  -0.064
REMARK UNBOUND:                -0.120
REMARK SMILES O=C([O-])CCC(=O)[O-]
REMARK SMILES IDX 4 1 2 2 1 3 3 4 5 5 6 6 7 7 8 8
REMARK H PARENT
REMARK Flexibility Score: inf
ROOT
ATOM      1  C   UNL     1     162.874 167.332 158.300  1.00  0.00     0.059 C 
ENDROOT
BRANCH   1   2
ATOM      2  C   UNL     1     163.437 166.329 159.261  1.00  0.00     0.042 C 
ATOM      3  O   UNL     1     164.434 165.631 158.937  1.00  0.00    -0.550 OA
ATOM      4  O   UNL     1     162.835 166.137 160.498  1.00  0.00    -0.550 OA
ENDBRANCH   1   2
BRANCH   1   5
ATOM      5  C   UNL     1     162.870 166.795 156.865  1.00  0.00     0.059 C 
BRANCH   5   6
ATOM      6  C   UNL     1     161.515 166.294 156.469  1.00  0.00     0.042 C 
ATOM      7  O   UNL     1     160.983 166.680 155.394  1.00  0.00    -0.550 OA
ATOM      8  O   UNL     1     160.821 165.430 157.307  1.00  0.00    -0.550 OA
ENDBRANCH   5   6
ENDBRANCH   1   5
TORSDOF 3
ENDMDL
MODEL 4
REMARK VINA RESULT:    -3.475     13.441     14.320
REMARK INTER + INTRA:          -4.205
REMARK INTER:                  -4.086
REMARK INTRA:                  -0.119
REMARK UNBOUND:                -0.120
REMARK SMILES O=C([O-])CCC(=O)[O-]
REMARK SMILES IDX 4 1 2 2 1 3 3 4 5 5 6 6 7 7 8 8
REMARK H PARENT
REMARK Flexibility Score: inf
ROOT
ATOM      1  C   UNL     1     161.912 165.410 160.095  1.00  0.00     0.059 C 
ENDROOT
BRANCH   1   2
ATOM      2  C   UNL     1     163.167 166.155 159.756  1.00  0.00     0.042 C 
ATOM      3  O   UNL     1     163.477 167.196 160.394  1.00  0.00    -0.550 OA
ATOM      4  O   UNL     1     163.972 165.723 158.710  1.00  0.00    -0.550 OA
ENDBRANCH   1   2
BRANCH   1   5
ATOM      5  C   UNL     1     160.741 165.847 159.209  1.00  0.00     0.059 C 
BRANCH   5   6
ATOM      6  C   UNL     1     159.843 166.813 159.920  1.00  0.00     0.042 C 
ATOM      7  O   UNL     1     160.184 168.019 160.050  1.00  0.00    -0.550 OA
ATOM      8  O   UNL     1     158.648 166.372 160.475  1.00  0.00    -0.550 OA
ENDBRANCH   5   6
ENDBRANCH   1   5
TORSDOF 3
ENDMDL
MODEL 5
REMARK VINA RESULT:    -3.473     13.629     14.788
REMARK INTER + INTRA:          -4.202
REMARK INTER:                  -4.089
REMARK INTRA:                  -0.114
REMARK UNBOUND:                -0.120
REMARK SMILES O=C([O-])CCC(=O)[O-]
REMARK SMILES IDX 4 1 2 2 1 3 3 4 5 5 6 6 7 7 8 8
REMARK H PARENT
REMARK Flexibility Score: inf
ROOT
ATOM      1  C   UNL     1     161.018 166.050 160.895  1.00  0.00     0.059 C 
ENDROOT
BRANCH   1   2
ATOM      2  C   UNL     1     159.813 166.787 160.396  1.00  0.00     0.042 C 
ATOM      3  O   UNL     1     159.942 167.910 159.840  1.00  0.00    -0.550 OA
ATOM      4  O   UNL     1     158.544 166.253 160.581  1.00  0.00    -0.550 OA
ENDBRANCH   1   2
BRANCH   1   5
ATOM      5  C   UNL     1     161.878 165.530 159.739  1.00  0.00     0.059 C 
BRANCH   5   6
ATOM      6  C   UNL     1     163.231 166.174 159.726  1.00  0.00     0.042 C 
ATOM      7  O   UNL     1     163.467 167.171 160.460  1.00  0.00    -0.550 OA
ATOM      8  O   UNL     1     164.219 165.699 158.873  1.00  0.00    -0.550 OA
ENDBRANCH   5   6
ENDBRANCH   1   5
TORSDOF 3
ENDMDL
MODEL 6
REMARK VINA RESULT:    -3.458     12.783     13.592
REMARK INTER + INTRA:          -4.184
REMARK INTER:                  -4.110
REMARK INTRA:                  -0.075
REMARK UNBOUND:                -0.120
REMARK SMILES O=C([O-])CCC(=O)[O-]
REMARK SMILES IDX 4 1 2 2 1 3 3 4 5 5 6 6 7 7 8 8
REMARK H PARENT
REMARK Flexibility Score: inf
ROOT
ATOM      1  C   UNL     1     162.873 167.049 157.350  1.00  0.00     0.059 C 
ENDROOT
BRANCH   1   2
ATOM      2  C   UNL     1     161.721 166.460 156.594  1.00  0.00     0.042 C 
ATOM      3  O   UNL     1     161.518 166.785 155.394  1.00  0.00    -0.550 OA
ATOM      4  O   UNL     1     160.849 165.584 157.226  1.00  0.00    -0.550 OA
ENDBRANCH   1   2
BRANCH   1   5
ATOM      5  C   UNL     1     163.542 166.010 158.256  1.00  0.00     0.059 C 
BRANCH   5   6
ATOM      6  C   UNL     1     163.116 166.168 159.683  1.00  0.00     0.042 C 
ATOM      7  O   UNL     1     163.566 167.116 160.379  1.00  0.00    -0.550 OA
ATOM      8  O   UNL     1     162.251 165.243 160.257  1.00  0.00    -0.550 OA
ENDBRANCH   5   6
ENDBRANCH   1   5
TORSDOF 3
ENDMDL
MODEL 7
REMARK VINA RESULT:    -3.403     13.621     14.682
REMARK INTER + INTRA:          -4.119
REMARK INTER:                  -3.968
REMARK INTRA:                  -0.151
REMARK UNBOUND:                -0.120
REMARK SMILES O=C([O-])CCC(=O)[O-]
REMARK SMILES IDX 4 1 2 2 1 3 3 4 5 5 6 6 7 7 8 8
REMARK H PARENT
REMARK Flexibility Score: inf
ROOT
ATOM      1  C   UNL     1     160.852 165.107 161.935  1.00  0.00     0.059 C 
ENDROOT
BRANCH   1   2
ATOM      2  C   UNL     1     161.680 164.997 160.690  1.00  0.00     0.042 C 
ATOM      3  O   UNL     1     161.508 164.033 159.899  1.00  0.00    -0.550 OA
ATOM      4  O   UNL     1     162.666 165.938 160.426  1.00  0.00    -0.550 OA
ENDBRANCH   1   2
BRANCH   1   5
ATOM      5  C   UNL     1     160.099 166.440 161.995  1.00  0.00     0.059 C 
BRANCH   5   6
ATOM      6  C   UNL     1     159.302 166.678 160.749  1.00  0.00     0.042 C 
ATOM      7  O   UNL     1     158.287 165.974 160.500  1.00  0.00    -0.550 OA
ATOM      8  O   UNL     1     159.703 167.651 159.842  1.00  0.00    -0.550 OA
ENDBRANCH   5   6
ENDBRANCH   1   5
TORSDOF 3
ENDMDL
MODEL 8
REMARK VINA RESULT:    -3.380     12.730     13.918
REMARK INTER + INTRA:          -4.093
REMARK INTER:                  -3.987
REMARK INTRA:                  -0.107
REMARK UNBOUND:                -0.120
REMARK SMILES O=C([O-])CCC(=O)[O-]
REMARK SMILES IDX 4 1 2 2 1 3 3 4 5 5 6 6 7 7 8 8
REMARK H PARENT
REMARK Flexibility Score: inf
ROOT
ATOM      1  C   UNL     1     162.211 165.101 158.741  1.00  0.00     0.059 C 
ENDROOT
BRANCH   1   2
ATOM      2  C   UNL     1     162.518 165.838 160.009  1.00  0.00     0.042 C 
ATOM      3  O   UNL     1     161.791 165.681 161.025  1.00  0.00    -0.550 OA
ATOM      4  O   UNL     1     163.583 166.728 160.056  1.00  0.00    -0.550 OA
ENDBRANCH   1   2
BRANCH   1   5
ATOM      5  C   UNL     1     161.099 165.792 157.944  1.00  0.00     0.059 C 
BRANCH   5   6
ATOM      6  C   UNL     1     161.638 166.476 156.725  1.00  0.00     0.042 C 
ATOM      7  O   UNL     1     160.934 166.569 155.685  1.00  0.00    -0.550 OA
ATOM      8  O   UNL     1     162.934 166.976 156.726  1.00  0.00    -0.550 OA
ENDBRANCH   5   6
ENDBRANCH   1   5
TORSDOF 3
ENDMDL
MODEL 9
REMARK VINA RESULT:    -3.357     13.764     15.240
REMARK INTER + INTRA:          -4.066
REMARK INTER:                  -3.946
REMARK INTRA:                  -0.120
REMARK UNBOUND:                -0.120
REMARK SMILES O=C([O-])CCC(=O)[O-]
REMARK SMILES IDX 4 1 2 2 1 3 3 4 5 5 6 6 7 7 8 8
REMARK H PARENT
REMARK Flexibility Score: inf
ROOT
ATOM      1  C   UNL     1     161.141 164.652 160.972  1.00  0.00     0.059 C 
ENDROOT
BRANCH   1   2
ATOM      2  C   UNL     1     160.957 164.886 162.440  1.00  0.00     0.042 C 
ATOM      3  O   UNL     1     161.609 164.208 163.277  1.00  0.00    -0.550 OA
ATOM      4  O   UNL     1     160.035 165.825 162.885  1.00  0.00    -0.550 OA
ENDBRANCH   1   2
BRANCH   1   5
ATOM      5  C   UNL     1     161.751 165.875 160.279  1.00  0.00     0.059 C 
BRANCH   5   6
ATOM      6  C   UNL     1     160.768 166.534 159.360  1.00  0.00     0.042 C 
ATOM      7  O   UNL     1     160.857 166.372 158.114  1.00  0.00    -0.550 OA
ATOM      8  O   UNL     1     159.778 167.359 159.877  1.00  0.00    -0.550 OA
ENDBRANCH   5   6
ENDBRANCH   1   5
TORSDOF 3
ENDMDL
