MODEL 1
REMARK VINA RESULT:    -3.860      0.000      0.000
REMARK INTER + INTRA:          -4.601
REMARK INTER:                  -4.424
REMARK INTRA:                  -0.177
REMARK UNBOUND:                -0.177
REMARK SMILES CC=Cc1ccc(O)c(OC)c1
REMARK SMILES IDX 4 1 12 2 9 3 7 4 6 5 5 6 3 7 1 8 2 9 10 10 11 11 8 12
REMARK H PARENT 8 13
REMARK Flexibility Score: inf
ROOT
ATOM      1  C   UNL     1       1.604 -15.463   9.802  1.00  0.00    -0.022 A 
ATOM      2  C   UNL     1       2.337 -14.295   9.541  1.00  0.00     0.058 A 
ATOM      3  C   UNL     1       1.860 -13.339   8.621  1.00  0.00     0.161 A 
ATOM      4  C   UNL     1       0.627 -13.557   7.980  1.00  0.00     0.157 A 
ATOM      5  C   UNL     1      -0.115 -14.708   8.263  1.00  0.00     0.051 A 
ATOM      6  C   UNL     1       0.363 -15.652   9.175  1.00  0.00     0.012 A 
ENDROOT
BRANCH   1   7
ATOM      7  C   UNL     1       2.119 -16.431  10.792  1.00  0.00     0.003 C 
ATOM      8  C   UNL     1       1.403 -15.093  12.789  1.00  0.00     0.035 C 
ATOM      9  C   UNL     1       2.054 -16.266  12.120  1.00  0.00    -0.030 C 
ENDBRANCH   1   7
BRANCH   3  10
ATOM     10  O   UNL     1       2.579 -12.169   8.327  1.00  0.00    -0.493 OA
ATOM     11  C   UNL     1       3.648 -12.093   7.389  1.00  0.00     0.278 C 
ENDBRANCH   3  10
BRANCH   4  12
ATOM     12  O   UNL     1       0.119 -12.638   7.062  1.00  0.00    -0.504 OA
ATOM     13  H   UNL     1       0.554 -12.478   6.161  1.00  0.00     0.293 HD
ENDBRANCH   4  12
TORSDOF 3
ENDMDL
MODEL 2
REMARK VINA RESULT:    -3.854      1.431      2.061
REMARK INTER + INTRA:          -4.595
REMARK INTER:                  -4.357
REMARK INTRA:                  -0.237
REMARK UNBOUND:                -0.177
REMARK SMILES CC=Cc1ccc(O)c(OC)c1
REMARK SMILES IDX 4 1 12 2 9 3 7 4 6 5 5 6 3 7 1 8 2 9 10 10 11 11 8 12
REMARK H PARENT 8 13
REMARK Flexibility Score: inf
ROOT
ATOM      1  C   UNL     1       1.467 -13.448   9.462  1.00  0.00    -0.022 A 
ATOM      2  C   UNL     1       2.687 -13.001   8.933  1.00  0.00     0.058 A 
ATOM      3  C   UNL     1       2.755 -12.480   7.625  1.00  0.00     0.161 A 
ATOM      4  C   UNL     1       1.578 -12.392   6.859  1.00  0.00     0.157 A 
ATOM      5  C   UNL     1       0.358 -12.811   7.399  1.00  0.00     0.051 A 
ATOM      6  C   UNL     1       0.298 -13.327   8.695  1.00  0.00     0.012 A 
ENDROOT
BRANCH   1   7
ATOM      7  C   UNL     1       1.427 -13.964  10.846  1.00  0.00     0.003 C 
ATOM      8  C   UNL     1       1.731 -16.365  10.187  1.00  0.00     0.035 C 
ATOM      9  C   UNL     1       1.521 -15.259  11.177  1.00  0.00    -0.030 C 
ENDBRANCH   1   7
BRANCH   3  10
ATOM     10  O   UNL     1       3.964 -12.041   7.061  1.00  0.00    -0.493 OA
ATOM     11  C   UNL     1       5.182 -11.887   7.783  1.00  0.00     0.278 C 
ENDBRANCH   3  10
BRANCH   4  12
ATOM     12  O   UNL     1       1.599 -11.884   5.560  1.00  0.00    -0.504 OA
ATOM     13  H   UNL     1       0.773 -11.865   4.974  1.00  0.00     0.293 HD
ENDBRANCH   4  12
TORSDOF 3
ENDMDL
MODEL 3
REMARK VINA RESULT:    -3.812      3.381      5.153
REMARK INTER + INTRA:          -4.546
REMARK INTER:                  -4.333
REMARK INTRA:                  -0.213
REMARK UNBOUND:                -0.177
REMARK SMILES CC=Cc1ccc(O)c(OC)c1
REMARK SMILES IDX 4 1 12 2 9 3 7 4 6 5 5 6 3 7 1 8 2 9 10 10 11 11 8 12
REMARK H PARENT 8 13
REMARK Flexibility Score: inf
ROOT
ATOM      1  C   UNL     1       2.101 -16.348  10.095  1.00  0.00    -0.022 A 
ATOM      2  C   UNL     1       1.936 -16.401  11.487  1.00  0.00     0.058 A 
ATOM      3  C   UNL     1       3.023 -16.151  12.350  1.00  0.00     0.161 A 
ATOM      4  C   UNL     1       4.276 -15.827  11.799  1.00  0.00     0.157 A 
ATOM      5  C   UNL     1       4.431 -15.746  10.412  1.00  0.00     0.051 A 
ATOM      6  C   UNL     1       3.351 -15.994   9.563  1.00  0.00     0.012 A 
ENDROOT
BRANCH   1   7
ATOM      7  C   UNL     1       0.935 -16.587   9.221  1.00  0.00     0.003 C 
ATOM      8  C   UNL     1       0.295 -14.167   9.053  1.00  0.00     0.035 C 
ATOM      9  C   UNL     1       0.114 -15.628   8.770  1.00  0.00    -0.030 C 
ENDBRANCH   1   7
BRANCH   3  10
ATOM     10  O   UNL     1       2.892 -16.215  13.747  1.00  0.00    -0.493 OA
ATOM     11  C   UNL     1       1.676 -15.999  14.455  1.00  0.00     0.278 C 
ENDBRANCH   3  10
BRANCH   4  12
ATOM     12  O   UNL     1       5.379 -15.575  12.615  1.00  0.00    -0.504 OA
ATOM     13  H   UNL     1       5.355 -14.885  13.356  1.00  0.00     0.293 HD
ENDBRANCH   4  12
TORSDOF 3
ENDMDL
MODEL 4
REMARK VINA RESULT:    -3.713      3.000      4.599
REMARK INTER + INTRA:          -4.432
REMARK INTER:                  -4.208
REMARK INTRA:                  -0.225
REMARK UNBOUND:                -0.177
REMARK SMILES CC=Cc1ccc(O)c(OC)c1
REMARK SMILES IDX 4 1 12 2 9 3 7 4 6 5 5 6 3 7 1 8 2 9 10 10 11 11 8 12
REMARK H PARENT 8 13
REMARK Flexibility Score: inf
ROOT
ATOM      1  C   UNL     1       2.164 -16.352  10.191  1.00  0.00    -0.022 A 
ATOM      2  C   UNL     1       3.426 -16.016   9.681  1.00  0.00     0.058 A 
ATOM      3  C   UNL     1       4.494 -15.709  10.549  1.00  0.00     0.161 A 
ATOM      4  C   UNL     1       4.286 -15.764  11.939  1.00  0.00     0.157 A 
ATOM      5  C   UNL     1       3.034 -16.128  12.446  1.00  0.00     0.051 A 
ATOM      6  C   UNL     1       1.981 -16.431  11.581  1.00  0.00     0.012 A 
ENDROOT
BRANCH   1   7
ATOM      7  C   UNL     1       1.074 -16.694   9.254  1.00  0.00     0.003 C 
ATOM      8  C   UNL     1       0.209 -14.347   9.068  1.00  0.00     0.035 C 
ATOM      9  C   UNL     1       0.188 -15.816   8.766  1.00  0.00    -0.030 C 
ENDBRANCH   1   7
BRANCH   3  10
ATOM     10  O   UNL     1       5.764 -15.352  10.067  1.00  0.00    -0.493 OA
ATOM     11  C   UNL     1       6.846 -16.261   9.892  1.00  0.00     0.278 C 
ENDBRANCH   3  10
BRANCH   4  12
ATOM     12  O   UNL     1       5.314 -15.467  12.834  1.00  0.00    -0.504 OA
ATOM     13  H   UNL     1       5.265 -14.681  13.470  1.00  0.00     0.293 HD
ENDBRANCH   4  12
TORSDOF 3
ENDMDL
MODEL 5
REMARK VINA RESULT:    -3.533      4.217      6.168
REMARK INTER + INTRA:          -4.227
REMARK INTER:                  -4.011
REMARK INTRA:                  -0.216
REMARK UNBOUND:                -0.177
REMARK SMILES CC=Cc1ccc(O)c(OC)c1
REMARK SMILES IDX 4 1 12 2 9 3 7 4 6 5 5 6 3 7 1 8 2 9 10 10 11 11 8 12
REMARK H PARENT 8 13
REMARK Flexibility Score: inf
ROOT
ATOM      1  C   UNL     1       2.389 -15.929  12.072  1.00  0.00    -0.022 A 
ATOM      2  C   UNL     1       2.107 -17.099  12.792  1.00  0.00     0.058 A 
ATOM      3  C   UNL     1       1.381 -17.042  14.000  1.00  0.00     0.161 A 
ATOM      4  C   UNL     1       0.923 -15.797  14.468  1.00  0.00     0.157 A 
ATOM      5  C   UNL     1       1.181 -14.635  13.733  1.00  0.00     0.051 A 
ATOM      6  C   UNL     1       1.900 -14.698  12.538  1.00  0.00     0.012 A 
ENDROOT
BRANCH   1   7
ATOM      7  C   UNL     1       3.127 -16.027  10.797  1.00  0.00     0.003 C 
ATOM      8  C   UNL     1       1.085 -16.439   9.400  1.00  0.00     0.035 C 
ATOM      9  C   UNL     1       2.560 -16.275   9.608  1.00  0.00    -0.030 C 
ENDBRANCH   1   7
BRANCH   3  10
ATOM     10  O   UNL     1       1.099 -18.194  14.752  1.00  0.00    -0.493 OA
ATOM     11  C   UNL     1       2.025 -19.248  14.993  1.00  0.00     0.278 C 
ENDBRANCH   3  10
BRANCH   4  12
ATOM     12  O   UNL     1       0.204 -15.694  15.658  1.00  0.00    -0.504 OA
ATOM     13  H   UNL     1      -0.025 -16.503  16.222  1.00  0.00     0.293 HD
ENDBRANCH   4  12
TORSDOF 3
ENDMDL
MODEL 6
REMARK VINA RESULT:    -3.505      6.917      8.876
REMARK INTER + INTRA:          -4.194
REMARK INTER:                  -4.023
REMARK INTRA:                  -0.171
REMARK UNBOUND:                -0.177
REMARK SMILES CC=Cc1ccc(O)c(OC)c1
REMARK SMILES IDX 4 1 12 2 9 3 7 4 6 5 5 6 3 7 1 8 2 9 10 10 11 11 8 12
REMARK H PARENT 8 13
REMARK Flexibility Score: inf
ROOT
ATOM      1  C   UNL     1       3.264 -19.201  15.066  1.00  0.00    -0.022 A 
ATOM      2  C   UNL     1       2.449 -19.878  15.986  1.00  0.00     0.058 A 
ATOM      3  C   UNL     1       1.068 -19.608  16.056  1.00  0.00     0.161 A 
ATOM      4  C   UNL     1       0.507 -18.664  15.176  1.00  0.00     0.157 A 
ATOM      5  C   UNL     1       1.316 -18.013  14.240  1.00  0.00     0.051 A 
ATOM      6  C   UNL     1       2.684 -18.285  14.176  1.00  0.00     0.012 A 
ENDROOT
BRANCH   1   7
ATOM      7  C   UNL     1       4.703 -19.528  15.000  1.00  0.00     0.003 C 
ATOM      8  C   UNL     1       4.386 -21.608  13.634  1.00  0.00     0.035 C 
ATOM      9  C   UNL     1       5.210 -20.606  14.385  1.00  0.00    -0.030 C 
ENDBRANCH   1   7
BRANCH   3  10
ATOM     10  O   UNL     1       0.230 -20.256  16.978  1.00  0.00    -0.493 OA
ATOM     11  C   UNL     1       0.681 -21.157  17.984  1.00  0.00     0.278 C 
ENDBRANCH   3  10
BRANCH   4  12
ATOM     12  O   UNL     1      -0.855 -18.365  15.212  1.00  0.00    -0.504 OA
ATOM     13  H   UNL     1      -1.370 -18.295  16.081  1.00  0.00     0.293 HD
ENDBRANCH   4  12
TORSDOF 3
ENDMDL
MODEL 7
REMARK VINA RESULT:    -3.477     13.899     15.194
REMARK INTER + INTRA:          -4.162
REMARK INTER:                  -3.928
REMARK INTRA:                  -0.235
REMARK UNBOUND:                -0.177
REMARK SMILES CC=Cc1ccc(O)c(OC)c1
REMARK SMILES IDX 4 1 12 2 9 3 7 4 6 5 5 6 3 7 1 8 2 9 10 10 11 11 8 12
REMARK H PARENT 8 13
REMARK Flexibility Score: inf
ROOT
ATOM      1  C   UNL     1       1.387 -28.284   9.512  1.00  0.00    -0.022 A 
ATOM      2  C   UNL     1       2.696 -28.616   9.130  1.00  0.00     0.058 A 
ATOM      3  C   UNL     1       2.961 -29.823   8.452  1.00  0.00     0.161 A 
ATOM      4  C   UNL     1       1.894 -30.686   8.141  1.00  0.00     0.157 A 
ATOM      5  C   UNL     1       0.587 -30.338   8.497  1.00  0.00     0.051 A 
ATOM      6  C   UNL     1       0.331 -29.141   9.168  1.00  0.00     0.012 A 
ENDROOT
BRANCH   1   7
ATOM      7  C   UNL     1       1.140 -26.998  10.196  1.00  0.00     0.003 C 
ATOM      8  C   UNL     1       0.984 -28.006  12.488  1.00  0.00     0.035 C 
ATOM      9  C   UNL     1       0.939 -26.867  11.515  1.00  0.00    -0.030 C 
ENDBRANCH   1   7
BRANCH   3  10
ATOM     10  O   UNL     1       4.263 -30.192   8.073  1.00  0.00    -0.493 OA
ATOM     11  C   UNL     1       4.978 -29.622   6.982  1.00  0.00     0.278 C 
ENDBRANCH   3  10
BRANCH   4  12
ATOM     12  O   UNL     1       2.112 -31.891   7.473  1.00  0.00    -0.504 OA
ATOM     13  H   UNL     1       1.779 -32.776   7.834  1.00  0.00     0.293 HD
ENDBRANCH   4  12
TORSDOF 3
ENDMDL
MODEL 8
REMARK VINA RESULT:    -3.376      2.522      4.955
REMARK INTER + INTRA:          -4.046
REMARK INTER:                  -4.255
REMARK INTRA:                   0.209
REMARK UNBOUND:                -0.177
REMARK SMILES CC=Cc1ccc(O)c(OC)c1
REMARK SMILES IDX 4 1 12 2 9 3 7 4 6 5 5 6 3 7 1 8 2 9 10 10 11 11 8 12
REMARK H PARENT 8 13
REMARK Flexibility Score: inf
ROOT
ATOM      1  C   UNL     1       1.754 -13.466   8.907  1.00  0.00    -0.022 A 
ATOM      2  C   UNL     1       1.425 -14.592   9.675  1.00  0.00     0.058 A 
ATOM      3  C   UNL     1       2.411 -15.538  10.022  1.00  0.00     0.161 A 
ATOM      4  C   UNL     1       3.739 -15.330   9.607  1.00  0.00     0.157 A 
ATOM      5  C   UNL     1       4.070 -14.191   8.866  1.00  0.00     0.051 A 
ATOM      6  C   UNL     1       3.088 -13.258   8.525  1.00  0.00     0.012 A 
ENDROOT
BRANCH   1   7
ATOM      7  C   UNL     1       0.702 -12.480   8.584  1.00  0.00     0.003 C 
ATOM      8  C   UNL     1       1.440 -12.152   6.210  1.00  0.00     0.035 C 
ATOM      9  C   UNL     1       0.567 -11.875   7.396  1.00  0.00    -0.030 C 
ENDBRANCH   1   7
BRANCH   3  10
ATOM     10  O   UNL     1       2.109 -16.685  10.775  1.00  0.00    -0.493 OA
ATOM     11  C   UNL     1       2.102 -16.738  12.198  1.00  0.00     0.278 C 
ENDBRANCH   3  10
BRANCH   4  12
ATOM     12  O   UNL     1       4.746 -16.240   9.926  1.00  0.00    -0.504 OA
ATOM     13  H   UNL     1       4.998 -17.004   9.311  1.00  0.00     0.293 HD
ENDBRANCH   4  12
TORSDOF 3
ENDMDL
