MODEL 1
REMARK VINA RESULT:    -2.517      0.000      0.000
REMARK INTER + INTRA:          -3.587
REMARK INTER:                  -3.253
REMARK INTRA:                  -0.334
REMARK UNBOUND:                -0.334
REMARK SMILES C=CC(=O)CCCCC
REMARK SMILES IDX 6 1 7 2 8 3 9 4 5 5 3 6 4 7 2 8 1 9
REMARK H PARENT
REMARK Flexibility Score: inf
ROOT
ATOM      1  C   UNL     1      18.804  24.505  46.599  1.00  0.00     0.008 C 
ENDROOT
BRANCH   1   2
ATOM      2  C   UNL     1      17.326  24.489  46.183  1.00  0.00     0.000 C 
BRANCH   2   3
ATOM      3  C   UNL     1      17.129  24.818  44.695  1.00  0.00    -0.003 C 
ATOM      4  C   UNL     1      18.450  24.989  43.945  1.00  0.00     0.004 C 
ENDBRANCH   2   3
ENDBRANCH   1   2
BRANCH   1   5
ATOM      5  C   UNL     1      19.078  23.465  47.691  1.00  0.00     0.080 C 
BRANCH   5   6
ATOM      6  C   UNL     1      20.227  22.572  47.305  1.00  0.00     0.155 C 
ATOM      7  O   UNL     1      20.608  21.694  48.125  1.00  0.00    -0.295 OA
BRANCH   6   8
ATOM      8  C   UNL     1      20.910  22.651  45.995  1.00  0.00     0.039 C 
ATOM      9  C   UNL     1      22.224  22.505  45.829  1.00  0.00     0.012 C 
ENDBRANCH   6   8
ENDBRANCH   5   6
ENDBRANCH   1   5
TORSDOF 5
ENDMDL
MODEL 2
REMARK VINA RESULT:    -2.435     18.135     19.806
REMARK INTER + INTRA:          -3.481
REMARK INTER:                  -3.267
REMARK INTRA:                  -0.214
REMARK UNBOUND:                -0.334
REMARK SMILES C=CC(=O)CCCCC
REMARK SMILES IDX 6 1 7 2 8 3 9 4 5 5 3 6 4 7 2 8 1 9
REMARK H PARENT
REMARK Flexibility Score: inf
ROOT
ATOM      1  C   UNL     1      31.425  24.772  31.751  1.00  0.00     0.008 C 
ENDROOT
BRANCH   1   2
ATOM      2  C   UNL     1      31.131  25.122  33.216  1.00  0.00     0.000 C 
BRANCH   2   3
ATOM      3  C   UNL     1      32.388  25.068  34.099  1.00  0.00    -0.003 C 
ATOM      4  C   UNL     1      33.684  25.125  33.289  1.00  0.00     0.004 C 
ENDBRANCH   2   3
ENDBRANCH   1   2
BRANCH   1   5
ATOM      5  C   UNL     1      30.183  24.984  30.877  1.00  0.00     0.080 C 
BRANCH   5   6
ATOM      6  C   UNL     1      30.426  24.499  29.472  1.00  0.00     0.155 C 
ATOM      7  O   UNL     1      29.458  24.483  28.666  1.00  0.00    -0.295 OA
BRANCH   6   8
ATOM      8  C   UNL     1      31.755  24.073  28.981  1.00  0.00     0.039 C 
ATOM      9  C   UNL     1      32.050  22.825  28.618  1.00  0.00     0.012 C 
ENDBRANCH   6   8
ENDBRANCH   5   6
ENDBRANCH   1   5
TORSDOF 5
ENDMDL
MODEL 3
REMARK VINA RESULT:    -2.380      1.675      4.225
REMARK INTER + INTRA:          -3.409
REMARK INTER:                  -3.218
REMARK INTRA:                  -0.192
REMARK UNBOUND:                -0.334
REMARK SMILES C=CC(=O)CCCCC
REMARK SMILES IDX 6 1 7 2 8 3 9 4 5 5 3 6 4 7 2 8 1 9
REMARK H PARENT
REMARK Flexibility Score: inf
ROOT
ATOM      1  C   UNL     1      19.310  22.885  47.737  1.00  0.00     0.008 C 
ENDROOT
BRANCH   1   2
ATOM      2  C   UNL     1      20.796  22.501  47.697  1.00  0.00     0.000 C 
BRANCH   2   3
ATOM      3  C   UNL     1      21.273  22.137  46.282  1.00  0.00    -0.003 C 
ATOM      4  C   UNL     1      22.709  22.584  46.008  1.00  0.00     0.004 C 
ENDBRANCH   2   3
ENDBRANCH   1   2
BRANCH   1   5
ATOM      5  C   UNL     1      19.039  24.118  46.867  1.00  0.00     0.080 C 
BRANCH   5   6
ATOM      6  C   UNL     1      17.561  24.381  46.756  1.00  0.00     0.155 C 
ATOM      7  O   UNL     1      16.877  24.429  47.813  1.00  0.00    -0.295 OA
BRANCH   6   8
ATOM      8  C   UNL     1      16.875  24.623  45.467  1.00  0.00     0.039 C 
ATOM      9  C   UNL     1      17.495  24.655  44.288  1.00  0.00     0.012 C 
ENDBRANCH   6   8
ENDBRANCH   5   6
ENDBRANCH   1   5
TORSDOF 5
ENDMDL
MODEL 4
REMARK VINA RESULT:    -2.343     22.454     23.259
REMARK INTER + INTRA:          -3.362
REMARK INTER:                  -3.411
REMARK INTRA:                   0.050
REMARK UNBOUND:                -0.334
REMARK SMILES C=CC(=O)CCCCC
REMARK SMILES IDX 6 1 7 2 8 3 9 4 5 5 3 6 4 7 2 8 1 9
REMARK H PARENT
REMARK Flexibility Score: inf
ROOT
ATOM      1  C   UNL     1      19.497   7.909  29.679  1.00  0.00     0.008 C 
ENDROOT
BRANCH   1   2
ATOM      2  C   UNL     1      19.596   7.486  28.207  1.00  0.00     0.000 C 
BRANCH   2   3
ATOM      3  C   UNL     1      18.692   6.288  27.875  1.00  0.00    -0.003 C 
ATOM      4  C   UNL     1      17.205   6.640  27.912  1.00  0.00     0.004 C 
ENDBRANCH   2   3
ENDBRANCH   1   2
BRANCH   1   5
ATOM      5  C   UNL     1      20.140   9.283  29.900  1.00  0.00     0.080 C 
BRANCH   5   6
ATOM      6  C   UNL     1      20.126  10.092  28.631  1.00  0.00     0.155 C 
ATOM      7  O   UNL     1      19.021  10.524  28.205  1.00  0.00    -0.295 OA
BRANCH   6   8
ATOM      8  C   UNL     1      21.350  10.436  27.875  1.00  0.00     0.039 C 
ATOM      9  C   UNL     1      22.510  10.763  28.444  1.00  0.00     0.012 C 
ENDBRANCH   6   8
ENDBRANCH   5   6
ENDBRANCH   1   5
TORSDOF 5
ENDMDL
MODEL 5
REMARK VINA RESULT:    -2.264     17.740     19.402
REMARK INTER + INTRA:          -3.259
REMARK INTER:                  -3.107
REMARK INTRA:                  -0.152
REMARK UNBOUND:                -0.334
REMARK SMILES C=CC(=O)CCCCC
REMARK SMILES IDX 6 1 7 2 8 3 9 4 5 5 3 6 4 7 2 8 1 9
REMARK H PARENT
REMARK Flexibility Score: inf
ROOT
ATOM      1  C   UNL     1      31.127  23.678  30.504  1.00  0.00     0.008 C 
ENDROOT
BRANCH   1   2
ATOM      2  C   UNL     1      31.867  23.572  29.163  1.00  0.00     0.000 C 
BRANCH   2   3
ATOM      3  C   UNL     1      31.278  22.486  28.249  1.00  0.00    -0.003 C 
ATOM      4  C   UNL     1      29.819  22.751  27.878  1.00  0.00     0.004 C 
ENDBRANCH   2   3
ENDBRANCH   1   2
BRANCH   1   5
ATOM      5  C   UNL     1      31.177  25.111  31.046  1.00  0.00     0.080 C 
BRANCH   5   6
ATOM      6  C   UNL     1      31.015  25.125  32.542  1.00  0.00     0.155 C 
ATOM      7  O   UNL     1      29.850  25.105  33.022  1.00  0.00    -0.295 OA
BRANCH   6   8
ATOM      8  C   UNL     1      32.159  25.125  33.481  1.00  0.00     0.039 C 
ATOM      9  C   UNL     1      32.035  25.083  34.807  1.00  0.00     0.012 C 
ENDBRANCH   6   8
ENDBRANCH   5   6
ENDBRANCH   1   5
TORSDOF 5
ENDMDL
MODEL 6
REMARK VINA RESULT:    -2.216     17.766     19.501
REMARK INTER + INTRA:          -3.197
REMARK INTER:                  -3.057
REMARK INTRA:                  -0.140
REMARK UNBOUND:                -0.334
REMARK SMILES C=CC(=O)CCCCC
REMARK SMILES IDX 6 1 7 2 8 3 9 4 5 5 3 6 4 7 2 8 1 9
REMARK H PARENT
REMARK Flexibility Score: inf
ROOT
ATOM      1  C   UNL     1      30.598  23.997  32.158  1.00  0.00     0.008 C 
ENDROOT
BRANCH   1   2
ATOM      2  C   UNL     1      31.131  25.124  33.055  1.00  0.00     0.000 C 
BRANCH   2   3
ATOM      3  C   UNL     1      32.342  24.688  33.894  1.00  0.00    -0.003 C 
ATOM      4  C   UNL     1      32.237  25.124  35.355  1.00  0.00     0.004 C 
ENDBRANCH   2   3
ENDBRANCH   1   2
BRANCH   1   5
ATOM      5  C   UNL     1      30.110  24.549  30.814  1.00  0.00     0.080 C 
BRANCH   5   6
ATOM      6  C   UNL     1      31.039  24.148  29.700  1.00  0.00     0.155 C 
ATOM      7  O   UNL     1      32.276  24.100  29.936  1.00  0.00    -0.295 OA
BRANCH   6   8
ATOM      8  C   UNL     1      30.568  23.773  28.348  1.00  0.00     0.039 C 
ATOM      9  C   UNL     1      30.289  22.524  27.976  1.00  0.00     0.012 C 
ENDBRANCH   6   8
ENDBRANCH   5   6
ENDBRANCH   1   5
TORSDOF 5
ENDMDL
MODEL 7
REMARK VINA RESULT:    -2.165     18.109     19.775
REMARK INTER + INTRA:          -3.132
REMARK INTER:                  -2.975
REMARK INTRA:                  -0.157
REMARK UNBOUND:                -0.334
REMARK SMILES C=CC(=O)CCCCC
REMARK SMILES IDX 6 1 7 2 8 3 9 4 5 5 3 6 4 7 2 8 1 9
REMARK H PARENT
REMARK Flexibility Score: inf
ROOT
ATOM      1  C   UNL     1      30.885  23.660  30.179  1.00  0.00     0.008 C 
ENDROOT
BRANCH   1   2
ATOM      2  C   UNL     1      30.661  23.681  28.660  1.00  0.00     0.000 C 
BRANCH   2   3
ATOM      3  C   UNL     1      31.810  23.016  27.885  1.00  0.00    -0.003 C 
ATOM      4  C   UNL     1      33.183  23.558  28.282  1.00  0.00     0.004 C 
ENDBRANCH   2   3
ENDBRANCH   1   2
BRANCH   1   5
ATOM      5  C   UNL     1      30.883  25.082  30.753  1.00  0.00     0.080 C 
BRANCH   5   6
ATOM      6  C   UNL     1      30.980  25.054  32.255  1.00  0.00     0.155 C 
ATOM      7  O   UNL     1      29.919  24.935  32.924  1.00  0.00    -0.295 OA
BRANCH   6   8
ATOM      8  C   UNL     1      32.264  25.125  32.985  1.00  0.00     0.039 C 
ATOM      9  C   UNL     1      32.388  24.924  34.297  1.00  0.00     0.012 C 
ENDBRANCH   6   8
ENDBRANCH   5   6
ENDBRANCH   1   5
TORSDOF 5
ENDMDL
MODEL 8
REMARK VINA RESULT:    -1.921     19.439     21.263
REMARK INTER + INTRA:          -2.817
REMARK INTER:                  -2.524
REMARK INTRA:                  -0.293
REMARK UNBOUND:                -0.334
REMARK SMILES C=CC(=O)CCCCC
REMARK SMILES IDX 6 1 7 2 8 3 9 4 5 5 3 6 4 7 2 8 1 9
REMARK H PARENT
REMARK Flexibility Score: inf
ROOT
ATOM      1  C   UNL     1      32.799  24.248  28.878  1.00  0.00     0.008 C 
ENDROOT
BRANCH   1   2
ATOM      2  C   UNL     1      33.650  24.745  30.054  1.00  0.00     0.000 C 
BRANCH   2   3
ATOM      3  C   UNL     1      35.157  24.676  29.762  1.00  0.00    -0.003 C 
ATOM      4  C   UNL     1      35.512  23.610  28.725  1.00  0.00     0.004 C 
ENDBRANCH   2   3
ENDBRANCH   1   2
BRANCH   1   5
ATOM      5  C   UNL     1      31.576  23.469  29.376  1.00  0.00     0.080 C 
BRANCH   5   6
ATOM      6  C   UNL     1      30.405  24.390  29.593  1.00  0.00     0.155 C 
ATOM      7  O   UNL     1      29.623  24.607  28.629  1.00  0.00    -0.295 OA
BRANCH   6   8
ATOM      8  C   UNL     1      30.106  25.027  30.895  1.00  0.00     0.039 C 
ATOM      9  C   UNL     1      30.367  24.468  32.076  1.00  0.00     0.012 C 
ENDBRANCH   6   8
ENDBRANCH   5   6
ENDBRANCH   1   5
TORSDOF 5
ENDMDL
