MODEL 1
REMARK VINA RESULT:    -3.594      0.000      0.000
REMARK INTER + INTRA:         -13.453
REMARK INTER:                  -9.478
REMARK INTRA:                  -3.975
REMARK UNBOUND:                -3.975
REMARK SMILES CCCCCCCCCCCCCCCCCCCCCCCCCCCCCC(=O)[O-]
REMARK SMILES IDX 16 1 17 2 18 3 19 4 20 5 21 6 22 7 23 8 24 9 25 10 26 11
REMARK SMILES IDX 27 12 28 13 29 14 30 15 31 16 32 17 15 18 14 19 13 20 12 21
REMARK SMILES IDX 11 22 10 23 9 24 8 25 7 26 6 27 5 28 4 29 3 30 2 31 1 32
REMARK H PARENT
REMARK Flexibility Score: inf
ROOT
ATOM      1  C   UNL     1       3.623  12.251  -9.764  1.00  0.00     0.000 C 
ENDROOT
BRANCH   1   2
ATOM      2  C   UNL     1       3.628  13.414 -10.768  1.00  0.00     0.000 C 
BRANCH   2   3
ATOM      3  C   UNL     1       4.409  13.083 -12.055  1.00  0.00     0.000 C 
BRANCH   3   4
ATOM      4  C   UNL     1       5.409  11.928 -11.855  1.00  0.00     0.000 C 
BRANCH   4   5
ATOM      5  C   UNL     1       6.872  12.382 -11.673  1.00  0.00     0.000 C 
BRANCH   5   6
ATOM      6  C   UNL     1       7.606  11.689 -10.506  1.00  0.00     0.000 C 
BRANCH   6   7
ATOM      7  C   UNL     1       8.098  12.692  -9.445  1.00  0.00     0.000 C 
BRANCH   7   8
ATOM      8  C   UNL     1       7.037  13.758  -9.095  1.00  0.00     0.000 C 
BRANCH   8   9
ATOM      9  C   UNL     1       6.496  13.654  -7.655  1.00  0.00     0.000 C 
BRANCH   9  10
ATOM     10  C   UNL     1       7.243  12.663  -6.746  1.00  0.00     0.000 C 
BRANCH  10  11
ATOM     11  C   UNL     1       8.523  13.215  -6.090  1.00  0.00     0.000 C 
BRANCH  11  12
ATOM     12  C   UNL     1       9.265  12.191  -5.203  1.00  0.00     0.000 C 
BRANCH  12  13
ATOM     13  C   UNL     1       9.890  11.046  -6.019  1.00  0.00     0.006 C 
BRANCH  13  14
ATOM     14  C   UNL     1       9.657   9.676  -5.368  1.00  0.00     0.053 C 
BRANCH  14  15
ATOM     15  C   UNL     1      10.936   8.907  -5.217  1.00  0.00     0.041 C 
ATOM     16  O   UNL     1      10.924   7.752  -4.713  1.00  0.00    -0.550 OA
ATOM     17  O   UNL     1      12.134   9.453  -5.661  1.00  0.00    -0.550 OA
ENDBRANCH  14  15
ENDBRANCH  13  14
ENDBRANCH  12  13
ENDBRANCH  11  12
ENDBRANCH  10  11
ENDBRANCH   9  10
ENDBRANCH   8   9
ENDBRANCH   7   8
ENDBRANCH   6   7
ENDBRANCH   5   6
ENDBRANCH   4   5
ENDBRANCH   3   4
ENDBRANCH   2   3
ENDBRANCH   1   2
BRANCH   1  18
ATOM     18  C   UNL     1       2.200  11.784  -9.411  1.00  0.00     0.000 C 
BRANCH  18  19
ATOM     19  C   UNL     1       1.270  11.750 -10.636  1.00  0.00     0.000 C 
BRANCH  19  20
ATOM     20  C   UNL     1       0.792  10.326 -10.970  1.00  0.00     0.000 C 
BRANCH  20  21
ATOM     21  C   UNL     1       1.876   9.476 -11.656  1.00  0.00     0.000 C 
BRANCH  21  22
ATOM     22  C   UNL     1       2.166   8.121 -10.984  1.00  0.00     0.000 C 
BRANCH  22  23
ATOM     23  C   UNL     1       2.570   8.257  -9.505  1.00  0.00     0.000 C 
BRANCH  23  24
ATOM     24  C   UNL     1       1.681   7.412  -8.569  1.00  0.00    -0.000 C 
BRANCH  24  25
ATOM     25  C   UNL     1       0.527   8.199  -7.918  1.00  0.00    -0.000 C 
BRANCH  25  26
ATOM     26  C   UNL     1      -0.850   8.004  -8.573  1.00  0.00    -0.000 C 
BRANCH  26  27
ATOM     27  C   UNL     1      -0.997   6.633  -9.257  1.00  0.00    -0.000 C 
BRANCH  27  28
ATOM     28  C   UNL     1      -1.492   6.750 -10.708  1.00  0.00    -0.000 C 
BRANCH  28  29
ATOM     29  C   UNL     1      -2.164   8.101 -10.994  1.00  0.00    -0.000 C 
BRANCH  29  30
ATOM     30  C   UNL     1      -3.633   7.911 -11.391  1.00  0.00    -0.000 C 
BRANCH  30  31
ATOM     31  C   UNL     1      -4.467   9.142 -11.019  1.00  0.00    -0.003 C 
ATOM     32  C   UNL     1      -3.835   9.908  -9.860  1.00  0.00     0.004 C 
ENDBRANCH  30  31
ENDBRANCH  29  30
ENDBRANCH  28  29
ENDBRANCH  27  28
ENDBRANCH  26  27
ENDBRANCH  25  26
ENDBRANCH  24  25
ENDBRANCH  23  24
ENDBRANCH  22  23
ENDBRANCH  21  22
ENDBRANCH  20  21
ENDBRANCH  19  20
ENDBRANCH  18  19
ENDBRANCH   1  18
TORSDOF 28
ENDMDL
MODEL 2
REMARK VINA RESULT:    -3.557      1.392      2.357
REMARK INTER + INTRA:         -13.356
REMARK INTER:                 -10.027
REMARK INTRA:                  -3.329
REMARK UNBOUND:                -3.975
REMARK SMILES CCCCCCCCCCCCCCCCCCCCCCCCCCCCCC(=O)[O-]
REMARK SMILES IDX 16 1 17 2 18 3 19 4 20 5 21 6 22 7 23 8 24 9 25 10 26 11
REMARK SMILES IDX 27 12 28 13 29 14 30 15 31 16 32 17 15 18 14 19 13 20 12 21
REMARK SMILES IDX 11 22 10 23 9 24 8 25 7 26 6 27 5 28 4 29 3 30 2 31 1 32
REMARK H PARENT
REMARK Flexibility Score: inf
ROOT
ATOM      1  C   UNL     1       3.884  12.616  -9.757  1.00  0.00     0.000 C 
ENDROOT
BRANCH   1   2
ATOM      2  C   UNL     1       4.426  13.371  -8.533  1.00  0.00     0.000 C 
BRANCH   2   3
ATOM      3  C   UNL     1       5.965  13.369  -8.469  1.00  0.00     0.000 C 
BRANCH   3   4
ATOM      4  C   UNL     1       6.610  13.022  -9.825  1.00  0.00     0.000 C 
BRANCH   4   5
ATOM      5  C   UNL     1       8.138  13.224  -9.870  1.00  0.00     0.000 C 
BRANCH   5   6
ATOM      6  C   UNL     1       8.775  12.918 -11.242  1.00  0.00     0.000 C 
BRANCH   6   7
ATOM      7  C   UNL     1       8.057  11.770 -11.978  1.00  0.00     0.000 C 
BRANCH   7   8
ATOM      8  C   UNL     1       8.503  10.376 -11.488  1.00  0.00     0.000 C 
BRANCH   8   9
ATOM      9  C   UNL     1      10.012  10.271 -11.185  1.00  0.00     0.000 C 
BRANCH   9  10
ATOM     10  C   UNL     1      10.373  10.149  -9.695  1.00  0.00     0.000 C 
BRANCH  10  11
ATOM     11  C   UNL     1       9.208   9.747  -8.771  1.00  0.00     0.000 C 
BRANCH  11  12
ATOM     12  C   UNL     1       9.127  10.571  -7.468  1.00  0.00     0.000 C 
BRANCH  12  13
ATOM     13  C   UNL     1      10.433  10.520  -6.655  1.00  0.00     0.006 C 
BRANCH  13  14
ATOM     14  C   UNL     1      10.290   9.675  -5.381  1.00  0.00     0.053 C 
BRANCH  14  15
ATOM     15  C   UNL     1      11.077   8.401  -5.467  1.00  0.00     0.041 C 
ATOM     16  O   UNL     1      11.628   8.069  -6.551  1.00  0.00    -0.550 OA
ATOM     17  O   UNL     1      11.228   7.598  -4.343  1.00  0.00    -0.550 OA
ENDBRANCH  14  15
ENDBRANCH  13  14
ENDBRANCH  12  13
ENDBRANCH  11  12
ENDBRANCH  10  11
ENDBRANCH   9  10
ENDBRANCH   8   9
ENDBRANCH   7   8
ENDBRANCH   6   7
ENDBRANCH   5   6
ENDBRANCH   4   5
ENDBRANCH   3   4
ENDBRANCH   2   3
ENDBRANCH   1   2
BRANCH   1  18
ATOM     18  C   UNL     1       2.555  11.898  -9.465  1.00  0.00     0.000 C 
BRANCH  18  19
ATOM     19  C   UNL     1       1.673  11.758 -10.718  1.00  0.00     0.000 C 
BRANCH  19  20
ATOM     20  C   UNL     1       0.973  10.390 -10.792  1.00  0.00     0.000 C 
BRANCH  20  21
ATOM     21  C   UNL     1       1.722   9.382 -11.682  1.00  0.00     0.000 C 
BRANCH  21  22
ATOM     22  C   UNL     1       2.067   8.043 -11.003  1.00  0.00     0.000 C 
BRANCH  22  23
ATOM     23  C   UNL     1       2.381   8.192  -9.503  1.00  0.00     0.000 C 
BRANCH  23  24
ATOM     24  C   UNL     1       1.418   7.378  -8.614  1.00  0.00    -0.000 C 
BRANCH  24  25
ATOM     25  C   UNL     1       0.291   8.215  -7.977  1.00  0.00    -0.000 C 
BRANCH  25  26
ATOM     26  C   UNL     1      -1.133   7.847  -8.427  1.00  0.00    -0.000 C 
BRANCH  26  27
ATOM     27  C   UNL     1      -1.156   7.066  -9.753  1.00  0.00    -0.000 C 
BRANCH  27  28
ATOM     28  C   UNL     1      -2.536   7.099 -10.431  1.00  0.00    -0.000 C 
BRANCH  28  29
ATOM     29  C   UNL     1      -3.183   8.491 -10.380  1.00  0.00    -0.000 C 
BRANCH  29  30
ATOM     30  C   UNL     1      -2.453   9.471 -11.306  1.00  0.00    -0.000 C 
BRANCH  30  31
ATOM     31  C   UNL     1      -3.103  10.859 -11.260  1.00  0.00    -0.003 C 
ATOM     32  C   UNL     1      -4.121  10.955 -10.128  1.00  0.00     0.004 C 
ENDBRANCH  30  31
ENDBRANCH  29  30
ENDBRANCH  28  29
ENDBRANCH  27  28
ENDBRANCH  26  27
ENDBRANCH  25  26
ENDBRANCH  24  25
ENDBRANCH  23  24
ENDBRANCH  22  23
ENDBRANCH  21  22
ENDBRANCH  20  21
ENDBRANCH  19  20
ENDBRANCH  18  19
ENDBRANCH   1  18
TORSDOF 28
ENDMDL
MODEL 3
REMARK VINA RESULT:    -3.539      1.255      2.268
REMARK INTER + INTRA:         -13.307
REMARK INTER:                 -10.645
REMARK INTRA:                  -2.662
REMARK UNBOUND:                -3.975
REMARK SMILES CCCCCCCCCCCCCCCCCCCCCCCCCCCCCC(=O)[O-]
REMARK SMILES IDX 16 1 17 2 18 3 19 4 20 5 21 6 22 7 23 8 24 9 25 10 26 11
REMARK SMILES IDX 27 12 28 13 29 14 30 15 31 16 32 17 15 18 14 19 13 20 12 21
REMARK SMILES IDX 11 22 10 23 9 24 8 25 7 26 6 27 5 28 4 29 3 30 2 31 1 32
REMARK H PARENT
REMARK Flexibility Score: inf
ROOT
ATOM      1  C   UNL     1       2.228  11.740  -9.317  1.00  0.00     0.000 C 
ENDROOT
BRANCH   1   2
ATOM      2  C   UNL     1       3.503  12.596  -9.262  1.00  0.00     0.000 C 
BRANCH   2   3
ATOM      3  C   UNL     1       4.377  12.440 -10.520  1.00  0.00     0.000 C 
BRANCH   3   4
ATOM      4  C   UNL     1       5.806  12.979 -10.314  1.00  0.00     0.000 C 
BRANCH   4   5
ATOM      5  C   UNL     1       5.958  13.922  -9.103  1.00  0.00     0.000 C 
BRANCH   5   6
ATOM      6  C   UNL     1       6.856  13.366  -7.979  1.00  0.00     0.000 C 
BRANCH   6   7
ATOM      7  C   UNL     1       6.087  13.170  -6.658  1.00  0.00     0.000 C 
BRANCH   7   8
ATOM      8  C   UNL     1       7.017  13.134  -5.426  1.00  0.00     0.000 C 
BRANCH   8   9
ATOM      9  C   UNL     1       7.417  11.712  -4.984  1.00  0.00     0.000 C 
BRANCH   9  10
ATOM     10  C   UNL     1       8.849  11.290  -5.355  1.00  0.00     0.000 C 
BRANCH  10  11
ATOM     11  C   UNL     1       9.908  12.403  -5.245  1.00  0.00     0.000 C 
BRANCH  11  12
ATOM     12  C   UNL     1      11.358  11.911  -5.444  1.00  0.00     0.000 C 
BRANCH  12  13
ATOM     13  C   UNL     1      11.693  10.692  -4.567  1.00  0.00     0.006 C 
BRANCH  13  14
ATOM     14  C   UNL     1      12.462   9.613  -5.343  1.00  0.00     0.053 C 
BRANCH  14  15
ATOM     15  C   UNL     1      11.582   8.456  -5.708  1.00  0.00     0.041 C 
ATOM     16  O   UNL     1      10.821   7.942  -4.845  1.00  0.00    -0.550 OA
ATOM     17  O   UNL     1      11.579   7.966  -7.008  1.00  0.00    -0.550 OA
ENDBRANCH  14  15
ENDBRANCH  13  14
ENDBRANCH  12  13
ENDBRANCH  11  12
ENDBRANCH  10  11
ENDBRANCH   9  10
ENDBRANCH   8   9
ENDBRANCH   7   8
ENDBRANCH   6   7
ENDBRANCH   5   6
ENDBRANCH   4   5
ENDBRANCH   3   4
ENDBRANCH   2   3
ENDBRANCH   1   2
BRANCH   1  18
ATOM     18  C   UNL     1       1.601  11.706 -10.721  1.00  0.00     0.000 C 
BRANCH  18  19
ATOM     19  C   UNL     1       1.008  10.329 -11.068  1.00  0.00     0.000 C 
BRANCH  19  20
ATOM     20  C   UNL     1       2.057   9.373 -11.664  1.00  0.00     0.000 C 
BRANCH  20  21
ATOM     21  C   UNL     1       2.132   8.028 -10.919  1.00  0.00     0.000 C 
BRANCH  21  22
ATOM     22  C   UNL     1       2.566   8.123  -9.444  1.00  0.00     0.000 C 
BRANCH  22  23
ATOM     23  C   UNL     1       1.618   7.375  -8.488  1.00  0.00     0.000 C 
BRANCH  23  24
ATOM     24  C   UNL     1       0.294   8.133  -8.256  1.00  0.00    -0.000 C 
BRANCH  24  25
ATOM     25  C   UNL     1      -0.955   7.387  -8.763  1.00  0.00    -0.000 C 
BRANCH  25  26
ATOM     26  C   UNL     1      -1.293   7.606 -10.247  1.00  0.00    -0.000 C 
BRANCH  26  27
ATOM     27  C   UNL     1      -2.659   7.017 -10.642  1.00  0.00    -0.000 C 
BRANCH  27  28
ATOM     28  C   UNL     1      -3.563   8.046 -11.341  1.00  0.00    -0.000 C 
BRANCH  28  29
ATOM     29  C   UNL     1      -3.446   9.447 -10.725  1.00  0.00    -0.000 C 
BRANCH  29  30
ATOM     30  C   UNL     1      -4.818  10.126 -10.639  1.00  0.00    -0.000 C 
BRANCH  30  31
ATOM     31  C   UNL     1      -5.358  10.456 -12.035  1.00  0.00    -0.003 C 
ATOM     32  C   UNL     1      -5.804  11.913 -12.124  1.00  0.00     0.004 C 
ENDBRANCH  30  31
ENDBRANCH  29  30
ENDBRANCH  28  29
ENDBRANCH  27  28
ENDBRANCH  26  27
ENDBRANCH  25  26
ENDBRANCH  24  25
ENDBRANCH  23  24
ENDBRANCH  22  23
ENDBRANCH  21  22
ENDBRANCH  20  21
ENDBRANCH  19  20
ENDBRANCH  18  19
ENDBRANCH   1  18
TORSDOF 28
ENDMDL
MODEL 4
REMARK VINA RESULT:    -3.498      3.896     10.120
REMARK INTER + INTRA:         -13.197
REMARK INTER:                  -9.599
REMARK INTRA:                  -3.599
REMARK UNBOUND:                -3.975
REMARK SMILES CCCCCCCCCCCCCCCCCCCCCCCCCCCCCC(=O)[O-]
REMARK SMILES IDX 16 1 17 2 18 3 19 4 20 5 21 6 22 7 23 8 24 9 25 10 26 11
REMARK SMILES IDX 27 12 28 13 29 14 30 15 31 16 32 17 15 18 14 19 13 20 12 21
REMARK SMILES IDX 11 22 10 23 9 24 8 25 7 26 6 27 5 28 4 29 3 30 2 31 1 32
REMARK H PARENT
REMARK Flexibility Score: inf
ROOT
ATOM      1  C   UNL     1       7.474  12.041  -5.160  1.00  0.00     0.000 C 
ENDROOT
BRANCH   1   2
ATOM      2  C   UNL     1       7.270  13.491  -5.629  1.00  0.00     0.000 C 
BRANCH   2   3
ATOM      3  C   UNL     1       6.463  13.583  -6.938  1.00  0.00     0.000 C 
BRANCH   3   4
ATOM      4  C   UNL     1       7.295  13.181  -8.172  1.00  0.00     0.000 C 
BRANCH   4   5
ATOM      5  C   UNL     1       6.840  13.848  -9.486  1.00  0.00     0.000 C 
BRANCH   5   6
ATOM      6  C   UNL     1       6.742  12.879 -10.683  1.00  0.00     0.000 C 
BRANCH   6   7
ATOM      7  C   UNL     1       5.304  12.370 -10.908  1.00  0.00     0.000 C 
BRANCH   7   8
ATOM      8  C   UNL     1       5.249  11.122 -11.814  1.00  0.00     0.000 C 
BRANCH   8   9
ATOM      9  C   UNL     1       4.011  10.232 -11.580  1.00  0.00     0.000 C 
BRANCH   9  10
ATOM     10  C   UNL     1       2.865  10.899 -10.801  1.00  0.00     0.000 C 
BRANCH  10  11
ATOM     11  C   UNL     1       2.189  10.007  -9.742  1.00  0.00     0.000 C 
BRANCH  11  12
ATOM     12  C   UNL     1       2.045   8.529 -10.166  1.00  0.00     0.000 C 
BRANCH  12  13
ATOM     13  C   UNL     1       2.018   7.570  -8.963  1.00  0.00     0.006 C 
BRANCH  13  14
ATOM     14  C   UNL     1       0.918   7.934  -7.956  1.00  0.00     0.053 C 
BRANCH  14  15
ATOM     15  C   UNL     1      -0.419   7.398  -8.374  1.00  0.00     0.041 C 
ATOM     16  O   UNL     1      -1.474   8.005  -8.050  1.00  0.00    -0.550 OA
ATOM     17  O   UNL     1      -0.496   6.247  -9.148  1.00  0.00    -0.550 OA
ENDBRANCH  14  15
ENDBRANCH  13  14
ENDBRANCH  12  13
ENDBRANCH  11  12
ENDBRANCH  10  11
ENDBRANCH   9  10
ENDBRANCH   8   9
ENDBRANCH   7   8
ENDBRANCH   6   7
ENDBRANCH   5   6
ENDBRANCH   4   5
ENDBRANCH   3   4
ENDBRANCH   2   3
ENDBRANCH   1   2
BRANCH   1  18
ATOM     18  C   UNL     1       8.917  11.551  -5.370  1.00  0.00     0.000 C 
BRANCH  18  19
ATOM     19  C   UNL     1       8.984  10.058  -5.736  1.00  0.00     0.000 C 
BRANCH  19  20
ATOM     20  C   UNL     1      10.253   9.379  -5.192  1.00  0.00     0.000 C 
BRANCH  20  21
ATOM     21  C   UNL     1      11.533  10.186  -5.478  1.00  0.00     0.000 C 
BRANCH  21  22
ATOM     22  C   UNL     1      12.503   9.537  -6.484  1.00  0.00     0.000 C 
BRANCH  22  23
ATOM     23  C   UNL     1      11.868   8.372  -7.265  1.00  0.00     0.000 C 
BRANCH  23  24
ATOM     24  C   UNL     1      12.815   7.795  -8.339  1.00  0.00    -0.000 C 
BRANCH  24  25
ATOM     25  C   UNL     1      12.954   8.678  -9.594  1.00  0.00    -0.000 C 
BRANCH  25  26
ATOM     26  C   UNL     1      11.952   8.378 -10.721  1.00  0.00    -0.000 C 
BRANCH  26  27
ATOM     27  C   UNL     1      11.737   9.575 -11.664  1.00  0.00    -0.000 C 
BRANCH  27  28
ATOM     28  C   UNL     1      10.415  10.311 -11.388  1.00  0.00    -0.000 C 
BRANCH  28  29
ATOM     29  C   UNL     1       9.781   9.901 -10.051  1.00  0.00    -0.000 C 
BRANCH  29  30
ATOM     30  C   UNL     1       9.718  11.091  -9.085  1.00  0.00    -0.000 C 
BRANCH  30  31
ATOM     31  C   UNL     1      10.918  12.024  -9.282  1.00  0.00    -0.003 C 
ATOM     32  C   UNL     1      11.194  12.841  -8.022  1.00  0.00     0.004 C 
ENDBRANCH  30  31
ENDBRANCH  29  30
ENDBRANCH  28  29
ENDBRANCH  27  28
ENDBRANCH  26  27
ENDBRANCH  25  26
ENDBRANCH  24  25
ENDBRANCH  23  24
ENDBRANCH  22  23
ENDBRANCH  21  22
ENDBRANCH  20  21
ENDBRANCH  19  20
ENDBRANCH  18  19
ENDBRANCH   1  18
TORSDOF 28
ENDMDL
MODEL 5
REMARK VINA RESULT:    -3.460      1.916      3.852
REMARK INTER + INTRA:         -13.097
REMARK INTER:                  -9.511
REMARK INTRA:                  -3.586
REMARK UNBOUND:                -3.975
REMARK SMILES CCCCCCCCCCCCCCCCCCCCCCCCCCCCCC(=O)[O-]
REMARK SMILES IDX 16 1 17 2 18 3 19 4 20 5 21 6 22 7 23 8 24 9 25 10 26 11
REMARK SMILES IDX 27 12 28 13 29 14 30 15 31 16 32 17 15 18 14 19 13 20 12 21
REMARK SMILES IDX 11 22 10 23 9 24 8 25 7 26 6 27 5 28 4 29 3 30 2 31 1 32
REMARK H PARENT
REMARK Flexibility Score: inf
ROOT
ATOM      1  C   UNL     1       4.781  13.106  -8.473  1.00  0.00     0.000 C 
ENDROOT
BRANCH   1   2
ATOM      2  C   UNL     1       6.042  13.681  -7.807  1.00  0.00     0.000 C 
BRANCH   2   3
ATOM      3  C   UNL     1       6.361  13.006  -6.460  1.00  0.00     0.000 C 
BRANCH   3   4
ATOM      4  C   UNL     1       7.854  12.648  -6.322  1.00  0.00     0.000 C 
BRANCH   4   5
ATOM      5  C   UNL     1       8.730  13.123  -7.499  1.00  0.00     0.000 C 
BRANCH   5   6
ATOM      6  C   UNL     1       9.469  11.985  -8.233  1.00  0.00     0.000 C 
BRANCH   6   7
ATOM      7  C   UNL     1       9.877  12.380  -9.666  1.00  0.00     0.000 C 
BRANCH   7   8
ATOM      8  C   UNL     1      10.153  11.157 -10.567  1.00  0.00     0.000 C 
BRANCH   8   9
ATOM      9  C   UNL     1       9.985   9.802  -9.851  1.00  0.00     0.000 C 
BRANCH   9  10
ATOM     10  C   UNL     1      11.209   8.873  -9.914  1.00  0.00     0.000 C 
BRANCH  10  11
ATOM     11  C   UNL     1      11.513   8.103  -8.615  1.00  0.00     0.000 C 
BRANCH  11  12
ATOM     12  C   UNL     1      12.741   8.634  -7.843  1.00  0.00     0.000 C 
BRANCH  12  13
ATOM     13  C   UNL     1      12.350   9.416  -6.577  1.00  0.00     0.006 C 
BRANCH  13  14
ATOM     14  C   UNL     1      11.173   8.765  -5.835  1.00  0.00     0.053 C 
BRANCH  14  15
ATOM     15  C   UNL     1      10.187   9.787  -5.351  1.00  0.00     0.041 C 
ATOM     16  O   UNL     1       8.954   9.527  -5.352  1.00  0.00    -0.550 OA
ATOM     17  O   UNL     1      10.633  11.012  -4.871  1.00  0.00    -0.550 OA
ENDBRANCH  14  15
ENDBRANCH  13  14
ENDBRANCH  12  13
ENDBRANCH  11  12
ENDBRANCH  10  11
ENDBRANCH   9  10
ENDBRANCH   8   9
ENDBRANCH   7   8
ENDBRANCH   6   7
ENDBRANCH   5   6
ENDBRANCH   4   5
ENDBRANCH   3   4
ENDBRANCH   2   3
ENDBRANCH   1   2
BRANCH   1  18
ATOM     18  C   UNL     1       4.914  13.010 -10.002  1.00  0.00     0.000 C 
BRANCH  18  19
ATOM     19  C   UNL     1       6.329  12.598 -10.446  1.00  0.00     0.000 C 
BRANCH  19  20
ATOM     20  C   UNL     1       6.308  11.559 -11.580  1.00  0.00     0.000 C 
BRANCH  20  21
ATOM     21  C   UNL     1       4.889  11.055 -11.904  1.00  0.00     0.000 C 
BRANCH  21  22
ATOM     22  C   UNL     1       4.708   9.527 -11.833  1.00  0.00     0.000 C 
BRANCH  22  23
ATOM     23  C   UNL     1       3.241   9.104 -11.629  1.00  0.00     0.000 C 
BRANCH  23  24
ATOM     24  C   UNL     1       2.432  10.147 -10.830  1.00  0.00    -0.000 C 
BRANCH  24  25
ATOM     25  C   UNL     1       2.062   9.696  -9.403  1.00  0.00    -0.000 C 
BRANCH  25  26
ATOM     26  C   UNL     1       2.115   8.178  -9.161  1.00  0.00    -0.000 C 
BRANCH  26  27
ATOM     27  C   UNL     1       1.047   7.695  -8.164  1.00  0.00    -0.000 C 
BRANCH  27  28
ATOM     28  C   UNL     1       0.003   6.775  -8.820  1.00  0.00    -0.000 C 
BRANCH  28  29
ATOM     29  C   UNL     1      -0.082   6.972 -10.340  1.00  0.00    -0.000 C 
BRANCH  29  30
ATOM     30  C   UNL     1      -1.243   7.904 -10.710  1.00  0.00    -0.000 C 
BRANCH  30  31
ATOM     31  C   UNL     1      -2.573   7.142 -10.733  1.00  0.00    -0.003 C 
ATOM     32  C   UNL     1      -3.741   8.079 -11.032  1.00  0.00     0.004 C 
ENDBRANCH  30  31
ENDBRANCH  29  30
ENDBRANCH  28  29
ENDBRANCH  27  28
ENDBRANCH  26  27
ENDBRANCH  25  26
ENDBRANCH  24  25
ENDBRANCH  23  24
ENDBRANCH  22  23
ENDBRANCH  21  22
ENDBRANCH  20  21
ENDBRANCH  19  20
ENDBRANCH  18  19
ENDBRANCH   1  18
TORSDOF 28
ENDMDL
MODEL 6
REMARK VINA RESULT:    -3.432      4.877     11.412
REMARK INTER + INTRA:         -13.026
REMARK INTER:                 -10.294
REMARK INTRA:                  -2.732
REMARK UNBOUND:                -3.975
REMARK SMILES CCCCCCCCCCCCCCCCCCCCCCCCCCCCCC(=O)[O-]
REMARK SMILES IDX 16 1 17 2 18 3 19 4 20 5 21 6 22 7 23 8 24 9 25 10 26 11
REMARK SMILES IDX 27 12 28 13 29 14 30 15 31 16 32 17 15 18 14 19 13 20 12 21
REMARK SMILES IDX 11 22 10 23 9 24 8 25 7 26 6 27 5 28 4 29 3 30 2 31 1 32
REMARK H PARENT
REMARK Flexibility Score: inf
ROOT
ATOM      1  C   UNL     1       4.089   9.219 -11.868  1.00  0.00     0.000 C 
ENDROOT
BRANCH   1   2
ATOM      2  C   UNL     1       3.274   7.930 -12.053  1.00  0.00     0.000 C 
BRANCH   2   3
ATOM      3  C   UNL     1       1.754   8.180 -12.030  1.00  0.00     0.000 C 
BRANCH   3   4
ATOM      4  C   UNL     1       1.406   9.664 -11.798  1.00  0.00     0.000 C 
BRANCH   4   5
ATOM      5  C   UNL     1       0.781   9.959 -10.420  1.00  0.00     0.000 C 
BRANCH   5   6
ATOM      6  C   UNL     1       1.704   9.636  -9.226  1.00  0.00     0.000 C 
BRANCH   6   7
ATOM      7  C   UNL     1       0.965   8.888  -8.099  1.00  0.00     0.000 C 
BRANCH   7   8
ATOM      8  C   UNL     1       1.142   7.357  -8.184  1.00  0.00     0.000 C 
BRANCH   8   9
ATOM      9  C   UNL     1       0.053   6.645  -9.010  1.00  0.00     0.000 C 
BRANCH   9  10
ATOM     10  C   UNL     1      -1.333   7.310  -8.976  1.00  0.00     0.000 C 
BRANCH  10  11
ATOM     11  C   UNL     1      -2.283   6.904 -10.118  1.00  0.00     0.000 C 
BRANCH  11  12
ATOM     12  C   UNL     1      -2.377   7.943 -11.257  1.00  0.00     0.000 C 
BRANCH  12  13
ATOM     13  C   UNL     1      -3.775   8.576 -11.365  1.00  0.00     0.006 C 
BRANCH  13  14
ATOM     14  C   UNL     1      -4.103   9.466 -10.157  1.00  0.00     0.053 C 
BRANCH  14  15
ATOM     15  C   UNL     1      -4.971  10.627 -10.541  1.00  0.00     0.041 C 
ATOM     16  O   UNL     1      -4.471  11.776 -10.670  1.00  0.00    -0.550 OA
ATOM     17  O   UNL     1      -6.325  10.433 -10.786  1.00  0.00    -0.550 OA
ENDBRANCH  14  15
ENDBRANCH  13  14
ENDBRANCH  12  13
ENDBRANCH  11  12
ENDBRANCH  10  11
ENDBRANCH   9  10
ENDBRANCH   8   9
ENDBRANCH   7   8
ENDBRANCH   6   7
ENDBRANCH   5   6
ENDBRANCH   4   5
ENDBRANCH   3   4
ENDBRANCH   2   3
ENDBRANCH   1   2
BRANCH   1  18
ATOM     18  C   UNL     1       5.592   9.008 -12.122  1.00  0.00     0.000 C 
BRANCH  18  19
ATOM     19  C   UNL     1       6.413  10.288 -11.896  1.00  0.00     0.000 C 
BRANCH  19  20
ATOM     20  C   UNL     1       7.924  10.008 -11.815  1.00  0.00     0.000 C 
BRANCH  20  21
ATOM     21  C   UNL     1       8.677  11.030 -10.944  1.00  0.00     0.000 C 
BRANCH  21  22
ATOM     22  C   UNL     1      10.206  11.047 -11.132  1.00  0.00     0.000 C 
BRANCH  22  23
ATOM     23  C   UNL     1      10.743   9.773 -11.810  1.00  0.00     0.000 C 
BRANCH  23  24
ATOM     24  C   UNL     1      11.887   9.115 -11.011  1.00  0.00    -0.000 C 
BRANCH  24  25
ATOM     25  C   UNL     1      11.433   8.440  -9.702  1.00  0.00    -0.000 C 
BRANCH  25  26
ATOM     26  C   UNL     1      11.929   9.113  -8.411  1.00  0.00    -0.000 C 
BRANCH  26  27
ATOM     27  C   UNL     1      11.871   8.178  -7.190  1.00  0.00    -0.000 C 
BRANCH  27  28
ATOM     28  C   UNL     1      11.757   8.948  -5.864  1.00  0.00    -0.000 C 
BRANCH  28  29
ATOM     29  C   UNL     1      11.289  10.397  -6.064  1.00  0.00    -0.000 C 
BRANCH  29  30
ATOM     30  C   UNL     1       9.901  10.616  -5.449  1.00  0.00    -0.000 C 
BRANCH  30  31
ATOM     31  C   UNL     1       9.271  11.915  -5.963  1.00  0.00    -0.003 C 
ATOM     32  C   UNL     1       8.573  11.698  -7.303  1.00  0.00     0.004 C 
ENDBRANCH  30  31
ENDBRANCH  29  30
ENDBRANCH  28  29
ENDBRANCH  27  28
ENDBRANCH  26  27
ENDBRANCH  25  26
ENDBRANCH  24  25
ENDBRANCH  23  24
ENDBRANCH  22  23
ENDBRANCH  21  22
ENDBRANCH  20  21
ENDBRANCH  19  20
ENDBRANCH  18  19
ENDBRANCH   1  18
TORSDOF 28
ENDMDL
MODEL 7
REMARK VINA RESULT:    -3.426      1.787      3.119
REMARK INTER + INTRA:         -13.008
REMARK INTER:                 -10.248
REMARK INTRA:                  -2.760
REMARK UNBOUND:                -3.975
REMARK SMILES CCCCCCCCCCCCCCCCCCCCCCCCCCCCCC(=O)[O-]
REMARK SMILES IDX 16 1 17 2 18 3 19 4 20 5 21 6 22 7 23 8 24 9 25 10 26 11
REMARK SMILES IDX 27 12 28 13 29 14 30 15 31 16 32 17 15 18 14 19 13 20 12 21
REMARK SMILES IDX 11 22 10 23 9 24 8 25 7 26 6 27 5 28 4 29 3 30 2 31 1 32
REMARK H PARENT
REMARK Flexibility Score: inf
ROOT
ATOM      1  C   UNL     1       2.059  11.095 -11.580  1.00  0.00     0.000 C 
ENDROOT
BRANCH   1   2
ATOM      2  C   UNL     1       2.193  12.282 -10.614  1.00  0.00     0.000 C 
BRANCH   2   3
ATOM      3  C   UNL     1       2.847  11.888  -9.276  1.00  0.00     0.000 C 
BRANCH   3   4
ATOM      4  C   UNL     1       3.789  12.982  -8.737  1.00  0.00     0.000 C 
BRANCH   4   5
ATOM      5  C   UNL     1       5.070  13.182  -9.571  1.00  0.00     0.000 C 
BRANCH   5   6
ATOM      6  C   UNL     1       6.363  13.258  -8.733  1.00  0.00     0.000 C 
BRANCH   6   7
ATOM      7  C   UNL     1       6.134  13.922  -7.361  1.00  0.00     0.000 C 
BRANCH   7   8
ATOM      8  C   UNL     1       6.561  13.020  -6.183  1.00  0.00     0.000 C 
BRANCH   8   9
ATOM      9  C   UNL     1       7.866  12.238  -6.433  1.00  0.00     0.000 C 
BRANCH   9  10
ATOM     10  C   UNL     1       8.807  12.133  -5.221  1.00  0.00     0.000 C 
BRANCH  10  11
ATOM     11  C   UNL     1      10.113  11.357  -5.473  1.00  0.00     0.000 C 
BRANCH  11  12
ATOM     12  C   UNL     1       9.971  10.202  -6.488  1.00  0.00     0.000 C 
BRANCH  12  13
ATOM     13  C   UNL     1      11.293   9.881  -7.207  1.00  0.00     0.006 C 
BRANCH  13  14
ATOM     14  C   UNL     1      11.667   8.396  -7.096  1.00  0.00     0.053 C 
BRANCH  14  15
ATOM     15  C   UNL     1      11.793   7.751  -8.444  1.00  0.00     0.041 C 
ATOM     16  O   UNL     1      12.327   6.615  -8.555  1.00  0.00    -0.550 OA
ATOM     17  O   UNL     1      11.291   8.390  -9.571  1.00  0.00    -0.550 OA
ENDBRANCH  14  15
ENDBRANCH  13  14
ENDBRANCH  12  13
ENDBRANCH  11  12
ENDBRANCH  10  11
ENDBRANCH   9  10
ENDBRANCH   8   9
ENDBRANCH   7   8
ENDBRANCH   6   7
ENDBRANCH   5   6
ENDBRANCH   4   5
ENDBRANCH   3   4
ENDBRANCH   2   3
ENDBRANCH   1   2
BRANCH   1  18
ATOM     18  C   UNL     1       1.006  10.074 -11.116  1.00  0.00     0.000 C 
BRANCH  18  19
ATOM     19  C   UNL     1       1.197   8.693 -11.767  1.00  0.00     0.000 C 
BRANCH  19  20
ATOM     20  C   UNL     1       2.128   7.783 -10.947  1.00  0.00     0.000 C 
BRANCH  20  21
ATOM     21  C   UNL     1       2.301   8.258  -9.493  1.00  0.00     0.000 C 
BRANCH  21  22
ATOM     22  C   UNL     1       1.591   7.392  -8.434  1.00  0.00     0.000 C 
BRANCH  22  23
ATOM     23  C   UNL     1       0.124   7.802  -8.208  1.00  0.00     0.000 C 
BRANCH  23  24
ATOM     24  C   UNL     1      -0.852   7.031  -9.121  1.00  0.00    -0.000 C 
BRANCH  24  25
ATOM     25  C   UNL     1      -1.957   7.907  -9.743  1.00  0.00    -0.000 C 
BRANCH  25  26
ATOM     26  C   UNL     1      -2.646   7.311 -10.981  1.00  0.00    -0.000 C 
BRANCH  26  27
ATOM     27  C   UNL     1      -3.956   8.035 -11.342  1.00  0.00    -0.000 C 
BRANCH  27  28
ATOM     28  C   UNL     1      -4.083   9.401 -10.648  1.00  0.00    -0.000 C 
BRANCH  28  29
ATOM     29  C   UNL     1      -4.315  10.547 -11.643  1.00  0.00    -0.000 C 
BRANCH  29  30
ATOM     30  C   UNL     1      -2.983  11.135 -12.125  1.00  0.00    -0.000 C 
BRANCH  30  31
ATOM     31  C   UNL     1      -2.789  12.562 -11.600  1.00  0.00    -0.003 C 
ATOM     32  C   UNL     1      -1.308  12.898 -11.445  1.00  0.00     0.004 C 
ENDBRANCH  30  31
ENDBRANCH  29  30
ENDBRANCH  28  29
ENDBRANCH  27  28
ENDBRANCH  26  27
ENDBRANCH  25  26
ENDBRANCH  24  25
ENDBRANCH  23  24
ENDBRANCH  22  23
ENDBRANCH  21  22
ENDBRANCH  20  21
ENDBRANCH  19  20
ENDBRANCH  18  19
ENDBRANCH   1  18
TORSDOF 28
ENDMDL
MODEL 8
REMARK VINA RESULT:    -3.411      2.905     10.358
REMARK INTER + INTRA:         -12.970
REMARK INTER:                  -9.414
REMARK INTRA:                  -3.556
REMARK UNBOUND:                -3.975
REMARK SMILES CCCCCCCCCCCCCCCCCCCCCCCCCCCCCC(=O)[O-]
REMARK SMILES IDX 16 1 17 2 18 3 19 4 20 5 21 6 22 7 23 8 24 9 25 10 26 11
REMARK SMILES IDX 27 12 28 13 29 14 30 15 31 16 32 17 15 18 14 19 13 20 12 21
REMARK SMILES IDX 11 22 10 23 9 24 8 25 7 26 6 27 5 28 4 29 3 30 2 31 1 32
REMARK H PARENT
REMARK Flexibility Score: inf
ROOT
ATOM      1  C   UNL     1       4.285  12.648 -10.242  1.00  0.00     0.000 C 
ENDROOT
BRANCH   1   2
ATOM      2  C   UNL     1       3.365  12.524  -9.017  1.00  0.00     0.000 C 
BRANCH   2   3
ATOM      3  C   UNL     1       2.258  11.470  -9.211  1.00  0.00     0.000 C 
BRANCH   3   4
ATOM      4  C   UNL     1       2.599  10.457 -10.322  1.00  0.00     0.000 C 
BRANCH   4   5
ATOM      5  C   UNL     1       1.556  10.389 -11.456  1.00  0.00     0.000 C 
BRANCH   5   6
ATOM      6  C   UNL     1       0.995  11.762 -11.881  1.00  0.00     0.000 C 
BRANCH   6   7
ATOM      7  C   UNL     1      -0.521  11.879 -11.629  1.00  0.00     0.000 C 
BRANCH   7   8
ATOM      8  C   UNL     1      -1.219  10.505 -11.542  1.00  0.00     0.000 C 
BRANCH   8   9
ATOM      9  C   UNL     1      -2.701  10.580 -11.123  1.00  0.00     0.000 C 
BRANCH   9  10
ATOM     10  C   UNL     1      -3.245   9.328 -10.415  1.00  0.00     0.000 C 
BRANCH  10  11
ATOM     11  C   UNL     1      -2.913   7.991 -11.105  1.00  0.00     0.000 C 
BRANCH  11  12
ATOM     12  C   UNL     1      -2.384   6.904 -10.143  1.00  0.00     0.000 C 
BRANCH  12  13
ATOM     13  C   UNL     1      -1.412   7.469  -9.092  1.00  0.00     0.006 C 
BRANCH  13  14
ATOM     14  C   UNL     1       0.031   7.532  -9.612  1.00  0.00     0.053 C 
BRANCH  14  15
ATOM     15  C   UNL     1       1.017   7.717  -8.497  1.00  0.00     0.041 C 
ATOM     16  O   UNL     1       0.778   8.535  -7.569  1.00  0.00    -0.550 OA
ATOM     17  O   UNL     1       2.184   6.963  -8.468  1.00  0.00    -0.550 OA
ENDBRANCH  14  15
ENDBRANCH  13  14
ENDBRANCH  12  13
ENDBRANCH  11  12
ENDBRANCH  10  11
ENDBRANCH   9  10
ENDBRANCH   8   9
ENDBRANCH   7   8
ENDBRANCH   6   7
ENDBRANCH   5   6
ENDBRANCH   4   5
ENDBRANCH   3   4
ENDBRANCH   2   3
ENDBRANCH   1   2
BRANCH   1  18
ATOM     18  C   UNL     1       5.617  13.342  -9.910  1.00  0.00     0.000 C 
BRANCH  18  19
ATOM     19  C   UNL     1       6.833  12.579 -10.464  1.00  0.00     0.000 C 
BRANCH  19  20
ATOM     20  C   UNL     1       8.140  12.960  -9.747  1.00  0.00     0.000 C 
BRANCH  20  21
ATOM     21  C   UNL     1       8.500  11.992  -8.605  1.00  0.00     0.000 C 
BRANCH  21  22
ATOM     22  C   UNL     1       9.993  11.954  -8.228  1.00  0.00     0.000 C 
BRANCH  22  23
ATOM     23  C   UNL     1      10.446  10.581  -7.699  1.00  0.00     0.000 C 
BRANCH  23  24
ATOM     24  C   UNL     1       9.462   9.993  -6.666  1.00  0.00    -0.000 C 
BRANCH  24  25
ATOM     25  C   UNL     1      10.118   9.587  -5.332  1.00  0.00    -0.000 C 
BRANCH  25  26
ATOM     26  C   UNL     1      11.619   9.903  -5.218  1.00  0.00    -0.000 C 
BRANCH  26  27
ATOM     27  C   UNL     1      11.920  11.007  -4.189  1.00  0.00    -0.000 C 
BRANCH  27  28
ATOM     28  C   UNL     1      11.572  12.411  -4.713  1.00  0.00    -0.000 C 
BRANCH  28  29
ATOM     29  C   UNL     1      10.373  13.032  -3.982  1.00  0.00    -0.000 C 
BRANCH  29  30
ATOM     30  C   UNL     1       9.266  13.418  -4.970  1.00  0.00    -0.000 C 
BRANCH  30  31
ATOM     31  C   UNL     1       7.884  13.319  -4.315  1.00  0.00    -0.003 C 
ATOM     32  C   UNL     1       7.052  12.206  -4.947  1.00  0.00     0.004 C 
ENDBRANCH  30  31
ENDBRANCH  29  30
ENDBRANCH  28  29
ENDBRANCH  27  28
ENDBRANCH  26  27
ENDBRANCH  25  26
ENDBRANCH  24  25
ENDBRANCH  23  24
ENDBRANCH  22  23
ENDBRANCH  21  22
ENDBRANCH  20  21
ENDBRANCH  19  20
ENDBRANCH  18  19
ENDBRANCH   1  18
TORSDOF 28
ENDMDL
MODEL 9
REMARK VINA RESULT:    -3.374      2.041      5.360
REMARK INTER + INTRA:         -12.872
REMARK INTER:                  -9.670
REMARK INTRA:                  -3.201
REMARK UNBOUND:                -3.975
REMARK SMILES CCCCCCCCCCCCCCCCCCCCCCCCCCCCCC(=O)[O-]
REMARK SMILES IDX 16 1 17 2 18 3 19 4 20 5 21 6 22 7 23 8 24 9 25 10 26 11
REMARK SMILES IDX 27 12 28 13 29 14 30 15 31 16 32 17 15 18 14 19 13 20 12 21
REMARK SMILES IDX 11 22 10 23 9 24 8 25 7 26 6 27 5 28 4 29 3 30 2 31 1 32
REMARK H PARENT
REMARK Flexibility Score: inf
ROOT
ATOM      1  C   UNL     1       7.559  12.533  -4.593  1.00  0.00     0.000 C 
ENDROOT
BRANCH   1   2
ATOM      2  C   UNL     1       8.319  13.858  -4.420  1.00  0.00     0.000 C 
BRANCH   2   3
ATOM      3  C   UNL     1       9.768  13.653  -3.941  1.00  0.00     0.000 C 
BRANCH   3   4
ATOM      4  C   UNL     1      10.507  12.570  -4.752  1.00  0.00     0.000 C 
BRANCH   4   5
ATOM      5  C   UNL     1      10.876  12.996  -6.188  1.00  0.00     0.000 C 
BRANCH   5   6
ATOM      6  C   UNL     1      10.313  12.069  -7.285  1.00  0.00     0.000 C 
BRANCH   6   7
ATOM      7  C   UNL     1      10.792  12.469  -8.694  1.00  0.00     0.000 C 
BRANCH   7   8
ATOM      8  C   UNL     1      10.061  11.699  -9.814  1.00  0.00     0.000 C 
BRANCH   8   9
ATOM      9  C   UNL     1      10.990  10.830 -10.685  1.00  0.00     0.000 C 
BRANCH   9  10
ATOM     10  C   UNL     1      10.946   9.322 -10.384  1.00  0.00     0.000 C 
BRANCH  10  11
ATOM     11  C   UNL     1      12.305   8.685 -10.036  1.00  0.00     0.000 C 
BRANCH  11  12
ATOM     12  C   UNL     1      12.334   7.982  -8.661  1.00  0.00     0.000 C 
BRANCH  12  13
ATOM     13  C   UNL     1      11.294   8.556  -7.682  1.00  0.00     0.006 C 
BRANCH  13  14
ATOM     14  C   UNL     1      11.895   8.838  -6.298  1.00  0.00     0.053 C 
BRANCH  14  15
ATOM     15  C   UNL     1      10.939   8.493  -5.195  1.00  0.00     0.041 C 
ATOM     16  O   UNL     1      11.231   7.593  -4.363  1.00  0.00    -0.550 OA
ATOM     17  O   UNL     1       9.741   9.186  -5.069  1.00  0.00    -0.550 OA
ENDBRANCH  14  15
ENDBRANCH  13  14
ENDBRANCH  12  13
ENDBRANCH  11  12
ENDBRANCH  10  11
ENDBRANCH   9  10
ENDBRANCH   8   9
ENDBRANCH   7   8
ENDBRANCH   6   7
ENDBRANCH   5   6
ENDBRANCH   4   5
ENDBRANCH   3   4
ENDBRANCH   2   3
ENDBRANCH   1   2
BRANCH   1  18
ATOM     18  C   UNL     1       6.393  12.649  -5.589  1.00  0.00     0.000 C 
BRANCH  18  19
ATOM     19  C   UNL     1       6.621  13.752  -6.637  1.00  0.00     0.000 C 
BRANCH  19  20
ATOM     20  C   UNL     1       6.520  13.222  -8.078  1.00  0.00     0.000 C 
BRANCH  20  21
ATOM     21  C   UNL     1       5.197  13.604  -8.766  1.00  0.00     0.000 C 
BRANCH  21  22
ATOM     22  C   UNL     1       4.016  12.657  -8.482  1.00  0.00     0.000 C 
BRANCH  22  23
ATOM     23  C   UNL     1       3.078  12.485  -9.692  1.00  0.00     0.000 C 
BRANCH  23  24
ATOM     24  C   UNL     1       3.727  11.670 -10.830  1.00  0.00    -0.000 C 
BRANCH  24  25
ATOM     25  C   UNL     1       2.984  10.364 -11.172  1.00  0.00    -0.000 C 
BRANCH  25  26
ATOM     26  C   UNL     1       1.857   9.978 -10.199  1.00  0.00    -0.000 C 
BRANCH  26  27
ATOM     27  C   UNL     1       2.170   8.701  -9.399  1.00  0.00    -0.000 C 
BRANCH  27  28
ATOM     28  C   UNL     1       1.100   8.394  -8.339  1.00  0.00    -0.000 C 
BRANCH  28  29
ATOM     29  C   UNL     1       0.329   7.100  -8.639  1.00  0.00    -0.000 C 
BRANCH  29  30
ATOM     30  C   UNL     1      -1.136   7.400  -8.978  1.00  0.00    -0.000 C 
BRANCH  30  31
ATOM     31  C   UNL     1      -1.299   7.744 -10.463  1.00  0.00    -0.003 C 
ATOM     32  C   UNL     1      -0.794   6.609 -11.350  1.00  0.00     0.004 C 
ENDBRANCH  30  31
ENDBRANCH  29  30
ENDBRANCH  28  29
ENDBRANCH  27  28
ENDBRANCH  26  27
ENDBRANCH  25  26
ENDBRANCH  24  25
ENDBRANCH  23  24
ENDBRANCH  22  23
ENDBRANCH  21  22
ENDBRANCH  20  21
ENDBRANCH  19  20
ENDBRANCH  18  19
ENDBRANCH   1  18
TORSDOF 28
ENDMDL
