MODEL 1
REMARK VINA RESULT:    -4.643      0.000      0.000
REMARK INTER + INTRA:          -4.914
REMARK INTER:                  -4.914
REMARK INTRA:                   0.000
REMARK UNBOUND:                 0.000
REMARK SMILES O=c1ccc2cc(O)c(O)cc2o1
REMARK SMILES IDX 4 1 3 2 2 3 1 4 13 5 12 6 11 7 9 8 7 9 6 10 5 11 8 12 10 14
REMARK H PARENT 8 13 10 15
REMARK Flexibility Score: inf
ROOT
ATOM      1  C   UNL     1      69.757  37.820  19.365  1.00  0.00     0.019 A 
ATOM      2  C   UNL     1      69.939  36.645  18.636  1.00  0.00     0.094 A 
ATOM      3  C   UNL     1      71.111  35.903  18.828  1.00  0.00     0.336 A 
ATOM      4  O   UNL     1      71.294  34.840  18.181  1.00  0.00    -0.246 OA
ATOM      5  O   UNL     1      72.035  36.316  19.692  1.00  0.00    -0.423 OA
ATOM      6  C   UNL     1      71.901  37.430  20.406  1.00  0.00     0.142 A 
ATOM      7  C   UNL     1      72.906  37.814  21.299  1.00  0.00     0.098 A 
ATOM      8  C   UNL     1      72.769  38.988  22.054  1.00  0.00     0.161 A 
ATOM      9  C   UNL     1      71.621  39.782  21.915  1.00  0.00     0.158 A 
ATOM     10  C   UNL     1      70.610  39.402  21.021  1.00  0.00     0.062 A 
ATOM     11  C   UNL     1      70.745  38.229  20.266  1.00  0.00     0.022 A 
ENDROOT
BRANCH   9  12
ATOM     12  O   UNL     1      71.494  40.947  22.670  1.00  0.00    -0.504 OA
ATOM     13  H   UNL     1      70.636  41.486  22.672  1.00  0.00     0.293 HD
ENDBRANCH   9  12
BRANCH   8  14
ATOM     14  O   UNL     1      73.770  39.372  22.945  1.00  0.00    -0.504 OA
ATOM     15  H   UNL     1      73.862  40.332  23.258  1.00  0.00     0.293 HD
ENDBRANCH   8  14
TORSDOF 2
ENDMDL
MODEL 2
REMARK VINA RESULT:    -4.617      2.776      4.671
REMARK INTER + INTRA:          -4.887
REMARK INTER:                  -4.887
REMARK INTRA:                   0.000
REMARK UNBOUND:                 0.000
REMARK SMILES O=c1ccc2cc(O)c(O)cc2o1
REMARK SMILES IDX 4 1 3 2 2 3 1 4 13 5 12 6 11 7 9 8 7 9 6 10 5 11 8 12 10 14
REMARK H PARENT 8 13 10 15
REMARK Flexibility Score: inf
ROOT
ATOM      1  C   UNL     1      70.162  39.488  21.301  1.00  0.00     0.019 A 
ATOM      2  C   UNL     1      71.518  39.166  21.334  1.00  0.00     0.094 A 
ATOM      3  C   UNL     1      71.947  37.976  20.734  1.00  0.00     0.336 A 
ATOM      4  O   UNL     1      73.167  37.668  20.751  1.00  0.00    -0.246 OA
ATOM      5  O   UNL     1      71.072  37.167  20.141  1.00  0.00    -0.423 OA
ATOM      6  C   UNL     1      69.770  37.437  20.088  1.00  0.00     0.142 A 
ATOM      7  C   UNL     1      68.897  36.548  19.452  1.00  0.00     0.098 A 
ATOM      8  C   UNL     1      67.524  36.828  19.393  1.00  0.00     0.161 A 
ATOM      9  C   UNL     1      67.022  38.002  19.973  1.00  0.00     0.158 A 
ATOM     10  C   UNL     1      67.893  38.897  20.612  1.00  0.00     0.062 A 
ATOM     11  C   UNL     1      69.265  38.619  20.671  1.00  0.00     0.022 A 
ENDROOT
BRANCH   9  12
ATOM     12  O   UNL     1      65.655  38.272  19.910  1.00  0.00    -0.504 OA
ATOM     13  H   UNL     1      64.998  37.827  20.538  1.00  0.00     0.293 HD
ENDBRANCH   9  12
BRANCH   8  14
ATOM     14  O   UNL     1      66.653  35.944  18.759  1.00  0.00    -0.504 OA
ATOM     15  H   UNL     1      65.833  36.272  18.262  1.00  0.00     0.293 HD
ENDBRANCH   8  14
TORSDOF 2
ENDMDL
MODEL 3
REMARK VINA RESULT:    -4.560      2.829      5.112
REMARK INTER + INTRA:          -4.827
REMARK INTER:                  -4.827
REMARK INTRA:                   0.000
REMARK UNBOUND:                 0.000
REMARK SMILES O=c1ccc2cc(O)c(O)cc2o1
REMARK SMILES IDX 4 1 3 2 2 3 1 4 13 5 12 6 11 7 9 8 7 9 6 10 5 11 8 12 10 14
REMARK H PARENT 8 13 10 15
REMARK Flexibility Score: inf
ROOT
ATOM      1  C   UNL     1      71.140  36.865  19.758  1.00  0.00     0.019 A 
ATOM      2  C   UNL     1      72.039  37.646  20.483  1.00  0.00     0.094 A 
ATOM      3  C   UNL     1      71.552  38.730  21.223  1.00  0.00     0.336 A 
ATOM      4  O   UNL     1      72.347  39.447  21.885  1.00  0.00    -0.246 OA
ATOM      5  O   UNL     1      70.250  39.009  21.232  1.00  0.00    -0.423 OA
ATOM      6  C   UNL     1      69.360  38.289  20.554  1.00  0.00     0.142 A 
ATOM      7  C   UNL     1      68.004  38.630  20.601  1.00  0.00     0.098 A 
ATOM      8  C   UNL     1      67.062  37.875  19.888  1.00  0.00     0.161 A 
ATOM      9  C   UNL     1      67.477  36.774  19.125  1.00  0.00     0.158 A 
ATOM     10  C   UNL     1      68.835  36.427  19.074  1.00  0.00     0.062 A 
ATOM     11  C   UNL     1      69.778  37.181  19.786  1.00  0.00     0.022 A 
ENDROOT
BRANCH   9  12
ATOM     12  O   UNL     1      66.533  36.028  18.420  1.00  0.00    -0.504 OA
ATOM     13  H   UNL     1      66.198  36.322  17.510  1.00  0.00     0.293 HD
ENDBRANCH   9  12
BRANCH   8  14
ATOM     14  O   UNL     1      65.710  38.212  19.934  1.00  0.00    -0.504 OA
ATOM     15  H   UNL     1      65.025  37.741  19.355  1.00  0.00     0.293 HD
ENDBRANCH   8  14
TORSDOF 2
ENDMDL
MODEL 4
REMARK VINA RESULT:    -4.515      1.344      2.335
REMARK INTER + INTRA:          -4.779
REMARK INTER:                  -4.779
REMARK INTRA:                   0.000
REMARK UNBOUND:                 0.000
REMARK SMILES O=c1ccc2cc(O)c(O)cc2o1
REMARK SMILES IDX 4 1 3 2 2 3 1 4 13 5 12 6 11 7 9 8 7 9 6 10 5 11 8 12 10 14
REMARK H PARENT 8 13 10 15
REMARK Flexibility Score: inf
ROOT
ATOM      1  C   UNL     1      71.657  36.378  19.660  1.00  0.00     0.019 A 
ATOM      2  C   UNL     1      70.566  36.133  18.827  1.00  0.00     0.094 A 
ATOM      3  C   UNL     1      69.525  37.067  18.783  1.00  0.00     0.336 A 
ATOM      4  O   UNL     1      68.532  36.865  18.036  1.00  0.00    -0.246 OA
ATOM      5  O   UNL     1      69.577  38.171  19.525  1.00  0.00    -0.423 OA
ATOM      6  C   UNL     1      70.599  38.442  20.333  1.00  0.00     0.142 A 
ATOM      7  C   UNL     1      70.599  39.618  21.090  1.00  0.00     0.098 A 
ATOM      8  C   UNL     1      71.674  39.908  21.943  1.00  0.00     0.161 A 
ATOM      9  C   UNL     1      72.754  39.019  22.039  1.00  0.00     0.158 A 
ATOM     10  C   UNL     1      72.759  37.838  21.282  1.00  0.00     0.062 A 
ATOM     11  C   UNL     1      71.686  37.546  20.429  1.00  0.00     0.022 A 
ENDROOT
BRANCH   9  12
ATOM     12  O   UNL     1      73.818  39.316  22.889  1.00  0.00    -0.504 OA
ATOM     13  H   UNL     1      73.754  39.168  23.890  1.00  0.00     0.293 HD
ENDBRANCH   9  12
BRANCH   8  14
ATOM     14  O   UNL     1      71.676  41.080  22.697  1.00  0.00    -0.504 OA
ATOM     15  H   UNL     1      72.539  41.507  23.012  1.00  0.00     0.293 HD
ENDBRANCH   8  14
TORSDOF 2
ENDMDL
MODEL 5
REMARK VINA RESULT:    -4.459      1.801      2.222
REMARK INTER + INTRA:          -4.720
REMARK INTER:                  -4.720
REMARK INTRA:                   0.000
REMARK UNBOUND:                 0.000
REMARK SMILES O=c1ccc2cc(O)c(O)cc2o1
REMARK SMILES IDX 4 1 3 2 2 3 1 4 13 5 12 6 11 7 9 8 7 9 6 10 5 11 8 12 10 14
REMARK H PARENT 8 13 10 15
REMARK Flexibility Score: inf
ROOT
ATOM      1  C   UNL     1      68.610  39.155  20.682  1.00  0.00     0.019 A 
ATOM      2  C   UNL     1      67.817  38.421  19.801  1.00  0.00     0.094 A 
ATOM      3  C   UNL     1      68.384  37.336  19.122  1.00  0.00     0.336 A 
ATOM      4  O   UNL     1      67.686  36.660  18.323  1.00  0.00    -0.246 OA
ATOM      5  O   UNL     1      69.661  37.013  19.316  1.00  0.00    -0.423 OA
ATOM      6  C   UNL     1      70.451  37.688  20.147  1.00  0.00     0.142 A 
ATOM      7  C   UNL     1      71.786  37.302  20.311  1.00  0.00     0.098 A 
ATOM      8  C   UNL     1      72.623  38.010  21.185  1.00  0.00     0.161 A 
ATOM      9  C   UNL     1      72.124  39.108  21.900  1.00  0.00     0.158 A 
ATOM     10  C   UNL     1      70.786  39.499  21.740  1.00  0.00     0.062 A 
ATOM     11  C   UNL     1      69.948  38.793  20.867  1.00  0.00     0.022 A 
ENDROOT
BRANCH   9  12
ATOM     12  O   UNL     1      72.963  39.805  22.768  1.00  0.00    -0.504 OA
ATOM     13  H   UNL     1      73.675  39.332  23.311  1.00  0.00     0.293 HD
ENDBRANCH   9  12
BRANCH   8  14
ATOM     14  O   UNL     1      73.953  37.627  21.350  1.00  0.00    -0.504 OA
ATOM     15  H   UNL     1      74.281  37.204  22.210  1.00  0.00     0.293 HD
ENDBRANCH   8  14
TORSDOF 2
ENDMDL
MODEL 6
REMARK VINA RESULT:    -4.420      2.657      3.903
REMARK INTER + INTRA:          -4.678
REMARK INTER:                  -4.678
REMARK INTRA:                   0.000
REMARK UNBOUND:                 0.000
REMARK SMILES O=c1ccc2cc(O)c(O)cc2o1
REMARK SMILES IDX 4 1 3 2 2 3 1 4 13 5 12 6 11 7 9 8 7 9 6 10 5 11 8 12 10 14
REMARK H PARENT 8 13 10 15
REMARK Flexibility Score: inf
ROOT
ATOM      1  C   UNL     1      71.412  38.179  20.131  1.00  0.00     0.019 A 
ATOM      2  C   UNL     1      71.992  37.001  19.664  1.00  0.00     0.094 A 
ATOM      3  C   UNL     1      71.167  36.003  19.133  1.00  0.00     0.336 A 
ATOM      4  O   UNL     1      71.670  34.932  18.705  1.00  0.00    -0.246 OA
ATOM      5  O   UNL     1      69.848  36.180  19.075  1.00  0.00    -0.423 OA
ATOM      6  C   UNL     1      69.255  37.288  19.510  1.00  0.00     0.142 A 
ATOM      7  C   UNL     1      67.865  37.417  19.425  1.00  0.00     0.098 A 
ATOM      8  C   UNL     1      67.235  38.584  19.882  1.00  0.00     0.161 A 
ATOM      9  C   UNL     1      67.999  39.627  20.427  1.00  0.00     0.158 A 
ATOM     10  C   UNL     1      69.393  39.503  20.515  1.00  0.00     0.062 A 
ATOM     11  C   UNL     1      70.024  38.337  20.058  1.00  0.00     0.022 A 
ENDROOT
BRANCH   9  12
ATOM     12  O   UNL     1      67.364  40.783  20.879  1.00  0.00    -0.504 OA
ATOM     13  H   UNL     1      66.860  41.392  20.246  1.00  0.00     0.293 HD
ENDBRANCH   9  12
BRANCH   8  14
ATOM     14  O   UNL     1      65.850  38.715  19.798  1.00  0.00    -0.504 OA
ATOM     15  H   UNL     1      65.414  39.290  19.086  1.00  0.00     0.293 HD
ENDBRANCH   8  14
TORSDOF 2
ENDMDL
MODEL 7
REMARK VINA RESULT:    -4.411      2.736      4.074
REMARK INTER + INTRA:          -4.669
REMARK INTER:                  -4.669
REMARK INTRA:                   0.000
REMARK UNBOUND:                 0.000
REMARK SMILES O=c1ccc2cc(O)c(O)cc2o1
REMARK SMILES IDX 4 1 3 2 2 3 1 4 13 5 12 6 11 7 9 8 7 9 6 10 5 11 8 12 10 14
REMARK H PARENT 8 13 10 15
REMARK Flexibility Score: inf
ROOT
ATOM      1  C   UNL     1      70.260  36.488  19.570  1.00  0.00     0.019 A 
ATOM      2  C   UNL     1      71.600  36.441  19.950  1.00  0.00     0.094 A 
ATOM      3  C   UNL     1      72.151  37.534  20.628  1.00  0.00     0.336 A 
ATOM      4  O   UNL     1      73.359  37.511  20.981  1.00  0.00    -0.246 OA
ATOM      5  O   UNL     1      71.405  38.602  20.904  1.00  0.00    -0.423 OA
ATOM      6  C   UNL     1      70.123  38.687  20.559  1.00  0.00     0.142 A 
ATOM      7  C   UNL     1      69.388  39.834  20.875  1.00  0.00     0.098 A 
ATOM      8  C   UNL     1      68.037  39.929  20.513  1.00  0.00     0.161 A 
ATOM      9  C   UNL     1      67.417  38.872  19.832  1.00  0.00     0.158 A 
ATOM     10  C   UNL     1      68.148  37.718  19.512  1.00  0.00     0.062 A 
ATOM     11  C   UNL     1      69.499  37.622  19.873  1.00  0.00     0.022 A 
ENDROOT
BRANCH   9  12
ATOM     12  O   UNL     1      66.073  38.975  19.476  1.00  0.00    -0.504 OA
ATOM     13  H   UNL     1      65.378  39.322  20.127  1.00  0.00     0.293 HD
ENDBRANCH   9  12
BRANCH   8  14
ATOM     14  O   UNL     1      67.303  41.071  20.828  1.00  0.00    -0.504 OA
ATOM     15  H   UNL     1      66.595  41.064  21.553  1.00  0.00     0.293 HD
ENDBRANCH   8  14
TORSDOF 2
ENDMDL
MODEL 8
REMARK VINA RESULT:    -4.321      2.355      3.152
REMARK INTER + INTRA:          -4.574
REMARK INTER:                  -4.574
REMARK INTRA:                   0.000
REMARK UNBOUND:                 0.000
REMARK SMILES O=c1ccc2cc(O)c(O)cc2o1
REMARK SMILES IDX 4 1 3 2 2 3 1 4 13 5 12 6 11 7 9 8 7 9 6 10 5 11 8 12 10 14
REMARK H PARENT 8 13 10 15
REMARK Flexibility Score: inf
ROOT
ATOM      1  C   UNL     1      73.706  38.268  18.600  1.00  0.00     0.019 A 
ATOM      2  C   UNL     1      72.767  37.241  18.692  1.00  0.00     0.094 A 
ATOM      3  C   UNL     1      72.156  36.991  19.927  1.00  0.00     0.336 A 
ATOM      4  O   UNL     1      71.305  36.070  20.031  1.00  0.00    -0.246 OA
ATOM      5  O   UNL     1      72.468  37.724  20.993  1.00  0.00    -0.423 OA
ATOM      6  C   UNL     1      73.359  38.711  20.948  1.00  0.00     0.142 A 
ATOM      7  C   UNL     1      73.647  39.447  22.102  1.00  0.00     0.098 A 
ATOM      8  C   UNL     1      74.585  40.488  22.058  1.00  0.00     0.161 A 
ATOM      9  C   UNL     1      75.237  40.797  20.856  1.00  0.00     0.158 A 
ATOM     10  C   UNL     1      74.952  40.062  19.695  1.00  0.00     0.062 A 
ATOM     11  C   UNL     1      74.015  39.021  19.737  1.00  0.00     0.022 A 
ENDROOT
BRANCH   9  12
ATOM     12  O   UNL     1      76.168  41.834  20.822  1.00  0.00    -0.504 OA
ATOM     13  H   UNL     1      75.917  42.779  21.085  1.00  0.00     0.293 HD
ENDBRANCH   9  12
BRANCH   8  14
ATOM     14  O   UNL     1      74.874  41.223  23.207  1.00  0.00    -0.504 OA
ATOM     15  H   UNL     1      74.150  41.482  23.868  1.00  0.00     0.293 HD
ENDBRANCH   8  14
TORSDOF 2
ENDMDL
MODEL 9
REMARK VINA RESULT:    -4.303      2.102      4.447
REMARK INTER + INTRA:          -4.555
REMARK INTER:                  -4.555
REMARK INTRA:                   0.000
REMARK UNBOUND:                 0.000
REMARK SMILES O=c1ccc2cc(O)c(O)cc2o1
REMARK SMILES IDX 4 1 3 2 2 3 1 4 13 5 12 6 11 7 9 8 7 9 6 10 5 11 8 12 10 14
REMARK H PARENT 8 13 10 15
REMARK Flexibility Score: inf
ROOT
ATOM      1  C   UNL     1      72.890  37.783  20.450  1.00  0.00     0.019 A 
ATOM      2  C   UNL     1      73.987  38.351  21.095  1.00  0.00     0.094 A 
ATOM      3  C   UNL     1      73.775  39.402  21.995  1.00  0.00     0.336 A 
ATOM      4  O   UNL     1      74.752  39.928  22.589  1.00  0.00    -0.246 OA
ATOM      5  O   UNL     1      72.543  39.849  22.229  1.00  0.00    -0.423 OA
ATOM      6  C   UNL     1      71.470  39.335  21.635  1.00  0.00     0.142 A 
ATOM      7  C   UNL     1      70.200  39.847  21.920  1.00  0.00     0.098 A 
ATOM      8  C   UNL     1      69.065  39.308  21.296  1.00  0.00     0.161 A 
ATOM      9  C   UNL     1      69.201  38.253  20.382  1.00  0.00     0.158 A 
ATOM     10  C   UNL     1      70.472  37.736  20.092  1.00  0.00     0.062 A 
ATOM     11  C   UNL     1      71.607  38.273  20.715  1.00  0.00     0.022 A 
ENDROOT
BRANCH   9  12
ATOM     12  O   UNL     1      68.068  37.724  19.767  1.00  0.00    -0.504 OA
ATOM     13  H   UNL     1      67.798  37.997  18.829  1.00  0.00     0.293 HD
ENDBRANCH   9  12
BRANCH   8  14
ATOM     14  O   UNL     1      67.799  39.816  21.579  1.00  0.00    -0.504 OA
ATOM     15  H   UNL     1      67.060  39.818  20.886  1.00  0.00     0.293 HD
ENDBRANCH   8  14
TORSDOF 2
ENDMDL
