MODEL 1
REMARK VINA RESULT:    -4.688      0.000      0.000
REMARK INTER + INTRA:          -5.059
REMARK INTER:                  -4.962
REMARK INTRA:                  -0.096
REMARK UNBOUND:                -0.096
REMARK SMILES C=C(C)[C@@H]1CC=C(C)C(=O)C1
REMARK SMILES IDX 8 1 7 2 6 3 5 4 4 5 11 6 9 7 10 8 2 9 1 10 3 11
REMARK H PARENT
REMARK Flexibility Score: inf
ROOT
ATOM      1  C   UNL     1      -2.549   1.457  14.881  1.00  0.00     0.048 C 
ATOM      2  C   UNL     1      -3.801   2.283  14.990  1.00  0.00    -0.012 C 
ATOM      3  C   UNL     1      -3.891   3.242  15.927  1.00  0.00    -0.019 C 
ATOM      4  C   UNL     1      -5.113   4.111  16.067  1.00  0.00     0.036 C 
ATOM      5  C   UNL     1      -6.389   3.337  15.684  1.00  0.00     0.025 C 
ATOM      6  C   UNL     1      -6.252   2.748  14.268  1.00  0.00     0.089 C 
ATOM      7  C   UNL     1      -4.978   1.957  14.146  1.00  0.00     0.158 C 
ATOM      8  O   UNL     1      -4.908   1.034  13.290  1.00  0.00    -0.295 OA
ENDROOT
BRANCH   5   9
ATOM      9  C   UNL     1      -7.628   4.213  15.804  1.00  0.00    -0.077 C 
ATOM     10  C   UNL     1      -7.687   5.171  16.744  1.00  0.00     0.008 C 
ATOM     11  C   UNL     1      -8.812   4.032  14.887  1.00  0.00     0.039 C 
ENDBRANCH   5   9
TORSDOF 1
ENDMDL
MODEL 2
REMARK VINA RESULT:    -4.442      5.819      8.162
REMARK INTER + INTRA:          -4.798
REMARK INTER:                  -4.700
REMARK INTRA:                  -0.098
REMARK UNBOUND:                -0.096
REMARK SMILES C=C(C)[C@@H]1CC=C(C)C(=O)C1
REMARK SMILES IDX 8 1 7 2 6 3 5 4 4 5 11 6 9 7 10 8 2 9 1 10 3 11
REMARK H PARENT
REMARK Flexibility Score: inf
ROOT
ATOM      1  C   UNL     1      -3.857   2.231  10.110  1.00  0.00     0.048 C 
ATOM      2  C   UNL     1      -3.564   0.757  10.037  1.00  0.00    -0.012 C 
ATOM      3  C   UNL     1      -3.170   0.211   8.874  1.00  0.00    -0.019 C 
ATOM      4  C   UNL     1      -2.846  -1.255   8.750  1.00  0.00     0.036 C 
ATOM      5  C   UNL     1      -3.719  -2.097   9.699  1.00  0.00     0.025 C 
ATOM      6  C   UNL     1      -3.578  -1.590  11.146  1.00  0.00     0.089 C 
ATOM      7  C   UNL     1      -3.828  -0.108  11.213  1.00  0.00     0.158 C 
ATOM      8  O   UNL     1      -4.232   0.398  12.295  1.00  0.00    -0.295 OA
ENDROOT
BRANCH   5   9
ATOM      9  C   UNL     1      -3.384  -3.579   9.594  1.00  0.00    -0.077 C 
ATOM     10  C   UNL     1      -2.438  -3.996   8.738  1.00  0.00     0.008 C 
ATOM     11  C   UNL     1      -4.098  -4.608  10.435  1.00  0.00     0.039 C 
ENDBRANCH   5   9
TORSDOF 1
ENDMDL
MODEL 3
REMARK VINA RESULT:    -4.428      1.953      4.201
REMARK INTER + INTRA:          -4.783
REMARK INTER:                  -4.685
REMARK INTRA:                  -0.099
REMARK UNBOUND:                -0.096
REMARK SMILES C=C(C)[C@@H]1CC=C(C)C(=O)C1
REMARK SMILES IDX 8 1 7 2 6 3 5 4 4 5 11 6 9 7 10 8 2 9 1 10 3 11
REMARK H PARENT
REMARK Flexibility Score: inf
ROOT
ATOM      1  C   UNL     1      -6.832   6.287  17.236  1.00  0.00     0.048 C 
ATOM      2  C   UNL     1      -6.255   5.052  16.600  1.00  0.00    -0.012 C 
ATOM      3  C   UNL     1      -4.927   4.953  16.414  1.00  0.00    -0.019 C 
ATOM      4  C   UNL     1      -4.295   3.733  15.799  1.00  0.00     0.036 C 
ATOM      5  C   UNL     1      -5.232   3.088  14.760  1.00  0.00     0.025 C 
ATOM      6  C   UNL     1      -6.601   2.779  15.393  1.00  0.00     0.089 C 
ATOM      7  C   UNL     1      -7.159   4.003  16.068  1.00  0.00     0.158 C 
ATOM      8  O   UNL     1      -8.407   4.110  16.209  1.00  0.00    -0.295 OA
ENDROOT
BRANCH   5   9
ATOM      9  C   UNL     1      -4.609   1.841  14.147  1.00  0.00    -0.077 C 
ATOM     10  C   UNL     1      -3.400   1.423  14.556  1.00  0.00     0.008 C 
ATOM     11  C   UNL     1      -5.320   1.053  13.075  1.00  0.00     0.039 C 
ENDBRANCH   5   9
TORSDOF 1
ENDMDL
MODEL 4
REMARK VINA RESULT:    -4.393      5.463      7.107
REMARK INTER + INTRA:          -4.747
REMARK INTER:                  -4.648
REMARK INTRA:                  -0.099
REMARK UNBOUND:                -0.096
REMARK SMILES C=C(C)[C@@H]1CC=C(C)C(=O)C1
REMARK SMILES IDX 8 1 7 2 6 3 5 4 4 5 11 6 9 7 10 8 2 9 1 10 3 11
REMARK H PARENT
REMARK Flexibility Score: inf
ROOT
ATOM      1  C   UNL     1      -2.401  -3.932   8.812  1.00  0.00     0.048 C 
ATOM      2  C   UNL     1      -2.981  -2.652   9.349  1.00  0.00    -0.012 C 
ATOM      3  C   UNL     1      -3.348  -1.676   8.501  1.00  0.00    -0.019 C 
ATOM      4  C   UNL     1      -3.950  -0.383   8.984  1.00  0.00     0.036 C 
ATOM      5  C   UNL     1      -3.380   0.014  10.359  1.00  0.00     0.025 C 
ATOM      6  C   UNL     1      -3.572  -1.131  11.369  1.00  0.00     0.089 C 
ATOM      7  C   UNL     1      -3.031  -2.421  10.814  1.00  0.00     0.158 C 
ATOM      8  O   UNL     1      -2.654  -3.322  11.612  1.00  0.00    -0.295 OA
ENDROOT
BRANCH   5   9
ATOM      9  C   UNL     1      -3.998   1.311  10.864  1.00  0.00    -0.077 C 
ATOM     10  C   UNL     1      -4.645   1.334  12.040  1.00  0.00     0.008 C 
ATOM     11  C   UNL     1      -3.905   2.589  10.068  1.00  0.00     0.039 C 
ENDBRANCH   5   9
TORSDOF 1
ENDMDL
MODEL 5
REMARK VINA RESULT:    -4.360      1.615      2.424
REMARK INTER + INTRA:          -4.711
REMARK INTER:                  -4.617
REMARK INTRA:                  -0.094
REMARK UNBOUND:                -0.096
REMARK SMILES C=C(C)[C@@H]1CC=C(C)C(=O)C1
REMARK SMILES IDX 8 1 7 2 6 3 5 4 4 5 11 6 9 7 10 8 2 9 1 10 3 11
REMARK H PARENT
REMARK Flexibility Score: inf
ROOT
ATOM      1  C   UNL     1      -2.063   1.596  14.755  1.00  0.00     0.048 C 
ATOM      2  C   UNL     1      -3.384   2.237  15.081  1.00  0.00    -0.012 C 
ATOM      3  C   UNL     1      -4.514   1.756  14.536  1.00  0.00    -0.019 C 
ATOM      4  C   UNL     1      -5.865   2.347  14.843  1.00  0.00     0.036 C 
ATOM      5  C   UNL     1      -5.760   3.863  15.098  1.00  0.00     0.025 C 
ATOM      6  C   UNL     1      -4.732   4.149  16.208  1.00  0.00     0.089 C 
ATOM      7  C   UNL     1      -3.424   3.472  15.904  1.00  0.00     0.158 C 
ATOM      8  O   UNL     1      -2.360   3.946  16.387  1.00  0.00    -0.295 OA
ENDROOT
BRANCH   5   9
ATOM      9  C   UNL     1      -7.118   4.467  15.428  1.00  0.00    -0.077 C 
ATOM     10  C   UNL     1      -8.167   4.246  14.620  1.00  0.00     0.008 C 
ATOM     11  C   UNL     1      -7.322   5.322  16.655  1.00  0.00     0.039 C 
ENDBRANCH   5   9
TORSDOF 1
ENDMDL
MODEL 6
REMARK VINA RESULT:    -4.324      1.666      2.038
REMARK INTER + INTRA:          -4.673
REMARK INTER:                  -4.585
REMARK INTRA:                  -0.088
REMARK UNBOUND:                -0.096
REMARK SMILES C=C(C)[C@@H]1CC=C(C)C(=O)C1
REMARK SMILES IDX 8 1 7 2 6 3 5 4 4 5 11 6 9 7 10 8 2 9 1 10 3 11
REMARK H PARENT
REMARK Flexibility Score: inf
ROOT
ATOM      1  C   UNL     1      -2.548   2.302  13.670  1.00  0.00     0.048 C 
ATOM      2  C   UNL     1      -3.827   2.884  14.204  1.00  0.00    -0.012 C 
ATOM      3  C   UNL     1      -4.513   2.231  15.158  1.00  0.00    -0.019 C 
ATOM      4  C   UNL     1      -5.790   2.778  15.740  1.00  0.00     0.036 C 
ATOM      5  C   UNL     1      -6.578   3.582  14.689  1.00  0.00     0.025 C 
ATOM      6  C   UNL     1      -5.692   4.687  14.086  1.00  0.00     0.089 C 
ATOM      7  C   UNL     1      -4.393   4.112  13.591  1.00  0.00     0.158 C 
ATOM      8  O   UNL     1      -3.769   4.707  12.672  1.00  0.00    -0.295 OA
ENDROOT
BRANCH   5   9
ATOM      9  C   UNL     1      -7.861   4.155  15.275  1.00  0.00    -0.077 C 
ATOM     10  C   UNL     1      -9.016   4.050  14.598  1.00  0.00     0.008 C 
ATOM     11  C   UNL     1      -7.872   4.852  16.613  1.00  0.00     0.039 C 
ENDBRANCH   5   9
TORSDOF 1
ENDMDL
MODEL 7
REMARK VINA RESULT:    -4.275      2.386      3.331
REMARK INTER + INTRA:          -4.621
REMARK INTER:                  -4.523
REMARK INTRA:                  -0.098
REMARK UNBOUND:                -0.096
REMARK SMILES C=C(C)[C@@H]1CC=C(C)C(=O)C1
REMARK SMILES IDX 8 1 7 2 6 3 5 4 4 5 11 6 9 7 10 8 2 9 1 10 3 11
REMARK H PARENT
REMARK Flexibility Score: inf
ROOT
ATOM      1  C   UNL     1      -5.505   2.134  14.201  1.00  0.00     0.048 C 
ATOM      2  C   UNL     1      -5.901   3.475  14.755  1.00  0.00    -0.012 C 
ATOM      3  C   UNL     1      -5.569   4.597  14.094  1.00  0.00    -0.019 C 
ATOM      4  C   UNL     1      -5.956   5.964  14.594  1.00  0.00     0.036 C 
ATOM      5  C   UNL     1      -5.987   6.001  16.134  1.00  0.00     0.025 C 
ATOM      6  C   UNL     1      -6.914   4.898  16.677  1.00  0.00     0.089 C 
ATOM      7  C   UNL     1      -6.546   3.562  16.089  1.00  0.00     0.158 C 
ATOM      8  O   UNL     1      -6.827   2.512  16.728  1.00  0.00    -0.295 OA
ENDROOT
BRANCH   5   9
ATOM      9  C   UNL     1      -6.396   7.374  16.649  1.00  0.00    -0.077 C 
ATOM     10  C   UNL     1      -6.785   7.526  17.925  1.00  0.00     0.008 C 
ATOM     11  C   UNL     1      -6.380   8.587  15.752  1.00  0.00     0.039 C 
ENDBRANCH   5   9
TORSDOF 1
ENDMDL
MODEL 8
REMARK VINA RESULT:    -4.237      2.136      4.511
REMARK INTER + INTRA:          -4.581
REMARK INTER:                  -4.487
REMARK INTRA:                  -0.093
REMARK UNBOUND:                -0.096
REMARK SMILES C=C(C)[C@@H]1CC=C(C)C(=O)C1
REMARK SMILES IDX 8 1 7 2 6 3 5 4 4 5 11 6 9 7 10 8 2 9 1 10 3 11
REMARK H PARENT
REMARK Flexibility Score: inf
ROOT
ATOM      1  C   UNL     1      -6.925   6.179  17.202  1.00  0.00     0.048 C 
ATOM      2  C   UNL     1      -6.276   5.124  16.349  1.00  0.00    -0.012 C 
ATOM      3  C   UNL     1      -6.932   3.982  16.082  1.00  0.00    -0.019 C 
ATOM      4  C   UNL     1      -6.336   2.901  15.219  1.00  0.00     0.036 C 
ATOM      5  C   UNL     1      -4.805   2.848  15.376  1.00  0.00     0.025 C 
ATOM      6  C   UNL     1      -4.190   4.230  15.087  1.00  0.00     0.089 C 
ATOM      7  C   UNL     1      -4.869   5.293  15.909  1.00  0.00     0.158 C 
ATOM      8  O   UNL     1      -4.239   6.348  16.188  1.00  0.00    -0.295 OA
ENDROOT
BRANCH   5   9
ATOM      9  C   UNL     1      -4.191   1.771  14.492  1.00  0.00    -0.077 C 
ATOM     10  C   UNL     1      -2.914   1.399  14.673  1.00  0.00     0.008 C 
ATOM     11  C   UNL     1      -4.988   1.102  13.400  1.00  0.00     0.039 C 
ENDBRANCH   5   9
TORSDOF 1
ENDMDL
MODEL 9
REMARK VINA RESULT:    -4.229      2.193      3.193
REMARK INTER + INTRA:          -4.573
REMARK INTER:                  -4.474
REMARK INTRA:                  -0.099
REMARK UNBOUND:                -0.096
REMARK SMILES C=C(C)[C@@H]1CC=C(C)C(=O)C1
REMARK SMILES IDX 8 1 7 2 6 3 5 4 4 5 11 6 9 7 10 8 2 9 1 10 3 11
REMARK H PARENT
REMARK Flexibility Score: inf
ROOT
ATOM      1  C   UNL     1      -3.970   1.358  10.375  1.00  0.00     0.048 C 
ATOM      2  C   UNL     1      -4.246   1.821  11.779  1.00  0.00    -0.012 C 
ATOM      3  C   UNL     1      -4.767   0.965  12.675  1.00  0.00    -0.019 C 
ATOM      4  C   UNL     1      -5.046   1.370  14.099  1.00  0.00     0.036 C 
ATOM      5  C   UNL     1      -5.445   2.855  14.184  1.00  0.00     0.025 C 
ATOM      6  C   UNL     1      -4.367   3.737  13.527  1.00  0.00     0.089 C 
ATOM      7  C   UNL     1      -4.059   3.248  12.138  1.00  0.00     0.158 C 
ATOM      8  O   UNL     1      -3.604   4.061  11.288  1.00  0.00    -0.295 OA
ENDROOT
BRANCH   5   9
ATOM      9  C   UNL     1      -5.710   3.279  15.622  1.00  0.00    -0.077 C 
ATOM     10  C   UNL     1      -4.827   4.056  16.268  1.00  0.00     0.008 C 
ATOM     11  C   UNL     1      -6.954   2.840  16.355  1.00  0.00     0.039 C 
ENDBRANCH   5   9
TORSDOF 1
ENDMDL
