MODEL 1
REMARK VINA RESULT:    -6.702      0.000      0.000
REMARK INTER + INTRA:          -7.504
REMARK INTER:                  -7.290
REMARK INTRA:                  -0.214
REMARK UNBOUND:                -0.214
REMARK SMILES CC(=O)[C@H]1CC[C@@H]2[C@H]3CC=C4C[C@H](O)CC[C@@]4(C)[C@H]3CC[C@@]12C
REMARK SMILES IDX 4 1 5 2 6 3 7 4 22 5 21 6 20 7 19 8 8 9 9 10 10 11 11 12
REMARK SMILES IDX 17 13 16 14 15 15 13 16 12 17 18 18 23 19 2 20 1 21 3 22
REMARK SMILES IDX 14 23
REMARK H PARENT 14 24
REMARK Flexibility Score: inf
ROOT
ATOM      1  C   UNL     1     176.893 175.329 181.674  1.00  0.00     0.062 C 
ATOM      2  C   UNL     1     177.034 176.443 180.611  1.00  0.00     0.012 C 
ATOM      3  C   UNL     1     175.628 177.014 180.363  1.00  0.00     0.005 C 
ATOM      4  C   UNL     1     174.680 176.117 181.162  1.00  0.00    -0.001 C 
ATOM      5  C   UNL     1     175.511 175.602 182.344  1.00  0.00    -0.020 C 
ATOM      6  C   UNL     1     174.777 174.384 182.992  1.00  0.00     0.008 C 
ATOM      7  C   UNL     1     173.242 174.386 182.755  1.00  0.00     0.005 C 
ATOM      8  C   UNL     1     172.607 175.814 182.698  1.00  0.00     0.003 C 
ATOM      9  C   UNL     1     173.308 176.712 181.586  1.00  0.00     0.000 C 
ATOM     10  C   UNL     1     172.434 176.964 180.320  1.00  0.00     0.031 C 
ATOM     11  C   UNL     1     171.378 175.920 180.107  1.00  0.00    -0.027 C 
ATOM     12  C   UNL     1     170.683 175.381 181.128  1.00  0.00    -0.065 C 
ATOM     13  C   UNL     1     171.033 175.787 182.570  1.00  0.00    -0.008 C 
ATOM     14  C   UNL     1     170.381 174.853 183.659  1.00  0.00     0.014 C 
ATOM     15  C   UNL     1     169.936 173.482 183.144  1.00  0.00     0.033 C 
ATOM     16  C   UNL     1     168.979 173.648 181.967  1.00  0.00     0.118 C 
ATOM     17  C   UNL     1     169.712 174.268 180.774  1.00  0.00     0.063 C 
ATOM     18  C   UNL     1     170.468 177.207 182.853  1.00  0.00     0.016 C 
ATOM     19  C   UNL     1     175.739 176.698 183.434  1.00  0.00     0.012 C 
ENDROOT
BRANCH   1  20
ATOM     20  C   UNL     1     177.072 173.932 181.087  1.00  0.00     0.133 C 
ATOM     21  C   UNL     1     176.302 173.416 179.902  1.00  0.00     0.088 C 
ATOM     22  O   UNL     1     177.861 173.172 181.630  1.00  0.00    -0.300 OA
ENDBRANCH   1  20
BRANCH  16  23
ATOM     23  O   UNL     1     167.881 174.444 182.339  1.00  0.00    -0.393 OA
ATOM     24  H   UNL     1     167.733 175.095 181.604  1.00  0.00     0.210 HD
ENDBRANCH  16  23
TORSDOF 2
ENDMDL
MODEL 2
REMARK VINA RESULT:    -6.220      1.638      3.328
REMARK INTER + INTRA:          -6.980
REMARK INTER:                  -6.753
REMARK INTRA:                  -0.227
REMARK UNBOUND:                -0.214
REMARK SMILES CC(=O)[C@H]1CC[C@@H]2[C@H]3CC=C4C[C@H](O)CC[C@@]4(C)[C@H]3CC[C@@]12C
REMARK SMILES IDX 4 1 5 2 6 3 7 4 22 5 21 6 20 7 19 8 8 9 9 10 10 11 11 12
REMARK SMILES IDX 17 13 16 14 15 15 13 16 12 17 18 18 23 19 2 20 1 21 3 22
REMARK SMILES IDX 14 23
REMARK H PARENT 14 24
REMARK Flexibility Score: inf
ROOT
ATOM      1  C   UNL     1     176.898 175.810 180.767  1.00  0.00     0.062 C 
ATOM      2  C   UNL     1     177.290 174.613 181.664  1.00  0.00     0.012 C 
ATOM      3  C   UNL     1     175.984 173.931 182.106  1.00  0.00     0.005 C 
ATOM      4  C   UNL     1     174.862 174.836 181.592  1.00  0.00    -0.001 C 
ATOM      5  C   UNL     1     175.429 175.512 180.338  1.00  0.00    -0.020 C 
ATOM      6  C   UNL     1     174.529 176.735 179.966  1.00  0.00     0.008 C 
ATOM      7  C   UNL     1     173.070 176.611 180.481  1.00  0.00     0.005 C 
ATOM      8  C   UNL     1     172.523 175.146 180.504  1.00  0.00     0.003 C 
ATOM      9  C   UNL     1     173.464 174.195 181.369  1.00  0.00     0.000 C 
ATOM     10  C   UNL     1     172.858 173.770 182.740  1.00  0.00     0.031 C 
ATOM     11  C   UNL     1     171.815 174.718 183.252  1.00  0.00    -0.027 C 
ATOM     12  C   UNL     1     170.914 175.304 182.437  1.00  0.00    -0.065 C 
ATOM     13  C   UNL     1     171.003 175.058 180.921  1.00  0.00    -0.008 C 
ATOM     14  C   UNL     1     170.114 176.045 180.075  1.00  0.00     0.014 C 
ATOM     15  C   UNL     1     169.711 177.330 180.803  1.00  0.00     0.033 C 
ATOM     16  C   UNL     1     169.003 176.993 182.112  1.00  0.00     0.118 C 
ATOM     17  C   UNL     1     169.977 176.313 183.079  1.00  0.00     0.063 C 
ATOM     18  C   UNL     1     170.461 173.637 180.601  1.00  0.00     0.016 C 
ATOM     19  C   UNL     1     175.497 174.539 179.116  1.00  0.00     0.012 C 
ENDROOT
BRANCH   1  20
ATOM     20  C   UNL     1     177.121 177.155 181.453  1.00  0.00     0.133 C 
ATOM     21  C   UNL     1     176.992 177.369 182.937  1.00  0.00     0.088 C 
ATOM     22  O   UNL     1     177.385 178.125 180.757  1.00  0.00    -0.300 OA
ENDBRANCH   1  20
BRANCH  16  23
ATOM     23  O   UNL     1     167.893 176.166 181.867  1.00  0.00    -0.393 OA
ATOM     24  H   UNL     1     168.195 175.454 181.244  1.00  0.00     0.210 HD
ENDBRANCH  16  23
TORSDOF 2
ENDMDL
MODEL 3
REMARK VINA RESULT:    -6.133      1.727      6.395
REMARK INTER + INTRA:          -6.885
REMARK INTER:                  -6.627
REMARK INTRA:                  -0.258
REMARK UNBOUND:                -0.214
REMARK SMILES CC(=O)[C@H]1CC[C@@H]2[C@H]3CC=C4C[C@H](O)CC[C@@]4(C)[C@H]3CC[C@@]12C
REMARK SMILES IDX 4 1 5 2 6 3 7 4 22 5 21 6 20 7 19 8 8 9 9 10 10 11 11 12
REMARK SMILES IDX 17 13 16 14 15 15 13 16 12 17 18 18 23 19 2 20 1 21 3 22
REMARK SMILES IDX 14 23
REMARK H PARENT 14 24
REMARK Flexibility Score: inf
ROOT
ATOM      1  C   UNL     1     169.540 177.007 182.657  1.00  0.00     0.062 C 
ATOM      2  C   UNL     1     169.468 175.843 183.672  1.00  0.00     0.012 C 
ATOM      3  C   UNL     1     170.830 175.130 183.643  1.00  0.00     0.005 C 
ATOM      4  C   UNL     1     171.606 175.789 182.501  1.00  0.00    -0.001 C 
ATOM      5  C   UNL     1     171.066 177.221 182.417  1.00  0.00    -0.020 C 
ATOM      6  C   UNL     1     171.495 177.851 181.052  1.00  0.00     0.008 C 
ATOM      7  C   UNL     1     172.775 177.213 180.449  1.00  0.00     0.005 C 
ATOM      8  C   UNL     1     173.816 176.739 181.517  1.00  0.00     0.003 C 
ATOM      9  C   UNL     1     173.159 175.717 182.547  1.00  0.00     0.000 C 
ATOM     10  C   UNL     1     173.620 174.240 182.367  1.00  0.00     0.031 C 
ATOM     11  C   UNL     1     174.121 173.936 180.986  1.00  0.00    -0.027 C 
ATOM     12  C   UNL     1     174.869 174.810 180.284  1.00  0.00    -0.065 C 
ATOM     13  C   UNL     1     175.155 176.199 180.880  1.00  0.00    -0.008 C 
ATOM     14  C   UNL     1     175.750 177.218 179.835  1.00  0.00     0.014 C 
ATOM     15  C   UNL     1     175.504 176.849 178.370  1.00  0.00     0.033 C 
ATOM     16  C   UNL     1     176.036 175.448 178.084  1.00  0.00     0.118 C 
ATOM     17  C   UNL     1     175.229 174.407 178.865  1.00  0.00     0.063 C 
ATOM     18  C   UNL     1     176.238 176.068 181.988  1.00  0.00     0.016 C 
ATOM     19  C   UNL     1     171.589 178.125 183.581  1.00  0.00     0.012 C 
ENDROOT
BRANCH   1  20
ATOM     20  C   UNL     1     168.710 176.742 181.403  1.00  0.00     0.133 C 
ATOM     21  C   UNL     1     168.618 175.401 180.728  1.00  0.00     0.088 C 
ATOM     22  O   UNL     1     168.113 177.680 180.894  1.00  0.00    -0.300 OA
ENDBRANCH   1  20
BRANCH  16  23
ATOM     23  O   UNL     1     177.399 175.367 178.417  1.00  0.00    -0.393 OA
ATOM     24  H   UNL     1     177.469 174.766 179.205  1.00  0.00     0.210 HD
ENDBRANCH  16  23
TORSDOF 2
ENDMDL
MODEL 4
REMARK VINA RESULT:    -6.129      7.318     10.875
REMARK INTER + INTRA:          -6.880
REMARK INTER:                  -6.658
REMARK INTRA:                  -0.222
REMARK UNBOUND:                -0.214
REMARK SMILES CC(=O)[C@H]1CC[C@@H]2[C@H]3CC=C4C[C@H](O)CC[C@@]4(C)[C@H]3CC[C@@]12C
REMARK SMILES IDX 4 1 5 2 6 3 7 4 22 5 21 6 20 7 19 8 8 9 9 10 10 11 11 12
REMARK SMILES IDX 17 13 16 14 15 15 13 16 12 17 18 18 23 19 2 20 1 21 3 22
REMARK SMILES IDX 14 23
REMARK H PARENT 14 24
REMARK Flexibility Score: inf
ROOT
ATOM      1  C   UNL     1     165.501 177.045 181.733  1.00  0.00     0.062 C 
ATOM      2  C   UNL     1     164.997 178.125 180.748  1.00  0.00     0.012 C 
ATOM      3  C   UNL     1     163.524 177.807 180.442  1.00  0.00     0.005 C 
ATOM      4  C   UNL     1     163.250 176.465 181.124  1.00  0.00    -0.001 C 
ATOM      5  C   UNL     1     164.202 176.419 182.325  1.00  0.00    -0.020 C 
ATOM      6  C   UNL     1     164.289 174.950 182.852  1.00  0.00     0.008 C 
ATOM      7  C   UNL     1     163.039 174.093 182.514  1.00  0.00     0.005 C 
ATOM      8  C   UNL     1     161.699 174.899 182.500  1.00  0.00     0.003 C 
ATOM      9  C   UNL     1     161.777 176.128 181.490  1.00  0.00     0.000 C 
ATOM     10  C   UNL     1     160.944 175.942 180.186  1.00  0.00     0.031 C 
ATOM     11  C   UNL     1     160.686 174.504 179.844  1.00  0.00    -0.027 C 
ATOM     12  C   UNL     1     160.408 173.580 180.784  1.00  0.00    -0.065 C 
ATOM     13  C   UNL     1     160.431 173.988 182.267  1.00  0.00    -0.008 C 
ATOM     14  C   UNL     1     160.413 172.760 183.254  1.00  0.00     0.014 C 
ATOM     15  C   UNL     1     160.849 171.431 182.632  1.00  0.00     0.033 C 
ATOM     16  C   UNL     1     159.995 171.119 181.406  1.00  0.00     0.118 C 
ATOM     17  C   UNL     1     160.261 172.146 180.302  1.00  0.00     0.063 C 
ATOM     18  C   UNL     1     159.145 174.798 182.594  1.00  0.00     0.016 C 
ATOM     19  C   UNL     1     163.734 177.350 183.491  1.00  0.00     0.012 C 
ENDROOT
BRANCH   1  20
ATOM     20  C   UNL     1     166.465 176.059 181.079  1.00  0.00     0.133 C 
ATOM     21  C   UNL     1     167.702 175.526 181.750  1.00  0.00     0.088 C 
ATOM     22  O   UNL     1     166.242 175.706 179.930  1.00  0.00    -0.300 OA
ENDBRANCH   1  20
BRANCH  16  23
ATOM     23  O   UNL     1     158.632 171.108 181.751  1.00  0.00    -0.393 OA
ATOM     24  H   UNL     1     158.274 172.010 181.542  1.00  0.00     0.210 HD
ENDBRANCH  16  23
TORSDOF 2
ENDMDL
MODEL 5
REMARK VINA RESULT:    -6.126      1.581      2.542
REMARK INTER + INTRA:          -6.877
REMARK INTER:                  -6.699
REMARK INTRA:                  -0.178
REMARK UNBOUND:                -0.214
REMARK SMILES CC(=O)[C@H]1CC[C@@H]2[C@H]3CC=C4C[C@H](O)CC[C@@]4(C)[C@H]3CC[C@@]12C
REMARK SMILES IDX 4 1 5 2 6 3 7 4 22 5 21 6 20 7 19 8 8 9 9 10 10 11 11 12
REMARK SMILES IDX 17 13 16 14 15 15 13 16 12 17 18 18 23 19 2 20 1 21 3 22
REMARK SMILES IDX 14 23
REMARK H PARENT 14 24
REMARK Flexibility Score: inf
ROOT
ATOM      1  C   UNL     1     176.697 175.641 181.208  1.00  0.00     0.062 C 
ATOM      2  C   UNL     1     176.962 176.673 182.328  1.00  0.00     0.012 C 
ATOM      3  C   UNL     1     175.597 177.063 182.919  1.00  0.00     0.005 C 
ATOM      4  C   UNL     1     174.560 176.376 182.028  1.00  0.00    -0.001 C 
ATOM      5  C   UNL     1     175.256 175.118 181.493  1.00  0.00    -0.020 C 
ATOM      6  C   UNL     1     174.443 174.561 180.280  1.00  0.00     0.008 C 
ATOM      7  C   UNL     1     172.942 174.959 180.303  1.00  0.00     0.005 C 
ATOM      8  C   UNL     1     172.333 175.069 181.739  1.00  0.00     0.003 C 
ATOM      9  C   UNL     1     173.158 176.094 182.637  1.00  0.00     0.000 C 
ATOM     10  C   UNL     1     172.425 177.442 182.909  1.00  0.00     0.031 C 
ATOM     11  C   UNL     1     171.386 177.775 181.880  1.00  0.00    -0.027 C 
ATOM     12  C   UNL     1     170.581 176.837 181.343  1.00  0.00    -0.065 C 
ATOM     13  C   UNL     1     170.782 175.363 181.733  1.00  0.00    -0.008 C 
ATOM     14  C   UNL     1     170.007 174.357 180.800  1.00  0.00     0.014 C 
ATOM     15  C   UNL     1     169.602 174.929 179.438  1.00  0.00     0.033 C 
ATOM     16  C   UNL     1     168.777 176.198 179.625  1.00  0.00     0.118 C 
ATOM     17  C   UNL     1     169.639 177.302 180.245  1.00  0.00     0.063 C 
ATOM     18  C   UNL     1     170.206 175.128 183.158  1.00  0.00     0.016 C 
ATOM     19  C   UNL     1     175.380 174.000 182.578  1.00  0.00     0.012 C 
ENDROOT
BRANCH   1  20
ATOM     20  C   UNL     1     176.921 176.218 179.813  1.00  0.00     0.133 C 
ATOM     21  C   UNL     1     176.827 177.685 179.489  1.00  0.00     0.088 C 
ATOM     22  O   UNL     1     177.155 175.445 178.896  1.00  0.00    -0.300 OA
ENDBRANCH   1  20
BRANCH  16  23
ATOM     23  O   UNL     1     167.656 175.937 180.432  1.00  0.00    -0.393 OA
ATOM     24  H   UNL     1     167.070 175.319 179.921  1.00  0.00     0.210 HD
ENDBRANCH  16  23
TORSDOF 2
ENDMDL
MODEL 6
REMARK VINA RESULT:    -6.058      1.409      6.081
REMARK INTER + INTRA:          -6.803
REMARK INTER:                  -6.553
REMARK INTRA:                  -0.251
REMARK UNBOUND:                -0.214
REMARK SMILES CC(=O)[C@H]1CC[C@@H]2[C@H]3CC=C4C[C@H](O)CC[C@@]4(C)[C@H]3CC[C@@]12C
REMARK SMILES IDX 4 1 5 2 6 3 7 4 22 5 21 6 20 7 19 8 8 9 9 10 10 11 11 12
REMARK SMILES IDX 17 13 16 14 15 15 13 16 12 17 18 18 23 19 2 20 1 21 3 22
REMARK SMILES IDX 14 23
REMARK H PARENT 14 24
REMARK Flexibility Score: inf
ROOT
ATOM      1  C   UNL     1     170.398 176.767 181.966  1.00  0.00     0.062 C 
ATOM      2  C   UNL     1     170.982 177.846 182.906  1.00  0.00     0.012 C 
ATOM      3  C   UNL     1     172.509 177.660 182.918  1.00  0.00     0.005 C 
ATOM      4  C   UNL     1     172.766 176.382 182.117  1.00  0.00    -0.001 C 
ATOM      5  C   UNL     1     171.613 176.296 181.110  1.00  0.00    -0.020 C 
ATOM      6  C   UNL     1     171.557 174.850 180.519  1.00  0.00     0.008 C 
ATOM      7  C   UNL     1     172.918 174.105 180.569  1.00  0.00     0.005 C 
ATOM      8  C   UNL     1     174.162 175.036 180.387  1.00  0.00     0.003 C 
ATOM      9  C   UNL     1     174.167 176.206 181.468  1.00  0.00     0.000 C 
ATOM     10  C   UNL     1     175.244 176.045 182.583  1.00  0.00     0.031 C 
ATOM     11  C   UNL     1     175.686 174.626 182.784  1.00  0.00    -0.027 C 
ATOM     12  C   UNL     1     175.862 173.774 181.754  1.00  0.00    -0.065 C 
ATOM     13  C   UNL     1     175.525 174.243 180.328  1.00  0.00    -0.008 C 
ATOM     14  C   UNL     1     175.465 173.067 179.282  1.00  0.00     0.014 C 
ATOM     15  C   UNL     1     175.271 171.676 179.891  1.00  0.00     0.033 C 
ATOM     16  C   UNL     1     176.364 171.395 180.918  1.00  0.00     0.118 C 
ATOM     17  C   UNL     1     176.221 172.343 182.113  1.00  0.00     0.063 C 
ATOM     18  C   UNL     1     176.651 175.188 179.821  1.00  0.00     0.016 C 
ATOM     19  C   UNL     1     171.770 177.319 179.937  1.00  0.00     0.012 C 
ENDROOT
BRANCH   1  20
ATOM     20  C   UNL     1     169.665 175.664 182.725  1.00  0.00     0.133 C 
ATOM     21  C   UNL     1     170.211 174.986 183.952  1.00  0.00     0.088 C 
ATOM     22  O   UNL     1     168.587 175.280 182.293  1.00  0.00    -0.300 OA
ENDBRANCH   1  20
BRANCH  16  23
ATOM     23  O   UNL     1     177.633 171.531 180.330  1.00  0.00    -0.393 OA
ATOM     24  H   UNL     1     178.150 172.161 180.898  1.00  0.00     0.210 HD
ENDBRANCH  16  23
TORSDOF 2
ENDMDL
MODEL 7
REMARK VINA RESULT:    -5.875      1.706      2.061
REMARK INTER + INTRA:          -6.604
REMARK INTER:                  -6.385
REMARK INTRA:                  -0.219
REMARK UNBOUND:                -0.214
REMARK SMILES CC(=O)[C@H]1CC[C@@H]2[C@H]3CC=C4C[C@H](O)CC[C@@]4(C)[C@H]3CC[C@@]12C
REMARK SMILES IDX 4 1 5 2 6 3 7 4 22 5 21 6 20 7 19 8 8 9 9 10 10 11 11 12
REMARK SMILES IDX 17 13 16 14 15 15 13 16 12 17 18 18 23 19 2 20 1 21 3 22
REMARK SMILES IDX 14 23
REMARK H PARENT 14 24
REMARK Flexibility Score: inf
ROOT
ATOM      1  C   UNL     1     176.127 173.046 181.194  1.00  0.00     0.062 C 
ATOM      2  C   UNL     1     176.960 174.007 180.316  1.00  0.00     0.012 C 
ATOM      3  C   UNL     1     176.167 175.319 180.201  1.00  0.00     0.005 C 
ATOM      4  C   UNL     1     174.823 175.040 180.876  1.00  0.00    -0.001 C 
ATOM      5  C   UNL     1     175.117 173.973 181.937  1.00  0.00    -0.020 C 
ATOM      6  C   UNL     1     173.770 173.335 182.407  1.00  0.00     0.008 C 
ATOM      7  C   UNL     1     172.542 174.265 182.217  1.00  0.00     0.005 C 
ATOM      8  C   UNL     1     172.858 175.786 182.404  1.00  0.00     0.003 C 
ATOM      9  C   UNL     1     174.025 176.255 181.427  1.00  0.00     0.000 C 
ATOM     10  C   UNL     1     173.549 177.148 180.242  1.00  0.00     0.031 C 
ATOM     11  C   UNL     1     172.101 176.961 179.897  1.00  0.00    -0.027 C 
ATOM     12  C   UNL     1     171.154 176.788 180.841  1.00  0.00    -0.065 C 
ATOM     13  C   UNL     1     171.574 176.700 182.318  1.00  0.00    -0.008 C 
ATOM     14  C   UNL     1     170.428 176.178 183.264  1.00  0.00     0.014 C 
ATOM     15  C   UNL     1     169.307 175.416 182.553  1.00  0.00     0.033 C 
ATOM     16  C   UNL     1     168.708 176.277 181.445  1.00  0.00     0.118 C 
ATOM     17  C   UNL     1     169.745 176.517 180.343  1.00  0.00     0.063 C 
ATOM     18  C   UNL     1     171.920 178.125 182.837  1.00  0.00     0.016 C 
ATOM     19  C   UNL     1     175.863 174.560 183.180  1.00  0.00     0.012 C 
ENDROOT
BRANCH   1  20
ATOM     20  C   UNL     1     175.503 171.909 180.390  1.00  0.00     0.133 C 
ATOM     21  C   UNL     1     175.315 170.513 180.920  1.00  0.00     0.088 C 
ATOM     22  O   UNL     1     175.168 172.130 179.235  1.00  0.00    -0.300 OA
ENDBRANCH   1  20
BRANCH  16  23
ATOM     23  O   UNL     1     168.253 177.499 181.969  1.00  0.00    -0.393 OA
ATOM     24  H   UNL     1     167.437 177.746 181.460  1.00  0.00     0.210 HD
ENDBRANCH  16  23
TORSDOF 2
ENDMDL
MODEL 8
REMARK VINA RESULT:    -5.849      7.005     11.621
REMARK INTER + INTRA:          -6.576
REMARK INTER:                  -6.331
REMARK INTRA:                  -0.245
REMARK UNBOUND:                -0.214
REMARK SMILES CC(=O)[C@H]1CC[C@@H]2[C@H]3CC=C4C[C@H](O)CC[C@@]4(C)[C@H]3CC[C@@]12C
REMARK SMILES IDX 4 1 5 2 6 3 7 4 22 5 21 6 20 7 19 8 8 9 9 10 10 11 11 12
REMARK SMILES IDX 17 13 16 14 15 15 13 16 12 17 18 18 23 19 2 20 1 21 3 22
REMARK SMILES IDX 14 23
REMARK H PARENT 14 24
REMARK Flexibility Score: inf
ROOT
ATOM      1  C   UNL     1     160.556 172.691 182.012  1.00  0.00     0.062 C 
ATOM      2  C   UNL     1     159.649 173.606 182.867  1.00  0.00     0.012 C 
ATOM      3  C   UNL     1     160.248 175.021 182.807  1.00  0.00     0.005 C 
ATOM      4  C   UNL     1     161.573 174.868 182.057  1.00  0.00    -0.001 C 
ATOM      5  C   UNL     1     161.370 173.674 181.117  1.00  0.00    -0.020 C 
ATOM      6  C   UNL     1     162.763 173.187 180.602  1.00  0.00     0.008 C 
ATOM      7  C   UNL     1     163.852 174.294 180.617  1.00  0.00     0.005 C 
ATOM      8  C   UNL     1     163.306 175.730 180.325  1.00  0.00     0.003 C 
ATOM      9  C   UNL     1     162.148 176.124 181.345  1.00  0.00     0.000 C 
ATOM     10  C   UNL     1     162.564 177.185 182.408  1.00  0.00     0.031 C 
ATOM     11  C   UNL     1     164.042 177.234 182.655  1.00  0.00    -0.027 C 
ATOM     12  C   UNL     1     164.942 177.106 181.661  1.00  0.00    -0.065 C 
ATOM     13  C   UNL     1     164.446 176.819 180.233  1.00  0.00    -0.008 C 
ATOM     14  C   UNL     1     165.593 176.373 179.250  1.00  0.00     0.014 C 
ATOM     15  C   UNL     1     166.857 175.846 179.935  1.00  0.00     0.033 C 
ATOM     16  C   UNL     1     167.393 176.884 180.917  1.00  0.00     0.118 C 
ATOM     17  C   UNL     1     166.405 177.082 182.070  1.00  0.00     0.063 C 
ATOM     18  C   UNL     1     163.864 178.125 179.622  1.00  0.00     0.016 C 
ATOM     19  C   UNL     1     160.469 174.029 179.890  1.00  0.00     0.012 C 
ENDROOT
BRANCH   1  20
ATOM     20  C   UNL     1     161.389 171.734 182.861  1.00  0.00     0.133 C 
ATOM     21  C   UNL     1     162.185 172.160 184.066  1.00  0.00     0.088 C 
ATOM     22  O   UNL     1     161.445 170.560 182.526  1.00  0.00    -0.300 OA
ENDBRANCH   1  20
BRANCH  16  23
ATOM     23  O   UNL     1     167.631 178.102 180.256  1.00  0.00    -0.393 OA
ATOM     24  H   UNL     1     167.196 178.038 179.366  1.00  0.00     0.210 HD
ENDBRANCH  16  23
TORSDOF 2
ENDMDL
MODEL 9
REMARK VINA RESULT:    -5.804      8.942     11.311
REMARK INTER + INTRA:          -6.527
REMARK INTER:                  -6.409
REMARK INTRA:                  -0.119
REMARK UNBOUND:                -0.214
REMARK SMILES CC(=O)[C@H]1CC[C@@H]2[C@H]3CC=C4C[C@H](O)CC[C@@]4(C)[C@H]3CC[C@@]12C
REMARK SMILES IDX 4 1 5 2 6 3 7 4 22 5 21 6 20 7 19 8 8 9 9 10 10 11 11 12
REMARK SMILES IDX 17 13 16 14 15 15 13 16 12 17 18 18 23 19 2 20 1 21 3 22
REMARK SMILES IDX 14 23
REMARK H PARENT 14 24
REMARK Flexibility Score: inf
ROOT
ATOM      1  C   UNL     1     176.317 161.623 181.807  1.00  0.00     0.062 C 
ATOM      2  C   UNL     1     177.542 161.429 180.884  1.00  0.00     0.012 C 
ATOM      3  C   UNL     1     178.125 162.824 180.605  1.00  0.00     0.005 C 
ATOM      4  C   UNL     1     177.137 163.808 181.235  1.00  0.00    -0.001 C 
ATOM      5  C   UNL     1     176.502 163.050 182.407  1.00  0.00    -0.020 C 
ATOM      6  C   UNL     1     175.214 163.806 182.867  1.00  0.00     0.008 C 
ATOM      7  C   UNL     1     175.229 165.321 182.527  1.00  0.00     0.005 C 
ATOM      8  C   UNL     1     176.649 165.974 182.584  1.00  0.00     0.003 C 
ATOM      9  C   UNL     1     177.670 165.215 181.627  1.00  0.00     0.000 C 
ATOM     10  C   UNL     1     178.052 166.006 180.340  1.00  0.00     0.031 C 
ATOM     11  C   UNL     1     177.029 167.029 179.943  1.00  0.00    -0.027 C 
ATOM     12  C   UNL     1     176.375 167.782 180.849  1.00  0.00    -0.065 C 
ATOM     13  C   UNL     1     176.623 167.535 182.347  1.00  0.00    -0.008 C 
ATOM     14  C   UNL     1     175.570 168.244 183.281  1.00  0.00     0.014 C 
ATOM     15  C   UNL     1     174.260 168.632 182.590  1.00  0.00     0.033 C 
ATOM     16  C   UNL     1     174.546 169.510 181.376  1.00  0.00     0.118 C 
ATOM     17  C   UNL     1     175.300 168.710 180.310  1.00  0.00     0.063 C 
ATOM     18  C   UNL     1     177.999 168.141 182.745  1.00  0.00     0.016 C 
ATOM     19  C   UNL     1     177.474 162.913 183.624  1.00  0.00     0.012 C 
ENDROOT
BRANCH   1  20
ATOM     20  C   UNL     1     174.995 161.382 181.084  1.00  0.00     0.133 C 
ATOM     21  C   UNL     1     174.519 162.199 179.914  1.00  0.00     0.088 C 
ATOM     22  O   UNL     1     174.259 160.498 181.499  1.00  0.00    -0.300 OA
ENDBRANCH   1  20
BRANCH  16  23
ATOM     23  O   UNL     1     175.287 170.643 181.757  1.00  0.00    -0.393 OA
ATOM     24  H   UNL     1     174.895 171.419 181.278  1.00  0.00     0.210 HD
ENDBRANCH  16  23
TORSDOF 2
ENDMDL
