MODEL 1
REMARK VINA RESULT:    -3.494      0.000      0.000
REMARK INTER + INTRA:          -3.940
REMARK INTER:                  -3.902
REMARK INTRA:                  -0.038
REMARK UNBOUND:                -0.038
REMARK SMILES CCCC(=O)[O-]
REMARK SMILES IDX 3 1 4 2 5 3 6 4 2 5 1 6
REMARK H PARENT
REMARK Flexibility Score: inf
ROOT
ATOM      1  C   UNL     1      -2.793  35.159  98.505  1.00  0.00     0.052 C 
ENDROOT
BRANCH   1   2
ATOM      2  C   UNL     1      -3.211  36.498  97.981  1.00  0.00     0.041 C 
ATOM      3  O   UNL     1      -3.252  36.709  96.740  1.00  0.00    -0.550 OA
ATOM      4  O   UNL     1      -3.522  37.524  98.863  1.00  0.00    -0.550 OA
ENDBRANCH   1   2
BRANCH   1   5
ATOM      5  C   UNL     1      -3.948  34.445  99.222  1.00  0.00     0.003 C 
ATOM      6  C   UNL     1      -5.241  34.470  98.409  1.00  0.00     0.004 C 
ENDBRANCH   1   5
TORSDOF 2
ENDMDL
MODEL 2
REMARK VINA RESULT:    -3.352      1.339      1.814
REMARK INTER + INTRA:          -3.782
REMARK INTER:                  -3.728
REMARK INTRA:                  -0.055
REMARK UNBOUND:                -0.038
REMARK SMILES CCCC(=O)[O-]
REMARK SMILES IDX 3 1 4 2 5 3 6 4 2 5 1 6
REMARK H PARENT
REMARK Flexibility Score: inf
ROOT
ATOM      1  C   UNL     1      -3.299  36.397  97.614  1.00  0.00     0.052 C 
ENDROOT
BRANCH   1   2
ATOM      2  C   UNL     1      -3.907  37.525  98.389  1.00  0.00     0.041 C 
ATOM      3  O   UNL     1      -3.173  38.320  99.033  1.00  0.00    -0.550 OA
ATOM      4  O   UNL     1      -5.287  37.679  98.427  1.00  0.00    -0.550 OA
ENDBRANCH   1   2
BRANCH   1   5
ATOM      5  C   UNL     1      -2.842  35.257  98.535  1.00  0.00     0.003 C 
ATOM      6  C   UNL     1      -4.012  34.414  99.040  1.00  0.00     0.004 C 
ENDBRANCH   1   5
TORSDOF 2
ENDMDL
MODEL 3
REMARK VINA RESULT:    -3.329      1.753      2.567
REMARK INTER + INTRA:          -3.756
REMARK INTER:                  -3.698
REMARK INTRA:                  -0.058
REMARK UNBOUND:                -0.038
REMARK SMILES CCCC(=O)[O-]
REMARK SMILES IDX 3 1 4 2 5 3 6 4 2 5 1 6
REMARK H PARENT
REMARK Flexibility Score: inf
ROOT
ATOM      1  C   UNL     1      -5.282  35.236  99.028  1.00  0.00     0.052 C 
ENDROOT
BRANCH   1   2
ATOM      2  C   UNL     1      -5.109  36.479  99.847  1.00  0.00     0.041 C 
ATOM      3  O   UNL     1      -5.038  37.604  99.286  1.00  0.00    -0.550 OA
ATOM      4  O   UNL     1      -4.993  36.391 101.228  1.00  0.00    -0.550 OA
ENDBRANCH   1   2
BRANCH   1   5
ATOM      5  C   UNL     1      -4.047  34.329  99.105  1.00  0.00     0.003 C 
ATOM      6  C   UNL     1      -2.779  35.032  98.624  1.00  0.00     0.004 C 
ENDBRANCH   1   5
TORSDOF 2
ENDMDL
MODEL 4
REMARK VINA RESULT:    -3.313      1.500      2.441
REMARK INTER + INTRA:          -3.738
REMARK INTER:                  -3.686
REMARK INTRA:                  -0.052
REMARK UNBOUND:                -0.038
REMARK SMILES CCCC(=O)[O-]
REMARK SMILES IDX 3 1 4 2 5 3 6 4 2 5 1 6
REMARK H PARENT
REMARK Flexibility Score: inf
ROOT
ATOM      1  C   UNL     1      -5.557  35.292  98.879  1.00  0.00     0.052 C 
ENDROOT
BRANCH   1   2
ATOM      2  C   UNL     1      -5.350  36.557  98.103  1.00  0.00     0.041 C 
ATOM      3  O   UNL     1      -5.238  37.658  98.703  1.00  0.00    -0.550 OA
ATOM      4  O   UNL     1      -5.314  36.522  96.715  1.00  0.00    -0.550 OA
ENDBRANCH   1   2
BRANCH   1   5
ATOM      5  C   UNL     1      -4.408  34.299  98.663  1.00  0.00     0.003 C 
ATOM      6  C   UNL     1      -3.037  34.944  98.860  1.00  0.00     0.004 C 
ENDBRANCH   1   5
TORSDOF 2
ENDMDL
MODEL 5
REMARK VINA RESULT:    -3.267      2.108      3.090
REMARK INTER + INTRA:          -3.687
REMARK INTER:                  -3.628
REMARK INTRA:                  -0.058
REMARK UNBOUND:                -0.038
REMARK SMILES CCCC(=O)[O-]
REMARK SMILES IDX 3 1 4 2 5 3 6 4 2 5 1 6
REMARK H PARENT
REMARK Flexibility Score: inf
ROOT
ATOM      1  C   UNL     1      -2.860  35.261  98.362  1.00  0.00     0.052 C 
ENDROOT
BRANCH   1   2
ATOM      2  C   UNL     1      -4.039  34.613  99.020  1.00  0.00     0.041 C 
ATOM      3  O   UNL     1      -3.953  34.193 100.204  1.00  0.00    -0.550 OA
ATOM      4  O   UNL     1      -5.223  34.443  98.315  1.00  0.00    -0.550 OA
ENDBRANCH   1   2
BRANCH   1   5
ATOM      5  C   UNL     1      -3.278  36.471  97.515  1.00  0.00     0.003 C 
ATOM      6  C   UNL     1      -3.626  37.687  98.371  1.00  0.00     0.004 C 
ENDBRANCH   1   5
TORSDOF 2
ENDMDL
MODEL 6
REMARK VINA RESULT:    -3.223      1.878      2.522
REMARK INTER + INTRA:          -3.638
REMARK INTER:                  -3.573
REMARK INTRA:                  -0.065
REMARK UNBOUND:                -0.038
REMARK SMILES CCCC(=O)[O-]
REMARK SMILES IDX 3 1 4 2 5 3 6 4 2 5 1 6
REMARK H PARENT
REMARK Flexibility Score: inf
ROOT
ATOM      1  C   UNL     1      -2.980  35.406 100.330  1.00  0.00     0.052 C 
ENDROOT
BRANCH   1   2
ATOM      2  C   UNL     1      -3.830  36.603 100.626  1.00  0.00     0.041 C 
ATOM      3  O   UNL     1      -4.779  36.520 101.449  1.00  0.00    -0.550 OA
ATOM      4  O   UNL     1      -3.593  37.804  99.968  1.00  0.00    -0.550 OA
ENDBRANCH   1   2
BRANCH   1   5
ATOM      5  C   UNL     1      -3.157  34.929  98.882  1.00  0.00     0.003 C 
ATOM      6  C   UNL     1      -4.549  34.353  98.625  1.00  0.00     0.004 C 
ENDBRANCH   1   5
TORSDOF 2
ENDMDL
MODEL 7
REMARK VINA RESULT:    -3.195      1.862      2.166
REMARK INTER + INTRA:          -3.607
REMARK INTER:                  -3.535
REMARK INTRA:                  -0.072
REMARK UNBOUND:                -0.038
REMARK SMILES CCCC(=O)[O-]
REMARK SMILES IDX 3 1 4 2 5 3 6 4 2 5 1 6
REMARK H PARENT
REMARK Flexibility Score: inf
ROOT
ATOM      1  C   UNL     1      -5.110  35.555  98.516  1.00  0.00     0.052 C 
ENDROOT
BRANCH   1   2
ATOM      2  C   UNL     1      -3.661  35.841  98.266  1.00  0.00     0.041 C 
ATOM      3  O   UNL     1      -3.312  36.924  97.728  1.00  0.00    -0.550 OA
ATOM      4  O   UNL     1      -2.699  34.895  98.596  1.00  0.00    -0.550 OA
ENDBRANCH   1   2
BRANCH   1   5
ATOM      5  C   UNL     1      -5.375  35.219  99.990  1.00  0.00     0.003 C 
ATOM      6  C   UNL     1      -5.006  36.370 100.925  1.00  0.00     0.004 C 
ENDBRANCH   1   5
TORSDOF 2
ENDMDL
MODEL 8
REMARK VINA RESULT:    -3.044      2.060      3.081
REMARK INTER + INTRA:          -3.437
REMARK INTER:                  -3.371
REMARK INTRA:                  -0.067
REMARK UNBOUND:                -0.038
REMARK SMILES CCCC(=O)[O-]
REMARK SMILES IDX 3 1 4 2 5 3 6 4 2 5 1 6
REMARK H PARENT
REMARK Flexibility Score: inf
ROOT
ATOM      1  C   UNL     1      -3.388  37.043  97.572  1.00  0.00     0.052 C 
ENDROOT
BRANCH   1   2
ATOM      2  C   UNL     1      -3.578  35.723  98.254  1.00  0.00     0.041 C 
ATOM      3  O   UNL     1      -4.735  35.315  98.536  1.00  0.00    -0.550 OA
ATOM      4  O   UNL     1      -2.473  34.958  98.607  1.00  0.00    -0.550 OA
ENDBRANCH   1   2
BRANCH   1   5
ATOM      5  C   UNL     1      -4.061  38.184  98.347  1.00  0.00     0.003 C 
ATOM      6  C   UNL     1      -3.334  38.507  99.652  1.00  0.00     0.004 C 
ENDBRANCH   1   5
TORSDOF 2
ENDMDL
MODEL 9
REMARK VINA RESULT:    -2.997      1.849      2.685
REMARK INTER + INTRA:          -3.386
REMARK INTER:                  -3.348
REMARK INTRA:                  -0.038
REMARK UNBOUND:                -0.038
REMARK SMILES CCCC(=O)[O-]
REMARK SMILES IDX 3 1 4 2 5 3 6 4 2 5 1 6
REMARK H PARENT
REMARK Flexibility Score: inf
ROOT
ATOM      1  C   UNL     1      -3.292  35.568  98.273  1.00  0.00     0.052 C 
ENDROOT
BRANCH   1   2
ATOM      2  C   UNL     1      -3.231  36.055  99.689  1.00  0.00     0.041 C 
ATOM      3  O   UNL     1      -3.379  37.278  99.945  1.00  0.00    -0.550 OA
ATOM      4  O   UNL     1      -2.978  35.161 100.721  1.00  0.00    -0.550 OA
ENDBRANCH   1   2
BRANCH   1   5
ATOM      5  C   UNL     1      -3.212  36.727  97.271  1.00  0.00     0.003 C 
ATOM      6  C   UNL     1      -4.550  36.992  96.581  1.00  0.00     0.004 C 
ENDBRANCH   1   5
TORSDOF 2
ENDMDL
