MODEL 1
REMARK VINA RESULT:    -5.916      0.000      0.000
REMARK INTER + INTRA:          -7.268
REMARK INTER:                  -6.954
REMARK INTRA:                  -0.314
REMARK UNBOUND:                -0.314
REMARK SMILES Oc1ccc(-c2[o+]c3cc(O)cc(O)c3cc2O)cc1
REMARK SMILES IDX 6 1 7 2 8 3 9 4 10 5 12 6 13 7 15 8 16 9 17 10 5 11 4 12
REMARK SMILES IDX 3 13 2 14 19 15 20 16 1 17 18 19 11 21 14 23
REMARK H PARENT 1 18 18 20 11 22 14 24
REMARK Flexibility Score: inf
ROOT
ATOM      1  C   UNL     1     -20.251  23.157  34.717  1.00  0.00     0.401 A 
ATOM      2  O   UNL     1     -20.591  24.365  34.273  1.00  0.00    -0.202 OA
ATOM      3  C   UNL     1     -19.802  25.111  33.509  1.00  0.00     0.368 A 
ATOM      4  C   UNL     1     -20.247  26.369  33.094  1.00  0.00     0.162 A 
ATOM      5  C   UNL     1     -19.436  27.176  32.292  1.00  0.00     0.128 A 
ATOM      6  C   UNL     1     -18.173  26.724  31.903  1.00  0.00     0.093 A 
ATOM      7  C   UNL     1     -17.703  25.468  32.305  1.00  0.00     0.136 A 
ATOM      8  C   UNL     1     -18.524  24.643  33.117  1.00  0.00     0.125 A 
ATOM      9  C   UNL     1     -18.142  23.365  33.556  1.00  0.00     0.078 A 
ATOM     10  C   UNL     1     -19.007  22.608  34.351  1.00  0.00     0.223 A 
ENDROOT
BRANCH   1  11
ATOM     11  C   UNL     1     -21.214  22.427  35.572  1.00  0.00     0.084 A 
ATOM     12  C   UNL     1     -22.220  21.615  35.015  1.00  0.00     0.022 A 
ATOM     13  C   UNL     1     -23.104  20.917  35.845  1.00  0.00     0.047 A 
ATOM     14  C   UNL     1     -22.986  21.011  37.237  1.00  0.00     0.115 A 
ATOM     15  C   UNL     1     -21.091  22.499  36.970  1.00  0.00     0.022 A 
ATOM     16  C   UNL     1     -21.977  21.802  37.796  1.00  0.00     0.047 A 
BRANCH  14  17
ATOM     17  O   UNL     1     -23.862  20.322  38.074  1.00  0.00    -0.508 OA
ATOM     18  H   UNL     1     -24.447  20.809  38.742  1.00  0.00     0.293 HD
ENDBRANCH  14  17
ENDBRANCH   1  11
BRANCH  10  19
ATOM     19  O   UNL     1     -18.648  21.319  34.746  1.00  0.00    -0.500 OA
ATOM     20  H   UNL     1     -18.381  21.109  35.700  1.00  0.00     0.294 HD
ENDBRANCH  10  19
BRANCH   5  21
ATOM     21  O   UNL     1     -19.874  28.432  31.875  1.00  0.00    -0.507 OA
ATOM     22  H   UNL     1     -19.408  29.280  32.174  1.00  0.00     0.293 HD
ENDBRANCH   5  21
BRANCH   7  23
ATOM     23  O   UNL     1     -16.427  25.090  31.875  1.00  0.00    -0.507 OA
ATOM     24  H   UNL     1     -15.717  24.697  32.475  1.00  0.00     0.293 HD
ENDBRANCH   7  23
TORSDOF 5
ENDMDL
MODEL 2
REMARK VINA RESULT:    -5.378      6.000      8.404
REMARK INTER + INTRA:          -6.635
REMARK INTER:                  -6.379
REMARK INTRA:                  -0.256
REMARK UNBOUND:                -0.314
REMARK SMILES Oc1ccc(-c2[o+]c3cc(O)cc(O)c3cc2O)cc1
REMARK SMILES IDX 6 1 7 2 8 3 9 4 10 5 12 6 13 7 15 8 16 9 17 10 5 11 4 12
REMARK SMILES IDX 3 13 2 14 19 15 20 16 1 17 18 19 11 21 14 23
REMARK H PARENT 1 18 18 20 11 22 14 24
REMARK Flexibility Score: inf
ROOT
ATOM      1  C   UNL     1     -18.934  20.787  41.695  1.00  0.00     0.401 A 
ATOM      2  O   UNL     1     -18.322  21.741  40.996  1.00  0.00    -0.202 OA
ATOM      3  C   UNL     1     -18.953  22.797  40.496  1.00  0.00     0.368 A 
ATOM      4  C   UNL     1     -18.224  23.745  39.772  1.00  0.00     0.162 A 
ATOM      5  C   UNL     1     -18.862  24.865  39.232  1.00  0.00     0.128 A 
ATOM      6  C   UNL     1     -20.236  25.037  39.414  1.00  0.00     0.093 A 
ATOM      7  C   UNL     1     -20.989  24.102  40.134  1.00  0.00     0.136 A 
ATOM      8  C   UNL     1     -20.345  22.965  40.688  1.00  0.00     0.125 A 
ATOM      9  C   UNL     1     -21.017  21.983  41.435  1.00  0.00     0.078 A 
ATOM     10  C   UNL     1     -20.313  20.892  41.954  1.00  0.00     0.223 A 
ENDROOT
BRANCH   1  11
ATOM     11  C   UNL     1     -18.122  19.653  42.192  1.00  0.00     0.084 A 
ATOM     12  C   UNL     1     -17.756  19.551  43.547  1.00  0.00     0.022 A 
ATOM     13  C   UNL     1     -17.010  18.458  43.997  1.00  0.00     0.047 A 
ATOM     14  C   UNL     1     -16.631  17.449  43.103  1.00  0.00     0.115 A 
ATOM     15  C   UNL     1     -17.756  18.625  41.307  1.00  0.00     0.022 A 
ATOM     16  C   UNL     1     -17.008  17.535  41.759  1.00  0.00     0.047 A 
BRANCH  14  17
ATOM     17  O   UNL     1     -15.884  16.355  43.539  1.00  0.00    -0.508 OA
ATOM     18  H   UNL     1     -15.210  16.442  44.290  1.00  0.00     0.293 HD
ENDBRANCH  14  17
ENDBRANCH   1  11
BRANCH  10  19
ATOM     19  O   UNL     1     -20.971  19.944  42.738  1.00  0.00    -0.500 OA
ATOM     20  H   UNL     1     -21.800  20.177  43.271  1.00  0.00     0.294 HD
ENDBRANCH  10  19
BRANCH   5  21
ATOM     21  O   UNL     1     -18.142  25.813  38.509  1.00  0.00    -0.507 OA
ATOM     22  H   UNL     1     -17.485  25.542  37.787  1.00  0.00     0.293 HD
ENDBRANCH   5  21
BRANCH   7  23
ATOM     23  O   UNL     1     -22.360  24.346  40.270  1.00  0.00    -0.507 OA
ATOM     24  H   UNL     1     -23.009  24.398  39.497  1.00  0.00     0.293 HD
ENDBRANCH   7  23
TORSDOF 5
ENDMDL
MODEL 3
REMARK VINA RESULT:    -5.312     15.757     16.641
REMARK INTER + INTRA:          -6.557
REMARK INTER:                  -6.239
REMARK INTRA:                  -0.318
REMARK UNBOUND:                -0.314
REMARK SMILES Oc1ccc(-c2[o+]c3cc(O)cc(O)c3cc2O)cc1
REMARK SMILES IDX 6 1 7 2 8 3 9 4 10 5 12 6 13 7 15 8 16 9 17 10 5 11 4 12
REMARK SMILES IDX 3 13 2 14 19 15 20 16 1 17 18 19 11 21 14 23
REMARK H PARENT 1 18 18 20 11 22 14 24
REMARK Flexibility Score: inf
ROOT
ATOM      1  C   UNL     1      -8.882  28.287  43.998  1.00  0.00     0.401 A 
ATOM      2  O   UNL     1      -8.859  29.339  44.813  1.00  0.00    -0.202 OA
ATOM      3  C   UNL     1      -7.831  29.628  45.603  1.00  0.00     0.368 A 
ATOM      4  C   UNL     1      -7.901  30.755  46.427  1.00  0.00     0.162 A 
ATOM      5  C   UNL     1      -6.836  31.082  47.269  1.00  0.00     0.128 A 
ATOM      6  C   UNL     1      -5.694  30.277  47.290  1.00  0.00     0.093 A 
ATOM      7  C   UNL     1      -5.599  29.143  46.475  1.00  0.00     0.136 A 
ATOM      8  C   UNL     1      -6.676  28.808  45.615  1.00  0.00     0.125 A 
ATOM      9  C   UNL     1      -6.663  27.699  44.754  1.00  0.00     0.078 A 
ATOM     10  C   UNL     1      -7.762  27.436  43.931  1.00  0.00     0.223 A 
ENDROOT
BRANCH   1  11
ATOM     11  C   UNL     1     -10.092  28.065  43.174  1.00  0.00     0.084 A 
ATOM     12  C   UNL     1     -11.106  27.180  43.584  1.00  0.00     0.022 A 
ATOM     13  C   UNL     1     -12.251  27.005  42.799  1.00  0.00     0.047 A 
ATOM     14  C   UNL     1     -12.401  27.721  41.605  1.00  0.00     0.115 A 
ATOM     15  C   UNL     1     -10.261  28.795  41.985  1.00  0.00     0.022 A 
ATOM     16  C   UNL     1     -11.406  28.616  41.202  1.00  0.00     0.047 A 
BRANCH  14  17
ATOM     17  O   UNL     1     -13.536  27.554  40.813  1.00  0.00    -0.508 OA
ATOM     18  H   UNL     1     -13.755  26.662  40.386  1.00  0.00     0.293 HD
ENDBRANCH  14  17
ENDBRANCH   1  11
BRANCH  10  19
ATOM     19  O   UNL     1      -7.729  26.363  43.040  1.00  0.00    -0.500 OA
ATOM     20  H   UNL     1      -6.873  25.855  42.851  1.00  0.00     0.294 HD
ENDBRANCH  10  19
BRANCH   5  21
ATOM     21  O   UNL     1      -6.899  32.203  48.093  1.00  0.00    -0.507 OA
ATOM     22  H   UNL     1      -6.892  32.119  49.103  1.00  0.00     0.293 HD
ENDBRANCH   5  21
BRANCH   7  23
ATOM     23  O   UNL     1      -4.423  28.389  46.556  1.00  0.00    -0.507 OA
ATOM     24  H   UNL     1      -4.129  27.715  45.864  1.00  0.00     0.293 HD
ENDBRANCH   7  23
TORSDOF 5
ENDMDL
MODEL 4
REMARK VINA RESULT:    -5.266      6.028      8.060
REMARK INTER + INTRA:          -6.504
REMARK INTER:                  -6.204
REMARK INTRA:                  -0.299
REMARK UNBOUND:                -0.314
REMARK SMILES Oc1ccc(-c2[o+]c3cc(O)cc(O)c3cc2O)cc1
REMARK SMILES IDX 6 1 7 2 8 3 9 4 10 5 12 6 13 7 15 8 16 9 17 10 5 11 4 12
REMARK SMILES IDX 3 13 2 14 19 15 20 16 1 17 18 19 11 21 14 23
REMARK H PARENT 1 18 18 20 11 22 14 24
REMARK Flexibility Score: inf
ROOT
ATOM      1  C   UNL     1     -20.092  23.636  40.983  1.00  0.00     0.401 A 
ATOM      2  O   UNL     1     -20.445  24.392  42.021  1.00  0.00    -0.202 OA
ATOM      3  C   UNL     1     -20.993  25.595  41.894  1.00  0.00     0.368 A 
ATOM      4  C   UNL     1     -21.328  26.315  43.044  1.00  0.00     0.162 A 
ATOM      5  C   UNL     1     -21.903  27.584  42.940  1.00  0.00     0.128 A 
ATOM      6  C   UNL     1     -22.144  28.137  41.680  1.00  0.00     0.093 A 
ATOM      7  C   UNL     1     -21.818  27.437  40.513  1.00  0.00     0.136 A 
ATOM      8  C   UNL     1     -21.236  26.146  40.613  1.00  0.00     0.125 A 
ATOM      9  C   UNL     1     -20.889  25.367  39.497  1.00  0.00     0.078 A 
ATOM     10  C   UNL     1     -20.324  24.100  39.675  1.00  0.00     0.223 A 
ENDROOT
BRANCH   1  11
ATOM     11  C   UNL     1     -19.479  22.316  41.255  1.00  0.00     0.084 A 
ATOM     12  C   UNL     1     -20.269  21.185  41.535  1.00  0.00     0.022 A 
ATOM     13  C   UNL     1     -19.668  19.943  41.764  1.00  0.00     0.047 A 
ATOM     14  C   UNL     1     -18.274  19.814  41.705  1.00  0.00     0.115 A 
ATOM     15  C   UNL     1     -18.084  22.172  41.176  1.00  0.00     0.022 A 
ATOM     16  C   UNL     1     -17.486  20.930  41.408  1.00  0.00     0.047 A 
BRANCH  14  17
ATOM     17  O   UNL     1     -17.664  18.582  41.934  1.00  0.00    -0.508 OA
ATOM     18  H   UNL     1     -17.151  18.398  42.788  1.00  0.00     0.293 HD
ENDBRANCH  14  17
ENDBRANCH   1  11
BRANCH  10  19
ATOM     19  O   UNL     1     -20.026  23.306  38.568  1.00  0.00    -0.500 OA
ATOM     20  H   UNL     1     -19.477  22.459  38.653  1.00  0.00     0.294 HD
ENDBRANCH  10  19
BRANCH   5  21
ATOM     21  O   UNL     1     -22.239  28.308  44.083  1.00  0.00    -0.507 OA
ATOM     22  H   UNL     1     -21.796  29.193  44.297  1.00  0.00     0.293 HD
ENDBRANCH   5  21
BRANCH   7  23
ATOM     23  O   UNL     1     -22.089  28.061  39.291  1.00  0.00    -0.507 OA
ATOM     24  H   UNL     1     -21.860  27.670  38.388  1.00  0.00     0.293 HD
ENDBRANCH   7  23
TORSDOF 5
ENDMDL
MODEL 5
REMARK VINA RESULT:    -5.216      5.341      8.348
REMARK INTER + INTRA:          -6.445
REMARK INTER:                  -6.137
REMARK INTRA:                  -0.308
REMARK UNBOUND:                -0.314
REMARK SMILES Oc1ccc(-c2[o+]c3cc(O)cc(O)c3cc2O)cc1
REMARK SMILES IDX 6 1 7 2 8 3 9 4 10 5 12 6 13 7 15 8 16 9 17 10 5 11 4 12
REMARK SMILES IDX 3 13 2 14 19 15 20 16 1 17 18 19 11 21 14 23
REMARK H PARENT 1 18 18 20 11 22 14 24
REMARK Flexibility Score: inf
ROOT
ATOM      1  C   UNL     1     -13.266  22.642  33.231  1.00  0.00     0.401 A 
ATOM      2  O   UNL     1     -14.426  22.376  33.827  1.00  0.00    -0.202 OA
ATOM      3  C   UNL     1     -15.444  23.229  33.855  1.00  0.00     0.368 A 
ATOM      4  C   UNL     1     -16.623  22.860  34.509  1.00  0.00     0.162 A 
ATOM      5  C   UNL     1     -17.708  23.738  34.556  1.00  0.00     0.128 A 
ATOM      6  C   UNL     1     -17.615  24.992  33.947  1.00  0.00     0.093 A 
ATOM      7  C   UNL     1     -16.446  25.385  33.285  1.00  0.00     0.136 A 
ATOM      8  C   UNL     1     -15.342  24.496  33.232  1.00  0.00     0.125 A 
ATOM      9  C   UNL     1     -14.135  24.800  32.580  1.00  0.00     0.078 A 
ATOM     10  C   UNL     1     -13.092  23.870  32.566  1.00  0.00     0.223 A 
ENDROOT
BRANCH   1  11
ATOM     11  C   UNL     1     -12.202  21.613  33.278  1.00  0.00     0.084 A 
ATOM     12  C   UNL     1     -11.338  21.501  34.384  1.00  0.00     0.022 A 
ATOM     13  C   UNL     1     -10.357  20.505  34.415  1.00  0.00     0.047 A 
ATOM     14  C   UNL     1     -10.235  19.603  33.351  1.00  0.00     0.115 A 
ATOM     15  C   UNL     1     -12.086  20.690  32.225  1.00  0.00     0.022 A 
ATOM     16  C   UNL     1     -11.102  19.697  32.259  1.00  0.00     0.047 A 
BRANCH  14  17
ATOM     17  O   UNL     1      -9.259  18.608  33.370  1.00  0.00    -0.508 OA
ATOM     18  H   UNL     1      -9.217  17.896  32.650  1.00  0.00     0.293 HD
ENDBRANCH  14  17
ENDBRANCH   1  11
BRANCH  10  19
ATOM     19  O   UNL     1     -11.912  24.152  31.876  1.00  0.00    -0.500 OA
ATOM     20  H   UNL     1     -11.263  24.859  32.198  1.00  0.00     0.294 HD
ENDBRANCH  10  19
BRANCH   5  21
ATOM     21  O   UNL     1     -18.886  23.378  35.207  1.00  0.00    -0.507 OA
ATOM     22  H   UNL     1     -19.751  23.883  35.055  1.00  0.00     0.293 HD
ENDBRANCH   5  21
BRANCH   7  23
ATOM     23  O   UNL     1     -16.433  26.657  32.703  1.00  0.00    -0.507 OA
ATOM     24  H   UNL     1     -15.784  27.391  32.951  1.00  0.00     0.293 HD
ENDBRANCH   7  23
TORSDOF 5
ENDMDL
MODEL 6
REMARK VINA RESULT:    -5.067      1.934      7.014
REMARK INTER + INTRA:          -6.270
REMARK INTER:                  -5.953
REMARK INTRA:                  -0.318
REMARK UNBOUND:                -0.314
REMARK SMILES Oc1ccc(-c2[o+]c3cc(O)cc(O)c3cc2O)cc1
REMARK SMILES IDX 6 1 7 2 8 3 9 4 10 5 12 6 13 7 15 8 16 9 17 10 5 11 4 12
REMARK SMILES IDX 3 13 2 14 19 15 20 16 1 17 18 19 11 21 14 23
REMARK H PARENT 1 18 18 20 11 22 14 24
REMARK Flexibility Score: inf
ROOT
ATOM      1  C   UNL     1     -19.942  23.867  35.592  1.00  0.00     0.401 A 
ATOM      2  O   UNL     1     -20.008  24.136  36.893  1.00  0.00    -0.202 OA
ATOM      3  C   UNL     1     -20.711  23.409  37.755  1.00  0.00     0.368 A 
ATOM      4  C   UNL     1     -20.721  23.773  39.104  1.00  0.00     0.162 A 
ATOM      5  C   UNL     1     -21.454  23.028  40.031  1.00  0.00     0.128 A 
ATOM      6  C   UNL     1     -22.181  21.913  39.607  1.00  0.00     0.093 A 
ATOM      7  C   UNL     1     -22.187  21.527  38.262  1.00  0.00     0.136 A 
ATOM      8  C   UNL     1     -21.442  22.278  37.317  1.00  0.00     0.125 A 
ATOM      9  C   UNL     1     -21.380  21.958  35.951  1.00  0.00     0.078 A 
ATOM     10  C   UNL     1     -20.620  22.744  35.080  1.00  0.00     0.223 A 
ENDROOT
BRANCH   1  11
ATOM     11  C   UNL     1     -19.133  24.760  34.732  1.00  0.00     0.084 A 
ATOM     12  C   UNL     1     -17.773  24.499  34.477  1.00  0.00     0.022 A 
ATOM     13  C   UNL     1     -17.036  25.345  33.642  1.00  0.00     0.047 A 
ATOM     14  C   UNL     1     -17.650  26.451  33.042  1.00  0.00     0.115 A 
ATOM     15  C   UNL     1     -19.745  25.860  34.108  1.00  0.00     0.022 A 
ATOM     16  C   UNL     1     -19.005  26.704  33.275  1.00  0.00     0.047 A 
BRANCH  14  17
ATOM     17  O   UNL     1     -16.925  27.302  32.209  1.00  0.00    -0.508 OA
ATOM     18  H   UNL     1     -15.912  27.298  32.203  1.00  0.00     0.293 HD
ENDBRANCH  14  17
ENDBRANCH   1  11
BRANCH  10  19
ATOM     19  O   UNL     1     -20.517  22.397  33.732  1.00  0.00    -0.500 OA
ATOM     20  H   UNL     1     -19.709  22.650  33.178  1.00  0.00     0.294 HD
ENDBRANCH  10  19
BRANCH   5  21
ATOM     21  O   UNL     1     -21.469  23.386  41.378  1.00  0.00    -0.507 OA
ATOM     22  H   UNL     1     -20.963  24.196  41.715  1.00  0.00     0.293 HD
ENDBRANCH   5  21
BRANCH   7  23
ATOM     23  O   UNL     1     -22.942  20.400  37.919  1.00  0.00    -0.507 OA
ATOM     24  H   UNL     1     -23.309  19.735  38.586  1.00  0.00     0.293 HD
ENDBRANCH   7  23
TORSDOF 5
ENDMDL
MODEL 7
REMARK VINA RESULT:    -4.973      7.626      9.881
REMARK INTER + INTRA:          -6.160
REMARK INTER:                  -5.843
REMARK INTRA:                  -0.317
REMARK UNBOUND:                -0.314
REMARK SMILES Oc1ccc(-c2[o+]c3cc(O)cc(O)c3cc2O)cc1
REMARK SMILES IDX 6 1 7 2 8 3 9 4 10 5 12 6 13 7 15 8 16 9 17 10 5 11 4 12
REMARK SMILES IDX 3 13 2 14 19 15 20 16 1 17 18 19 11 21 14 23
REMARK H PARENT 1 18 18 20 11 22 14 24
REMARK Flexibility Score: inf
ROOT
ATOM      1  C   UNL     1     -21.707  25.968  42.032  1.00  0.00     0.401 A 
ATOM      2  O   UNL     1     -22.225  26.255  43.224  1.00  0.00    -0.202 OA
ATOM      3  C   UNL     1     -22.563  27.485  43.596  1.00  0.00     0.368 A 
ATOM      4  C   UNL     1     -23.098  27.688  44.871  1.00  0.00     0.162 A 
ATOM      5  C   UNL     1     -23.459  28.971  45.289  1.00  0.00     0.128 A 
ATOM      6  C   UNL     1     -23.282  30.058  44.430  1.00  0.00     0.093 A 
ATOM      7  C   UNL     1     -22.748  29.882  43.148  1.00  0.00     0.136 A 
ATOM      8  C   UNL     1     -22.383  28.580  42.716  1.00  0.00     0.125 A 
ATOM      9  C   UNL     1     -21.853  28.308  41.445  1.00  0.00     0.078 A 
ATOM     10  C   UNL     1     -21.521  26.997  41.089  1.00  0.00     0.223 A 
ENDROOT
BRANCH   1  11
ATOM     11  C   UNL     1     -21.362  24.558  41.739  1.00  0.00     0.084 A 
ATOM     12  C   UNL     1     -20.048  24.078  41.892  1.00  0.00     0.022 A 
ATOM     13  C   UNL     1     -19.752  22.736  41.632  1.00  0.00     0.047 A 
ATOM     14  C   UNL     1     -20.765  21.857  41.229  1.00  0.00     0.115 A 
ATOM     15  C   UNL     1     -22.375  23.664  41.356  1.00  0.00     0.022 A 
ATOM     16  C   UNL     1     -22.076  22.324  41.095  1.00  0.00     0.047 A 
BRANCH  14  17
ATOM     17  O   UNL     1     -20.481  20.518  40.965  1.00  0.00    -0.508 OA
ATOM     18  H   UNL     1     -19.920  19.962  41.600  1.00  0.00     0.293 HD
ENDBRANCH  14  17
ENDBRANCH   1  11
BRANCH  10  19
ATOM     19  O   UNL     1     -21.041  26.719  39.809  1.00  0.00    -0.500 OA
ATOM     20  H   UNL     1     -20.171  26.222  39.663  1.00  0.00     0.294 HD
ENDBRANCH  10  19
BRANCH   5  21
ATOM     21  O   UNL     1     -23.993  29.180  46.559  1.00  0.00    -0.507 OA
ATOM     22  H   UNL     1     -24.967  28.987  46.762  1.00  0.00     0.293 HD
ENDBRANCH   5  21
BRANCH   7  23
ATOM     23  O   UNL     1     -22.602  31.021  42.349  1.00  0.00    -0.507 OA
ATOM     24  H   UNL     1     -22.077  31.049  41.487  1.00  0.00     0.293 HD
ENDBRANCH   7  23
TORSDOF 5
ENDMDL
MODEL 8
REMARK VINA RESULT:    -4.967     16.199     17.023
REMARK INTER + INTRA:          -6.152
REMARK INTER:                  -5.848
REMARK INTRA:                  -0.304
REMARK UNBOUND:                -0.314
REMARK SMILES Oc1ccc(-c2[o+]c3cc(O)cc(O)c3cc2O)cc1
REMARK SMILES IDX 6 1 7 2 8 3 9 4 10 5 12 6 13 7 15 8 16 9 17 10 5 11 4 12
REMARK SMILES IDX 3 13 2 14 19 15 20 16 1 17 18 19 11 21 14 23
REMARK H PARENT 1 18 18 20 11 22 14 24
REMARK Flexibility Score: inf
ROOT
ATOM      1  C   UNL     1      -8.675  29.029  44.590  1.00  0.00     0.401 A 
ATOM      2  O   UNL     1      -8.944  30.324  44.444  1.00  0.00    -0.202 OA
ATOM      3  C   UNL     1      -8.439  31.268  45.230  1.00  0.00     0.368 A 
ATOM      4  C   UNL     1      -8.783  32.603  45.000  1.00  0.00     0.162 A 
ATOM      5  C   UNL     1      -8.268  33.615  45.813  1.00  0.00     0.128 A 
ATOM      6  C   UNL     1      -7.406  33.293  46.863  1.00  0.00     0.093 A 
ATOM      7  C   UNL     1      -7.045  31.964  47.115  1.00  0.00     0.136 A 
ATOM      8  C   UNL     1      -7.562  30.932  46.290  1.00  0.00     0.125 A 
ATOM      9  C   UNL     1      -7.246  29.574  46.460  1.00  0.00     0.078 A 
ATOM     10  C   UNL     1      -7.791  28.613  45.604  1.00  0.00     0.223 A 
ENDROOT
BRANCH   1  11
ATOM     11  C   UNL     1      -9.309  28.072  43.655  1.00  0.00     0.084 A 
ATOM     12  C   UNL     1     -10.617  27.598  43.866  1.00  0.00     0.022 A 
ATOM     13  C   UNL     1     -11.203  26.712  42.956  1.00  0.00     0.047 A 
ATOM     14  C   UNL     1     -10.496  26.300  41.820  1.00  0.00     0.115 A 
ATOM     15  C   UNL     1      -8.615  27.670  42.501  1.00  0.00     0.022 A 
ATOM     16  C   UNL     1      -9.203  26.783  41.594  1.00  0.00     0.047 A 
BRANCH  14  17
ATOM     17  O   UNL     1     -11.069  25.417  40.907  1.00  0.00    -0.508 OA
ATOM     18  H   UNL     1     -12.041  25.139  40.979  1.00  0.00     0.293 HD
ENDBRANCH  14  17
ENDBRANCH   1  11
BRANCH  10  19
ATOM     19  O   UNL     1      -7.437  27.271  45.741  1.00  0.00    -0.500 OA
ATOM     20  H   UNL     1      -7.873  26.546  45.185  1.00  0.00     0.294 HD
ENDBRANCH  10  19
BRANCH   5  21
ATOM     21  O   UNL     1      -8.608  34.948  45.589  1.00  0.00    -0.507 OA
ATOM     22  H   UNL     1      -9.291  35.424  46.166  1.00  0.00     0.293 HD
ENDBRANCH   5  21
BRANCH   7  23
ATOM     23  O   UNL     1      -6.178  31.724  48.186  1.00  0.00    -0.507 OA
ATOM     24  H   UNL     1      -6.116  32.306  49.010  1.00  0.00     0.293 HD
ENDBRANCH   7  23
TORSDOF 5
ENDMDL
