MODEL 1
REMARK VINA RESULT:    -5.784      0.000      0.000
REMARK INTER + INTRA:          -6.219
REMARK INTER:                  -6.122
REMARK INTRA:                  -0.096
REMARK UNBOUND:                -0.096
REMARK SMILES C=C(C)[C@@H]1CC=C(C)C(=O)C1
REMARK SMILES IDX 8 1 7 2 6 3 5 4 4 5 11 6 9 7 10 8 2 9 1 10 3 11
REMARK H PARENT
REMARK Flexibility Score: inf
ROOT
ATOM      1  C   UNL     1     -11.364 -17.035  26.098  1.00  0.00     0.048 C 
ATOM      2  C   UNL     1     -11.763 -16.623  27.490  1.00  0.00    -0.012 C 
ATOM      3  C   UNL     1     -10.946 -16.870  28.528  1.00  0.00    -0.019 C 
ATOM      4  C   UNL     1     -11.265 -16.404  29.925  1.00  0.00     0.036 C 
ATOM      5  C   UNL     1     -12.787 -16.351  30.159  1.00  0.00     0.025 C 
ATOM      6  C   UNL     1     -13.464 -15.480  29.085  1.00  0.00     0.089 C 
ATOM      7  C   UNL     1     -13.053 -15.921  27.706  1.00  0.00     0.158 C 
ATOM      8  O   UNL     1     -13.796 -15.646  26.727  1.00  0.00    -0.295 OA
ENDROOT
BRANCH   5   9
ATOM      9  C   UNL     1     -13.119 -15.862  31.562  1.00  0.00    -0.077 C 
ATOM     10  C   UNL     1     -12.295 -16.140  32.584  1.00  0.00     0.008 C 
ATOM     11  C   UNL     1     -14.367 -15.062  31.840  1.00  0.00     0.039 C 
ENDBRANCH   5   9
TORSDOF 1
ENDMDL
MODEL 2
REMARK VINA RESULT:    -5.609      2.952      4.843
REMARK INTER + INTRA:          -6.033
REMARK INTER:                  -5.937
REMARK INTRA:                  -0.096
REMARK UNBOUND:                -0.096
REMARK SMILES C=C(C)[C@@H]1CC=C(C)C(=O)C1
REMARK SMILES IDX 8 1 7 2 6 3 5 4 4 5 11 6 9 7 10 8 2 9 1 10 3 11
REMARK H PARENT
REMARK Flexibility Score: inf
ROOT
ATOM      1  C   UNL     1     -12.508 -20.374  31.948  1.00  0.00     0.048 C 
ATOM      2  C   UNL     1     -12.558 -19.447  30.764  1.00  0.00    -0.012 C 
ATOM      3  C   UNL     1     -13.254 -19.788  29.666  1.00  0.00    -0.019 C 
ATOM      4  C   UNL     1     -13.399 -18.859  28.490  1.00  0.00     0.036 C 
ATOM      5  C   UNL     1     -12.166 -17.947  28.347  1.00  0.00     0.025 C 
ATOM      6  C   UNL     1     -11.905 -17.188  29.661  1.00  0.00     0.089 C 
ATOM      7  C   UNL     1     -11.853 -18.142  30.824  1.00  0.00     0.158 C 
ATOM      8  O   UNL     1     -11.241 -17.801  31.871  1.00  0.00    -0.295 OA
ENDROOT
BRANCH   5   9
ATOM      9  C   UNL     1     -12.314 -16.989  27.172  1.00  0.00    -0.077 C 
ATOM     10  C   UNL     1     -13.317 -16.099  27.152  1.00  0.00     0.008 C 
ATOM     11  C   UNL     1     -11.350 -17.015  26.012  1.00  0.00     0.039 C 
ENDBRANCH   5   9
TORSDOF 1
ENDMDL
MODEL 3
REMARK VINA RESULT:    -5.568      2.098      4.450
REMARK INTER + INTRA:          -5.990
REMARK INTER:                  -5.898
REMARK INTRA:                  -0.092
REMARK UNBOUND:                -0.096
REMARK SMILES C=C(C)[C@@H]1CC=C(C)C(=O)C1
REMARK SMILES IDX 8 1 7 2 6 3 5 4 4 5 11 6 9 7 10 8 2 9 1 10 3 11
REMARK H PARENT
REMARK Flexibility Score: inf
ROOT
ATOM      1  C   UNL     1     -10.928 -15.904  32.851  1.00  0.00     0.048 C 
ATOM      2  C   UNL     1     -11.260 -16.157  31.406  1.00  0.00    -0.012 C 
ATOM      3  C   UNL     1     -10.418 -15.754  30.438  1.00  0.00    -0.019 C 
ATOM      4  C   UNL     1     -10.669 -16.056  28.984  1.00  0.00     0.036 C 
ATOM      5  C   UNL     1     -12.178 -16.136  28.685  1.00  0.00     0.025 C 
ATOM      6  C   UNL     1     -12.855 -17.157  29.617  1.00  0.00     0.089 C 
ATOM      7  C   UNL     1     -12.511 -16.873  31.054  1.00  0.00     0.158 C 
ATOM      8  O   UNL     1     -13.276 -17.293  31.963  1.00  0.00    -0.295 OA
ENDROOT
BRANCH   5   9
ATOM      9  C   UNL     1     -12.439 -16.461  27.220  1.00  0.00    -0.077 C 
ATOM     10  C   UNL     1     -13.625 -16.164  26.666  1.00  0.00     0.008 C 
ATOM     11  C   UNL     1     -11.388 -17.120  26.362  1.00  0.00     0.039 C 
ENDBRANCH   5   9
TORSDOF 1
ENDMDL
MODEL 4
REMARK VINA RESULT:    -5.505      2.424      2.943
REMARK INTER + INTRA:          -5.923
REMARK INTER:                  -5.827
REMARK INTRA:                  -0.096
REMARK UNBOUND:                -0.096
REMARK SMILES C=C(C)[C@@H]1CC=C(C)C(=O)C1
REMARK SMILES IDX 8 1 7 2 6 3 5 4 4 5 11 6 9 7 10 8 2 9 1 10 3 11
REMARK H PARENT
REMARK Flexibility Score: inf
ROOT
ATOM      1  C   UNL     1     -13.997 -20.359  28.628  1.00  0.00     0.048 C 
ATOM      2  C   UNL     1     -13.430 -19.347  29.586  1.00  0.00    -0.012 C 
ATOM      3  C   UNL     1     -13.224 -19.676  30.873  1.00  0.00    -0.019 C 
ATOM      4  C   UNL     1     -12.584 -18.723  31.849  1.00  0.00     0.036 C 
ATOM      5  C   UNL     1     -12.900 -17.260  31.487  1.00  0.00     0.025 C 
ATOM      6  C   UNL     1     -12.489 -16.968  30.032  1.00  0.00     0.089 C 
ATOM      7  C   UNL     1     -13.077 -17.990  29.098  1.00  0.00     0.158 C 
ATOM      8  O   UNL     1     -13.225 -17.698  27.882  1.00  0.00    -0.295 OA
ENDROOT
BRANCH   5   9
ATOM      9  C   UNL     1     -12.240 -16.290  32.457  1.00  0.00    -0.077 C 
ATOM     10  C   UNL     1     -10.907 -16.132  32.447  1.00  0.00     0.008 C 
ATOM     11  C   UNL     1     -13.053 -15.490  33.444  1.00  0.00     0.039 C 
ENDBRANCH   5   9
TORSDOF 1
ENDMDL
MODEL 5
REMARK VINA RESULT:    -5.441      3.582      5.416
REMARK INTER + INTRA:          -5.856
REMARK INTER:                  -5.766
REMARK INTRA:                  -0.090
REMARK UNBOUND:                -0.096
REMARK SMILES C=C(C)[C@@H]1CC=C(C)C(=O)C1
REMARK SMILES IDX 8 1 7 2 6 3 5 4 4 5 11 6 9 7 10 8 2 9 1 10 3 11
REMARK H PARENT
REMARK Flexibility Score: inf
ROOT
ATOM      1  C   UNL     1     -13.279 -16.676  31.398  1.00  0.00     0.048 C 
ATOM      2  C   UNL     1     -12.958 -15.871  32.628  1.00  0.00    -0.012 C 
ATOM      3  C   UNL     1     -11.714 -15.884  33.138  1.00  0.00    -0.019 C 
ATOM      4  C   UNL     1     -11.325 -15.032  34.318  1.00  0.00     0.036 C 
ATOM      5  C   UNL     1     -12.523 -14.806  35.260  1.00  0.00     0.025 C 
ATOM      6  C   UNL     1     -13.712 -14.215  34.480  1.00  0.00     0.089 C 
ATOM      7  C   UNL     1     -14.015 -15.045  33.262  1.00  0.00     0.158 C 
ATOM      8  O   UNL     1     -15.167 -14.995  32.756  1.00  0.00    -0.295 OA
ENDROOT
BRANCH   5   9
ATOM      9  C   UNL     1     -12.144 -13.929  36.445  1.00  0.00    -0.077 C 
ATOM     10  C   UNL     1     -11.507 -14.461  37.499  1.00  0.00     0.008 C 
ATOM     11  C   UNL     1     -12.469 -12.456  36.467  1.00  0.00     0.039 C 
ENDBRANCH   5   9
TORSDOF 1
ENDMDL
MODEL 6
REMARK VINA RESULT:    -5.330      3.265      5.786
REMARK INTER + INTRA:          -5.738
REMARK INTER:                  -5.641
REMARK INTRA:                  -0.097
REMARK UNBOUND:                -0.096
REMARK SMILES C=C(C)[C@@H]1CC=C(C)C(=O)C1
REMARK SMILES IDX 8 1 7 2 6 3 5 4 4 5 11 6 9 7 10 8 2 9 1 10 3 11
REMARK H PARENT
REMARK Flexibility Score: inf
ROOT
ATOM      1  C   UNL     1     -13.255 -13.792  35.384  1.00  0.00     0.048 C 
ATOM      2  C   UNL     1     -13.153 -14.722  34.205  1.00  0.00    -0.012 C 
ATOM      3  C   UNL     1     -14.235 -14.974  33.447  1.00  0.00    -0.019 C 
ATOM      4  C   UNL     1     -14.162 -15.833  32.211  1.00  0.00     0.036 C 
ATOM      5  C   UNL     1     -13.068 -16.909  32.345  1.00  0.00     0.025 C 
ATOM      6  C   UNL     1     -11.714 -16.256  32.682  1.00  0.00     0.089 C 
ATOM      7  C   UNL     1     -11.847 -15.340  33.869  1.00  0.00     0.158 C 
ATOM      8  O   UNL     1     -10.823 -15.066  34.549  1.00  0.00    -0.295 OA
ENDROOT
BRANCH   5   9
ATOM      9  C   UNL     1     -12.974 -17.767  31.091  1.00  0.00    -0.077 C 
ATOM     10  C   UNL     1     -12.912 -17.188  29.882  1.00  0.00     0.008 C 
ATOM     11  C   UNL     1     -12.951 -19.274  31.171  1.00  0.00     0.039 C 
ENDBRANCH   5   9
TORSDOF 1
ENDMDL
MODEL 7
REMARK VINA RESULT:    -5.317      1.738      2.234
REMARK INTER + INTRA:          -5.725
REMARK INTER:                  -5.634
REMARK INTRA:                  -0.090
REMARK UNBOUND:                -0.096
REMARK SMILES C=C(C)[C@@H]1CC=C(C)C(=O)C1
REMARK SMILES IDX 8 1 7 2 6 3 5 4 4 5 11 6 9 7 10 8 2 9 1 10 3 11
REMARK H PARENT
REMARK Flexibility Score: inf
ROOT
ATOM      1  C   UNL     1     -11.753 -17.107  27.104  1.00  0.00     0.048 C 
ATOM      2  C   UNL     1     -12.358 -16.725  28.427  1.00  0.00    -0.012 C 
ATOM      3  C   UNL     1     -12.890 -15.503  28.600  1.00  0.00    -0.019 C 
ATOM      4  C   UNL     1     -13.578 -15.104  29.879  1.00  0.00     0.036 C 
ATOM      5  C   UNL     1     -12.972 -15.840  31.089  1.00  0.00     0.025 C 
ATOM      6  C   UNL     1     -13.003 -17.362  30.861  1.00  0.00     0.089 C 
ATOM      7  C   UNL     1     -12.384 -17.713  29.534  1.00  0.00     0.158 C 
ATOM      8  O   UNL     1     -11.929 -18.874  29.358  1.00  0.00    -0.295 OA
ENDROOT
BRANCH   5   9
ATOM      9  C   UNL     1     -13.676 -15.458  32.384  1.00  0.00    -0.077 C 
ATOM     10  C   UNL     1     -13.012 -15.499  33.549  1.00  0.00     0.008 C 
ATOM     11  C   UNL     1     -15.123 -15.029  32.395  1.00  0.00     0.039 C 
ENDBRANCH   5   9
TORSDOF 1
ENDMDL
MODEL 8
REMARK VINA RESULT:    -5.103      2.951      4.066
REMARK INTER + INTRA:          -5.498
REMARK INTER:                  -5.399
REMARK INTRA:                  -0.098
REMARK UNBOUND:                -0.096
REMARK SMILES C=C(C)[C@@H]1CC=C(C)C(=O)C1
REMARK SMILES IDX 8 1 7 2 6 3 5 4 4 5 11 6 9 7 10 8 2 9 1 10 3 11
REMARK H PARENT
REMARK Flexibility Score: inf
ROOT
ATOM      1  C   UNL     1     -12.571 -20.934  31.847  1.00  0.00     0.048 C 
ATOM      2  C   UNL     1     -12.345 -19.657  31.083  1.00  0.00    -0.012 C 
ATOM      3  C   UNL     1     -11.757 -18.606  31.680  1.00  0.00    -0.019 C 
ATOM      4  C   UNL     1     -11.438 -17.338  30.933  1.00  0.00     0.036 C 
ATOM      5  C   UNL     1     -12.450 -17.091  29.799  1.00  0.00     0.025 C 
ATOM      6  C   UNL     1     -12.519 -18.315  28.867  1.00  0.00     0.089 C 
ATOM      7  C   UNL     1     -12.753 -19.573  29.659  1.00  0.00     0.158 C 
ATOM      8  O   UNL     1     -13.260 -20.573  29.085  1.00  0.00    -0.295 OA
ENDROOT
BRANCH   5   9
ATOM      9  C   UNL     1     -12.122 -15.821  29.025  1.00  0.00    -0.077 C 
ATOM     10  C   UNL     1     -10.864 -15.353  29.002  1.00  0.00     0.008 C 
ATOM     11  C   UNL     1     -13.187 -15.061  28.274  1.00  0.00     0.039 C 
ENDBRANCH   5   9
TORSDOF 1
ENDMDL
MODEL 9
REMARK VINA RESULT:    -5.040      2.405      5.031
REMARK INTER + INTRA:          -5.431
REMARK INTER:                  -5.334
REMARK INTRA:                  -0.096
REMARK UNBOUND:                -0.096
REMARK SMILES C=C(C)[C@@H]1CC=C(C)C(=O)C1
REMARK SMILES IDX 8 1 7 2 6 3 5 4 4 5 11 6 9 7 10 8 2 9 1 10 3 11
REMARK H PARENT
REMARK Flexibility Score: inf
ROOT
ATOM      1  C   UNL     1     -13.248 -14.396  35.011  1.00  0.00     0.048 C 
ATOM      2  C   UNL     1     -12.899 -15.135  33.747  1.00  0.00    -0.012 C 
ATOM      3  C   UNL     1     -11.642 -15.566  33.541  1.00  0.00    -0.019 C 
ATOM      4  C   UNL     1     -11.264 -16.378  32.330  1.00  0.00     0.036 C 
ATOM      5  C   UNL     1     -12.145 -16.014  31.120  1.00  0.00     0.025 C 
ATOM      6  C   UNL     1     -13.635 -16.160  31.478  1.00  0.00     0.089 C 
ATOM      7  C   UNL     1     -13.954 -15.405  32.740  1.00  0.00     0.158 C 
ATOM      8  O   UNL     1     -15.142 -15.044  32.955  1.00  0.00    -0.295 OA
ENDROOT
BRANCH   5   9
ATOM      9  C   UNL     1     -11.783 -16.846  29.897  1.00  0.00    -0.077 C 
ATOM     10  C   UNL     1     -11.833 -18.186  29.956  1.00  0.00     0.008 C 
ATOM     11  C   UNL     1     -11.361 -16.197  28.602  1.00  0.00     0.039 C 
ENDBRANCH   5   9
TORSDOF 1
ENDMDL
