MODEL 1
REMARK VINA RESULT:    -5.460      0.000      0.000
REMARK INTER + INTRA:          -8.203
REMARK INTER:                  -6.737
REMARK INTRA:                  -1.467
REMARK UNBOUND:                -1.467
REMARK SMILES CC(C)=CCC[C@@H](C)c1ccc(C)cc1
REMARK SMILES IDX 6 1 7 2 8 3 9 4 13 5 12 6 11 7 14 8 10 9 15 10 5 11 4 12
REMARK SMILES IDX 2 13 1 14 3 15
REMARK H PARENT
REMARK Flexibility Score: inf
ROOT
ATOM      1  C   UNL     1      -0.834  -9.404  27.808  1.00  0.00     0.012 C 
ENDROOT
BRANCH   1   2
ATOM      2  C   UNL     1      -1.453  -8.313  26.905  1.00  0.00     0.016 C 
ATOM      3  C   UNL     1      -2.983  -8.248  27.035  1.00  0.00     0.013 C 
BRANCH   2   4
ATOM      4  C   UNL     1      -0.837  -6.960  27.215  1.00  0.00    -0.045 A 
ATOM      5  C   UNL     1       0.880  -3.086  28.051  1.00  0.00     0.044 C 
ATOM      6  C   UNL     1       0.286  -4.439  27.791  1.00  0.00    -0.051 A 
ATOM      7  C   UNL     1      -1.106  -4.610  27.790  1.00  0.00     0.004 A 
ATOM      8  C   UNL     1       1.113  -5.526  27.476  1.00  0.00     0.004 A 
ATOM      9  C   UNL     1      -1.663  -5.861  27.511  1.00  0.00     0.004 A 
ATOM     10  C   UNL     1       0.558  -6.777  27.195  1.00  0.00     0.004 A 
ENDBRANCH   2   4
ENDBRANCH   1   2
BRANCH   1  11
ATOM     11  C   UNL     1      -1.518  -9.495  29.181  1.00  0.00     0.028 C 
BRANCH  11  12
ATOM     12  C   UNL     1      -0.885  -8.535  30.157  1.00  0.00    -0.028 C 
ATOM     13  C   UNL     1      -1.554  -7.563  30.817  1.00  0.00    -0.080 C 
ATOM     14  C   UNL     1      -0.794  -6.704  31.795  1.00  0.00     0.039 C 
ATOM     15  C   UNL     1      -3.026  -7.309  30.589  1.00  0.00     0.039 C 
ENDBRANCH  11  12
ENDBRANCH   1  11
TORSDOF 4
ENDMDL
MODEL 2
REMARK VINA RESULT:    -5.197     13.264     17.082
REMARK INTER + INTRA:          -7.879
REMARK INTER:                  -6.641
REMARK INTRA:                  -1.238
REMARK UNBOUND:                -1.467
REMARK SMILES CC(C)=CCC[C@@H](C)c1ccc(C)cc1
REMARK SMILES IDX 6 1 7 2 8 3 9 4 13 5 12 6 11 7 14 8 10 9 15 10 5 11 4 12
REMARK SMILES IDX 2 13 1 14 3 15
REMARK H PARENT
REMARK Flexibility Score: inf
ROOT
ATOM      1  C   UNL     1      10.278   6.433  35.420  1.00  0.00     0.012 C 
ENDROOT
BRANCH   1   2
ATOM      2  C   UNL     1      11.024   5.150  34.990  1.00  0.00     0.016 C 
ATOM      3  C   UNL     1      12.198   4.817  35.924  1.00  0.00     0.013 C 
BRANCH   2   4
ATOM      4  C   UNL     1      10.060   3.979  34.914  1.00  0.00    -0.045 A 
ATOM      5  C   UNL     1       7.316   0.647  34.759  1.00  0.00     0.044 C 
ATOM      6  C   UNL     1       8.257   1.815  34.787  1.00  0.00    -0.051 A 
ATOM      7  C   UNL     1       7.924   2.972  35.507  1.00  0.00     0.004 A 
ATOM      8  C   UNL     1       9.505   1.733  34.153  1.00  0.00     0.004 A 
ATOM      9  C   UNL     1       8.816   4.047  35.564  1.00  0.00     0.004 A 
ATOM     10  C   UNL     1      10.397   2.807  34.211  1.00  0.00     0.004 A 
ENDBRANCH   2   4
ENDBRANCH   1   2
BRANCH   1  11
ATOM     11  C   UNL     1       9.862   7.305  34.226  1.00  0.00     0.028 C 
BRANCH  11  12
ATOM     12  C   UNL     1       8.374   7.547  34.235  1.00  0.00    -0.028 C 
ATOM     13  C   UNL     1       7.487   6.885  33.458  1.00  0.00    -0.080 C 
ATOM     14  C   UNL     1       6.022   7.206  33.605  1.00  0.00     0.039 C 
ATOM     15  C   UNL     1       7.925   5.853  32.445  1.00  0.00     0.039 C 
ENDBRANCH  11  12
ENDBRANCH   1  11
TORSDOF 4
ENDMDL
MODEL 3
REMARK VINA RESULT:    -5.142     14.025     17.072
REMARK INTER + INTRA:          -7.812
REMARK INTER:                  -6.787
REMARK INTRA:                  -1.025
REMARK UNBOUND:                -1.467
REMARK SMILES CC(C)=CCC[C@@H](C)c1ccc(C)cc1
REMARK SMILES IDX 6 1 7 2 8 3 9 4 13 5 12 6 11 7 14 8 10 9 15 10 5 11 4 12
REMARK SMILES IDX 2 13 1 14 3 15
REMARK H PARENT
REMARK Flexibility Score: inf
ROOT
ATOM      1  C   UNL     1       8.062   3.639  34.184  1.00  0.00     0.012 C 
ENDROOT
BRANCH   1   2
ATOM      2  C   UNL     1       7.630   4.610  33.062  1.00  0.00     0.016 C 
ATOM      3  C   UNL     1       6.300   4.195  32.412  1.00  0.00     0.013 C 
BRANCH   2   4
ATOM      4  C   UNL     1       7.536   6.027  33.598  1.00  0.00    -0.045 A 
ATOM      5  C   UNL     1       7.251  10.078  35.070  1.00  0.00     0.044 C 
ATOM      6  C   UNL     1       7.342   8.661  34.587  1.00  0.00    -0.051 A 
ATOM      7  C   UNL     1       6.234   8.047  33.986  1.00  0.00     0.004 A 
ATOM      8  C   UNL     1       8.556   7.964  34.667  1.00  0.00     0.004 A 
ATOM      9  C   UNL     1       6.328   6.739  33.502  1.00  0.00     0.004 A 
ATOM     10  C   UNL     1       8.652   6.656  34.183  1.00  0.00     0.004 A 
ENDBRANCH   2   4
ENDBRANCH   1   2
BRANCH   1  11
ATOM     11  C   UNL     1       9.451   3.031  33.937  1.00  0.00     0.028 C 
BRANCH  11  12
ATOM     12  C   UNL     1      10.448   3.551  34.943  1.00  0.00    -0.028 C 
ATOM     13  C   UNL     1      11.466   4.390  34.646  1.00  0.00    -0.080 C 
ATOM     14  C   UNL     1      12.359   4.860  35.765  1.00  0.00     0.039 C 
ATOM     15  C   UNL     1      11.738   4.850  33.232  1.00  0.00     0.039 C 
ENDBRANCH  11  12
ENDBRANCH   1  11
TORSDOF 4
ENDMDL
MODEL 4
REMARK VINA RESULT:    -5.060     12.920     15.760
REMARK INTER + INTRA:          -7.710
REMARK INTER:                  -6.219
REMARK INTRA:                  -1.491
REMARK UNBOUND:                -1.467
REMARK SMILES CC(C)=CCC[C@@H](C)c1ccc(C)cc1
REMARK SMILES IDX 6 1 7 2 8 3 9 4 13 5 12 6 11 7 14 8 10 9 15 10 5 11 4 12
REMARK SMILES IDX 2 13 1 14 3 15
REMARK H PARENT
REMARK Flexibility Score: inf
ROOT
ATOM      1  C   UNL     1       5.597   4.535  28.553  1.00  0.00     0.012 C 
ENDROOT
BRANCH   1   2
ATOM      2  C   UNL     1       5.971   4.579  27.054  1.00  0.00     0.016 C 
ATOM      3  C   UNL     1       4.792   4.191  26.147  1.00  0.00     0.013 C 
BRANCH   2   4
ATOM      4  C   UNL     1       6.495   5.955  26.681  1.00  0.00    -0.045 A 
ATOM      5  C   UNL     1       8.036   9.856  25.652  1.00  0.00     0.044 C 
ATOM      6  C   UNL     1       7.487   8.500  25.982  1.00  0.00    -0.051 A 
ATOM      7  C   UNL     1       8.247   7.349  25.727  1.00  0.00     0.004 A 
ATOM      8  C   UNL     1       6.240   8.376  26.612  1.00  0.00     0.004 A 
ATOM      9  C   UNL     1       7.753   6.087  26.067  1.00  0.00     0.004 A 
ATOM     10  C   UNL     1       5.745   7.115  26.954  1.00  0.00     0.004 A 
ENDBRANCH   2   4
ENDBRANCH   1   2
BRANCH   1  11
ATOM     11  C   UNL     1       6.786   4.864  29.469  1.00  0.00     0.028 C 
BRANCH  11  12
ATOM     12  C   UNL     1       6.503   6.102  30.284  1.00  0.00    -0.028 C 
ATOM     13  C   UNL     1       7.284   7.205  30.294  1.00  0.00    -0.080 C 
ATOM     14  C   UNL     1       6.853   8.383  31.129  1.00  0.00     0.039 C 
ATOM     15  C   UNL     1       8.575   7.279  29.512  1.00  0.00     0.039 C 
ENDBRANCH  11  12
ENDBRANCH   1  11
TORSDOF 4
ENDMDL
MODEL 5
REMARK VINA RESULT:    -5.055     14.148     17.508
REMARK INTER + INTRA:          -7.704
REMARK INTER:                  -6.436
REMARK INTRA:                  -1.268
REMARK UNBOUND:                -1.467
REMARK SMILES CC(C)=CCC[C@@H](C)c1ccc(C)cc1
REMARK SMILES IDX 6 1 7 2 8 3 9 4 13 5 12 6 11 7 14 8 10 9 15 10 5 11 4 12
REMARK SMILES IDX 2 13 1 14 3 15
REMARK H PARENT
REMARK Flexibility Score: inf
ROOT
ATOM      1  C   UNL     1      11.282   6.640  31.985  1.00  0.00     0.012 C 
ENDROOT
BRANCH   1   2
ATOM      2  C   UNL     1       9.757   6.431  31.844  1.00  0.00     0.016 C 
ATOM      3  C   UNL     1       9.316   6.328  30.375  1.00  0.00     0.013 C 
BRANCH   2   4
ATOM      4  C   UNL     1       9.320   5.199  32.615  1.00  0.00    -0.045 A 
ATOM      5  C   UNL     1       8.092   1.658  34.763  1.00  0.00     0.044 C 
ATOM      6  C   UNL     1       8.528   2.900  34.044  1.00  0.00    -0.051 A 
ATOM      7  C   UNL     1       9.811   2.978  33.483  1.00  0.00     0.004 A 
ATOM      8  C   UNL     1       7.633   3.965  33.865  1.00  0.00     0.004 A 
ATOM      9  C   UNL     1      10.206   4.120  32.781  1.00  0.00     0.004 A 
ATOM     10  C   UNL     1       8.026   5.107  33.162  1.00  0.00     0.004 A 
ENDBRANCH   2   4
ENDBRANCH   1   2
BRANCH   1  11
ATOM     11  C   UNL     1      11.665   7.339  33.298  1.00  0.00     0.028 C 
BRANCH  11  12
ATOM     12  C   UNL     1      12.314   6.365  34.250  1.00  0.00    -0.028 C 
ATOM     13  C   UNL     1      11.734   5.898  35.378  1.00  0.00    -0.080 C 
ATOM     14  C   UNL     1      12.489   4.895  36.213  1.00  0.00     0.039 C 
ATOM     15  C   UNL     1      10.368   6.364  35.828  1.00  0.00     0.039 C 
ENDBRANCH  11  12
ENDBRANCH   1  11
TORSDOF 4
ENDMDL
MODEL 6
REMARK VINA RESULT:    -5.031     12.939     15.071
REMARK INTER + INTRA:          -7.674
REMARK INTER:                  -6.991
REMARK INTRA:                  -0.683
REMARK UNBOUND:                -1.467
REMARK SMILES CC(C)=CCC[C@@H](C)c1ccc(C)cc1
REMARK SMILES IDX 6 1 7 2 8 3 9 4 13 5 12 6 11 7 14 8 10 9 15 10 5 11 4 12
REMARK SMILES IDX 2 13 1 14 3 15
REMARK H PARENT
REMARK Flexibility Score: inf
ROOT
ATOM      1  C   UNL     1       5.111   7.912  31.669  1.00  0.00     0.012 C 
ENDROOT
BRANCH   1   2
ATOM      2  C   UNL     1       6.391   7.413  30.963  1.00  0.00     0.016 C 
ATOM      3  C   UNL     1       7.302   6.609  31.905  1.00  0.00     0.013 C 
BRANCH   2   4
ATOM      4  C   UNL     1       6.032   6.585  29.742  1.00  0.00    -0.045 A 
ATOM      5  C   UNL     1       4.959   4.260  26.263  1.00  0.00     0.044 C 
ATOM      6  C   UNL     1       5.361   5.066  27.462  1.00  0.00    -0.051 A 
ATOM      7  C   UNL     1       5.373   6.467  27.401  1.00  0.00     0.004 A 
ATOM      8  C   UNL     1       5.659   4.427  28.675  1.00  0.00     0.004 A 
ATOM      9  C   UNL     1       5.712   7.220  28.529  1.00  0.00     0.004 A 
ATOM     10  C   UNL     1       5.997   5.178  29.804  1.00  0.00     0.004 A 
ENDBRANCH   2   4
ENDBRANCH   1   2
BRANCH   1  11
ATOM     11  C   UNL     1       4.902   7.262  33.045  1.00  0.00     0.028 C 
BRANCH  11  12
ATOM     12  C   UNL     1       3.629   6.454  33.065  1.00  0.00    -0.028 C 
ATOM     13  C   UNL     1       2.605   6.661  33.924  1.00  0.00    -0.080 C 
ATOM     14  C   UNL     1       1.376   5.799  33.798  1.00  0.00     0.039 C 
ATOM     15  C   UNL     1       2.670   7.714  35.006  1.00  0.00     0.039 C 
ENDBRANCH  11  12
ENDBRANCH   1  11
TORSDOF 4
ENDMDL
MODEL 7
REMARK VINA RESULT:    -5.003     11.935     15.469
REMARK INTER + INTRA:          -7.639
REMARK INTER:                  -6.960
REMARK INTRA:                  -0.680
REMARK UNBOUND:                -1.467
REMARK SMILES CC(C)=CCC[C@@H](C)c1ccc(C)cc1
REMARK SMILES IDX 6 1 7 2 8 3 9 4 13 5 12 6 11 7 14 8 10 9 15 10 5 11 4 12
REMARK SMILES IDX 2 13 1 14 3 15
REMARK H PARENT
REMARK Flexibility Score: inf
ROOT
ATOM      1  C   UNL     1       7.860   6.053  30.094  1.00  0.00     0.012 C 
ENDROOT
BRANCH   1   2
ATOM      2  C   UNL     1       8.025   6.437  31.581  1.00  0.00     0.016 C 
ATOM      3  C   UNL     1       6.738   7.028  32.177  1.00  0.00     0.013 C 
BRANCH   2   4
ATOM      4  C   UNL     1       8.480   5.235  32.390  1.00  0.00    -0.045 A 
ATOM      5  C   UNL     1       9.799   1.793  34.641  1.00  0.00     0.044 C 
ATOM      6  C   UNL     1       9.345   3.006  33.885  1.00  0.00    -0.051 A 
ATOM      7  C   UNL     1      10.266   3.763  33.146  1.00  0.00     0.004 A 
ATOM      8  C   UNL     1       7.986   3.351  33.851  1.00  0.00     0.004 A 
ATOM      9  C   UNL     1       9.838   4.872  32.411  1.00  0.00     0.004 A 
ATOM     10  C   UNL     1       7.557   4.458  33.116  1.00  0.00     0.004 A 
ENDBRANCH   2   4
ENDBRANCH   1   2
BRANCH   1  11
ATOM     11  C   UNL     1       6.392   6.052  29.642  1.00  0.00     0.028 C 
BRANCH  11  12
ATOM     12  C   UNL     1       5.985   4.684  29.154  1.00  0.00    -0.028 C 
ATOM     13  C   UNL     1       5.533   4.420  27.908  1.00  0.00    -0.080 C 
ATOM     14  C   UNL     1       5.202   2.994  27.550  1.00  0.00     0.039 C 
ATOM     15  C   UNL     1       5.338   5.511  26.879  1.00  0.00     0.039 C 
ENDBRANCH  11  12
ENDBRANCH   1  11
TORSDOF 4
ENDMDL
MODEL 8
REMARK VINA RESULT:    -4.960      3.577      6.028
REMARK INTER + INTRA:          -7.586
REMARK INTER:                  -6.590
REMARK INTRA:                  -0.996
REMARK UNBOUND:                -1.467
REMARK SMILES CC(C)=CCC[C@@H](C)c1ccc(C)cc1
REMARK SMILES IDX 6 1 7 2 8 3 9 4 13 5 12 6 11 7 14 8 10 9 15 10 5 11 4 12
REMARK SMILES IDX 2 13 1 14 3 15
REMARK H PARENT
REMARK Flexibility Score: inf
ROOT
ATOM      1  C   UNL     1      -4.081  -7.124  30.728  1.00  0.00     0.012 C 
ENDROOT
BRANCH   1   2
ATOM      2  C   UNL     1      -4.299  -6.985  32.252  1.00  0.00     0.016 C 
ATOM      3  C   UNL     1      -3.124  -7.553  33.064  1.00  0.00     0.013 C 
BRANCH   2   4
ATOM      4  C   UNL     1      -4.542  -5.532  32.619  1.00  0.00    -0.045 A 
ATOM      5  C   UNL     1      -5.219  -1.411  33.722  1.00  0.00     0.044 C 
ATOM      6  C   UNL     1      -4.975  -2.833  33.312  1.00  0.00    -0.051 A 
ATOM      7  C   UNL     1      -3.744  -3.446  33.589  1.00  0.00     0.004 A 
ATOM      8  C   UNL     1      -5.998  -3.582  32.712  1.00  0.00     0.004 A 
ATOM      9  C   UNL     1      -3.527  -4.782  33.239  1.00  0.00     0.004 A 
ATOM     10  C   UNL     1      -5.783  -4.917  32.364  1.00  0.00     0.004 A 
ENDBRANCH   2   4
ENDBRANCH   1   2
BRANCH   1  11
ATOM     11  C   UNL     1      -2.722  -7.752  30.380  1.00  0.00     0.028 C 
BRANCH  11  12
ATOM     12  C   UNL     1      -1.998  -6.917  29.353  1.00  0.00    -0.028 C 
ATOM     13  C   UNL     1      -1.093  -5.957  29.649  1.00  0.00    -0.080 C 
ATOM     14  C   UNL     1      -0.417  -5.231  28.515  1.00  0.00     0.039 C 
ATOM     15  C   UNL     1      -0.758  -5.586  31.076  1.00  0.00     0.039 C 
ENDBRANCH  11  12
ENDBRANCH   1  11
TORSDOF 4
ENDMDL
MODEL 9
REMARK VINA RESULT:    -4.952     14.592     16.074
REMARK INTER + INTRA:          -7.577
REMARK INTER:                  -6.862
REMARK INTRA:                  -0.715
REMARK UNBOUND:                -1.467
REMARK SMILES CC(C)=CCC[C@@H](C)c1ccc(C)cc1
REMARK SMILES IDX 6 1 7 2 8 3 9 4 13 5 12 6 11 7 14 8 10 9 15 10 5 11 4 12
REMARK SMILES IDX 2 13 1 14 3 15
REMARK H PARENT
REMARK Flexibility Score: inf
ROOT
ATOM      1  C   UNL     1       5.213   6.185  32.648  1.00  0.00     0.012 C 
ENDROOT
BRANCH   1   2
ATOM      2  C   UNL     1       6.576   6.715  33.146  1.00  0.00     0.016 C 
ATOM      3  C   UNL     1       6.424   7.737  34.284  1.00  0.00     0.013 C 
BRANCH   2   4
ATOM      4  C   UNL     1       7.462   5.562  33.586  1.00  0.00    -0.045 A 
ATOM      5  C   UNL     1      10.027   2.308  34.806  1.00  0.00     0.044 C 
ATOM      6  C   UNL     1       9.121   3.436  34.409  1.00  0.00    -0.051 A 
ATOM      7  C   UNL     1       9.504   4.765  34.644  1.00  0.00     0.004 A 
ATOM      8  C   UNL     1       7.919   3.175  33.737  1.00  0.00     0.004 A 
ATOM      9  C   UNL     1       8.678   5.819  34.242  1.00  0.00     0.004 A 
ATOM     10  C   UNL     1       7.093   4.227  33.333  1.00  0.00     0.004 A 
ENDBRANCH   2   4
ENDBRANCH   1   2
BRANCH   1  11
ATOM     11  C   UNL     1       4.098   7.238  32.741  1.00  0.00     0.028 C 
BRANCH  11  12
ATOM     12  C   UNL     1       2.925   6.705  33.525  1.00  0.00    -0.028 C 
ATOM     13  C   UNL     1       2.333   7.354  34.552  1.00  0.00    -0.080 C 
ATOM     14  C   UNL     1       1.142   6.715  35.216  1.00  0.00     0.039 C 
ATOM     15  C   UNL     1       2.843   8.685  35.057  1.00  0.00     0.039 C 
ENDBRANCH  11  12
ENDBRANCH   1  11
TORSDOF 4
ENDMDL
