MODEL 1
REMARK VINA RESULT:    -4.748      0.000      0.000
REMARK INTER + INTRA:          -6.546
REMARK INTER:                  -6.414
REMARK INTRA:                  -0.132
REMARK UNBOUND:                -0.132
REMARK SMILES CCCCCCC=CC(=O)[O-]
REMARK SMILES IDX 5 1 6 2 7 3 8 4 9 5 10 6 11 7 4 8 3 9 2 10 1 11
REMARK H PARENT
REMARK Flexibility Score: inf
ROOT
ATOM      1  C   UNL     1      23.722  36.642   3.820  1.00  0.00     0.004 C 
ENDROOT
BRANCH   1   2
ATOM      2  C   UNL     1      24.181  37.759   4.771  1.00  0.00     0.027 C 
BRANCH   2   3
ATOM      3  C   UNL     1      25.186  37.249   5.762  1.00  0.00    -0.025 C 
ATOM      4  C   UNL     1      25.635  38.018   6.759  1.00  0.00     0.020 C 
BRANCH   4   5
ATOM      5  C   UNL     1      26.630  37.535   7.729  1.00  0.00     0.064 C 
ATOM      6  O   UNL     1      26.428  36.453   8.339  1.00  0.00    -0.545 OA
ATOM      7  O   UNL     1      27.791  38.256   7.983  1.00  0.00    -0.545 OA
ENDBRANCH   4   5
ENDBRANCH   2   3
ENDBRANCH   1   2
BRANCH   1   8
ATOM      8  C   UNL     1      24.404  36.719   2.446  1.00  0.00     0.000 C 
BRANCH   8   9
ATOM      9  C   UNL     1      23.466  36.315   1.298  1.00  0.00    -0.000 C 
BRANCH   9  10
ATOM     10  C   UNL     1      24.205  35.464   0.259  1.00  0.00    -0.003 C 
ATOM     11  C   UNL     1      23.248  34.938  -0.806  1.00  0.00     0.004 C 
ENDBRANCH   9  10
ENDBRANCH   8   9
ENDBRANCH   1   8
TORSDOF 6
ENDMDL
MODEL 2
REMARK VINA RESULT:    -4.718      5.076      6.162
REMARK INTER + INTRA:          -6.505
REMARK INTER:                  -6.040
REMARK INTRA:                  -0.465
REMARK UNBOUND:                -0.132
REMARK SMILES CCCCCCC=CC(=O)[O-]
REMARK SMILES IDX 5 1 6 2 7 3 8 4 9 5 10 6 11 7 4 8 3 9 2 10 1 11
REMARK H PARENT
REMARK Flexibility Score: inf
ROOT
ATOM      1  C   UNL     1      24.515  38.001   1.922  1.00  0.00     0.004 C 
ENDROOT
BRANCH   1   2
ATOM      2  C   UNL     1      24.199  38.829   0.666  1.00  0.00     0.027 C 
BRANCH   2   3
ATOM      3  C   UNL     1      23.277  39.969   0.987  1.00  0.00    -0.025 C 
ATOM      4  C   UNL     1      21.948  39.825   0.940  1.00  0.00     0.020 C 
BRANCH   4   5
ATOM      5  C   UNL     1      21.032  40.937   1.239  1.00  0.00     0.064 C 
ATOM      6  O   UNL     1      20.951  41.906   0.440  1.00  0.00    -0.545 OA
ATOM      7  O   UNL     1      20.253  40.934   2.390  1.00  0.00    -0.545 OA
ENDBRANCH   4   5
ENDBRANCH   2   3
ENDBRANCH   1   2
BRANCH   1   8
ATOM      8  C   UNL     1      24.400  36.489   1.677  1.00  0.00     0.000 C 
BRANCH   8   9
ATOM      9  C   UNL     1      23.329  36.139   0.633  1.00  0.00    -0.000 C 
BRANCH   9  10
ATOM     10  C   UNL     1      23.855  35.103  -0.366  1.00  0.00    -0.003 C 
ATOM     11  C   UNL     1      25.291  34.704  -0.044  1.00  0.00     0.004 C 
ENDBRANCH   9  10
ENDBRANCH   8   9
ENDBRANCH   1   8
TORSDOF 6
ENDMDL
MODEL 3
REMARK VINA RESULT:    -4.716      5.314      6.221
REMARK INTER + INTRA:          -6.502
REMARK INTER:                  -6.107
REMARK INTRA:                  -0.395
REMARK UNBOUND:                -0.132
REMARK SMILES CCCCCCC=CC(=O)[O-]
REMARK SMILES IDX 5 1 6 2 7 3 8 4 9 5 10 6 11 7 4 8 3 9 2 10 1 11
REMARK H PARENT
REMARK Flexibility Score: inf
ROOT
ATOM      1  C   UNL     1      24.501  37.910   1.813  1.00  0.00     0.004 C 
ENDROOT
BRANCH   1   2
ATOM      2  C   UNL     1      24.182  38.847   0.638  1.00  0.00     0.027 C 
BRANCH   2   3
ATOM      3  C   UNL     1      23.266  39.957   1.064  1.00  0.00    -0.025 C 
ATOM      4  C   UNL     1      21.973  39.965   0.723  1.00  0.00     0.020 C 
BRANCH   4   5
ATOM      5  C   UNL     1      21.067  41.053   1.122  1.00  0.00     0.064 C 
ATOM      6  O   UNL     1      21.383  42.246   0.875  1.00  0.00    -0.545 OA
ATOM      7  O   UNL     1      19.865  40.785   1.767  1.00  0.00    -0.545 OA
ENDBRANCH   4   5
ENDBRANCH   2   3
ENDBRANCH   1   2
BRANCH   1   8
ATOM      8  C   UNL     1      23.958  36.488   1.601  1.00  0.00     0.000 C 
BRANCH   8   9
ATOM      9  C   UNL     1      24.980  35.562   0.924  1.00  0.00    -0.000 C 
BRANCH   9  10
ATOM     10  C   UNL     1      24.497  35.136  -0.467  1.00  0.00    -0.003 C 
ATOM     11  C   UNL     1      22.976  35.194  -0.566  1.00  0.00     0.004 C 
ENDBRANCH   9  10
ENDBRANCH   8   9
ENDBRANCH   1   8
TORSDOF 6
ENDMDL
MODEL 4
REMARK VINA RESULT:    -4.658      5.073      5.989
REMARK INTER + INTRA:          -6.424
REMARK INTER:                  -6.135
REMARK INTRA:                  -0.289
REMARK UNBOUND:                -0.132
REMARK SMILES CCCCCCC=CC(=O)[O-]
REMARK SMILES IDX 5 1 6 2 7 3 8 4 9 5 10 6 11 7 4 8 3 9 2 10 1 11
REMARK H PARENT
REMARK Flexibility Score: inf
ROOT
ATOM      1  C   UNL     1      23.524  38.246   1.104  1.00  0.00     0.004 C 
ENDROOT
BRANCH   1   2
ATOM      2  C   UNL     1      22.256  38.908   0.544  1.00  0.00     0.027 C 
BRANCH   2   3
ATOM      3  C   UNL     1      22.225  40.375   0.860  1.00  0.00    -0.025 C 
ATOM      4  C   UNL     1      23.351  41.084   0.993  1.00  0.00     0.020 C 
BRANCH   4   5
ATOM      5  C   UNL     1      23.337  42.519   1.316  1.00  0.00     0.064 C 
ATOM      6  O   UNL     1      23.012  43.351   0.430  1.00  0.00    -0.545 OA
ATOM      7  O   UNL     1      23.676  42.971   2.586  1.00  0.00    -0.545 OA
ENDBRANCH   4   5
ENDBRANCH   2   3
ENDBRANCH   1   2
BRANCH   1   8
ATOM      8  C   UNL     1      23.340  36.744   1.368  1.00  0.00     0.000 C 
BRANCH   8   9
ATOM      9  C   UNL     1      24.623  35.938   1.117  1.00  0.00    -0.000 C 
BRANCH   9  10
ATOM     10  C   UNL     1      24.502  35.097  -0.159  1.00  0.00    -0.003 C 
ATOM     11  C   UNL     1      23.064  35.070  -0.668  1.00  0.00     0.004 C 
ENDBRANCH   9  10
ENDBRANCH   8   9
ENDBRANCH   1   8
TORSDOF 6
ENDMDL
MODEL 5
REMARK VINA RESULT:    -4.480      5.135      5.861
REMARK INTER + INTRA:          -6.184
REMARK INTER:                  -5.913
REMARK INTRA:                  -0.270
REMARK UNBOUND:                -0.132
REMARK SMILES CCCCCCC=CC(=O)[O-]
REMARK SMILES IDX 5 1 6 2 7 3 8 4 9 5 10 6 11 7 4 8 3 9 2 10 1 11
REMARK H PARENT
REMARK Flexibility Score: inf
ROOT
ATOM      1  C   UNL     1      24.084  38.450   1.033  1.00  0.00     0.004 C 
ENDROOT
BRANCH   1   2
ATOM      2  C   UNL     1      23.045  39.545   0.746  1.00  0.00     0.027 C 
BRANCH   2   3
ATOM      3  C   UNL     1      22.176  39.795   1.945  1.00  0.00    -0.025 C 
ATOM      4  C   UNL     1      20.986  40.394   1.831  1.00  0.00     0.020 C 
BRANCH   4   5
ATOM      5  C   UNL     1      20.130  40.657   2.998  1.00  0.00     0.064 C 
ATOM      6  O   UNL     1      20.573  41.353   3.948  1.00  0.00    -0.545 OA
ATOM      7  O   UNL     1      18.838  40.149   3.068  1.00  0.00    -0.545 OA
ENDBRANCH   4   5
ENDBRANCH   2   3
ENDBRANCH   1   2
BRANCH   1   8
ATOM      8  C   UNL     1      23.465  37.045   1.081  1.00  0.00     0.000 C 
BRANCH   8   9
ATOM      9  C   UNL     1      24.525  35.935   1.156  1.00  0.00    -0.000 C 
BRANCH   9  10
ATOM     10  C   UNL     1      24.508  35.073  -0.111  1.00  0.00    -0.003 C 
ATOM     11  C   UNL     1      23.118  35.044  -0.741  1.00  0.00     0.004 C 
ENDBRANCH   9  10
ENDBRANCH   8   9
ENDBRANCH   1   8
TORSDOF 6
ENDMDL
MODEL 6
REMARK VINA RESULT:    -4.250      4.006      7.246
REMARK INTER + INTRA:          -5.872
REMARK INTER:                  -5.262
REMARK INTRA:                  -0.610
REMARK UNBOUND:                -0.132
REMARK SMILES CCCCCCC=CC(=O)[O-]
REMARK SMILES IDX 5 1 6 2 7 3 8 4 9 5 10 6 11 7 4 8 3 9 2 10 1 11
REMARK H PARENT
REMARK Flexibility Score: inf
ROOT
ATOM      1  C   UNL     1      25.675  37.798   9.916  1.00  0.00     0.004 C 
ENDROOT
BRANCH   1   2
ATOM      2  C   UNL     1      26.621  37.254   8.834  1.00  0.00     0.027 C 
BRANCH   2   3
ATOM      3  C   UNL     1      25.954  37.240   7.489  1.00  0.00    -0.025 C 
ATOM      4  C   UNL     1      25.516  38.366   6.916  1.00  0.00     0.020 C 
BRANCH   4   5
ATOM      5  C   UNL     1      24.849  38.366   5.604  1.00  0.00     0.064 C 
ATOM      6  O   UNL     1      24.530  37.272   5.071  1.00  0.00    -0.545 OA
ATOM      7  O   UNL     1      24.564  39.556   4.945  1.00  0.00    -0.545 OA
ENDBRANCH   4   5
ENDBRANCH   2   3
ENDBRANCH   1   2
BRANCH   1   8
ATOM      8  C   UNL     1      26.345  38.850  10.814  1.00  0.00     0.000 C 
BRANCH   8   9
ATOM      9  C   UNL     1      27.834  39.042  10.488  1.00  0.00    -0.000 C 
BRANCH   9  10
ATOM     10  C   UNL     1      28.085  40.417   9.860  1.00  0.00    -0.003 C 
ATOM     11  C   UNL     1      28.628  40.286   8.440  1.00  0.00     0.004 C 
ENDBRANCH   9  10
ENDBRANCH   8   9
ENDBRANCH   1   8
TORSDOF 6
ENDMDL
MODEL 7
REMARK VINA RESULT:    -4.188      4.617      5.282
REMARK INTER + INTRA:          -5.788
REMARK INTER:                  -5.566
REMARK INTRA:                  -0.223
REMARK UNBOUND:                -0.132
REMARK SMILES CCCCCCC=CC(=O)[O-]
REMARK SMILES IDX 5 1 6 2 7 3 8 4 9 5 10 6 11 7 4 8 3 9 2 10 1 11
REMARK H PARENT
REMARK Flexibility Score: inf
ROOT
ATOM      1  C   UNL     1      23.240  36.687   3.418  1.00  0.00     0.004 C 
ENDROOT
BRANCH   1   2
ATOM      2  C   UNL     1      23.114  38.090   4.032  1.00  0.00     0.027 C 
BRANCH   2   3
ATOM      3  C   UNL     1      21.878  38.787   3.541  1.00  0.00    -0.025 C 
ATOM      4  C   UNL     1      20.981  39.298   4.391  1.00  0.00     0.020 C 
BRANCH   4   5
ATOM      5  C   UNL     1      19.759  39.971   3.925  1.00  0.00     0.064 C 
ATOM      6  O   UNL     1      19.726  40.465   2.768  1.00  0.00    -0.545 OA
ATOM      7  O   UNL     1      18.639  40.070   4.742  1.00  0.00    -0.545 OA
ENDBRANCH   4   5
ENDBRANCH   2   3
ENDBRANCH   1   2
BRANCH   1   8
ATOM      8  C   UNL     1      24.315  36.615   2.323  1.00  0.00     0.000 C 
BRANCH   8   9
ATOM      9  C   UNL     1      23.716  36.543   0.911  1.00  0.00    -0.000 C 
BRANCH   9  10
ATOM     10  C   UNL     1      24.279  35.345   0.137  1.00  0.00    -0.003 C 
ATOM     11  C   UNL     1      23.280  34.838  -0.900  1.00  0.00     0.004 C 
ENDBRANCH   9  10
ENDBRANCH   8   9
ENDBRANCH   1   8
TORSDOF 6
ENDMDL
MODEL 8
REMARK VINA RESULT:    -4.109      7.804      8.574
REMARK INTER + INTRA:          -5.682
REMARK INTER:                  -5.069
REMARK INTRA:                  -0.613
REMARK UNBOUND:                -0.132
REMARK SMILES CCCCCCC=CC(=O)[O-]
REMARK SMILES IDX 5 1 6 2 7 3 8 4 9 5 10 6 11 7 4 8 3 9 2 10 1 11
REMARK H PARENT
REMARK Flexibility Score: inf
ROOT
ATOM      1  C   UNL     1      17.413  43.880   4.188  1.00  0.00     0.004 C 
ENDROOT
BRANCH   1   2
ATOM      2  C   UNL     1      17.385  43.084   5.502  1.00  0.00     0.027 C 
BRANCH   2   3
ATOM      3  C   UNL     1      18.424  42.001   5.503  1.00  0.00    -0.025 C 
ATOM      4  C   UNL     1      18.103  40.726   5.747  1.00  0.00     0.020 C 
BRANCH   4   5
ATOM      5  C   UNL     1      19.113  39.656   5.764  1.00  0.00     0.064 C 
ATOM      6  O   UNL     1      18.802  38.504   5.367  1.00  0.00    -0.545 OA
ATOM      7  O   UNL     1      20.406  39.899   6.211  1.00  0.00    -0.545 OA
ENDBRANCH   4   5
ENDBRANCH   2   3
ENDBRANCH   1   2
BRANCH   1   8
ATOM      8  C   UNL     1      18.214  43.171   3.085  1.00  0.00     0.000 C 
BRANCH   8   9
ATOM      9  C   UNL     1      17.400  42.977   1.797  1.00  0.00    -0.000 C 
BRANCH   9  10
ATOM     10  C   UNL     1      17.307  41.492   1.426  1.00  0.00    -0.003 C 
ATOM     11  C   UNL     1      18.455  40.696   2.039  1.00  0.00     0.004 C 
ENDBRANCH   9  10
ENDBRANCH   8   9
ENDBRANCH   1   8
TORSDOF 6
ENDMDL
MODEL 9
REMARK VINA RESULT:    -4.055      5.271      6.784
REMARK INTER + INTRA:          -5.609
REMARK INTER:                  -5.334
REMARK INTRA:                  -0.275
REMARK UNBOUND:                -0.132
REMARK SMILES CCCCCCC=CC(=O)[O-]
REMARK SMILES IDX 5 1 6 2 7 3 8 4 9 5 10 6 11 7 4 8 3 9 2 10 1 11
REMARK H PARENT
REMARK Flexibility Score: inf
ROOT
ATOM      1  C   UNL     1      23.387  39.981   1.028  1.00  0.00     0.004 C 
ENDROOT
BRANCH   1   2
ATOM      2  C   UNL     1      23.717  38.679   1.775  1.00  0.00     0.027 C 
BRANCH   2   3
ATOM      3  C   UNL     1      24.084  37.583   0.817  1.00  0.00    -0.025 C 
ATOM      4  C   UNL     1      23.606  36.343   0.960  1.00  0.00     0.020 C 
BRANCH   4   5
ATOM      5  C   UNL     1      23.969  35.256   0.037  1.00  0.00     0.064 C 
ATOM      6  O   UNL     1      23.101  34.796  -0.750  1.00  0.00    -0.545 OA
ATOM      7  O   UNL     1      25.255  34.730   0.020  1.00  0.00    -0.545 OA
ENDBRANCH   4   5
ENDBRANCH   2   3
ENDBRANCH   1   2
BRANCH   1   8
ATOM      8  C   UNL     1      21.914  40.060   0.599  1.00  0.00     0.000 C 
BRANCH   8   9
ATOM      9  C   UNL     1      21.203  41.303   1.155  1.00  0.00    -0.000 C 
BRANCH   9  10
ATOM     10  C   UNL     1      20.604  41.021   2.537  1.00  0.00    -0.003 C 
ATOM     11  C   UNL     1      19.116  40.701   2.440  1.00  0.00     0.004 C 
ENDBRANCH   9  10
ENDBRANCH   8   9
ENDBRANCH   1   8
TORSDOF 6
ENDMDL
