MODEL 1
REMARK VINA RESULT:    -2.430      0.000      0.000
REMARK INTER + INTRA:          -2.747
REMARK INTER:                  -2.572
REMARK INTRA:                  -0.175
REMARK UNBOUND:                -0.175
REMARK SMILES CC(C)[C@@H]1CC[C@@H](C)CC1=O
REMARK SMILES IDX 8 1 7 2 6 3 5 4 4 5 10 6 11 7 9 8 2 9 1 10 3 11
REMARK H PARENT
REMARK Flexibility Score: inf
ROOT
ATOM      1  C   UNL     1     127.125 109.147 132.396  1.00  0.00     0.008 C 
ATOM      2  C   UNL     1     127.007 109.213 133.923  1.00  0.00    -0.007 C 
ATOM      3  C   UNL     1     126.155 108.040 134.453  1.00  0.00     0.004 C 
ATOM      4  C   UNL     1     126.008 108.093 135.985  1.00  0.00     0.012 C 
ATOM      5  C   UNL     1     125.386 109.431 136.456  1.00  0.00     0.058 C 
ATOM      6  C   UNL     1     126.209 110.555 135.848  1.00  0.00     0.136 C 
ATOM      7  O   UNL     1     126.773 111.392 136.538  1.00  0.00    -0.299 OA
ATOM      8  C   UNL     1     126.406 110.561 134.359  1.00  0.00     0.079 C 
ENDROOT
BRANCH   5   9
ATOM      9  C   UNL     1     125.263 109.542 138.013  1.00  0.00    -0.007 C 
ATOM     10  C   UNL     1     126.131 108.509 138.753  1.00  0.00     0.008 C 
ATOM     11  C   UNL     1     123.800 109.360 138.462  1.00  0.00     0.008 C 
ENDBRANCH   5   9
TORSDOF 1
ENDMDL
MODEL 2
REMARK VINA RESULT:    -2.288      1.856      2.885
REMARK INTER + INTRA:          -2.597
REMARK INTER:                  -2.436
REMARK INTRA:                  -0.161
REMARK UNBOUND:                -0.175
REMARK SMILES CC(C)[C@@H]1CC[C@@H](C)CC1=O
REMARK SMILES IDX 8 1 7 2 6 3 5 4 4 5 10 6 11 7 9 8 2 9 1 10 3 11
REMARK H PARENT
REMARK Flexibility Score: inf
ROOT
ATOM      1  C   UNL     1     127.121 107.575 132.905  1.00  0.00     0.008 C 
ATOM      2  C   UNL     1     126.382 108.664 133.690  1.00  0.00    -0.007 C 
ATOM      3  C   UNL     1     127.123 110.013 133.576  1.00  0.00     0.004 C 
ATOM      4  C   UNL     1     126.409 111.122 134.371  1.00  0.00     0.012 C 
ATOM      5  C   UNL     1     126.252 110.748 135.866  1.00  0.00     0.058 C 
ATOM      6  C   UNL     1     125.590 109.381 135.926  1.00  0.00     0.136 C 
ATOM      7  O   UNL     1     124.527 109.202 136.502  1.00  0.00    -0.299 OA
ATOM      8  C   UNL     1     126.224 108.253 135.165  1.00  0.00     0.079 C 
ENDROOT
BRANCH   5   9
ATOM      9  C   UNL     1     125.488 111.832 136.697  1.00  0.00    -0.007 C 
ATOM     10  C   UNL     1     125.409 113.189 135.976  1.00  0.00     0.008 C 
ATOM     11  C   UNL     1     126.160 112.046 138.068  1.00  0.00     0.008 C 
ENDBRANCH   5   9
TORSDOF 1
ENDMDL
MODEL 3
REMARK VINA RESULT:    -2.273      1.871      4.301
REMARK INTER + INTRA:          -2.580
REMARK INTER:                  -2.405
REMARK INTRA:                  -0.175
REMARK UNBOUND:                -0.175
REMARK SMILES CC(C)[C@@H]1CC[C@@H](C)CC1=O
REMARK SMILES IDX 8 1 7 2 6 3 5 4 4 5 10 6 11 7 9 8 2 9 1 10 3 11
REMARK H PARENT
REMARK Flexibility Score: inf
ROOT
ATOM      1  C   UNL     1     126.757 112.222 139.052  1.00  0.00     0.008 C 
ATOM      2  C   UNL     1     126.857 111.242 137.878  1.00  0.00    -0.007 C 
ATOM      3  C   UNL     1     126.625 111.973 136.539  1.00  0.00     0.004 C 
ATOM      4  C   UNL     1     126.704 111.005 135.343  1.00  0.00     0.012 C 
ATOM      5  C   UNL     1     125.687 109.844 135.476  1.00  0.00     0.058 C 
ATOM      6  C   UNL     1     125.901 109.205 136.839  1.00  0.00     0.136 C 
ATOM      7  O   UNL     1     126.190 108.024 136.963  1.00  0.00    -0.299 OA
ATOM      8  C   UNL     1     125.851 110.091 138.050  1.00  0.00     0.079 C 
ENDROOT
BRANCH   5   9
ATOM      9  C   UNL     1     125.770 108.813 134.301  1.00  0.00    -0.007 C 
ATOM     10  C   UNL     1     127.125 108.849 133.573  1.00  0.00     0.008 C 
ATOM     11  C   UNL     1     124.654 109.067 133.270  1.00  0.00     0.008 C 
ENDBRANCH   5   9
TORSDOF 1
ENDMDL
MODEL 4
REMARK VINA RESULT:    -2.197      1.308      1.850
REMARK INTER + INTRA:          -2.500
REMARK INTER:                  -2.333
REMARK INTRA:                  -0.167
REMARK UNBOUND:                -0.175
REMARK SMILES CC(C)[C@@H]1CC[C@@H](C)CC1=O
REMARK SMILES IDX 8 1 7 2 6 3 5 4 4 5 10 6 11 7 9 8 2 9 1 10 3 11
REMARK H PARENT
REMARK Flexibility Score: inf
ROOT
ATOM      1  C   UNL     1     126.853 112.519 133.381  1.00  0.00     0.008 C 
ATOM      2  C   UNL     1     126.931 111.521 134.542  1.00  0.00    -0.007 C 
ATOM      3  C   UNL     1     126.105 110.256 134.228  1.00  0.00     0.004 C 
ATOM      4  C   UNL     1     126.154 109.243 135.387  1.00  0.00     0.012 C 
ATOM      5  C   UNL     1     125.653 109.865 136.714  1.00  0.00     0.058 C 
ATOM      6  C   UNL     1     126.441 111.146 136.942  1.00  0.00     0.136 C 
ATOM      7  O   UNL     1     127.122 111.319 137.943  1.00  0.00    -0.299 OA
ATOM      8  C   UNL     1     126.448 112.175 135.849  1.00  0.00     0.079 C 
ENDROOT
BRANCH   5   9
ATOM      9  C   UNL     1     125.733 108.879 137.928  1.00  0.00    -0.007 C 
ATOM     10  C   UNL     1     126.176 107.464 137.516  1.00  0.00     0.008 C 
ATOM     11  C   UNL     1     124.370 108.776 138.640  1.00  0.00     0.008 C 
ENDBRANCH   5   9
TORSDOF 1
ENDMDL
MODEL 5
REMARK VINA RESULT:    -2.171      1.977      3.382
REMARK INTER + INTRA:          -2.473
REMARK INTER:                  -2.316
REMARK INTRA:                  -0.157
REMARK UNBOUND:                -0.175
REMARK SMILES CC(C)[C@@H]1CC[C@@H](C)CC1=O
REMARK SMILES IDX 8 1 7 2 6 3 5 4 4 5 10 6 11 7 9 8 2 9 1 10 3 11
REMARK H PARENT
REMARK Flexibility Score: inf
ROOT
ATOM      1  C   UNL     1     126.722 107.689 133.859  1.00  0.00     0.008 C 
ATOM      2  C   UNL     1     126.189 109.046 134.330  1.00  0.00    -0.007 C 
ATOM      3  C   UNL     1     127.121 110.187 133.869  1.00  0.00     0.004 C 
ATOM      4  C   UNL     1     126.614 111.561 134.346  1.00  0.00     0.012 C 
ATOM      5  C   UNL     1     126.462 111.615 135.886  1.00  0.00     0.058 C 
ATOM      6  C   UNL     1     125.603 110.432 136.300  1.00  0.00     0.136 C 
ATOM      7  O   UNL     1     124.548 110.576 136.902  1.00  0.00    -0.299 OA
ATOM      8  C   UNL     1     126.029 109.061 135.861  1.00  0.00     0.079 C 
ENDROOT
BRANCH   5   9
ATOM      9  C   UNL     1     125.904 112.983 136.404  1.00  0.00    -0.007 C 
ATOM     10  C   UNL     1     126.081 114.122 135.385  1.00  0.00     0.008 C 
ATOM     11  C   UNL     1     126.595 113.393 137.719  1.00  0.00     0.008 C 
ENDBRANCH   5   9
TORSDOF 1
ENDMDL
MODEL 6
REMARK VINA RESULT:    -2.155      1.217      1.228
REMARK INTER + INTRA:          -2.456
REMARK INTER:                  -2.292
REMARK INTRA:                  -0.164
REMARK UNBOUND:                -0.175
REMARK SMILES CC(C)[C@@H]1CC[C@@H](C)CC1=O
REMARK SMILES IDX 8 1 7 2 6 3 5 4 4 5 10 6 11 7 9 8 2 9 1 10 3 11
REMARK H PARENT
REMARK Flexibility Score: inf
ROOT
ATOM      1  C   UNL     1     126.576 108.004 132.814  1.00  0.00     0.008 C 
ATOM      2  C   UNL     1     126.775 108.711 134.159  1.00  0.00    -0.007 C 
ATOM      3  C   UNL     1     126.031 107.960 135.283  1.00  0.00     0.004 C 
ATOM      4  C   UNL     1     126.203 108.661 136.644  1.00  0.00     0.012 C 
ATOM      5  C   UNL     1     125.715 110.130 136.599  1.00  0.00     0.058 C 
ATOM      6  C   UNL     1     126.415 110.807 135.431  1.00  0.00     0.136 C 
ATOM      7  O   UNL     1     127.123 111.792 135.583  1.00  0.00    -0.299 OA
ATOM      8  C   UNL     1     126.301 110.173 134.075  1.00  0.00     0.079 C 
ENDROOT
BRANCH   5   9
ATOM      9  C   UNL     1     125.917 110.890 137.952  1.00  0.00    -0.007 C 
ATOM     10  C   UNL     1     126.271 109.948 139.117  1.00  0.00     0.008 C 
ATOM     11  C   UNL     1     124.650 111.681 138.332  1.00  0.00     0.008 C 
ENDBRANCH   5   9
TORSDOF 1
ENDMDL
MODEL 7
REMARK VINA RESULT:    -2.155      1.573      2.449
REMARK INTER + INTRA:          -2.456
REMARK INTER:                  -2.294
REMARK INTRA:                  -0.162
REMARK UNBOUND:                -0.175
REMARK SMILES CC(C)[C@@H]1CC[C@@H](C)CC1=O
REMARK SMILES IDX 8 1 7 2 6 3 5 4 4 5 10 6 11 7 9 8 2 9 1 10 3 11
REMARK H PARENT
REMARK Flexibility Score: inf
ROOT
ATOM      1  C   UNL     1     127.125 108.817 132.114  1.00  0.00     0.008 C 
ATOM      2  C   UNL     1     126.399 109.308 133.370  1.00  0.00    -0.007 C 
ATOM      3  C   UNL     1     127.036 110.614 133.890  1.00  0.00     0.004 C 
ATOM      4  C   UNL     1     126.333 111.121 135.164  1.00  0.00     0.012 C 
ATOM      5  C   UNL     1     126.350 110.058 136.291  1.00  0.00     0.058 C 
ATOM      6  C   UNL     1     125.787 108.771 135.711  1.00  0.00     0.136 C 
ATOM      7  O   UNL     1     124.800 108.225 136.183  1.00  0.00    -0.299 OA
ATOM      8  C   UNL     1     126.414 108.223 134.462  1.00  0.00     0.079 C 
ENDROOT
BRANCH   5   9
ATOM      9  C   UNL     1     125.603 110.519 137.587  1.00  0.00    -0.007 C 
ATOM     10  C   UNL     1     125.339 112.035 137.613  1.00  0.00     0.008 C 
ATOM     11  C   UNL     1     126.407 110.142 138.846  1.00  0.00     0.008 C 
ENDBRANCH   5   9
TORSDOF 1
ENDMDL
MODEL 8
REMARK VINA RESULT:    -1.970      1.997      4.110
REMARK INTER + INTRA:          -2.260
REMARK INTER:                  -2.095
REMARK INTRA:                  -0.165
REMARK UNBOUND:                -0.175
REMARK SMILES CC(C)[C@@H]1CC[C@@H](C)CC1=O
REMARK SMILES IDX 8 1 7 2 6 3 5 4 4 5 10 6 11 7 9 8 2 9 1 10 3 11
REMARK H PARENT
REMARK Flexibility Score: inf
ROOT
ATOM      1  C   UNL     1     126.519 113.669 138.025  1.00  0.00     0.008 C 
ATOM      2  C   UNL     1     126.012 112.541 137.121  1.00  0.00    -0.007 C 
ATOM      3  C   UNL     1     126.486 111.169 137.646  1.00  0.00     0.004 C 
ATOM      4  C   UNL     1     126.002 110.018 136.744  1.00  0.00     0.012 C 
ATOM      5  C   UNL     1     126.477 110.197 135.281  1.00  0.00     0.058 C 
ATOM      6  C   UNL     1     126.057 111.588 134.833  1.00  0.00     0.136 C 
ATOM      7  O   UNL     1     125.325 111.765 133.870  1.00  0.00    -0.299 OA
ATOM      8  C   UNL     1     126.482 112.759 135.671  1.00  0.00     0.079 C 
ENDROOT
BRANCH   5   9
ATOM      9  C   UNL     1     125.965 109.070 134.323  1.00  0.00    -0.007 C 
ATOM     10  C   UNL     1     125.285 107.913 135.076  1.00  0.00     0.008 C 
ATOM     11  C   UNL     1     127.124 108.493 133.487  1.00  0.00     0.008 C 
ENDBRANCH   5   9
TORSDOF 1
ENDMDL
MODEL 9
REMARK VINA RESULT:    -1.871      1.851      3.005
REMARK INTER + INTRA:          -2.155
REMARK INTER:                  -1.981
REMARK INTRA:                  -0.175
REMARK UNBOUND:                -0.175
REMARK SMILES CC(C)[C@@H]1CC[C@@H](C)CC1=O
REMARK SMILES IDX 8 1 7 2 6 3 5 4 4 5 10 6 11 7 9 8 2 9 1 10 3 11
REMARK H PARENT
REMARK Flexibility Score: inf
ROOT
ATOM      1  C   UNL     1     127.125 113.239 135.153  1.00  0.00     0.008 C 
ATOM      2  C   UNL     1     126.335 112.000 135.588  1.00  0.00    -0.007 C 
ATOM      3  C   UNL     1     126.712 111.593 137.028  1.00  0.00     0.004 C 
ATOM      4  C   UNL     1     125.943 110.339 137.483  1.00  0.00     0.012 C 
ATOM      5  C   UNL     1     126.183 109.140 136.532  1.00  0.00     0.058 C 
ATOM      6  C   UNL     1     125.873 109.611 135.120  1.00  0.00     0.136 C 
ATOM      7  O   UNL     1     125.019 109.073 134.431  1.00  0.00    -0.299 OA
ATOM      8  C   UNL     1     126.578 110.835 134.612  1.00  0.00     0.079 C 
ENDROOT
BRANCH   5   9
ATOM      9  C   UNL     1     125.379 107.859 136.936  1.00  0.00    -0.007 C 
ATOM     10  C   UNL     1     124.142 108.180 137.794  1.00  0.00     0.008 C 
ATOM     11  C   UNL     1     126.272 106.875 137.716  1.00  0.00     0.008 C 
ENDBRANCH   5   9
TORSDOF 1
ENDMDL
