MODEL 1
REMARK VINA RESULT:    -3.559      0.000      0.000
REMARK INTER + INTRA:          -9.498
REMARK INTER:                  -8.136
REMARK INTRA:                  -1.362
REMARK UNBOUND:                -1.362
REMARK SMILES CCCCCCCCCCCCCCCCCCCCCCCC(=O)[O-]
REMARK SMILES IDX 13 1 14 2 15 3 16 4 17 5 18 6 19 7 20 8 21 9 22 10 23 11
REMARK SMILES IDX 24 12 25 13 26 14 12 15 11 16 10 17 9 18 8 19 7 20 6 21 5 22
REMARK SMILES IDX 4 23 3 24 2 25 1 26
REMARK H PARENT
REMARK Flexibility Score: inf
ROOT
ATOM      1  C   UNL     1      43.673  27.404   1.542  1.00  0.00     0.000 C 
ENDROOT
BRANCH   1   2
ATOM      2  C   UNL     1      45.091  27.727   1.055  1.00  0.00     0.000 C 
BRANCH   2   3
ATOM      3  C   UNL     1      45.180  27.649  -0.476  1.00  0.00     0.000 C 
BRANCH   3   4
ATOM      4  C   UNL     1      46.277  28.559  -1.058  1.00  0.00     0.000 C 
BRANCH   4   5
ATOM      5  C   UNL     1      46.541  28.382  -2.567  1.00  0.00     0.000 C 
BRANCH   5   6
ATOM      6  C   UNL     1      46.014  29.522  -3.458  1.00  0.00     0.000 C 
BRANCH   6   7
ATOM      7  C   UNL     1      46.711  29.578  -4.828  1.00  0.00     0.000 C 
BRANCH   7   8
ATOM      8  C   UNL     1      45.760  29.227  -5.983  1.00  0.00     0.000 C 
BRANCH   8   9
ATOM      9  C   UNL     1      45.188  27.803  -5.857  1.00  0.00     0.000 C 
BRANCH   9  10
ATOM     10  C   UNL     1      43.898  27.615  -6.671  1.00  0.00     0.006 C 
BRANCH  10  11
ATOM     11  C   UNL     1      43.218  28.949  -7.006  1.00  0.00     0.053 C 
BRANCH  11  12
ATOM     12  C   UNL     1      41.902  29.057  -6.304  1.00  0.00     0.041 C 
ATOM     13  O   UNL     1      41.632  28.285  -5.348  1.00  0.00    -0.550 OA
ATOM     14  O   UNL     1      40.995  30.040  -6.671  1.00  0.00    -0.550 OA
ENDBRANCH  11  12
ENDBRANCH  10  11
ENDBRANCH   9  10
ENDBRANCH   8   9
ENDBRANCH   7   8
ENDBRANCH   6   7
ENDBRANCH   5   6
ENDBRANCH   4   5
ENDBRANCH   3   4
ENDBRANCH   2   3
ENDBRANCH   1   2
BRANCH   1  15
ATOM     15  C   UNL     1      43.224  28.399   2.623  1.00  0.00     0.000 C 
BRANCH  15  16
ATOM     16  C   UNL     1      44.175  29.601   2.764  1.00  0.00     0.000 C 
BRANCH  16  17
ATOM     17  C   UNL     1      44.669  29.873   4.196  1.00  0.00     0.000 C 
BRANCH  17  18
ATOM     18  C   UNL     1      46.126  29.441   4.420  1.00  0.00    -0.000 C 
BRANCH  18  19
ATOM     19  C   UNL     1      46.288  27.928   4.217  1.00  0.00    -0.000 C 
BRANCH  19  20
ATOM     20  C   UNL     1      47.046  27.246   5.369  1.00  0.00    -0.000 C 
BRANCH  20  21
ATOM     21  C   UNL     1      46.156  26.688   6.495  1.00  0.00    -0.000 C 
BRANCH  21  22
ATOM     22  C   UNL     1      46.795  26.822   7.886  1.00  0.00    -0.000 C 
BRANCH  22  23
ATOM     23  C   UNL     1      45.855  26.283   8.975  1.00  0.00    -0.000 C 
BRANCH  23  24
ATOM     24  C   UNL     1      45.034  27.394   9.650  1.00  0.00    -0.000 C 
BRANCH  24  25
ATOM     25  C   UNL     1      45.762  28.746   9.657  1.00  0.00    -0.003 C 
ATOM     26  C   UNL     1      44.776  29.898   9.828  1.00  0.00     0.004 C 
ENDBRANCH  24  25
ENDBRANCH  23  24
ENDBRANCH  22  23
ENDBRANCH  21  22
ENDBRANCH  20  21
ENDBRANCH  19  20
ENDBRANCH  18  19
ENDBRANCH  17  18
ENDBRANCH  16  17
ENDBRANCH  15  16
ENDBRANCH   1  15
TORSDOF 22
ENDMDL
MODEL 2
REMARK VINA RESULT:    -3.520      4.885     11.721
REMARK INTER + INTRA:          -9.409
REMARK INTER:                  -7.381
REMARK INTRA:                  -2.028
REMARK UNBOUND:                -1.362
REMARK SMILES CCCCCCCCCCCCCCCCCCCCCCCC(=O)[O-]
REMARK SMILES IDX 13 1 14 2 15 3 16 4 17 5 18 6 19 7 20 8 21 9 22 10 23 11
REMARK SMILES IDX 24 12 25 13 26 14 12 15 11 16 10 17 9 18 8 19 7 20 6 21 5 22
REMARK SMILES IDX 4 23 3 24 2 25 1 26
REMARK H PARENT
REMARK Flexibility Score: inf
ROOT
ATOM      1  C   UNL     1      45.190  29.545   3.113  1.00  0.00     0.000 C 
ENDROOT
BRANCH   1   2
ATOM      2  C   UNL     1      46.679  29.208   2.966  1.00  0.00     0.000 C 
BRANCH   2   3
ATOM      3  C   UNL     1      46.888  27.696   2.799  1.00  0.00     0.000 C 
BRANCH   3   4
ATOM      4  C   UNL     1      45.657  26.872   3.218  1.00  0.00     0.000 C 
BRANCH   4   5
ATOM      5  C   UNL     1      45.710  26.294   4.647  1.00  0.00     0.000 C 
BRANCH   5   6
ATOM      6  C   UNL     1      47.101  26.316   5.306  1.00  0.00     0.000 C 
BRANCH   6   7
ATOM      7  C   UNL     1      47.121  27.105   6.626  1.00  0.00     0.000 C 
BRANCH   7   8
ATOM      8  C   UNL     1      46.003  28.157   6.696  1.00  0.00     0.000 C 
BRANCH   8   9
ATOM      9  C   UNL     1      46.379  29.351   7.592  1.00  0.00     0.000 C 
BRANCH   9  10
ATOM     10  C   UNL     1      45.603  29.355   8.919  1.00  0.00     0.006 C 
BRANCH  10  11
ATOM     11  C   UNL     1      45.031  27.975   9.267  1.00  0.00     0.053 C 
BRANCH  11  12
ATOM     12  C   UNL     1      46.052  27.151   9.984  1.00  0.00     0.041 C 
ATOM     13  O   UNL     1      46.895  27.704  10.737  1.00  0.00    -0.550 OA
ATOM     14  O   UNL     1      46.043  25.768   9.862  1.00  0.00    -0.550 OA
ENDBRANCH  11  12
ENDBRANCH  10  11
ENDBRANCH   9  10
ENDBRANCH   8   9
ENDBRANCH   7   8
ENDBRANCH   6   7
ENDBRANCH   5   6
ENDBRANCH   4   5
ENDBRANCH   3   4
ENDBRANCH   2   3
ENDBRANCH   1   2
BRANCH   1  15
ATOM     15  C   UNL     1      44.616  30.077   1.791  1.00  0.00     0.000 C 
BRANCH  15  16
ATOM     16  C   UNL     1      45.658  30.125   0.660  1.00  0.00     0.000 C 
BRANCH  16  17
ATOM     17  C   UNL     1      45.255  29.383  -0.627  1.00  0.00     0.000 C 
BRANCH  17  18
ATOM     18  C   UNL     1      45.952  28.023  -0.779  1.00  0.00    -0.000 C 
BRANCH  18  19
ATOM     19  C   UNL     1      46.380  27.785  -2.234  1.00  0.00    -0.000 C 
BRANCH  19  20
ATOM     20  C   UNL     1      46.537  29.089  -3.035  1.00  0.00    -0.000 C 
BRANCH  20  21
ATOM     21  C   UNL     1      45.542  29.263  -4.197  1.00  0.00    -0.000 C 
BRANCH  21  22
ATOM     22  C   UNL     1      45.111  27.928  -4.823  1.00  0.00    -0.000 C 
BRANCH  22  23
ATOM     23  C   UNL     1      43.641  27.979  -5.266  1.00  0.00    -0.000 C 
BRANCH  23  24
ATOM     24  C   UNL     1      43.094  29.413  -5.337  1.00  0.00    -0.000 C 
BRANCH  24  25
ATOM     25  C   UNL     1      42.624  29.798  -6.748  1.00  0.00    -0.003 C 
ATOM     26  C   UNL     1      41.101  29.866  -6.818  1.00  0.00     0.004 C 
ENDBRANCH  24  25
ENDBRANCH  23  24
ENDBRANCH  22  23
ENDBRANCH  21  22
ENDBRANCH  20  21
ENDBRANCH  19  20
ENDBRANCH  18  19
ENDBRANCH  17  18
ENDBRANCH  16  17
ENDBRANCH  15  16
ENDBRANCH   1  15
TORSDOF 22
ENDMDL
MODEL 3
REMARK VINA RESULT:    -3.484      5.023     11.656
REMARK INTER + INTRA:          -9.327
REMARK INTER:                  -7.415
REMARK INTRA:                  -1.912
REMARK UNBOUND:                -1.362
REMARK SMILES CCCCCCCCCCCCCCCCCCCCCCCC(=O)[O-]
REMARK SMILES IDX 13 1 14 2 15 3 16 4 17 5 18 6 19 7 20 8 21 9 22 10 23 11
REMARK SMILES IDX 24 12 25 13 26 14 12 15 11 16 10 17 9 18 8 19 7 20 6 21 5 22
REMARK SMILES IDX 4 23 3 24 2 25 1 26
REMARK H PARENT
REMARK Flexibility Score: inf
ROOT
ATOM      1  C   UNL     1      44.746  27.899   0.798  1.00  0.00     0.000 C 
ENDROOT
BRANCH   1   2
ATOM      2  C   UNL     1      44.140  27.895   2.206  1.00  0.00     0.000 C 
BRANCH   2   3
ATOM      3  C   UNL     1      43.481  29.244   2.526  1.00  0.00     0.000 C 
BRANCH   3   4
ATOM      4  C   UNL     1      44.294  30.083   3.529  1.00  0.00     0.000 C 
BRANCH   4   5
ATOM      5  C   UNL     1      45.816  30.109   3.279  1.00  0.00     0.000 C 
BRANCH   5   6
ATOM      6  C   UNL     1      46.684  29.915   4.535  1.00  0.00     0.000 C 
BRANCH   6   7
ATOM      7  C   UNL     1      46.107  28.866   5.502  1.00  0.00     0.000 C 
BRANCH   7   8
ATOM      8  C   UNL     1      46.319  27.429   5.000  1.00  0.00     0.000 C 
BRANCH   8   9
ATOM      9  C   UNL     1      46.876  26.504   6.098  1.00  0.00     0.000 C 
BRANCH   9  10
ATOM     10  C   UNL     1      46.870  27.170   7.483  1.00  0.00     0.006 C 
BRANCH  10  11
ATOM     11  C   UNL     1      45.750  26.635   8.385  1.00  0.00     0.053 C 
BRANCH  11  12
ATOM     12  C   UNL     1      46.261  26.400   9.770  1.00  0.00     0.041 C 
ATOM     13  O   UNL     1      46.287  27.343  10.603  1.00  0.00    -0.550 OA
ATOM     14  O   UNL     1      46.664  25.130  10.159  1.00  0.00    -0.550 OA
ENDBRANCH  11  12
ENDBRANCH  10  11
ENDBRANCH   9  10
ENDBRANCH   8   9
ENDBRANCH   7   8
ENDBRANCH   6   7
ENDBRANCH   5   6
ENDBRANCH   4   5
ENDBRANCH   3   4
ENDBRANCH   2   3
ENDBRANCH   1   2
BRANCH   1  15
ATOM     15  C   UNL     1      46.281  27.921   0.862  1.00  0.00     0.000 C 
BRANCH  15  16
ATOM     16  C   UNL     1      46.938  28.047  -0.524  1.00  0.00     0.000 C 
BRANCH  16  17
ATOM     17  C   UNL     1      46.407  29.202  -1.392  1.00  0.00     0.000 C 
BRANCH  17  18
ATOM     18  C   UNL     1      46.444  28.888  -2.895  1.00  0.00    -0.000 C 
BRANCH  18  19
ATOM     19  C   UNL     1      46.100  27.416  -3.158  1.00  0.00    -0.000 C 
BRANCH  19  20
ATOM     20  C   UNL     1      46.021  27.076  -4.656  1.00  0.00    -0.000 C 
BRANCH  20  21
ATOM     21  C   UNL     1      46.538  28.176  -5.602  1.00  0.00    -0.000 C 
BRANCH  21  22
ATOM     22  C   UNL     1      45.866  28.144  -6.983  1.00  0.00    -0.000 C 
BRANCH  22  23
ATOM     23  C   UNL     1      44.852  29.290  -7.125  1.00  0.00    -0.000 C 
BRANCH  23  24
ATOM     24  C   UNL     1      44.304  29.767  -5.770  1.00  0.00    -0.000 C 
BRANCH  24  25
ATOM     25  C   UNL     1      42.775  29.659  -5.678  1.00  0.00    -0.003 C 
ATOM     26  C   UNL     1      42.348  28.249  -5.281  1.00  0.00     0.004 C 
ENDBRANCH  24  25
ENDBRANCH  23  24
ENDBRANCH  22  23
ENDBRANCH  21  22
ENDBRANCH  20  21
ENDBRANCH  19  20
ENDBRANCH  18  19
ENDBRANCH  17  18
ENDBRANCH  16  17
ENDBRANCH  15  16
ENDBRANCH   1  15
TORSDOF 22
ENDMDL
MODEL 4
REMARK VINA RESULT:    -3.472      1.270      1.966
REMARK INTER + INTRA:          -9.300
REMARK INTER:                  -8.328
REMARK INTRA:                  -0.973
REMARK UNBOUND:                -1.362
REMARK SMILES CCCCCCCCCCCCCCCCCCCCCCCC(=O)[O-]
REMARK SMILES IDX 13 1 14 2 15 3 16 4 17 5 18 6 19 7 20 8 21 9 22 10 23 11
REMARK SMILES IDX 24 12 25 13 26 14 12 15 11 16 10 17 9 18 8 19 7 20 6 21 5 22
REMARK SMILES IDX 4 23 3 24 2 25 1 26
REMARK H PARENT
REMARK Flexibility Score: inf
ROOT
ATOM      1  C   UNL     1      46.075  28.956   1.897  1.00  0.00     0.000 C 
ENDROOT
BRANCH   1   2
ATOM      2  C   UNL     1      46.238  28.789   0.381  1.00  0.00     0.000 C 
BRANCH   2   3
ATOM      3  C   UNL     1      45.969  30.111  -0.351  1.00  0.00     0.000 C 
BRANCH   3   4
ATOM      4  C   UNL     1      46.506  30.116  -1.794  1.00  0.00     0.000 C 
BRANCH   4   5
ATOM      5  C   UNL     1      46.496  28.745  -2.501  1.00  0.00     0.000 C 
BRANCH   5   6
ATOM      6  C   UNL     1      45.477  28.612  -3.647  1.00  0.00     0.000 C 
BRANCH   6   7
ATOM      7  C   UNL     1      45.551  27.246  -4.352  1.00  0.00     0.000 C 
BRANCH   7   8
ATOM      8  C   UNL     1      45.222  27.342  -5.850  1.00  0.00     0.000 C 
BRANCH   8   9
ATOM      9  C   UNL     1      45.645  28.693  -6.455  1.00  0.00     0.000 C 
BRANCH   9  10
ATOM     10  C   UNL     1      44.463  29.452  -7.078  1.00  0.00     0.006 C 
BRANCH  10  11
ATOM     11  C   UNL     1      43.472  29.959  -6.024  1.00  0.00     0.053 C 
BRANCH  11  12
ATOM     12  C   UNL     1      42.166  29.240  -6.146  1.00  0.00     0.041 C 
ATOM     13  O   UNL     1      41.378  29.516  -7.087  1.00  0.00    -0.550 OA
ATOM     14  O   UNL     1      41.839  28.232  -5.250  1.00  0.00    -0.550 OA
ENDBRANCH  11  12
ENDBRANCH  10  11
ENDBRANCH   9  10
ENDBRANCH   8   9
ENDBRANCH   7   8
ENDBRANCH   6   7
ENDBRANCH   5   6
ENDBRANCH   4   5
ENDBRANCH   3   4
ENDBRANCH   2   3
ENDBRANCH   1   2
BRANCH   1  15
ATOM     15  C   UNL     1      44.769  29.694   2.230  1.00  0.00     0.000 C 
BRANCH  15  16
ATOM     16  C   UNL     1      43.515  28.936   1.760  1.00  0.00     0.000 C 
BRANCH  16  17
ATOM     17  C   UNL     1      43.102  27.748   2.648  1.00  0.00     0.000 C 
BRANCH  17  18
ATOM     18  C   UNL     1      44.165  26.641   2.701  1.00  0.00    -0.000 C 
BRANCH  18  19
ATOM     19  C   UNL     1      44.920  26.667   4.038  1.00  0.00    -0.000 C 
BRANCH  19  20
ATOM     20  C   UNL     1      46.206  25.822   4.017  1.00  0.00    -0.000 C 
BRANCH  20  21
ATOM     21  C   UNL     1      47.104  25.973   5.259  1.00  0.00    -0.000 C 
BRANCH  21  22
ATOM     22  C   UNL     1      46.562  26.996   6.269  1.00  0.00    -0.000 C 
BRANCH  22  23
ATOM     23  C   UNL     1      46.417  26.365   7.663  1.00  0.00    -0.000 C 
BRANCH  23  24
ATOM     24  C   UNL     1      45.582  27.231   8.620  1.00  0.00    -0.000 C 
BRANCH  24  25
ATOM     25  C   UNL     1      46.142  28.653   8.771  1.00  0.00    -0.003 C 
ATOM     26  C   UNL     1      45.687  29.284  10.084  1.00  0.00     0.004 C 
ENDBRANCH  24  25
ENDBRANCH  23  24
ENDBRANCH  22  23
ENDBRANCH  21  22
ENDBRANCH  20  21
ENDBRANCH  19  20
ENDBRANCH  18  19
ENDBRANCH  17  18
ENDBRANCH  16  17
ENDBRANCH  15  16
ENDBRANCH   1  15
TORSDOF 22
ENDMDL
MODEL 5
REMARK VINA RESULT:    -3.422      1.274      2.312
REMARK INTER + INTRA:          -9.185
REMARK INTER:                  -7.722
REMARK INTRA:                  -1.463
REMARK UNBOUND:                -1.362
REMARK SMILES CCCCCCCCCCCCCCCCCCCCCCCC(=O)[O-]
REMARK SMILES IDX 13 1 14 2 15 3 16 4 17 5 18 6 19 7 20 8 21 9 22 10 23 11
REMARK SMILES IDX 24 12 25 13 26 14 12 15 11 16 10 17 9 18 8 19 7 20 6 21 5 22
REMARK SMILES IDX 4 23 3 24 2 25 1 26
REMARK H PARENT
REMARK Flexibility Score: inf
ROOT
ATOM      1  C   UNL     1      43.751  27.516   2.610  1.00  0.00     0.000 C 
ENDROOT
BRANCH   1   2
ATOM      2  C   UNL     1      44.313  27.208   1.217  1.00  0.00     0.000 C 
BRANCH   2   3
ATOM      3  C   UNL     1      45.053  28.424   0.641  1.00  0.00     0.000 C 
BRANCH   3   4
ATOM      4  C   UNL     1      46.189  28.031  -0.322  1.00  0.00     0.000 C 
BRANCH   4   5
ATOM      5  C   UNL     1      46.352  28.948  -1.551  1.00  0.00     0.000 C 
BRANCH   5   6
ATOM      6  C   UNL     1      46.971  28.274  -2.789  1.00  0.00     0.000 C 
BRANCH   6   7
ATOM      7  C   UNL     1      47.109  29.235  -3.982  1.00  0.00     0.000 C 
BRANCH   7   8
ATOM      8  C   UNL     1      45.901  29.170  -4.929  1.00  0.00     0.000 C 
BRANCH   8   9
ATOM      9  C   UNL     1      46.215  28.402  -6.225  1.00  0.00     0.000 C 
BRANCH   9  10
ATOM     10  C   UNL     1      44.944  27.962  -6.969  1.00  0.00     0.006 C 
BRANCH  10  11
ATOM     11  C   UNL     1      43.816  27.558  -6.012  1.00  0.00     0.053 C 
BRANCH  11  12
ATOM     12  C   UNL     1      42.686  28.535  -6.093  1.00  0.00     0.041 C 
ATOM     13  O   UNL     1      42.719  29.469  -6.935  1.00  0.00    -0.550 OA
ATOM     14  O   UNL     1      41.576  28.385  -5.275  1.00  0.00    -0.550 OA
ENDBRANCH  11  12
ENDBRANCH  10  11
ENDBRANCH   9  10
ENDBRANCH   8   9
ENDBRANCH   7   8
ENDBRANCH   6   7
ENDBRANCH   5   6
ENDBRANCH   4   5
ENDBRANCH   3   4
ENDBRANCH   2   3
ENDBRANCH   1   2
BRANCH   1  15
ATOM     15  C   UNL     1      44.434  26.651   3.680  1.00  0.00     0.000 C 
BRANCH  15  16
ATOM     16  C   UNL     1      45.912  26.363   3.365  1.00  0.00     0.000 C 
BRANCH  16  17
ATOM     17  C   UNL     1      46.756  25.907   4.569  1.00  0.00     0.000 C 
BRANCH  17  18
ATOM     18  C   UNL     1      47.112  27.057   5.522  1.00  0.00    -0.000 C 
BRANCH  18  19
ATOM     19  C   UNL     1      46.932  28.417   4.835  1.00  0.00    -0.000 C 
BRANCH  19  20
ATOM     20  C   UNL     1      46.212  29.447   5.721  1.00  0.00    -0.000 C 
BRANCH  20  21
ATOM     21  C   UNL     1      47.096  30.122   6.786  1.00  0.00    -0.000 C 
BRANCH  21  22
ATOM     22  C   UNL     1      46.533  29.983   8.208  1.00  0.00    -0.000 C 
BRANCH  22  23
ATOM     23  C   UNL     1      46.694  28.544   8.723  1.00  0.00    -0.000 C 
BRANCH  23  24
ATOM     24  C   UNL     1      45.347  27.829   8.909  1.00  0.00    -0.000 C 
BRANCH  24  25
ATOM     25  C   UNL     1      45.491  26.466   9.603  1.00  0.00    -0.003 C 
ATOM     26  C   UNL     1      46.806  25.793   9.220  1.00  0.00     0.004 C 
ENDBRANCH  24  25
ENDBRANCH  23  24
ENDBRANCH  22  23
ENDBRANCH  21  22
ENDBRANCH  20  21
ENDBRANCH  19  20
ENDBRANCH  18  19
ENDBRANCH  17  18
ENDBRANCH  16  17
ENDBRANCH  15  16
ENDBRANCH   1  15
TORSDOF 22
ENDMDL
MODEL 6
REMARK VINA RESULT:    -3.169      1.588      2.961
REMARK INTER + INTRA:          -8.607
REMARK INTER:                  -7.705
REMARK INTRA:                  -0.903
REMARK UNBOUND:                -1.362
REMARK SMILES CCCCCCCCCCCCCCCCCCCCCCCC(=O)[O-]
REMARK SMILES IDX 13 1 14 2 15 3 16 4 17 5 18 6 19 7 20 8 21 9 22 10 23 11
REMARK SMILES IDX 24 12 25 13 26 14 12 15 11 16 10 17 9 18 8 19 7 20 6 21 5 22
REMARK SMILES IDX 4 23 3 24 2 25 1 26
REMARK H PARENT
REMARK Flexibility Score: inf
ROOT
ATOM      1  C   UNL     1      44.258  26.430   3.201  1.00  0.00     0.000 C 
ENDROOT
BRANCH   1   2
ATOM      2  C   UNL     1      43.997  26.591   1.699  1.00  0.00     0.000 C 
BRANCH   2   3
ATOM      3  C   UNL     1      44.277  28.030   1.242  1.00  0.00     0.000 C 
BRANCH   3   4
ATOM      4  C   UNL     1      45.774  28.387   1.276  1.00  0.00     0.000 C 
BRANCH   4   5
ATOM      5  C   UNL     1      46.387  28.773  -0.086  1.00  0.00     0.000 C 
BRANCH   5   6
ATOM      6  C   UNL     1      45.800  30.043  -0.728  1.00  0.00     0.000 C 
BRANCH   6   7
ATOM      7  C   UNL     1      46.063  30.120  -2.241  1.00  0.00     0.000 C 
BRANCH   7   8
ATOM      8  C   UNL     1      46.865  28.915  -2.758  1.00  0.00     0.000 C 
BRANCH   8   9
ATOM      9  C   UNL     1      46.047  28.040  -3.725  1.00  0.00     0.000 C 
BRANCH   9  10
ATOM     10  C   UNL     1      45.461  28.848  -4.894  1.00  0.00     0.006 C 
BRANCH  10  11
ATOM     11  C   UNL     1      43.959  29.113  -4.728  1.00  0.00     0.053 C 
BRANCH  11  12
ATOM     12  C   UNL     1      43.200  28.567  -5.895  1.00  0.00     0.041 C 
ATOM     13  O   UNL     1      43.401  27.387  -6.282  1.00  0.00    -0.550 OA
ATOM     14  O   UNL     1      42.236  29.342  -6.523  1.00  0.00    -0.550 OA
ENDBRANCH  11  12
ENDBRANCH  10  11
ENDBRANCH   9  10
ENDBRANCH   8   9
ENDBRANCH   7   8
ENDBRANCH   6   7
ENDBRANCH   5   6
ENDBRANCH   4   5
ENDBRANCH   3   4
ENDBRANCH   2   3
ENDBRANCH   1   2
BRANCH   1  15
ATOM     15  C   UNL     1      45.766  26.396   3.495  1.00  0.00     0.000 C 
BRANCH  15  16
ATOM     16  C   UNL     1      46.189  27.407   4.575  1.00  0.00     0.000 C 
BRANCH  16  17
ATOM     17  C   UNL     1      46.640  26.782   5.908  1.00  0.00     0.000 C 
BRANCH  17  18
ATOM     18  C   UNL     1      46.825  27.820   7.025  1.00  0.00    -0.000 C 
BRANCH  18  19
ATOM     19  C   UNL     1      46.085  29.123   6.693  1.00  0.00    -0.000 C 
BRANCH  19  20
ATOM     20  C   UNL     1      45.587  29.866   7.945  1.00  0.00    -0.000 C 
BRANCH  20  21
ATOM     21  C   UNL     1      45.114  28.960   9.096  1.00  0.00    -0.000 C 
BRANCH  21  22
ATOM     22  C   UNL     1      45.975  29.098  10.361  1.00  0.00    -0.000 C 
BRANCH  22  23
ATOM     23  C   UNL     1      47.112  28.065  10.365  1.00  0.00    -0.000 C 
BRANCH  23  24
ATOM     24  C   UNL     1      47.104  27.181  11.623  1.00  0.00    -0.000 C 
BRANCH  24  25
ATOM     25  C   UNL     1      46.975  25.687  11.295  1.00  0.00    -0.003 C 
ATOM     26  C   UNL     1      47.001  25.452   9.787  1.00  0.00     0.004 C 
ENDBRANCH  24  25
ENDBRANCH  23  24
ENDBRANCH  22  23
ENDBRANCH  21  22
ENDBRANCH  20  21
ENDBRANCH  19  20
ENDBRANCH  18  19
ENDBRANCH  17  18
ENDBRANCH  16  17
ENDBRANCH  15  16
ENDBRANCH   1  15
TORSDOF 22
ENDMDL
MODEL 7
REMARK VINA RESULT:    -3.131      1.960      3.021
REMARK INTER + INTRA:          -8.521
REMARK INTER:                  -8.160
REMARK INTRA:                  -0.361
REMARK UNBOUND:                -1.362
REMARK SMILES CCCCCCCCCCCCCCCCCCCCCCCC(=O)[O-]
REMARK SMILES IDX 13 1 14 2 15 3 16 4 17 5 18 6 19 7 20 8 21 9 22 10 23 11
REMARK SMILES IDX 24 12 25 13 26 14 12 15 11 16 10 17 9 18 8 19 7 20 6 21 5 22
REMARK SMILES IDX 4 23 3 24 2 25 1 26
REMARK H PARENT
REMARK Flexibility Score: inf
ROOT
ATOM      1  C   UNL     1      45.076  26.642   2.823  1.00  0.00     0.000 C 
ENDROOT
BRANCH   1   2
ATOM      2  C   UNL     1      44.502  27.933   2.227  1.00  0.00     0.000 C 
BRANCH   2   3
ATOM      3  C   UNL     1      45.481  28.560   1.225  1.00  0.00     0.000 C 
BRANCH   3   4
ATOM      4  C   UNL     1      45.351  27.966  -0.190  1.00  0.00     0.000 C 
BRANCH   4   5
ATOM      5  C   UNL     1      46.107  28.732  -1.294  1.00  0.00     0.000 C 
BRANCH   5   6
ATOM      6  C   UNL     1      46.425  27.909  -2.556  1.00  0.00     0.000 C 
BRANCH   6   7
ATOM      7  C   UNL     1      47.116  28.742  -3.649  1.00  0.00     0.000 C 
BRANCH   7   8
ATOM      8  C   UNL     1      46.116  29.330  -4.657  1.00  0.00     0.000 C 
BRANCH   8   9
ATOM      9  C   UNL     1      46.237  28.679  -6.047  1.00  0.00     0.000 C 
BRANCH   9  10
ATOM     10  C   UNL     1      44.874  28.258  -6.618  1.00  0.00     0.006 C 
BRANCH  10  11
ATOM     11  C   UNL     1      43.859  27.918  -5.520  1.00  0.00     0.053 C 
BRANCH  11  12
ATOM     12  C   UNL     1      42.536  28.550  -5.816  1.00  0.00     0.041 C 
ATOM     13  O   UNL     1      41.489  28.104  -5.281  1.00  0.00    -0.550 OA
ATOM     14  O   UNL     1      42.465  29.662  -6.644  1.00  0.00    -0.550 OA
ENDBRANCH  11  12
ENDBRANCH  10  11
ENDBRANCH   9  10
ENDBRANCH   8   9
ENDBRANCH   7   8
ENDBRANCH   6   7
ENDBRANCH   5   6
ENDBRANCH   4   5
ENDBRANCH   3   4
ENDBRANCH   2   3
ENDBRANCH   1   2
BRANCH   1  15
ATOM     15  C   UNL     1      46.594  26.762   3.033  1.00  0.00     0.000 C 
BRANCH  15  16
ATOM     16  C   UNL     1      47.009  28.108   3.654  1.00  0.00     0.000 C 
BRANCH  16  17
ATOM     17  C   UNL     1      46.659  28.270   5.144  1.00  0.00     0.000 C 
BRANCH  17  18
ATOM     18  C   UNL     1      46.204  26.959   5.801  1.00  0.00    -0.000 C 
BRANCH  18  19
ATOM     19  C   UNL     1      46.803  26.811   7.206  1.00  0.00    -0.000 C 
BRANCH  19  20
ATOM     20  C   UNL     1      46.195  27.792   8.224  1.00  0.00    -0.000 C 
BRANCH  20  21
ATOM     21  C   UNL     1      45.781  27.165   9.567  1.00  0.00    -0.000 C 
BRANCH  21  22
ATOM     22  C   UNL     1      46.414  25.785   9.804  1.00  0.00    -0.000 C 
BRANCH  22  23
ATOM     23  C   UNL     1      46.880  25.639  11.262  1.00  0.00    -0.000 C 
BRANCH  23  24
ATOM     24  C   UNL     1      47.124  24.174  11.660  1.00  0.00    -0.000 C 
BRANCH  24  25
ATOM     25  C   UNL     1      46.577  23.842  13.056  1.00  0.00    -0.003 C 
ATOM     26  C   UNL     1      46.094  22.396  13.125  1.00  0.00     0.004 C 
ENDBRANCH  24  25
ENDBRANCH  23  24
ENDBRANCH  22  23
ENDBRANCH  21  22
ENDBRANCH  20  21
ENDBRANCH  19  20
ENDBRANCH  18  19
ENDBRANCH  17  18
ENDBRANCH  16  17
ENDBRANCH  15  16
ENDBRANCH   1  15
TORSDOF 22
ENDMDL
MODEL 8
REMARK VINA RESULT:    -2.598      5.001     12.598
REMARK INTER + INTRA:          -7.303
REMARK INTER:                  -6.267
REMARK INTRA:                  -1.036
REMARK UNBOUND:                -1.362
REMARK SMILES CCCCCCCCCCCCCCCCCCCCCCCC(=O)[O-]
REMARK SMILES IDX 13 1 14 2 15 3 16 4 17 5 18 6 19 7 20 8 21 9 22 10 23 11
REMARK SMILES IDX 24 12 25 13 26 14 12 15 11 16 10 17 9 18 8 19 7 20 6 21 5 22
REMARK SMILES IDX 4 23 3 24 2 25 1 26
REMARK H PARENT
REMARK Flexibility Score: inf
ROOT
ATOM      1  C   UNL     1      46.426  28.421   0.415  1.00  0.00     0.000 C 
ENDROOT
BRANCH   1   2
ATOM      2  C   UNL     1      46.572  29.430   1.561  1.00  0.00     0.000 C 
BRANCH   2   3
ATOM      3  C   UNL     1      45.256  29.577   2.338  1.00  0.00     0.000 C 
BRANCH   3   4
ATOM      4  C   UNL     1      45.384  29.166   3.816  1.00  0.00     0.000 C 
BRANCH   4   5
ATOM      5  C   UNL     1      46.825  28.905   4.300  1.00  0.00     0.000 C 
BRANCH   5   6
ATOM      6  C   UNL     1      46.993  27.675   5.211  1.00  0.00     0.000 C 
BRANCH   6   7
ATOM      7  C   UNL     1      46.408  27.892   6.617  1.00  0.00     0.000 C 
BRANCH   7   8
ATOM      8  C   UNL     1      45.995  26.573   7.289  1.00  0.00     0.000 C 
BRANCH   8   9
ATOM      9  C   UNL     1      46.936  26.186   8.443  1.00  0.00     0.000 C 
BRANCH   9  10
ATOM     10  C   UNL     1      46.224  26.186   9.806  1.00  0.00     0.006 C 
BRANCH  10  11
ATOM     11  C   UNL     1      47.113  26.731  10.931  1.00  0.00     0.053 C 
BRANCH  11  12
ATOM     12  C   UNL     1      46.850  28.188  11.146  1.00  0.00     0.041 C 
ATOM     13  O   UNL     1      46.622  28.624  12.304  1.00  0.00    -0.550 OA
ATOM     14  O   UNL     1      46.904  29.071  10.076  1.00  0.00    -0.550 OA
ENDBRANCH  11  12
ENDBRANCH  10  11
ENDBRANCH   9  10
ENDBRANCH   8   9
ENDBRANCH   7   8
ENDBRANCH   6   7
ENDBRANCH   5   6
ENDBRANCH   4   5
ENDBRANCH   3   4
ENDBRANCH   2   3
ENDBRANCH   1   2
BRANCH   1  15
ATOM     15  C   UNL     1      46.696  29.090  -0.941  1.00  0.00     0.000 C 
BRANCH  15  16
ATOM     16  C   UNL     1      46.831  28.079  -2.093  1.00  0.00     0.000 C 
BRANCH  16  17
ATOM     17  C   UNL     1      45.499  27.597  -2.695  1.00  0.00     0.000 C 
BRANCH  17  18
ATOM     18  C   UNL     1      45.530  27.513  -4.228  1.00  0.00    -0.000 C 
BRANCH  18  19
ATOM     19  C   UNL     1      46.973  27.505  -4.750  1.00  0.00    -0.000 C 
BRANCH  19  20
ATOM     20  C   UNL     1      47.125  28.218  -6.105  1.00  0.00    -0.000 C 
BRANCH  20  21
ATOM     21  C   UNL     1      45.807  28.473  -6.859  1.00  0.00    -0.000 C 
BRANCH  21  22
ATOM     22  C   UNL     1      45.316  29.923  -6.735  1.00  0.00    -0.000 C 
BRANCH  22  23
ATOM     23  C   UNL     1      44.110  30.015  -5.787  1.00  0.00    -0.000 C 
BRANCH  23  24
ATOM     24  C   UNL     1      42.768  30.023  -6.537  1.00  0.00    -0.000 C 
BRANCH  24  25
ATOM     25  C   UNL     1      41.752  29.037  -5.943  1.00  0.00    -0.003 C 
ATOM     26  C   UNL     1      42.458  27.867  -5.262  1.00  0.00     0.004 C 
ENDBRANCH  24  25
ENDBRANCH  23  24
ENDBRANCH  22  23
ENDBRANCH  21  22
ENDBRANCH  20  21
ENDBRANCH  19  20
ENDBRANCH  18  19
ENDBRANCH  17  18
ENDBRANCH  16  17
ENDBRANCH  15  16
ENDBRANCH   1  15
TORSDOF 22
ENDMDL
MODEL 9
REMARK VINA RESULT:    -2.585      3.628     11.259
REMARK INTER + INTRA:          -7.272
REMARK INTER:                  -6.124
REMARK INTRA:                  -1.148
REMARK UNBOUND:                -1.362
REMARK SMILES CCCCCCCCCCCCCCCCCCCCCCCC(=O)[O-]
REMARK SMILES IDX 13 1 14 2 15 3 16 4 17 5 18 6 19 7 20 8 21 9 22 10 23 11
REMARK SMILES IDX 24 12 25 13 26 14 12 15 11 16 10 17 9 18 8 19 7 20 6 21 5 22
REMARK SMILES IDX 4 23 3 24 2 25 1 26
REMARK H PARENT
REMARK Flexibility Score: inf
ROOT
ATOM      1  C   UNL     1      44.599  26.191   4.007  1.00  0.00     0.000 C 
ENDROOT
BRANCH   1   2
ATOM      2  C   UNL     1      45.876  25.361   4.183  1.00  0.00     0.000 C 
BRANCH   2   3
ATOM      3  C   UNL     1      46.837  26.033   5.175  1.00  0.00     0.000 C 
BRANCH   3   4
ATOM      4  C   UNL     1      46.961  25.264   6.503  1.00  0.00     0.000 C 
BRANCH   4   5
ATOM      5  C   UNL     1      47.125  26.145   7.757  1.00  0.00     0.000 C 
BRANCH   5   6
ATOM      6  C   UNL     1      46.201  25.782   8.933  1.00  0.00     0.000 C 
BRANCH   6   7
ATOM      7  C   UNL     1      46.744  26.268  10.288  1.00  0.00     0.000 C 
BRANCH   7   8
ATOM      8  C   UNL     1      46.488  27.766  10.518  1.00  0.00     0.000 C 
BRANCH   8   9
ATOM      9  C   UNL     1      45.576  28.375   9.437  1.00  0.00     0.000 C 
BRANCH   9  10
ATOM     10  C   UNL     1      46.212  29.595   8.752  1.00  0.00     0.006 C 
BRANCH  10  11
ATOM     11  C   UNL     1      45.360  30.124   7.592  1.00  0.00     0.053 C 
BRANCH  11  12
ATOM     12  C   UNL     1      45.970  29.745   6.279  1.00  0.00     0.041 C 
ATOM     13  O   UNL     1      47.033  29.072   6.248  1.00  0.00    -0.550 OA
ATOM     14  O   UNL     1      45.341  30.093   5.092  1.00  0.00    -0.550 OA
ENDBRANCH  11  12
ENDBRANCH  10  11
ENDBRANCH   9  10
ENDBRANCH   8   9
ENDBRANCH   7   8
ENDBRANCH   6   7
ENDBRANCH   5   6
ENDBRANCH   4   5
ENDBRANCH   3   4
ENDBRANCH   2   3
ENDBRANCH   1   2
BRANCH   1  15
ATOM     15  C   UNL     1      44.778  27.247   2.906  1.00  0.00     0.000 C 
BRANCH  15  16
ATOM     16  C   UNL     1      43.621  28.260   2.850  1.00  0.00     0.000 C 
BRANCH  16  17
ATOM     17  C   UNL     1      43.831  29.433   1.877  1.00  0.00     0.000 C 
BRANCH  17  18
ATOM     18  C   UNL     1      45.273  29.532   1.358  1.00  0.00    -0.000 C 
BRANCH  18  19
ATOM     19  C   UNL     1      45.305  30.076  -0.077  1.00  0.00    -0.000 C 
BRANCH  19  20
ATOM     20  C   UNL     1      46.279  29.309  -0.988  1.00  0.00    -0.000 C 
BRANCH  20  21
ATOM     21  C   UNL     1      46.730  30.072  -2.248  1.00  0.00    -0.000 C 
BRANCH  21  22
ATOM     22  C   UNL     1      46.156  29.480  -3.544  1.00  0.00    -0.000 C 
BRANCH  22  23
ATOM     23  C   UNL     1      46.145  27.945  -3.488  1.00  0.00    -0.000 C 
BRANCH  23  24
ATOM     24  C   UNL     1      45.033  27.330  -4.353  1.00  0.00    -0.000 C 
BRANCH  24  25
ATOM     25  C   UNL     1      44.925  27.990  -5.735  1.00  0.00    -0.003 C 
ATOM     26  C   UNL     1      43.488  27.956  -6.248  1.00  0.00     0.004 C 
ENDBRANCH  24  25
ENDBRANCH  23  24
ENDBRANCH  22  23
ENDBRANCH  21  22
ENDBRANCH  20  21
ENDBRANCH  19  20
ENDBRANCH  18  19
ENDBRANCH  17  18
ENDBRANCH  16  17
ENDBRANCH  15  16
ENDBRANCH   1  15
TORSDOF 22
ENDMDL
