MODEL 1
REMARK VINA RESULT:     9.039      0.000      0.000
REMARK INTER + INTRA:          13.406
REMARK INTER:                  11.946
REMARK INTRA:                   1.460
REMARK UNBOUND:                 1.460
REMARK SMILES CC[C@@H](C=C[C@@H](C)[C@H]1CC[C@H]2[C@H]3CC=C4C[C@H](O)CC[C@]4(C)[C@@H]3CC[C@]12C)C(C)C
REMARK SMILES IDX 6 1 7 2 5 3 4 4 3 5 2 6 1 7 28 8 29 9 30 10 8 11 9 12 26 13
REMARK SMILES IDX 10 14 11 15 25 16 27 17 12 18 24 19 23 20 13 21 21 22 14 23
REMARK SMILES IDX 15 24 20 25 22 26 16 27 19 28 17 29 18 30
REMARK H PARENT 18 31
REMARK Flexibility Score: inf
ROOT
ATOM      1  C   UNL     1       7.267  -0.997  17.567  1.00  0.00     0.012 C 
ATOM      2  C   UNL     1       6.506  -0.247  18.670  1.00  0.00     0.012 C 
ENDROOT
BRANCH   1   3
ATOM      3  C   UNL     1       7.162  -2.518  17.671  1.00  0.00    -0.028 C 
ATOM      4  C   UNL     1       7.360  -3.469  16.724  1.00  0.00    -0.027 C 
BRANCH   4   5
ATOM      5  C   UNL     1       7.712  -3.274  15.257  1.00  0.00     0.014 C 
BRANCH   5   6
ATOM      6  C   UNL     1       7.601  -4.644  14.533  1.00  0.00     0.004 C 
ATOM      7  C   UNL     1       8.417  -4.712  13.242  1.00  0.00     0.004 C 
ENDBRANCH   5   6
BRANCH   5   8
ATOM      8  C   UNL     1       9.128  -2.623  15.079  1.00  0.00    -0.011 C 
ATOM      9  C   UNL     1      10.168  -3.626  14.565  1.00  0.00     0.008 C 
ATOM     10  C   UNL     1       9.138  -1.369  14.181  1.00  0.00     0.008 C 
ENDBRANCH   5   8
ENDBRANCH   4   5
ENDBRANCH   1   3
BRANCH   1  11
ATOM     11  C   UNL     1       8.698  -0.400  17.310  1.00  0.00     0.002 C 
ATOM     12  C   UNL     1       8.876   1.139  17.418  1.00  0.00     0.005 C 
ATOM     13  C   UNL     1       9.837  -0.962  18.212  1.00  0.00    -0.026 C 
ATOM     14  C   UNL     1      10.337   1.390  17.841  1.00  0.00     0.005 C 
ATOM     15  C   UNL     1      10.969   0.005  17.825  1.00  0.00    -0.001 C 
ATOM     16  C   UNL     1      10.266  -2.428  17.862  1.00  0.00     0.007 C 
ATOM     17  C   UNL     1       9.424  -0.841  19.719  1.00  0.00     0.012 C 
ATOM     18  C   UNL     1      12.353  -0.250  18.486  1.00  0.00     0.000 C 
ATOM     19  C   UNL     1      11.805  -2.668  17.888  1.00  0.00     0.005 C 
ATOM     20  C   UNL     1      12.531  -1.737  18.895  1.00  0.00     0.003 C 
ATOM     21  C   UNL     1      12.729   0.629  19.681  1.00  0.00     0.031 C 
ATOM     22  C   UNL     1      14.044  -2.068  19.186  1.00  0.00    -0.008 C 
ATOM     23  C   UNL     1      14.139   0.314  20.114  1.00  0.00    -0.027 C 
ATOM     24  C   UNL     1      14.743  -0.883  19.891  1.00  0.00    -0.065 C 
ATOM     25  C   UNL     1      14.825  -2.373  17.871  1.00  0.00     0.014 C 
ATOM     26  C   UNL     1      14.097  -3.305  20.125  1.00  0.00     0.016 C 
ATOM     27  C   UNL     1      16.235  -0.998  20.125  1.00  0.00     0.063 C 
ATOM     28  C   UNL     1      16.352  -2.486  18.073  1.00  0.00     0.033 C 
ATOM     29  C   UNL     1      16.945  -1.256  18.790  1.00  0.00     0.118 C 
BRANCH  29  30
ATOM     30  O   UNL     1      16.837  -0.118  17.974  1.00  0.00    -0.393 OA
ATOM     31  H   UNL     1      16.244  -0.362  17.216  1.00  0.00     0.210 HD
ENDBRANCH  29  30
ENDBRANCH   1  11
TORSDOF 6
ENDMDL
MODEL 2
REMARK VINA RESULT:    10.362      3.653      7.174
REMARK INTER + INTRA:          15.154
REMARK INTER:                  13.555
REMARK INTRA:                   1.599
REMARK UNBOUND:                 1.460
REMARK SMILES CC[C@@H](C=C[C@@H](C)[C@H]1CC[C@H]2[C@H]3CC=C4C[C@H](O)CC[C@]4(C)[C@@H]3CC[C@]12C)C(C)C
REMARK SMILES IDX 6 1 7 2 5 3 4 4 3 5 2 6 1 7 28 8 29 9 30 10 8 11 9 12 26 13
REMARK SMILES IDX 10 14 11 15 25 16 27 17 12 18 24 19 23 20 13 21 21 22 14 23
REMARK SMILES IDX 15 24 20 25 22 26 16 27 19 28 17 29 18 30
REMARK H PARENT 18 31
REMARK Flexibility Score: inf
ROOT
ATOM      1  C   UNL     1       9.534  -2.253  16.899  1.00  0.00     0.012 C 
ATOM      2  C   UNL     1       9.828  -2.938  15.557  1.00  0.00     0.012 C 
ENDROOT
BRANCH   1   3
ATOM      3  C   UNL     1       9.278  -3.229  18.046  1.00  0.00    -0.028 C 
ATOM      4  C   UNL     1       9.988  -3.439  19.184  1.00  0.00    -0.027 C 
BRANCH   4   5
ATOM      5  C   UNL     1      11.283  -2.771  19.619  1.00  0.00     0.014 C 
BRANCH   5   6
ATOM      6  C   UNL     1      11.091  -1.230  19.566  1.00  0.00     0.004 C 
ATOM      7  C   UNL     1      12.353  -0.452  19.942  1.00  0.00     0.004 C 
ENDBRANCH   5   6
BRANCH   5   8
ATOM      8  C   UNL     1      12.503  -3.246  18.753  1.00  0.00    -0.011 C 
ATOM      9  C   UNL     1      12.859  -2.241  17.651  1.00  0.00     0.008 C 
ATOM     10  C   UNL     1      13.767  -3.580  19.571  1.00  0.00     0.008 C 
ENDBRANCH   5   8
ENDBRANCH   4   5
ENDBRANCH   1   3
BRANCH   1  11
ATOM     11  C   UNL     1       8.534  -1.049  16.755  1.00  0.00     0.002 C 
ATOM     12  C   UNL     1       7.015  -1.344  16.883  1.00  0.00     0.005 C 
ATOM     13  C   UNL     1       8.759   0.140  17.735  1.00  0.00    -0.026 C 
ATOM     14  C   UNL     1       6.355  -0.057  17.417  1.00  0.00     0.005 C 
ATOM     15  C   UNL     1       7.490   0.957  17.440  1.00  0.00    -0.001 C 
ATOM     16  C   UNL     1      10.022   1.008  17.411  1.00  0.00     0.007 C 
ATOM     17  C   UNL     1       8.807  -0.395  19.208  1.00  0.00     0.012 C 
ATOM     18  C   UNL     1       7.343   2.305  18.203  1.00  0.00     0.000 C 
ATOM     19  C   UNL     1       9.797   2.543  17.551  1.00  0.00     0.005 C 
ATOM     20  C   UNL     1       8.720   2.887  18.616  1.00  0.00     0.003 C 
ATOM     21  C   UNL     1       6.425   2.318  19.427  1.00  0.00     0.031 C 
ATOM     22  C   UNL     1       8.597   4.406  19.017  1.00  0.00    -0.008 C 
ATOM     23  C   UNL     1       6.321   3.724  19.963  1.00  0.00    -0.027 C 
ATOM     24  C   UNL     1       7.279   4.670  19.779  1.00  0.00    -0.065 C 
ATOM     25  C   UNL     1       8.621   5.333  17.763  1.00  0.00     0.014 C 
ATOM     26  C   UNL     1       9.788   4.758  19.950  1.00  0.00     0.016 C 
ATOM     27  C   UNL     1       6.954   6.108  20.124  1.00  0.00     0.063 C 
ATOM     28  C   UNL     1       8.283   6.805  18.078  1.00  0.00     0.033 C 
ATOM     29  C   UNL     1       6.953   6.956  18.845  1.00  0.00     0.118 C 
BRANCH  29  30
ATOM     30  O   UNL     1       5.875   6.571  18.030  1.00  0.00    -0.393 OA
ATOM     31  H   UNL     1       5.795   7.257  17.317  1.00  0.00     0.210 HD
ENDBRANCH  29  30
ENDBRANCH   1  11
TORSDOF 6
ENDMDL
MODEL 3
REMARK VINA RESULT:    11.907      3.715      6.924
REMARK INTER + INTRA:          17.196
REMARK INTER:                  16.823
REMARK INTRA:                   0.373
REMARK UNBOUND:                 1.460
REMARK SMILES CC[C@@H](C=C[C@@H](C)[C@H]1CC[C@H]2[C@H]3CC=C4C[C@H](O)CC[C@]4(C)[C@@H]3CC[C@]12C)C(C)C
REMARK SMILES IDX 6 1 7 2 5 3 4 4 3 5 2 6 1 7 28 8 29 9 30 10 8 11 9 12 26 13
REMARK SMILES IDX 10 14 11 15 25 16 27 17 12 18 24 19 23 20 13 21 21 22 14 23
REMARK SMILES IDX 15 24 20 25 22 26 16 27 19 28 17 29 18 30
REMARK H PARENT 18 31
REMARK Flexibility Score: inf
ROOT
ATOM      1  C   UNL     1      10.024  -0.916  10.970  1.00  0.00     0.012 C 
ATOM      2  C   UNL     1      10.944  -1.403   9.840  1.00  0.00     0.012 C 
ENDROOT
BRANCH   1   3
ATOM      3  C   UNL     1      10.365   0.483  11.482  1.00  0.00    -0.028 C 
ATOM      4  C   UNL     1       9.585   1.590  11.569  1.00  0.00    -0.027 C 
BRANCH   4   5
ATOM      5  C   UNL     1       8.137   1.755  11.134  1.00  0.00     0.014 C 
BRANCH   5   6
ATOM      6  C   UNL     1       7.994   1.244   9.675  1.00  0.00     0.004 C 
ATOM      7  C   UNL     1       6.589   0.737   9.347  1.00  0.00     0.004 C 
ENDBRANCH   5   6
BRANCH   5   8
ATOM      8  C   UNL     1       7.646   3.236  11.295  1.00  0.00    -0.011 C 
ATOM      9  C   UNL     1       8.809   4.213  11.508  1.00  0.00     0.008 C 
ATOM     10  C   UNL     1       6.760   3.738  10.137  1.00  0.00     0.008 C 
ENDBRANCH   5   8
ENDBRANCH   4   5
ENDBRANCH   1   3
BRANCH   1  11
ATOM     11  C   UNL     1       9.763  -2.024  12.053  1.00  0.00     0.002 C 
ATOM     12  C   UNL     1      10.708  -3.256  12.078  1.00  0.00     0.005 C 
ATOM     13  C   UNL     1       9.759  -1.537  13.532  1.00  0.00    -0.026 C 
ATOM     14  C   UNL     1      10.737  -3.765  13.533  1.00  0.00     0.005 C 
ATOM     15  C   UNL     1       9.711  -2.898  14.248  1.00  0.00    -0.001 C 
ATOM     16  C   UNL     1       8.496  -0.698  13.928  1.00  0.00     0.007 C 
ATOM     17  C   UNL     1      11.078  -0.742  13.828  1.00  0.00     0.012 C 
ATOM     18  C   UNL     1       9.639  -2.859  15.802  1.00  0.00     0.000 C 
ATOM     19  C   UNL     1       7.913  -1.041  15.331  1.00  0.00     0.005 C 
ATOM     20  C   UNL     1       9.004  -1.541  16.317  1.00  0.00     0.003 C 
ATOM     21  C   UNL     1      10.942  -3.101  16.567  1.00  0.00     0.031 C 
ATOM     22  C   UNL     1       8.571  -1.671  17.826  1.00  0.00    -0.008 C 
ATOM     23  C   UNL     1      10.656  -3.137  18.048  1.00  0.00    -0.027 C 
ATOM     24  C   UNL     1       9.595  -2.511  18.623  1.00  0.00    -0.065 C 
ATOM     25  C   UNL     1       7.177  -2.355  17.965  1.00  0.00     0.014 C 
ATOM     26  C   UNL     1       8.517  -0.245  18.440  1.00  0.00     0.016 C 
ATOM     27  C   UNL     1       9.256  -2.835  20.064  1.00  0.00     0.063 C 
ATOM     28  C   UNL     1       6.805  -2.708  19.421  1.00  0.00     0.033 C 
ATOM     29  C   UNL     1       7.896  -3.541  20.125  1.00  0.00     0.118 C 
BRANCH  29  30
ATOM     30  O   UNL     1       8.000  -4.809  19.530  1.00  0.00    -0.393 OA
ATOM     31  H   UNL     1       7.669  -4.717  18.598  1.00  0.00     0.210 HD
ENDBRANCH  29  30
ENDBRANCH   1  11
TORSDOF 6
ENDMDL
