MODEL 1
REMARK VINA RESULT:    40.565      0.000      0.000
REMARK INTER + INTRA:          57.748
REMARK INTER:                  58.351
REMARK INTRA:                  -0.602
REMARK UNBOUND:                -0.602
REMARK SMILES O=c1cc(-c2ccc(O)c(O)c2)oc2cc(O[C@@H]3O[C@H](CO)[C@H](O)[C@H](O)[C@@H]3O)cc(O)c12
REMARK SMILES IDX 17 1 16 2 4 3 3 4 13 5 2 6 14 7 1 8 32 9 15 10 30 11 29 12
REMARK SMILES IDX 5 13 6 14 7 15 8 16 12 17 10 18 9 19 11 21 31 23 18 25 27 26
REMARK SMILES IDX 19 27 25 28 20 29 23 30 28 31 26 33 21 35 22 36 24 38
REMARK H PARENT 9 20 11 22 31 24 28 32 26 34 22 37 24 39
REMARK Flexibility Score: inf
ROOT
ATOM      1  O   UNL     1      13.244  35.894  47.955  1.00  0.00    -0.462 OA
ENDROOT
BRANCH   1   2
ATOM      2  C   UNL     1      13.715  34.732  48.597  1.00  0.00     0.130 A 
ATOM      3  C   UNL     1      13.454  30.054  49.493  1.00  0.00     0.138 A 
ATOM      4  C   UNL     1      14.521  30.096  50.401  1.00  0.00     0.100 A 
ATOM      5  O   UNL     1      13.072  31.173  48.887  1.00  0.00    -0.456 OA
ATOM      6  C   UNL     1      15.161  31.309  50.658  1.00  0.00     0.197 A 
ATOM      7  C   UNL     1      13.652  32.351  49.087  1.00  0.00     0.146 A 
ATOM      8  O   UNL     1      16.079  31.323  51.518  1.00  0.00    -0.289 OA
ATOM      9  C   UNL     1      14.755  32.479  49.972  1.00  0.00     0.107 A 
ATOM     10  C   UNL     1      13.149  33.464  48.410  1.00  0.00     0.094 A 
ATOM     11  C   UNL     1      15.356  33.763  50.123  1.00  0.00     0.134 A 
ATOM     12  C   UNL     1      14.808  34.864  49.454  1.00  0.00     0.093 A 
BRANCH   3  13
ATOM     13  C   UNL     1      12.736  28.792  49.175  1.00  0.00     0.021 A 
ATOM     14  C   UNL     1      13.400  27.563  49.332  1.00  0.00     0.016 A 
ATOM     15  C   UNL     1      12.752  26.362  49.036  1.00  0.00     0.051 A 
ATOM     16  C   UNL     1      11.434  26.364  48.571  1.00  0.00     0.157 A 
ATOM     17  C   UNL     1      11.412  28.790  48.691  1.00  0.00     0.062 A 
ATOM     18  C   UNL     1      10.761  27.583  48.393  1.00  0.00     0.158 A 
BRANCH  16  19
ATOM     19  O   UNL     1      10.814  25.148  48.288  1.00  0.00    -0.504 OA
ATOM     20  H   UNL     1      10.922  24.684  47.394  1.00  0.00     0.293 HD
ENDBRANCH  16  19
BRANCH  18  21
ATOM     21  O   UNL     1       9.450  27.593  47.920  1.00  0.00    -0.504 OA
ATOM     22  H   UNL     1       9.183  27.090  47.082  1.00  0.00     0.293 HD
ENDBRANCH  18  21
ENDBRANCH   3  13
BRANCH  11  23
ATOM     23  O   UNL     1      16.497  34.010  50.892  1.00  0.00    -0.507 OA
ATOM     24  H   UNL     1      17.411  34.227  50.526  1.00  0.00     0.293 HD
ENDBRANCH  11  23
ENDBRANCH   1   2
BRANCH   1  25
ATOM     25  C   UNL     1      13.968  36.770  47.080  1.00  0.00     0.339 C 
ATOM     26  C   UNL     1      13.068  37.893  46.501  1.00  0.00     0.214 C 
ATOM     27  O   UNL     1      15.104  37.302  47.731  1.00  0.00    -0.332 OA
ATOM     28  C   UNL     1      13.911  39.131  46.087  1.00  0.00     0.180 C 
ATOM     29  C   UNL     1      16.031  37.842  46.795  1.00  0.00     0.179 C 
ATOM     30  C   UNL     1      15.343  38.722  45.690  1.00  0.00     0.177 C 
BRANCH  26  31
ATOM     31  O   UNL     1      12.061  38.260  47.409  1.00  0.00    -0.384 OA
ATOM     32  H   UNL     1      11.437  37.491  47.471  1.00  0.00     0.211 HD
ENDBRANCH  26  31
BRANCH  28  33
ATOM     33  O   UNL     1      13.923  40.125  47.084  1.00  0.00    -0.387 OA
ATOM     34  H   UNL     1      14.182  39.701  47.941  1.00  0.00     0.211 HD
ENDBRANCH  28  33
BRANCH  29  35
ATOM     35  C   UNL     1      17.114  38.604  47.581  1.00  0.00     0.191 C 
BRANCH  35  36
ATOM     36  O   UNL     1      18.206  38.900  46.753  1.00  0.00    -0.394 OA
ATOM     37  H   UNL     1      18.974  38.371  47.093  1.00  0.00     0.210 HD
ENDBRANCH  35  36
ENDBRANCH  29  35
BRANCH  30  38
ATOM     38  O   UNL     1      16.090  39.870  45.372  1.00  0.00    -0.387 OA
ATOM     39  H   UNL     1      15.439  40.602  45.216  1.00  0.00     0.211 HD
ENDBRANCH  30  38
ENDBRANCH   1  25
TORSDOF 11
ENDMDL
MODEL 2
REMARK VINA RESULT:    41.796      1.162      2.135
REMARK INTER + INTRA:          59.519
REMARK INTER:                  57.740
REMARK INTRA:                   1.779
REMARK UNBOUND:                -0.602
REMARK SMILES O=c1cc(-c2ccc(O)c(O)c2)oc2cc(O[C@@H]3O[C@H](CO)[C@H](O)[C@H](O)[C@@H]3O)cc(O)c12
REMARK SMILES IDX 17 1 16 2 4 3 3 4 13 5 2 6 14 7 1 8 32 9 15 10 30 11 29 12
REMARK SMILES IDX 5 13 6 14 7 15 8 16 12 17 10 18 9 19 11 21 31 23 18 25 27 26
REMARK SMILES IDX 19 27 25 28 20 29 23 30 28 31 26 33 21 35 22 36 24 38
REMARK H PARENT 9 20 11 22 31 24 28 32 26 34 22 37 24 39
REMARK Flexibility Score: inf
ROOT
ATOM      1  O   UNL     1      13.163  35.204  47.882  1.00  0.00    -0.462 OA
ENDROOT
BRANCH   1   2
ATOM      2  C   UNL     1      13.531  34.018  48.546  1.00  0.00     0.130 A 
ATOM      3  C   UNL     1      12.969  29.358  49.399  1.00  0.00     0.138 A 
ATOM      4  C   UNL     1      13.976  29.342  50.373  1.00  0.00     0.100 A 
ATOM      5  O   UNL     1      12.686  30.497  48.775  1.00  0.00    -0.456 OA
ATOM      6  C   UNL     1      14.661  30.520  50.677  1.00  0.00     0.197 A 
ATOM      7  C   UNL     1      13.312  31.643  49.019  1.00  0.00     0.146 A 
ATOM      8  O   UNL     1      15.522  30.484  51.593  1.00  0.00    -0.289 OA
ATOM      9  C   UNL     1      14.361  31.711  49.973  1.00  0.00     0.107 A 
ATOM     10  C   UNL     1      12.912  32.781  48.317  1.00  0.00     0.094 A 
ATOM     11  C   UNL     1      15.018  32.962  50.169  1.00  0.00     0.134 A 
ATOM     12  C   UNL     1      14.572  34.091  49.472  1.00  0.00     0.093 A 
BRANCH   3  13
ATOM     13  C   UNL     1      12.207  28.136  49.030  1.00  0.00     0.021 A 
ATOM     14  C   UNL     1      12.863  26.893  49.021  1.00  0.00     0.016 A 
ATOM     15  C   UNL     1      12.174  25.729  48.673  1.00  0.00     0.051 A 
ATOM     16  C   UNL     1      10.824  25.784  48.320  1.00  0.00     0.157 A 
ATOM     17  C   UNL     1      10.849  28.190  48.657  1.00  0.00     0.062 A 
ATOM     18  C   UNL     1      10.158  27.020  48.307  1.00  0.00     0.158 A 
BRANCH  16  19
ATOM     19  O   UNL     1      10.163  24.604  47.981  1.00  0.00    -0.504 OA
ATOM     20  H   UNL     1      10.657  23.795  47.622  1.00  0.00     0.293 HD
ENDBRANCH  16  19
BRANCH  18  21
ATOM     21  O   UNL     1       8.813  27.084  47.944  1.00  0.00    -0.504 OA
ATOM     22  H   UNL     1       8.083  26.714  48.541  1.00  0.00     0.293 HD
ENDBRANCH  18  21
ENDBRANCH   3  13
BRANCH  11  23
ATOM     23  O   UNL     1      16.119  33.147  51.010  1.00  0.00    -0.507 OA
ATOM     24  H   UNL     1      16.767  32.426  51.289  1.00  0.00     0.293 HD
ENDBRANCH  11  23
ENDBRANCH   1   2
BRANCH   1  25
ATOM     25  C   UNL     1      13.735  36.510  48.033  1.00  0.00     0.339 C 
ATOM     26  C   UNL     1      15.254  36.453  48.340  1.00  0.00     0.214 C 
ATOM     27  O   UNL     1      13.467  37.309  46.898  1.00  0.00    -0.332 OA
ATOM     28  C   UNL     1      15.965  37.766  47.910  1.00  0.00     0.180 C 
ATOM     29  C   UNL     1      13.669  38.690  47.178  1.00  0.00     0.179 C 
ATOM     30  C   UNL     1      14.999  38.966  47.968  1.00  0.00     0.177 C 
BRANCH  26  31
ATOM     31  O   UNL     1      15.857  35.340  47.730  1.00  0.00    -0.384 OA
ATOM     32  H   UNL     1      15.610  34.547  48.273  1.00  0.00     0.211 HD
ENDBRANCH  26  31
BRANCH  28  33
ATOM     33  O   UNL     1      16.564  37.656  46.640  1.00  0.00    -0.387 OA
ATOM     34  H   UNL     1      17.310  38.306  46.593  1.00  0.00     0.211 HD
ENDBRANCH  28  33
BRANCH  29  35
ATOM     35  C   UNL     1      13.590  39.463  45.849  1.00  0.00     0.191 C 
BRANCH  35  36
ATOM     36  O   UNL     1      12.295  39.966  45.648  1.00  0.00    -0.394 OA
ATOM     37  H   UNL     1      11.731  39.197  45.373  1.00  0.00     0.210 HD
ENDBRANCH  35  36
ENDBRANCH  29  35
BRANCH  30  38
ATOM     38  O   UNL     1      15.660  40.125  47.524  1.00  0.00    -0.387 OA
ATOM     39  H   UNL     1      15.244  40.892  47.997  1.00  0.00     0.211 HD
ENDBRANCH  30  38
ENDBRANCH   1  25
TORSDOF 11
ENDMDL
MODEL 3
REMARK VINA RESULT:    42.413      2.444     10.084
REMARK INTER + INTRA:          60.406
REMARK INTER:                  60.083
REMARK INTRA:                   0.324
REMARK UNBOUND:                -0.602
REMARK SMILES O=c1cc(-c2ccc(O)c(O)c2)oc2cc(O[C@@H]3O[C@H](CO)[C@H](O)[C@H](O)[C@@H]3O)cc(O)c12
REMARK SMILES IDX 17 1 16 2 4 3 3 4 13 5 2 6 14 7 1 8 32 9 15 10 30 11 29 12
REMARK SMILES IDX 5 13 6 14 7 15 8 16 12 17 10 18 9 19 11 21 31 23 18 25 27 26
REMARK SMILES IDX 19 27 25 28 20 29 23 30 28 31 26 33 21 35 22 36 24 38
REMARK H PARENT 9 20 11 22 31 24 28 32 26 34 22 37 24 39
REMARK Flexibility Score: inf
ROOT
ATOM      1  O   UNL     1      13.328  34.142  48.816  1.00  0.00    -0.462 OA
ENDROOT
BRANCH   1   2
ATOM      2  C   UNL     1      13.565  35.396  48.223  1.00  0.00     0.130 A 
ATOM      3  C   UNL     1      16.535  38.742  46.567  1.00  0.00     0.138 A 
ATOM      4  C   UNL     1      15.488  39.622  46.260  1.00  0.00     0.100 A 
ATOM      5  O   UNL     1      16.254  37.555  47.092  1.00  0.00    -0.456 OA
ATOM      6  C   UNL     1      14.169  39.241  46.515  1.00  0.00     0.197 A 
ATOM      7  C   UNL     1      15.018  37.138  47.346  1.00  0.00     0.146 A 
ATOM      8  O   UNL     1      13.256  40.073  46.279  1.00  0.00    -0.289 OA
ATOM      9  C   UNL     1      13.897  37.955  47.045  1.00  0.00     0.107 A 
ATOM     10  C   UNL     1      14.847  35.878  47.922  1.00  0.00     0.094 A 
ATOM     11  C   UNL     1      12.594  37.442  47.311  1.00  0.00     0.134 A 
ATOM     12  C   UNL     1      12.458  36.187  47.916  1.00  0.00     0.093 A 
BRANCH   3  13
ATOM     13  C   UNL     1      17.958  39.090  46.315  1.00  0.00     0.021 A 
ATOM     14  C   UNL     1      18.299  39.789  45.145  1.00  0.00     0.016 A 
ATOM     15  C   UNL     1      19.629  40.125  44.879  1.00  0.00     0.051 A 
ATOM     16  C   UNL     1      20.642  39.763  45.770  1.00  0.00     0.157 A 
ATOM     17  C   UNL     1      18.985  38.714  47.204  1.00  0.00     0.062 A 
ATOM     18  C   UNL     1      20.321  39.051  46.937  1.00  0.00     0.158 A 
BRANCH  16  19
ATOM     19  O   UNL     1      21.959  40.116  45.479  1.00  0.00    -0.504 OA
ATOM     20  H   UNL     1      22.459  39.722  44.690  1.00  0.00     0.293 HD
ENDBRANCH  16  19
BRANCH  18  21
ATOM     21  O   UNL     1      21.328  38.677  47.825  1.00  0.00    -0.504 OA
ATOM     22  H   UNL     1      21.290  37.803  48.336  1.00  0.00     0.293 HD
ENDBRANCH  18  21
ENDBRANCH   3  13
BRANCH  11  23
ATOM     23  O   UNL     1      11.408  38.104  46.982  1.00  0.00    -0.507 OA
ATOM     24  H   UNL     1      10.861  37.943  46.150  1.00  0.00     0.293 HD
ENDBRANCH  11  23
ENDBRANCH   1   2
BRANCH   1  25
ATOM     25  C   UNL     1      14.295  33.165  49.225  1.00  0.00     0.339 C 
ATOM     26  C   UNL     1      15.464  33.797  50.025  1.00  0.00     0.214 C 
ATOM     27  O   UNL     1      13.677  32.121  49.951  1.00  0.00    -0.332 OA
ATOM     28  C   UNL     1      16.141  32.752  50.953  1.00  0.00     0.180 C 
ATOM     29  C   UNL     1      14.517  30.974  50.024  1.00  0.00     0.179 C 
ATOM     30  C   UNL     1      16.006  31.328  50.378  1.00  0.00     0.177 C 
BRANCH  26  31
ATOM     31  O   UNL     1      15.033  34.911  50.766  1.00  0.00    -0.384 OA
ATOM     32  H   UNL     1      14.228  35.267  50.306  1.00  0.00     0.211 HD
ENDBRANCH  26  31
BRANCH  28  33
ATOM     33  O   UNL     1      15.655  32.815  52.273  1.00  0.00    -0.387 OA
ATOM     34  H   UNL     1      15.483  33.765  52.494  1.00  0.00     0.211 HD
ENDBRANCH  28  33
BRANCH  29  35
ATOM     35  C   UNL     1      13.884  29.982  51.017  1.00  0.00     0.191 C 
BRANCH  35  36
ATOM     36  O   UNL     1      13.781  28.707  50.440  1.00  0.00    -0.394 OA
ATOM     37  H   UNL     1      14.242  28.754  49.563  1.00  0.00     0.210 HD
ENDBRANCH  35  36
ENDBRANCH  29  35
BRANCH  30  38
ATOM     38  O   UNL     1      16.584  30.403  51.266  1.00  0.00    -0.387 OA
ATOM     39  H   UNL     1      15.986  30.353  52.056  1.00  0.00     0.211 HD
ENDBRANCH  30  38
ENDBRANCH   1  25
TORSDOF 11
ENDMDL
