MODEL 1
REMARK VINA RESULT:    -3.755      0.000      0.000
REMARK INTER + INTRA:          -3.617
REMARK INTER:                  -4.633
REMARK INTRA:                   1.017
REMARK UNBOUND:                 1.017
REMARK SMILES C=C1[C@@H]2CC[C@H]3[C@@H]2C(C)(C)CCC[C@@]13C
REMARK SMILES IDX 14 1 6 2 7 3 3 4 2 5 1 6 4 7 5 8 15 9 8 10 9 11 10 12 11 13
REMARK SMILES IDX 13 15 12 16
REMARK H PARENT
REMARK Flexibility Score: 80.00
ROOT
ATOM      1  C   UNL     1     136.961 133.815 134.259  1.00  0.00    -0.008 C 
ATOM      2  C   UNL     1     135.643 133.919 133.397  1.00  0.00     0.003 C 
ATOM      3  C   UNL     1     134.559 133.235 134.259  1.00  0.00     0.006 C 
ATOM      4  C   UNL     1     135.372 131.965 134.468  1.00  0.00     0.019 C 
ATOM      5  C   UNL     1     136.677 132.514 134.972  1.00  0.00    -0.068 C 
ATOM      6  C   UNL     1     137.488 131.882 135.831  1.00  0.00     0.009 C 
ATOM      7  C   UNL     1     135.609 131.529 133.004  1.00  0.00     0.008 C 
ATOM      8  C   UNL     1     135.697 132.877 132.245  1.00  0.00     0.005 C 
ATOM      9  C   UNL     1     138.260 133.685 133.418  1.00  0.00     0.016 C 
ENDROOT
BRANCH   3  10
ATOM     10  C   UNL     1     133.956 133.966 135.519  1.00  0.00    -0.032 C 
ATOM     11  C   UNL     1     132.953 135.044 135.024  1.00  0.00     0.011 C 
ATOM     12  C   UNL     1     133.134 132.945 136.345  1.00  0.00     0.011 C 
BRANCH  10  13
ATOM     13  C   UNL     1     134.988 134.609 136.486  1.00  0.00     0.007 CG0
ATOM     14  G   UNL     1     135.910 135.641 135.834  1.00  0.00     0.000 G0
ENDBRANCH  10  13
ENDBRANCH   3  10
BRANCH   1  15
ATOM     15  C   UNL     1     137.168 135.011 135.234  1.00  0.00     0.011 C 
BRANCH  15  16
ATOM     16  C   UNL     1     135.915 135.636 135.844  1.00  0.00     0.001 CG0
ATOM     17  G   UNL     1     134.991 134.607 136.498  1.00  0.00     0.000 G0
ENDBRANCH  15  16
ENDBRANCH   1  15
TORSDOF 0
ENDMDL
MODEL 2
REMARK VINA RESULT:    -3.745      4.194      6.601
REMARK INTER + INTRA:          -3.604
REMARK INTER:                  -4.602
REMARK INTRA:                   0.998
REMARK UNBOUND:                 1.017
REMARK SMILES C=C1[C@@H]2CC[C@H]3[C@@H]2C(C)(C)CCC[C@@]13C
REMARK SMILES IDX 14 1 6 2 7 3 3 4 2 5 1 6 4 7 5 8 15 9 8 10 9 11 10 12 11 13
REMARK SMILES IDX 13 15 12 16
REMARK H PARENT
REMARK Flexibility Score: 80.00
ROOT
ATOM      1  C   UNL     1     135.635 138.914 134.212  1.00  0.00    -0.008 C 
ATOM      2  C   UNL     1     136.988 138.795 133.408  1.00  0.00     0.003 C 
ATOM      3  C   UNL     1     138.057 139.379 134.358  1.00  0.00     0.006 C 
ATOM      4  C   UNL     1     137.292 140.673 134.599  1.00  0.00     0.019 C 
ATOM      5  C   UNL     1     135.942 140.160 135.010  1.00  0.00    -0.068 C 
ATOM      6  C   UNL     1     135.118 140.782 135.864  1.00  0.00     0.009 C 
ATOM      7  C   UNL     1     137.148 141.197 133.152  1.00  0.00     0.008 C 
ATOM      8  C   UNL     1     137.038 139.899 132.316  1.00  0.00     0.005 C 
ATOM      9  C   UNL     1     134.386 139.151 133.320  1.00  0.00     0.016 C 
ENDROOT
BRANCH   3  10
ATOM     10  C   UNL     1     138.564 138.554 135.602  1.00  0.00    -0.032 C 
ATOM     11  C   UNL     1     139.552 137.467 135.096  1.00  0.00     0.011 C 
ATOM     12  C   UNL     1     139.377 139.492 136.528  1.00  0.00     0.011 C 
BRANCH  10  13
ATOM     13  C   UNL     1     137.458 137.898 136.473  1.00  0.00     0.007 CG0
ATOM     14  G   UNL     1     136.531 136.948 135.713  1.00  0.00     0.000 G0
ENDBRANCH  10  13
ENDBRANCH   3  10
BRANCH   1  15
ATOM     15  C   UNL     1     135.327 137.678 135.108  1.00  0.00     0.011 C 
BRANCH  15  16
ATOM     16  C   UNL     1     136.519 136.958 135.734  1.00  0.00     0.001 CG0
ATOM     17  G   UNL     1     137.460 137.902 136.487  1.00  0.00     0.000 G0
ENDBRANCH  15  16
ENDBRANCH   1  15
TORSDOF 0
ENDMDL
MODEL 3
REMARK VINA RESULT:    -3.743      2.664      4.701
REMARK INTER + INTRA:          -3.602
REMARK INTER:                  -4.590
REMARK INTRA:                   0.988
REMARK UNBOUND:                 1.017
REMARK SMILES C=C1[C@@H]2CC[C@H]3[C@@H]2C(C)(C)CCC[C@@]13C
REMARK SMILES IDX 14 1 6 2 7 3 3 4 2 5 1 6 4 7 5 8 15 9 8 10 9 11 10 12 11 13
REMARK SMILES IDX 13 15 12 16
REMARK H PARENT
REMARK Flexibility Score: 80.00
ROOT
ATOM      1  C   UNL     1     133.816 135.695 134.226  1.00  0.00    -0.008 C 
ATOM      2  C   UNL     1     133.941 137.011 133.364  1.00  0.00     0.003 C 
ATOM      3  C   UNL     1     133.326 138.117 134.250  1.00  0.00     0.006 C 
ATOM      4  C   UNL     1     132.033 137.350 134.497  1.00  0.00     0.019 C 
ATOM      5  C   UNL     1     132.549 136.025 134.980  1.00  0.00    -0.068 C 
ATOM      6  C   UNL     1     131.915 135.234 135.856  1.00  0.00     0.009 C 
ATOM      7  C   UNL     1     131.544 137.134 133.046  1.00  0.00     0.008 C 
ATOM      8  C   UNL     1     132.863 137.000 132.246  1.00  0.00     0.005 C 
ATOM      9  C   UNL     1     133.611 134.405 133.387  1.00  0.00     0.016 C 
ENDROOT
BRANCH   3  10
ATOM     10  C   UNL     1     134.117 138.688 135.488  1.00  0.00    -0.032 C 
ATOM     11  C   UNL     1     135.202 139.668 134.963  1.00  0.00     0.011 C 
ATOM     12  C   UNL     1     133.148 139.527 136.358  1.00  0.00     0.011 C 
BRANCH  10  13
ATOM     13  C   UNL     1     134.768 137.630 136.421  1.00  0.00     0.007 CG0
ATOM     14  G   UNL     1     135.733 136.673 135.718  1.00  0.00     0.000 G0
ENDBRANCH  10  13
ENDBRANCH   3  10
BRANCH   1  15
ATOM     15  C   UNL     1     135.033 135.441 135.163  1.00  0.00     0.011 C 
BRANCH  15  16
ATOM     16  C   UNL     1     135.739 136.668 135.735  1.00  0.00     0.001 CG0
ATOM     17  G   UNL     1     134.782 137.639 136.429  1.00  0.00     0.000 G0
ENDBRANCH  15  16
ENDBRANCH   1  15
TORSDOF 0
ENDMDL
MODEL 4
REMARK VINA RESULT:    -3.735      2.629      4.667
REMARK INTER + INTRA:          -3.591
REMARK INTER:                  -4.620
REMARK INTRA:                   1.028
REMARK UNBOUND:                 1.017
REMARK SMILES C=C1[C@@H]2CC[C@H]3[C@@H]2C(C)(C)CCC[C@@]13C
REMARK SMILES IDX 14 1 6 2 7 3 3 4 2 5 1 6 4 7 5 8 15 9 8 10 9 11 10 12 11 13
REMARK SMILES IDX 13 15 12 16
REMARK H PARENT
REMARK Flexibility Score: 80.00
ROOT
ATOM      1  C   UNL     1     138.790 136.883 134.234  1.00  0.00    -0.008 C 
ATOM      2  C   UNL     1     138.763 135.576 133.350  1.00  0.00     0.003 C 
ATOM      3  C   UNL     1     139.447 134.501 134.224  1.00  0.00     0.006 C 
ATOM      4  C   UNL     1     140.681 135.351 134.495  1.00  0.00     0.019 C 
ATOM      5  C   UNL     1     140.071 136.630 134.995  1.00  0.00    -0.068 C 
ATOM      6  C   UNL     1     140.641 137.448 135.889  1.00  0.00     0.009 C 
ATOM      7  C   UNL     1     141.166 135.624 133.053  1.00  0.00     0.008 C 
ATOM      8  C   UNL     1     139.848 135.680 132.242  1.00  0.00     0.005 C 
ATOM      9  C   UNL     1     138.911 138.198 133.417  1.00  0.00     0.016 C 
ENDROOT
BRANCH   3  10
ATOM     10  C   UNL     1     138.687 133.856 135.446  1.00  0.00    -0.032 C 
ATOM     11  C   UNL     1     137.653 132.837 134.893  1.00  0.00     0.011 C 
ATOM     12  C   UNL     1     139.698 133.044 136.293  1.00  0.00     0.011 C 
BRANCH  10  13
ATOM     13  C   UNL     1     137.984 134.854 136.407  1.00  0.00     0.007 CG0
ATOM     14  G   UNL     1     136.935 135.745 135.740  1.00  0.00     0.000 G0
ENDBRANCH  10  13
ENDBRANCH   3  10
BRANCH   1  15
ATOM     15  C   UNL     1     137.550 137.037 135.164  1.00  0.00     0.011 C 
BRANCH  15  16
ATOM     16  C   UNL     1     136.945 135.756 135.734  1.00  0.00     0.001 CG0
ATOM     17  G   UNL     1     137.983 134.849 136.398  1.00  0.00     0.000 G0
ENDBRANCH  15  16
ENDBRANCH   1  15
TORSDOF 0
ENDMDL
MODEL 5
REMARK VINA RESULT:    -3.722      4.357      6.801
REMARK INTER + INTRA:          -3.576
REMARK INTER:                  -4.617
REMARK INTRA:                   1.041
REMARK UNBOUND:                 1.017
REMARK SMILES C=C1[C@@H]2CC[C@H]3[C@@H]2C(C)(C)CCC[C@@]13C
REMARK SMILES IDX 14 1 6 2 7 3 3 4 2 5 1 6 4 7 5 8 15 9 8 10 9 11 10 12 11 13
REMARK SMILES IDX 13 15 12 16
REMARK H PARENT
REMARK Flexibility Score: 80.00
ROOT
ATOM      1  C   UNL     1     133.972 138.900 134.944  1.00  0.00    -0.008 C 
ATOM      2  C   UNL     1     134.636 140.331 134.978  1.00  0.00     0.003 C 
ATOM      3  C   UNL     1     136.155 140.057 134.899  1.00  0.00     0.006 C 
ATOM      4  C   UNL     1     136.146 139.068 136.057  1.00  0.00     0.019 C 
ATOM      5  C   UNL     1     135.060 138.116 135.640  1.00  0.00    -0.068 C 
ATOM      6  C   UNL     1     135.033 136.812 135.943  1.00  0.00     0.009 C 
ATOM      7  C   UNL     1     135.557 139.947 137.184  1.00  0.00     0.008 C 
ATOM      8  C   UNL     1     134.588 140.889 136.427  1.00  0.00     0.005 C 
ATOM      9  C   UNL     1     132.648 138.797 135.749  1.00  0.00     0.016 C 
ENDROOT
BRANCH   3  10
ATOM     10  C   UNL     1     136.825 139.627 133.539  1.00  0.00    -0.032 C 
ATOM     11  C   UNL     1     136.937 140.883 132.632  1.00  0.00     0.011 C 
ATOM     12  C   UNL     1     138.273 139.155 133.821  1.00  0.00     0.011 C 
BRANCH  10  13
ATOM     13  C   UNL     1     136.113 138.480 132.769  1.00  0.00     0.007 CG0
ATOM     14  G   UNL     1     134.658 138.773 132.398  1.00  0.00     0.000 G0
ENDBRANCH  10  13
ENDBRANCH   3  10
BRANCH   1  15
ATOM     15  C   UNL     1     133.672 138.381 133.507  1.00  0.00     0.011 C 
BRANCH  15  16
ATOM     16  C   UNL     1     134.660 138.768 132.408  1.00  0.00     0.001 CG0
ATOM     17  G   UNL     1     136.116 138.492 132.788  1.00  0.00     0.000 G0
ENDBRANCH  15  16
ENDBRANCH   1  15
TORSDOF 0
ENDMDL
MODEL 6
REMARK VINA RESULT:    -3.675      1.992      3.659
REMARK INTER + INTRA:          -3.517
REMARK INTER:                  -4.559
REMARK INTRA:                   1.041
REMARK UNBOUND:                 1.017
REMARK SMILES C=C1[C@@H]2CC[C@H]3[C@@H]2C(C)(C)CCC[C@@]13C
REMARK SMILES IDX 14 1 6 2 7 3 3 4 2 5 1 6 4 7 5 8 15 9 8 10 9 11 10 12 11 13
REMARK SMILES IDX 13 15 12 16
REMARK H PARENT
REMARK Flexibility Score: 80.00
ROOT
ATOM      1  C   UNL     1     138.564 133.740 134.912  1.00  0.00    -0.008 C 
ATOM      2  C   UNL     1     137.869 132.329 135.042  1.00  0.00     0.003 C 
ATOM      3  C   UNL     1     136.366 132.614 134.829  1.00  0.00     0.006 C 
ATOM      4  C   UNL     1     136.315 133.716 135.879  1.00  0.00     0.019 C 
ATOM      5  C   UNL     1     137.446 134.605 135.447  1.00  0.00    -0.068 C 
ATOM      6  C   UNL     1     137.479 135.933 135.619  1.00  0.00     0.009 C 
ATOM      7  C   UNL     1     136.806 132.948 137.128  1.00  0.00     0.008 C 
ATOM      8  C   UNL     1     137.805 131.921 136.540  1.00  0.00     0.005 C 
ATOM      9  C   UNL     1     139.830 133.907 135.794  1.00  0.00     0.016 C 
ENDROOT
BRANCH   3  10
ATOM     10  C   UNL     1     135.800 132.913 133.388  1.00  0.00    -0.032 C 
ATOM     11  C   UNL     1     135.726 131.573 132.606  1.00  0.00     0.011 C 
ATOM     12  C   UNL     1     134.346 133.430 133.518  1.00  0.00     0.011 C 
BRANCH  10  13
ATOM     13  C   UNL     1     136.586 133.966 132.559  1.00  0.00     0.007 CG0
ATOM     14  G   UNL     1     138.057 133.618 132.323  1.00  0.00     0.000 G0
ENDBRANCH  10  13
ENDBRANCH   3  10
BRANCH   1  15
ATOM     15  C   UNL     1     138.972 134.107 133.455  1.00  0.00     0.011 C 
BRANCH  15  16
ATOM     16  C   UNL     1     138.061 133.614 132.332  1.00  0.00     0.001 CG0
ATOM     17  G   UNL     1     136.588 133.956 132.565  1.00  0.00     0.000 G0
ENDBRANCH  15  16
ENDBRANCH   1  15
TORSDOF 0
ENDMDL
MODEL 7
REMARK VINA RESULT:    -3.666      2.377      4.373
REMARK INTER + INTRA:          -3.506
REMARK INTER:                  -4.517
REMARK INTRA:                   1.010
REMARK UNBOUND:                 1.017
REMARK SMILES C=C1[C@@H]2CC[C@H]3[C@@H]2C(C)(C)CCC[C@@]13C
REMARK SMILES IDX 14 1 6 2 7 3 3 4 2 5 1 6 4 7 5 8 15 9 8 10 9 11 10 12 11 13
REMARK SMILES IDX 13 15 12 16
REMARK H PARENT
REMARK Flexibility Score: 80.00
ROOT
ATOM      1  C   UNL     1     133.835 134.163 134.988  1.00  0.00    -0.008 C 
ATOM      2  C   UNL     1     132.370 134.742 135.084  1.00  0.00     0.003 C 
ATOM      3  C   UNL     1     132.562 136.271 135.203  1.00  0.00     0.006 C 
ATOM      4  C   UNL     1     133.541 136.166 136.364  1.00  0.00     0.019 C 
ATOM      5  C   UNL     1     134.553 135.194 135.828  1.00  0.00    -0.068 C 
ATOM      6  C   UNL     1     135.854 135.197 136.144  1.00  0.00     0.009 C 
ATOM      7  C   UNL     1     132.685 135.394 137.395  1.00  0.00     0.008 C 
ATOM      8  C   UNL     1     131.804 134.481 136.507  1.00  0.00     0.005 C 
ATOM      9  C   UNL     1     134.002 132.755 135.621  1.00  0.00     0.016 C 
ENDROOT
BRANCH   3  10
ATOM     10  C   UNL     1     132.966 137.130 133.944  1.00  0.00    -0.032 C 
ATOM     11  C   UNL     1     131.708 137.310 133.052  1.00  0.00     0.011 C 
ATOM     12  C   UNL     1     133.380 138.546 134.416  1.00  0.00     0.011 C 
BRANCH  10  13
ATOM     13  C   UNL     1     134.141 136.571 133.094  1.00  0.00     0.007 CG0
ATOM     14  G   UNL     1     133.917 135.157 132.555  1.00  0.00     0.000 G0
ENDBRANCH  10  13
ENDBRANCH   3  10
BRANCH   1  15
ATOM     15  C   UNL     1     134.380 134.076 133.533  1.00  0.00     0.011 C 
BRANCH  15  16
ATOM     16  C   UNL     1     133.926 135.157 132.554  1.00  0.00     0.001 CG0
ATOM     17  G   UNL     1     134.137 136.575 133.088  1.00  0.00     0.000 G0
ENDBRANCH  15  16
ENDBRANCH   1  15
TORSDOF 0
ENDMDL
MODEL 8
REMARK VINA RESULT:    -3.647      1.872      4.208
REMARK INTER + INTRA:          -3.483
REMARK INTER:                  -4.488
REMARK INTRA:                   1.004
REMARK UNBOUND:                 1.017
REMARK SMILES C=C1[C@@H]2CC[C@H]3[C@@H]2C(C)(C)CCC[C@@]13C
REMARK SMILES IDX 14 1 6 2 7 3 3 4 2 5 1 6 4 7 5 8 15 9 8 10 9 11 10 12 11 13
REMARK SMILES IDX 13 15 12 16
REMARK H PARENT
REMARK Flexibility Score: 80.00
ROOT
ATOM      1  C   UNL     1     136.426 133.725 135.134  1.00  0.00    -0.008 C 
ATOM      2  C   UNL     1     137.369 133.892 136.389  1.00  0.00     0.003 C 
ATOM      3  C   UNL     1     138.795 133.965 135.798  1.00  0.00     0.006 C 
ATOM      4  C   UNL     1     138.639 132.689 134.982  1.00  0.00     0.019 C 
ATOM      5  C   UNL     1     137.364 132.955 134.233  1.00  0.00    -0.068 C 
ATOM      6  C   UNL     1     137.086 132.484 133.010  1.00  0.00     0.009 C 
ATOM      7  C   UNL     1     138.296 131.674 136.097  1.00  0.00     0.008 C 
ATOM      8  C   UNL     1     137.504 132.527 137.119  1.00  0.00     0.005 C 
ATOM      9  C   UNL     1     135.149 132.885 135.409  1.00  0.00     0.016 C 
ENDROOT
BRANCH   3  10
ATOM     10  C   UNL     1     139.298 135.272 135.073  1.00  0.00    -0.032 C 
ATOM     11  C   UNL     1     139.650 136.326 136.158  1.00  0.00     0.011 C 
ATOM     12  C   UNL     1     140.615 134.953 134.323  1.00  0.00     0.011 C 
BRANCH  10  13
ATOM     13  C   UNL     1     138.319 135.888 134.035  1.00  0.00     0.007 CG0
ATOM     14  G   UNL     1     136.943 136.249 134.597  1.00  0.00     0.000 G0
ENDBRANCH  10  13
ENDBRANCH   3  10
BRANCH   1  15
ATOM     15  C   UNL     1     135.960 135.075 134.516  1.00  0.00     0.011 C 
BRANCH  15  16
ATOM     16  C   UNL     1     136.938 136.246 134.583  1.00  0.00     0.001 CG0
ATOM     17  G   UNL     1     138.324 135.900 134.035  1.00  0.00     0.000 G0
ENDBRANCH  15  16
ENDBRANCH   1  15
TORSDOF 0
ENDMDL
MODEL 9
REMARK VINA RESULT:    -3.561      1.701      4.166
REMARK INTER + INTRA:          -3.377
REMARK INTER:                  -4.405
REMARK INTRA:                   1.028
REMARK UNBOUND:                 1.017
REMARK SMILES C=C1[C@@H]2CC[C@H]3[C@@H]2C(C)(C)CCC[C@@]13C
REMARK SMILES IDX 14 1 6 2 7 3 3 4 2 5 1 6 4 7 5 8 15 9 8 10 9 11 10 12 11 13
REMARK SMILES IDX 13 15 12 16
REMARK H PARENT
REMARK Flexibility Score: 80.00
ROOT
ATOM      1  C   UNL     1     133.572 136.276 134.540  1.00  0.00    -0.008 C 
ATOM      2  C   UNL     1     133.866 135.611 135.941  1.00  0.00     0.003 C 
ATOM      3  C   UNL     1     133.981 134.100 135.639  1.00  0.00     0.006 C 
ATOM      4  C   UNL     1     132.650 134.037 134.900  1.00  0.00     0.019 C 
ATOM      5  C   UNL     1     132.802 135.145 133.898  1.00  0.00    -0.068 C 
ATOM      6  C   UNL     1     132.243 135.153 132.680  1.00  0.00     0.009 C 
ATOM      7  C   UNL     1     131.688 134.554 135.994  1.00  0.00     0.008 C 
ATOM      8  C   UNL     1     132.557 135.569 136.777  1.00  0.00     0.005 C 
ATOM      9  C   UNL     1     132.683 137.546 134.615  1.00  0.00     0.016 C 
ENDROOT
BRANCH   3  10
ATOM     10  C   UNL     1     135.266 133.516 134.938  1.00  0.00    -0.032 C 
ATOM     11  C   UNL     1     136.408 133.453 135.989  1.00  0.00     0.011 C 
ATOM     12  C   UNL     1     134.982 132.056 134.506  1.00  0.00     0.011 C 
BRANCH  10  13
ATOM     13  C   UNL     1     135.752 134.279 133.675  1.00  0.00     0.007 CG0
ATOM     14  G   UNL     1     136.080 135.754 133.912  1.00  0.00     0.000 G0
ENDBRANCH  10  13
ENDBRANCH   3  10
BRANCH   1  15
ATOM     15  C   UNL     1     134.856 136.664 133.748  1.00  0.00     0.011 C 
BRANCH  15  16
ATOM     16  C   UNL     1     136.074 135.757 133.910  1.00  0.00     0.001 CG0
ATOM     17  G   UNL     1     135.755 134.280 133.670  1.00  0.00     0.000 G0
ENDBRANCH  15  16
ENDBRANCH   1  15
TORSDOF 0
ENDMDL
