MODEL 1
REMARK VINA RESULT:    -4.524      0.000      0.000
REMARK INTER + INTRA:          -9.261
REMARK INTER:                  -8.226
REMARK INTRA:                  -1.035
REMARK UNBOUND:                -1.035
REMARK SMILES CCCCCCCCCCCCCCCC(=O)[O-]
REMARK SMILES IDX 9 1 10 2 11 3 12 4 13 5 14 6 15 7 16 8 17 9 18 10 8 11 7 12
REMARK SMILES IDX 6 13 5 14 4 15 3 16 2 17 1 18
REMARK H PARENT
REMARK Flexibility Score: inf
ROOT
ATOM      1  C   UNL     1     -13.853   4.459 -40.781  1.00  0.00     0.000 C 
ENDROOT
BRANCH   1   2
ATOM      2  C   UNL     1     -15.219   5.170 -40.853  1.00  0.00     0.000 C 
BRANCH   2   3
ATOM      3  C   UNL     1     -16.424   4.308 -40.435  1.00  0.00     0.000 C 
BRANCH   3   4
ATOM      4  C   UNL     1     -17.477   4.176 -41.546  1.00  0.00     0.000 C 
BRANCH   4   5
ATOM      5  C   UNL     1     -17.370   5.336 -42.545  1.00  0.00     0.000 C 
BRANCH   5   6
ATOM      6  C   UNL     1     -18.447   6.396 -42.275  1.00  0.00     0.006 C 
BRANCH   6   7
ATOM      7  C   UNL     1     -17.886   7.823 -42.336  1.00  0.00     0.053 C 
BRANCH   7   8
ATOM      8  C   UNL     1     -17.250   8.226 -41.041  1.00  0.00     0.041 C 
ATOM      9  O   UNL     1     -16.276   9.024 -41.035  1.00  0.00    -0.550 OA
ATOM     10  O   UNL     1     -17.754   7.747 -39.838  1.00  0.00    -0.550 OA
ENDBRANCH   7   8
ENDBRANCH   6   7
ENDBRANCH   5   6
ENDBRANCH   4   5
ENDBRANCH   3   4
ENDBRANCH   2   3
ENDBRANCH   1   2
BRANCH   1  11
ATOM     11  C   UNL     1     -13.037   4.480 -42.089  1.00  0.00     0.000 C 
BRANCH  11  12
ATOM     12  C   UNL     1     -11.761   3.615 -42.076  1.00  0.00    -0.000 C 
BRANCH  12  13
ATOM     13  C   UNL     1     -11.468   2.902 -40.743  1.00  0.00    -0.000 C 
BRANCH  13  14
ATOM     14  C   UNL     1     -10.963   1.462 -40.934  1.00  0.00    -0.000 C 
BRANCH  14  15
ATOM     15  C   UNL     1     -12.096   0.426 -40.855  1.00  0.00    -0.000 C 
BRANCH  15  16
ATOM     16  C   UNL     1     -11.570  -1.012 -40.691  1.00  0.00    -0.000 C 
BRANCH  16  17
ATOM     17  C   UNL     1     -11.961  -1.632 -39.340  1.00  0.00    -0.003 C 
ATOM     18  C   UNL     1     -13.332  -2.306 -39.372  1.00  0.00     0.004 C 
ENDBRANCH  16  17
ENDBRANCH  15  16
ENDBRANCH  14  15
ENDBRANCH  13  14
ENDBRANCH  12  13
ENDBRANCH  11  12
ENDBRANCH   1  11
TORSDOF 14
ENDMDL
MODEL 2
REMARK VINA RESULT:    -4.520      4.084      6.715
REMARK INTER + INTRA:          -9.254
REMARK INTER:                  -6.972
REMARK INTRA:                  -2.282
REMARK UNBOUND:                -1.035
REMARK SMILES CCCCCCCCCCCCCCCC(=O)[O-]
REMARK SMILES IDX 9 1 10 2 11 3 12 4 13 5 14 6 15 7 16 8 17 9 18 10 8 11 7 12
REMARK SMILES IDX 6 13 5 14 4 15 3 16 2 17 1 18
REMARK H PARENT
REMARK Flexibility Score: inf
ROOT
ATOM      1  C   UNL     1      -7.185  -0.249 -38.841  1.00  0.00     0.000 C 
ENDROOT
BRANCH   1   2
ATOM      2  C   UNL     1      -8.494   0.053 -38.083  1.00  0.00     0.000 C 
BRANCH   2   3
ATOM      3  C   UNL     1      -8.926   1.530 -38.094  1.00  0.00     0.000 C 
BRANCH   3   4
ATOM      4  C   UNL     1     -10.146   1.788 -38.991  1.00  0.00     0.000 C 
BRANCH   4   5
ATOM      5  C   UNL     1      -9.712   2.211 -40.400  1.00  0.00     0.000 C 
BRANCH   5   6
ATOM      6  C   UNL     1     -10.705   1.705 -41.456  1.00  0.00     0.006 C 
BRANCH   6   7
ATOM      7  C   UNL     1     -12.162   1.992 -41.068  1.00  0.00     0.053 C 
BRANCH   7   8
ATOM      8  C   UNL     1     -12.553   3.404 -41.377  1.00  0.00     0.041 C 
ATOM      9  O   UNL     1     -13.177   4.090 -40.525  1.00  0.00    -0.550 OA
ATOM     10  O   UNL     1     -12.199   3.975 -42.593  1.00  0.00    -0.550 OA
ENDBRANCH   7   8
ENDBRANCH   6   7
ENDBRANCH   5   6
ENDBRANCH   4   5
ENDBRANCH   3   4
ENDBRANCH   2   3
ENDBRANCH   1   2
BRANCH   1  11
ATOM     11  C   UNL     1      -7.284  -1.374 -39.890  1.00  0.00     0.000 C 
BRANCH  11  12
ATOM     12  C   UNL     1      -8.079  -1.013 -41.161  1.00  0.00    -0.000 C 
BRANCH  12  13
ATOM     13  C   UNL     1      -9.463  -1.679 -41.276  1.00  0.00    -0.000 C 
BRANCH  13  14
ATOM     14  C   UNL     1      -9.741  -2.679 -40.141  1.00  0.00    -0.000 C 
BRANCH  14  15
ATOM     15  C   UNL     1     -10.912  -2.243 -39.246  1.00  0.00    -0.000 C 
BRANCH  15  16
ATOM     16  C   UNL     1     -12.007  -1.497 -40.029  1.00  0.00    -0.000 C 
BRANCH  16  17
ATOM     17  C   UNL     1     -13.424  -1.940 -39.629  1.00  0.00    -0.003 C 
ATOM     18  C   UNL     1     -14.516  -1.200 -40.400  1.00  0.00     0.004 C 
ENDBRANCH  16  17
ENDBRANCH  15  16
ENDBRANCH  14  15
ENDBRANCH  13  14
ENDBRANCH  12  13
ENDBRANCH  11  12
ENDBRANCH   1  11
TORSDOF 14
ENDMDL
MODEL 3
REMARK VINA RESULT:    -4.410      2.138      2.944
REMARK INTER + INTRA:          -9.054
REMARK INTER:                  -7.897
REMARK INTRA:                  -1.157
REMARK UNBOUND:                -1.035
REMARK SMILES CCCCCCCCCCCCCCCC(=O)[O-]
REMARK SMILES IDX 9 1 10 2 11 3 12 4 13 5 14 6 15 7 16 8 17 9 18 10 8 11 7 12
REMARK SMILES IDX 6 13 5 14 4 15 3 16 2 17 1 18
REMARK H PARENT
REMARK Flexibility Score: inf
ROOT
ATOM      1  C   UNL     1     -13.232   4.079 -40.826  1.00  0.00     0.000 C 
ENDROOT
BRANCH   1   2
ATOM      2  C   UNL     1     -13.261   5.614 -40.962  1.00  0.00     0.000 C 
BRANCH   2   3
ATOM      3  C   UNL     1     -13.675   6.137 -42.349  1.00  0.00     0.000 C 
BRANCH   3   4
ATOM      4  C   UNL     1     -15.199   6.179 -42.540  1.00  0.00     0.000 C 
BRANCH   4   5
ATOM      5  C   UNL     1     -15.885   6.837 -41.335  1.00  0.00     0.000 C 
BRANCH   5   6
ATOM      6  C   UNL     1     -17.128   6.042 -40.909  1.00  0.00     0.006 C 
BRANCH   6   7
ATOM      7  C   UNL     1     -16.776   4.625 -40.436  1.00  0.00     0.053 C 
BRANCH   7   8
ATOM      8  C   UNL     1     -17.668   3.594 -41.057  1.00  0.00     0.041 C 
ATOM      9  O   UNL     1     -17.972   3.672 -42.277  1.00  0.00    -0.550 OA
ATOM     10  O   UNL     1     -18.136   2.529 -40.299  1.00  0.00    -0.550 OA
ENDBRANCH   7   8
ENDBRANCH   6   7
ENDBRANCH   5   6
ENDBRANCH   4   5
ENDBRANCH   3   4
ENDBRANCH   2   3
ENDBRANCH   1   2
BRANCH   1  11
ATOM     11  C   UNL     1     -12.350   3.349 -41.858  1.00  0.00     0.000 C 
BRANCH  11  12
ATOM     12  C   UNL     1     -11.103   2.654 -41.275  1.00  0.00    -0.000 C 
BRANCH  12  13
ATOM     13  C   UNL     1     -11.276   1.156 -40.963  1.00  0.00    -0.000 C 
BRANCH  13  14
ATOM     14  C   UNL     1     -10.689   0.759 -39.598  1.00  0.00    -0.000 C 
BRANCH  14  15
ATOM     15  C   UNL     1     -11.056  -0.679 -39.194  1.00  0.00    -0.000 C 
BRANCH  15  16
ATOM     16  C   UNL     1     -11.920  -1.386 -40.254  1.00  0.00    -0.000 C 
BRANCH  16  17
ATOM     17  C   UNL     1     -13.222  -1.955 -39.667  1.00  0.00    -0.003 C 
ATOM     18  C   UNL     1     -14.473  -1.323 -40.278  1.00  0.00     0.004 C 
ENDBRANCH  16  17
ENDBRANCH  15  16
ENDBRANCH  14  15
ENDBRANCH  13  14
ENDBRANCH  12  13
ENDBRANCH  11  12
ENDBRANCH   1  11
TORSDOF 14
ENDMDL
MODEL 4
REMARK VINA RESULT:    -4.397      2.405      4.247
REMARK INTER + INTRA:          -9.031
REMARK INTER:                  -7.355
REMARK INTRA:                  -1.676
REMARK UNBOUND:                -1.035
REMARK SMILES CCCCCCCCCCCCCCCC(=O)[O-]
REMARK SMILES IDX 9 1 10 2 11 3 12 4 13 5 14 6 15 7 16 8 17 9 18 10 8 11 7 12
REMARK SMILES IDX 6 13 5 14 4 15 3 16 2 17 1 18
REMARK H PARENT
REMARK Flexibility Score: inf
ROOT
ATOM      1  C   UNL     1     -16.278   5.061 -44.529  1.00  0.00     0.000 C 
ENDROOT
BRANCH   1   2
ATOM      2  C   UNL     1     -16.977   6.365 -44.963  1.00  0.00     0.000 C 
BRANCH   2   3
ATOM      3  C   UNL     1     -17.226   7.378 -43.831  1.00  0.00     0.000 C 
BRANCH   3   4
ATOM      4  C   UNL     1     -17.862   6.739 -42.588  1.00  0.00     0.000 C 
BRANCH   4   5
ATOM      5  C   UNL     1     -16.952   6.898 -41.363  1.00  0.00     0.000 C 
BRANCH   5   6
ATOM      6  C   UNL     1     -17.242   5.812 -40.317  1.00  0.00     0.006 C 
BRANCH   6   7
ATOM      7  C   UNL     1     -16.587   4.471 -40.676  1.00  0.00     0.053 C 
BRANCH   7   8
ATOM      8  C   UNL     1     -17.597   3.369 -40.779  1.00  0.00     0.041 C 
ATOM      9  O   UNL     1     -17.431   2.296 -40.141  1.00  0.00    -0.550 OA
ATOM     10  O   UNL     1     -18.738   3.539 -41.552  1.00  0.00    -0.550 OA
ENDBRANCH   7   8
ENDBRANCH   6   7
ENDBRANCH   5   6
ENDBRANCH   4   5
ENDBRANCH   3   4
ENDBRANCH   2   3
ENDBRANCH   1   2
BRANCH   1  11
ATOM     11  C   UNL     1     -14.918   4.794 -45.204  1.00  0.00     0.000 C 
BRANCH  11  12
ATOM     12  C   UNL     1     -13.708   5.461 -44.520  1.00  0.00    -0.000 C 
BRANCH  12  13
ATOM     13  C   UNL     1     -13.884   5.748 -43.017  1.00  0.00    -0.000 C 
BRANCH  13  14
ATOM     14  C   UNL     1     -13.008   4.846 -42.131  1.00  0.00    -0.000 C 
BRANCH  14  15
ATOM     15  C   UNL     1     -12.223   3.805 -42.945  1.00  0.00    -0.000 C 
BRANCH  15  16
ATOM     16  C   UNL     1     -11.026   3.229 -42.167  1.00  0.00    -0.000 C 
BRANCH  16  17
ATOM     17  C   UNL     1     -11.449   2.548 -40.856  1.00  0.00    -0.003 C 
ATOM     18  C   UNL     1     -11.811   1.075 -41.043  1.00  0.00     0.004 C 
ENDBRANCH  16  17
ENDBRANCH  15  16
ENDBRANCH  14  15
ENDBRANCH  13  14
ENDBRANCH  12  13
ENDBRANCH  11  12
ENDBRANCH   1  11
TORSDOF 14
ENDMDL
MODEL 5
REMARK VINA RESULT:    -4.377      6.724      8.216
REMARK INTER + INTRA:          -8.995
REMARK INTER:                  -7.016
REMARK INTRA:                  -1.980
REMARK UNBOUND:                -1.035
REMARK SMILES CCCCCCCCCCCCCCCC(=O)[O-]
REMARK SMILES IDX 9 1 10 2 11 3 12 4 13 5 14 6 15 7 16 8 17 9 18 10 8 11 7 12
REMARK SMILES IDX 6 13 5 14 4 15 3 16 2 17 1 18
REMARK H PARENT
REMARK Flexibility Score: inf
ROOT
ATOM      1  C   UNL     1      -7.151   0.291 -39.556  1.00  0.00     0.000 C 
ENDROOT
BRANCH   1   2
ATOM      2  C   UNL     1      -7.831   1.118 -38.446  1.00  0.00     0.000 C 
BRANCH   2   3
ATOM      3  C   UNL     1      -9.121   1.843 -38.872  1.00  0.00     0.000 C 
BRANCH   3   4
ATOM      4  C   UNL     1     -10.254   1.696 -37.846  1.00  0.00     0.000 C 
BRANCH   4   5
ATOM      5  C   UNL     1     -10.165   0.349 -37.118  1.00  0.00     0.000 C 
BRANCH   5   6
ATOM      6  C   UNL     1     -10.257   0.539 -35.597  1.00  0.00     0.006 C 
BRANCH   6   7
ATOM      7  C   UNL     1     -10.461   2.009 -35.206  1.00  0.00     0.053 C 
BRANCH   7   8
ATOM      8  C   UNL     1      -9.300   2.544 -34.426  1.00  0.00     0.041 C 
ATOM      9  O   UNL     1      -9.497   3.242 -33.396  1.00  0.00    -0.550 OA
ATOM     10  O   UNL     1      -8.001   2.246 -34.817  1.00  0.00    -0.550 OA
ENDBRANCH   7   8
ENDBRANCH   6   7
ENDBRANCH   5   6
ENDBRANCH   4   5
ENDBRANCH   3   4
ENDBRANCH   2   3
ENDBRANCH   1   2
BRANCH   1  11
ATOM     11  C   UNL     1      -8.030   0.010 -40.790  1.00  0.00     0.000 C 
BRANCH  11  12
ATOM     12  C   UNL     1      -8.407  -1.471 -40.999  1.00  0.00    -0.000 C 
BRANCH  12  13
ATOM     13  C   UNL     1      -9.862  -1.718 -41.439  1.00  0.00    -0.000 C 
BRANCH  13  14
ATOM     14  C   UNL     1     -10.687  -0.423 -41.529  1.00  0.00    -0.000 C 
BRANCH  14  15
ATOM     15  C   UNL     1     -11.785  -0.349 -40.454  1.00  0.00    -0.000 C 
BRANCH  15  16
ATOM     16  C   UNL     1     -11.888  -1.643 -39.626  1.00  0.00    -0.000 C 
BRANCH  16  17
ATOM     17  C   UNL     1     -13.322  -2.194 -39.572  1.00  0.00    -0.003 C 
ATOM     18  C   UNL     1     -14.331  -1.292 -40.282  1.00  0.00     0.004 C 
ENDBRANCH  16  17
ENDBRANCH  15  16
ENDBRANCH  14  15
ENDBRANCH  13  14
ENDBRANCH  12  13
ENDBRANCH  11  12
ENDBRANCH   1  11
TORSDOF 14
ENDMDL
MODEL 6
REMARK VINA RESULT:    -4.353      1.902      2.877
REMARK INTER + INTRA:          -8.952
REMARK INTER:                  -7.866
REMARK INTRA:                  -1.085
REMARK UNBOUND:                -1.035
REMARK SMILES CCCCCCCCCCCCCCCC(=O)[O-]
REMARK SMILES IDX 9 1 10 2 11 3 12 4 13 5 14 6 15 7 16 8 17 9 18 10 8 11 7 12
REMARK SMILES IDX 6 13 5 14 4 15 3 16 2 17 1 18
REMARK H PARENT
REMARK Flexibility Score: inf
ROOT
ATOM      1  C   UNL     1     -13.411   4.249 -41.348  1.00  0.00     0.000 C 
ENDROOT
BRANCH   1   2
ATOM      2  C   UNL     1     -13.072   4.892 -42.708  1.00  0.00     0.000 C 
BRANCH   2   3
ATOM      3  C   UNL     1     -14.167   5.807 -43.286  1.00  0.00     0.000 C 
BRANCH   3   4
ATOM      4  C   UNL     1     -14.822   5.228 -44.549  1.00  0.00     0.000 C 
BRANCH   4   5
ATOM      5  C   UNL     1     -16.351   5.276 -44.446  1.00  0.00     0.000 C 
BRANCH   5   6
ATOM      6  C   UNL     1     -16.802   5.341 -42.980  1.00  0.00     0.006 C 
BRANCH   6   7
ATOM      7  C   UNL     1     -17.406   4.014 -42.499  1.00  0.00     0.053 C 
BRANCH   7   8
ATOM      8  C   UNL     1     -17.443   3.930 -41.004  1.00  0.00     0.041 C 
ATOM      9  O   UNL     1     -17.087   4.916 -40.305  1.00  0.00    -0.550 OA
ATOM     10  O   UNL     1     -17.901   2.776 -40.382  1.00  0.00    -0.550 OA
ENDBRANCH   7   8
ENDBRANCH   6   7
ENDBRANCH   5   6
ENDBRANCH   4   5
ENDBRANCH   3   4
ENDBRANCH   2   3
ENDBRANCH   1   2
BRANCH   1  11
ATOM     11  C   UNL     1     -12.247   3.494 -40.676  1.00  0.00     0.000 C 
BRANCH  11  12
ATOM     12  C   UNL     1     -12.092   2.021 -41.103  1.00  0.00    -0.000 C 
BRANCH  12  13
ATOM     13  C   UNL     1     -10.671   1.444 -40.957  1.00  0.00    -0.000 C 
BRANCH  13  14
ATOM     14  C   UNL     1     -10.615   0.229 -40.015  1.00  0.00    -0.000 C 
BRANCH  14  15
ATOM     15  C   UNL     1     -11.375  -0.985 -40.573  1.00  0.00    -0.000 C 
BRANCH  15  16
ATOM     16  C   UNL     1     -11.811  -1.967 -39.470  1.00  0.00    -0.000 C 
BRANCH  16  17
ATOM     17  C   UNL     1     -13.336  -2.012 -39.290  1.00  0.00    -0.003 C 
ATOM     18  C   UNL     1     -14.081  -1.178 -40.333  1.00  0.00     0.004 C 
ENDBRANCH  16  17
ENDBRANCH  15  16
ENDBRANCH  14  15
ENDBRANCH  13  14
ENDBRANCH  12  13
ENDBRANCH  11  12
ENDBRANCH   1  11
TORSDOF 14
ENDMDL
MODEL 7
REMARK VINA RESULT:    -4.325      6.777      8.769
REMARK INTER + INTRA:          -8.901
REMARK INTER:                  -6.823
REMARK INTRA:                  -2.078
REMARK UNBOUND:                -1.035
REMARK SMILES CCCCCCCCCCCCCCCC(=O)[O-]
REMARK SMILES IDX 9 1 10 2 11 3 12 4 13 5 14 6 15 7 16 8 17 9 18 10 8 11 7 12
REMARK SMILES IDX 6 13 5 14 4 15 3 16 2 17 1 18
REMARK H PARENT
REMARK Flexibility Score: inf
ROOT
ATOM      1  C   UNL     1      -9.502   3.265 -35.883  1.00  0.00     0.000 C 
ENDROOT
BRANCH   1   2
ATOM      2  C   UNL     1     -10.438   2.219 -35.245  1.00  0.00     0.000 C 
BRANCH   2   3
ATOM      3  C   UNL     1      -9.954   0.762 -35.351  1.00  0.00     0.000 C 
BRANCH   3   4
ATOM      4  C   UNL     1     -11.009  -0.176 -35.957  1.00  0.00     0.000 C 
BRANCH   4   5
ATOM      5  C   UNL     1     -10.536  -0.738 -37.304  1.00  0.00     0.000 C 
BRANCH   5   6
ATOM      6  C   UNL     1      -9.003  -0.762 -37.382  1.00  0.00     0.006 C 
BRANCH   6   7
ATOM      7  C   UNL     1      -8.465  -2.134 -37.813  1.00  0.00     0.053 C 
BRANCH   7   8
ATOM      8  C   UNL     1      -8.996  -2.544 -39.151  1.00  0.00     0.041 C 
ATOM      9  O   UNL     1      -8.578  -1.982 -40.198  1.00  0.00    -0.550 OA
ATOM     10  O   UNL     1      -9.928  -3.569 -39.247  1.00  0.00    -0.550 OA
ENDBRANCH   7   8
ENDBRANCH   6   7
ENDBRANCH   5   6
ENDBRANCH   4   5
ENDBRANCH   3   4
ENDBRANCH   2   3
ENDBRANCH   1   2
BRANCH   1  11
ATOM     11  C   UNL     1      -9.231   3.067 -37.387  1.00  0.00     0.000 C 
BRANCH  11  12
ATOM     12  C   UNL     1     -10.491   2.931 -38.265  1.00  0.00    -0.000 C 
BRANCH  12  13
ATOM     13  C   UNL     1     -10.222   2.758 -39.772  1.00  0.00    -0.000 C 
BRANCH  13  14
ATOM     14  C   UNL     1     -10.253   1.287 -40.219  1.00  0.00    -0.000 C 
BRANCH  14  15
ATOM     15  C   UNL     1     -11.632   0.861 -40.748  1.00  0.00    -0.000 C 
BRANCH  15  16
ATOM     16  C   UNL     1     -11.824  -0.666 -40.731  1.00  0.00    -0.000 C 
BRANCH  16  17
ATOM     17  C   UNL     1     -13.241  -1.077 -40.299  1.00  0.00    -0.003 C 
ATOM     18  C   UNL     1     -13.245  -2.259 -39.330  1.00  0.00     0.004 C 
ENDBRANCH  16  17
ENDBRANCH  15  16
ENDBRANCH  14  15
ENDBRANCH  13  14
ENDBRANCH  12  13
ENDBRANCH  11  12
ENDBRANCH   1  11
TORSDOF 14
ENDMDL
MODEL 8
REMARK VINA RESULT:    -4.305      6.691      8.417
REMARK INTER + INTRA:          -8.864
REMARK INTER:                  -6.757
REMARK INTRA:                  -2.107
REMARK UNBOUND:                -1.035
REMARK SMILES CCCCCCCCCCCCCCCC(=O)[O-]
REMARK SMILES IDX 9 1 10 2 11 3 12 4 13 5 14 6 15 7 16 8 17 9 18 10 8 11 7 12
REMARK SMILES IDX 6 13 5 14 4 15 3 16 2 17 1 18
REMARK H PARENT
REMARK Flexibility Score: inf
ROOT
ATOM      1  C   UNL     1     -10.162   2.652 -36.866  1.00  0.00     0.000 C 
ENDROOT
BRANCH   1   2
ATOM      2  C   UNL     1     -10.316   1.767 -38.119  1.00  0.00     0.000 C 
BRANCH   2   3
ATOM      3  C   UNL     1      -8.994   1.265 -38.728  1.00  0.00     0.000 C 
BRANCH   3   4
ATOM      4  C   UNL     1      -9.105  -0.154 -39.306  1.00  0.00     0.000 C 
BRANCH   4   5
ATOM      5  C   UNL     1     -10.427  -0.813 -38.895  1.00  0.00     0.000 C 
BRANCH   5   6
ATOM      6  C   UNL     1     -11.130  -1.441 -40.107  1.00  0.00     0.006 C 
BRANCH   6   7
ATOM      7  C   UNL     1     -12.498  -0.801 -40.381  1.00  0.00     0.053 C 
BRANCH   7   8
ATOM      8  C   UNL     1     -13.624  -1.701 -39.974  1.00  0.00     0.041 C 
ATOM      9  O   UNL     1     -14.792  -1.483 -40.392  1.00  0.00    -0.550 OA
ATOM     10  O   UNL     1     -13.379  -2.800 -39.161  1.00  0.00    -0.550 OA
ENDBRANCH   7   8
ENDBRANCH   6   7
ENDBRANCH   5   6
ENDBRANCH   4   5
ENDBRANCH   3   4
ENDBRANCH   2   3
ENDBRANCH   1   2
BRANCH   1  11
ATOM     11  C   UNL     1     -10.095   1.884 -35.530  1.00  0.00     0.000 C 
BRANCH  11  12
ATOM     12  C   UNL     1     -10.931   0.590 -35.478  1.00  0.00    -0.000 C 
BRANCH  12  13
ATOM     13  C   UNL     1     -10.118  -0.707 -35.306  1.00  0.00    -0.000 C 
BRANCH  13  14
ATOM     14  C   UNL     1      -8.611  -0.448 -35.139  1.00  0.00    -0.000 C 
BRANCH  14  15
ATOM     15  C   UNL     1      -7.755  -1.372 -36.021  1.00  0.00    -0.000 C 
BRANCH  15  16
ATOM     16  C   UNL     1      -8.487  -2.673 -36.398  1.00  0.00    -0.000 C 
BRANCH  16  17
ATOM     17  C   UNL     1      -7.797  -3.923 -35.830  1.00  0.00    -0.003 C 
ATOM     18  C   UNL     1      -8.766  -4.857 -35.106  1.00  0.00     0.004 C 
ENDBRANCH  16  17
ENDBRANCH  15  16
ENDBRANCH  14  15
ENDBRANCH  13  14
ENDBRANCH  12  13
ENDBRANCH  11  12
ENDBRANCH   1  11
TORSDOF 14
ENDMDL
MODEL 9
REMARK VINA RESULT:    -4.264      3.758      7.479
REMARK INTER + INTRA:          -8.789
REMARK INTER:                  -7.154
REMARK INTRA:                  -1.636
REMARK UNBOUND:                -1.035
REMARK SMILES CCCCCCCCCCCCCCCC(=O)[O-]
REMARK SMILES IDX 9 1 10 2 11 3 12 4 13 5 14 6 15 7 16 8 17 9 18 10 8 11 7 12
REMARK SMILES IDX 6 13 5 14 4 15 3 16 2 17 1 18
REMARK H PARENT
REMARK Flexibility Score: inf
ROOT
ATOM      1  C   UNL     1     -14.952   4.869 -45.222  1.00  0.00     0.000 C 
ENDROOT
BRANCH   1   2
ATOM      2  C   UNL     1     -13.775   5.277 -44.313  1.00  0.00     0.000 C 
BRANCH   2   3
ATOM      3  C   UNL     1     -14.086   5.279 -42.806  1.00  0.00     0.000 C 
BRANCH   3   4
ATOM      4  C   UNL     1     -12.841   5.032 -41.940  1.00  0.00     0.000 C 
BRANCH   4   5
ATOM      5  C   UNL     1     -13.181   4.157 -40.727  1.00  0.00     0.000 C 
BRANCH   5   6
ATOM      6  C   UNL     1     -12.015   3.221 -40.380  1.00  0.00     0.006 C 
BRANCH   6   7
ATOM      7  C   UNL     1     -11.773   2.167 -41.470  1.00  0.00     0.053 C 
BRANCH   7   8
ATOM      8  C   UNL     1     -11.161   0.919 -40.912  1.00  0.00     0.041 C 
ATOM      9  O   UNL     1     -11.775  -0.178 -40.992  1.00  0.00    -0.550 OA
ATOM     10  O   UNL     1      -9.900   0.960 -40.332  1.00  0.00    -0.550 OA
ENDBRANCH   7   8
ENDBRANCH   6   7
ENDBRANCH   5   6
ENDBRANCH   4   5
ENDBRANCH   3   4
ENDBRANCH   2   3
ENDBRANCH   1   2
BRANCH   1  11
ATOM     11  C   UNL     1     -16.343   4.949 -44.561  1.00  0.00     0.000 C 
BRANCH  11  12
ATOM     12  C   UNL     1     -17.080   6.289 -44.750  1.00  0.00    -0.000 C 
BRANCH  12  13
ATOM     13  C   UNL     1     -16.946   7.280 -43.579  1.00  0.00    -0.000 C 
BRANCH  13  14
ATOM     14  C   UNL     1     -18.232   7.393 -42.742  1.00  0.00    -0.000 C 
BRANCH  14  15
ATOM     15  C   UNL     1     -18.456   6.169 -41.839  1.00  0.00    -0.000 C 
BRANCH  15  16
ATOM     16  C   UNL     1     -17.242   5.866 -40.944  1.00  0.00    -0.000 C 
BRANCH  16  17
ATOM     17  C   UNL     1     -17.049   4.360 -40.701  1.00  0.00    -0.003 C 
ATOM     18  C   UNL     1     -18.087   3.506 -41.430  1.00  0.00     0.004 C 
ENDBRANCH  16  17
ENDBRANCH  15  16
ENDBRANCH  14  15
ENDBRANCH  13  14
ENDBRANCH  12  13
ENDBRANCH  11  12
ENDBRANCH   1  11
TORSDOF 14
ENDMDL
