MODEL 1
REMARK VINA RESULT:    -3.817      0.000      0.000
REMARK INTER + INTRA:          -7.950
REMARK INTER:                  -6.718
REMARK INTRA:                  -1.232
REMARK UNBOUND:                -1.232
REMARK SMILES CCCCCCCCCCCCCCC(=O)[O-]
REMARK SMILES IDX 9 1 10 2 11 3 12 4 13 5 14 6 15 7 16 8 17 9 8 10 7 11 6 12
REMARK SMILES IDX 5 13 4 14 3 15 2 16 1 17
REMARK H PARENT
REMARK Flexibility Score: inf
ROOT
ATOM      1  C   UNL     1      -4.619  35.082  -0.494  1.00  0.00     0.000 C 
ENDROOT
BRANCH   1   2
ATOM      2  C   UNL     1      -4.031  34.354   0.728  1.00  0.00     0.000 C 
BRANCH   2   3
ATOM      3  C   UNL     1      -5.108  33.949   1.748  1.00  0.00     0.000 C 
BRANCH   3   4
ATOM      4  C   UNL     1      -6.535  34.086   1.190  1.00  0.00     0.000 C 
BRANCH   4   5
ATOM      5  C   UNL     1      -7.209  32.728   0.919  1.00  0.00     0.006 C 
BRANCH   5   6
ATOM      6  C   UNL     1      -6.524  31.541   1.621  1.00  0.00     0.053 C 
BRANCH   6   7
ATOM      7  C   UNL     1      -7.381  30.313   1.653  1.00  0.00     0.041 C 
ATOM      8  O   UNL     1      -7.736  29.814   2.754  1.00  0.00    -0.550 OA
ATOM      9  O   UNL     1      -7.816  29.737   0.466  1.00  0.00    -0.550 OA
ENDBRANCH   6   7
ENDBRANCH   5   6
ENDBRANCH   4   5
ENDBRANCH   3   4
ENDBRANCH   2   3
ENDBRANCH   1   2
BRANCH   1  10
ATOM     10  C   UNL     1      -4.189  36.557  -0.577  1.00  0.00     0.000 C 
BRANCH  10  11
ATOM     11  C   UNL     1      -4.357  37.363   0.726  1.00  0.00    -0.000 C 
BRANCH  11  12
ATOM     12  C   UNL     1      -5.827  37.612   1.093  1.00  0.00    -0.000 C 
BRANCH  12  13
ATOM     13  C   UNL     1      -6.641  38.012  -0.146  1.00  0.00    -0.000 C 
BRANCH  13  14
ATOM     14  C   UNL     1      -7.854  37.095  -0.377  1.00  0.00    -0.000 C 
BRANCH  14  15
ATOM     15  C   UNL     1      -9.043  37.836  -1.013  1.00  0.00    -0.000 C 
BRANCH  15  16
ATOM     16  C   UNL     1      -9.906  36.918  -1.893  1.00  0.00    -0.003 C 
ATOM     17  C   UNL     1     -11.008  36.211  -1.104  1.00  0.00     0.004 C 
ENDBRANCH  15  16
ENDBRANCH  14  15
ENDBRANCH  13  14
ENDBRANCH  12  13
ENDBRANCH  11  12
ENDBRANCH  10  11
ENDBRANCH   1  10
TORSDOF 13
ENDMDL
MODEL 2
REMARK VINA RESULT:    -3.282      1.784      2.737
REMARK INTER + INTRA:          -7.008
REMARK INTER:                  -5.970
REMARK INTRA:                  -1.038
REMARK UNBOUND:                -1.232
REMARK SMILES CCCCCCCCCCCCCCC(=O)[O-]
REMARK SMILES IDX 9 1 10 2 11 3 12 4 13 5 14 6 15 7 16 8 17 9 8 10 7 11 6 12
REMARK SMILES IDX 5 13 4 14 3 15 2 16 1 17
REMARK H PARENT
REMARK Flexibility Score: inf
ROOT
ATOM      1  C   UNL     1      -4.273  36.316  -0.232  1.00  0.00     0.000 C 
ENDROOT
BRANCH   1   2
ATOM      2  C   UNL     1      -3.966  37.428   0.786  1.00  0.00     0.000 C 
BRANCH   2   3
ATOM      3  C   UNL     1      -4.954  37.439   1.964  1.00  0.00     0.000 C 
BRANCH   3   4
ATOM      4  C   UNL     1      -6.367  36.985   1.558  1.00  0.00     0.000 C 
BRANCH   4   5
ATOM      5  C   UNL     1      -6.839  35.732   2.319  1.00  0.00     0.006 C 
BRANCH   5   6
ATOM      6  C   UNL     1      -6.284  34.413   1.752  1.00  0.00     0.053 C 
BRANCH   6   7
ATOM      7  C   UNL     1      -7.310  33.634   0.986  1.00  0.00     0.041 C 
ATOM      8  O   UNL     1      -8.165  34.231   0.279  1.00  0.00    -0.550 OA
ATOM      9  O   UNL     1      -7.302  32.246   1.027  1.00  0.00    -0.550 OA
ENDBRANCH   6   7
ENDBRANCH   5   6
ENDBRANCH   4   5
ENDBRANCH   3   4
ENDBRANCH   2   3
ENDBRANCH   1   2
BRANCH   1  10
ATOM     10  C   UNL     1      -3.914  36.708  -1.676  1.00  0.00     0.000 C 
BRANCH  10  11
ATOM     11  C   UNL     1      -4.374  38.114  -2.106  1.00  0.00    -0.000 C 
BRANCH  11  12
ATOM     12  C   UNL     1      -5.786  38.125  -2.710  1.00  0.00    -0.000 C 
BRANCH  12  13
ATOM     13  C   UNL     1      -6.855  38.088  -1.608  1.00  0.00    -0.000 C 
BRANCH  13  14
ATOM     14  C   UNL     1      -8.257  37.774  -2.154  1.00  0.00    -0.000 C 
BRANCH  14  15
ATOM     15  C   UNL     1      -9.248  37.379  -1.045  1.00  0.00    -0.000 C 
BRANCH  15  16
ATOM     16  C   UNL     1     -10.642  37.039  -1.597  1.00  0.00    -0.003 C 
ATOM     17  C   UNL     1     -11.201  35.737  -1.023  1.00  0.00     0.004 C 
ENDBRANCH  15  16
ENDBRANCH  14  15
ENDBRANCH  13  14
ENDBRANCH  12  13
ENDBRANCH  11  12
ENDBRANCH  10  11
ENDBRANCH   1  10
TORSDOF 13
ENDMDL
MODEL 3
REMARK VINA RESULT:    -3.011      2.723      5.568
REMARK INTER + INTRA:          -6.532
REMARK INTER:                  -5.613
REMARK INTRA:                  -0.919
REMARK UNBOUND:                -1.232
REMARK SMILES CCCCCCCCCCCCCCC(=O)[O-]
REMARK SMILES IDX 9 1 10 2 11 3 12 4 13 5 14 6 15 7 16 8 17 9 8 10 7 11 6 12
REMARK SMILES IDX 5 13 4 14 3 15 2 16 1 17
REMARK H PARENT
REMARK Flexibility Score: inf
ROOT
ATOM      1  C   UNL     1      -4.269  37.048  -0.888  1.00  0.00     0.000 C 
ENDROOT
BRANCH   1   2
ATOM      2  C   UNL     1      -5.293  38.125  -1.289  1.00  0.00     0.000 C 
BRANCH   2   3
ATOM      3  C   UNL     1      -5.615  38.102  -2.792  1.00  0.00     0.000 C 
BRANCH   3   4
ATOM      4  C   UNL     1      -7.125  38.023  -3.075  1.00  0.00     0.000 C 
BRANCH   4   5
ATOM      5  C   UNL     1      -7.971  37.881  -1.796  1.00  0.00     0.006 C 
BRANCH   5   6
ATOM      6  C   UNL     1      -9.457  37.581  -2.062  1.00  0.00     0.053 C 
BRANCH   6   7
ATOM      7  C   UNL     1     -10.008  36.525  -1.152  1.00  0.00     0.041 C 
ATOM      8  O   UNL     1     -11.252  36.373  -1.034  1.00  0.00    -0.550 OA
ATOM      9  O   UNL     1      -9.145  35.688  -0.458  1.00  0.00    -0.550 OA
ENDBRANCH   6   7
ENDBRANCH   5   6
ENDBRANCH   4   5
ENDBRANCH   3   4
ENDBRANCH   2   3
ENDBRANCH   1   2
BRANCH   1  10
ATOM     10  C   UNL     1      -4.132  36.890   0.637  1.00  0.00     0.000 C 
BRANCH  10  11
ATOM     11  C   UNL     1      -5.294  37.472   1.463  1.00  0.00    -0.000 C 
BRANCH  11  12
ATOM     12  C   UNL     1      -6.279  36.400   1.953  1.00  0.00    -0.000 C 
BRANCH  12  13
ATOM     13  C   UNL     1      -5.757  34.991   1.637  1.00  0.00    -0.000 C 
BRANCH  13  14
ATOM     14  C   UNL     1      -6.889  33.992   1.347  1.00  0.00    -0.000 C 
BRANCH  14  15
ATOM     15  C   UNL     1      -6.445  32.529   1.520  1.00  0.00    -0.000 C 
BRANCH  15  16
ATOM     16  C   UNL     1      -7.612  31.539   1.370  1.00  0.00    -0.003 C 
ATOM     17  C   UNL     1      -7.146  30.084   1.314  1.00  0.00     0.004 C 
ENDBRANCH  15  16
ENDBRANCH  14  15
ENDBRANCH  13  14
ENDBRANCH  12  13
ENDBRANCH  11  12
ENDBRANCH  10  11
ENDBRANCH   1  10
TORSDOF 13
ENDMDL
MODEL 4
REMARK VINA RESULT:    -2.990     12.625     16.367
REMARK INTER + INTRA:          -6.494
REMARK INTER:                  -5.788
REMARK INTRA:                  -0.707
REMARK UNBOUND:                -1.232
REMARK SMILES CCCCCCCCCCCCCCC(=O)[O-]
REMARK SMILES IDX 9 1 10 2 11 3 12 4 13 5 14 6 15 7 16 8 17 9 8 10 7 11 6 12
REMARK SMILES IDX 5 13 4 14 3 15 2 16 1 17
REMARK H PARENT
REMARK Flexibility Score: inf
ROOT
ATOM      1  C   UNL     1     -18.420  33.449 -10.057  1.00  0.00     0.000 C 
ENDROOT
BRANCH   1   2
ATOM      2  C   UNL     1     -18.396  33.982 -11.500  1.00  0.00     0.000 C 
BRANCH   2   3
ATOM      3  C   UNL     1     -17.051  33.728 -12.200  1.00  0.00     0.000 C 
BRANCH   3   4
ATOM      4  C   UNL     1     -16.001  33.108 -11.262  1.00  0.00     0.000 C 
BRANCH   4   5
ATOM      5  C   UNL     1     -14.844  34.068 -10.933  1.00  0.00     0.006 C 
BRANCH   5   6
ATOM      6  C   UNL     1     -14.696  34.374  -9.431  1.00  0.00     0.053 C 
BRANCH   6   7
ATOM      7  C   UNL     1     -13.609  35.366  -9.146  1.00  0.00     0.041 C 
ATOM      8  O   UNL     1     -13.440  35.806  -7.978  1.00  0.00    -0.550 OA
ATOM      9  O   UNL     1     -12.762  35.781 -10.165  1.00  0.00    -0.550 OA
ENDBRANCH   6   7
ENDBRANCH   5   6
ENDBRANCH   4   5
ENDBRANCH   3   4
ENDBRANCH   2   3
ENDBRANCH   1   2
BRANCH   1  10
ATOM     10  C   UNL     1     -19.312  34.285  -9.123  1.00  0.00     0.000 C 
BRANCH  10  11
ATOM     11  C   UNL     1     -20.311  33.476  -8.274  1.00  0.00    -0.000 C 
BRANCH  11  12
ATOM     12  C   UNL     1     -21.371  34.355  -7.593  1.00  0.00    -0.000 C 
BRANCH  12  13
ATOM     13  C   UNL     1     -22.633  33.541  -7.271  1.00  0.00    -0.000 C 
BRANCH  13  14
ATOM     14  C   UNL     1     -23.878  34.064  -8.007  1.00  0.00    -0.000 C 
BRANCH  14  15
ATOM     15  C   UNL     1     -24.125  35.562  -7.758  1.00  0.00    -0.000 C 
BRANCH  15  16
ATOM     16  C   UNL     1     -24.065  36.391  -9.052  1.00  0.00    -0.003 C 
ATOM     17  C   UNL     1     -23.922  37.889  -8.785  1.00  0.00     0.004 C 
ENDBRANCH  15  16
ENDBRANCH  14  15
ENDBRANCH  13  14
ENDBRANCH  12  13
ENDBRANCH  11  12
ENDBRANCH  10  11
ENDBRANCH   1  10
TORSDOF 13
ENDMDL
MODEL 5
REMARK VINA RESULT:    -2.814     12.274     15.955
REMARK INTER + INTRA:          -6.185
REMARK INTER:                  -5.448
REMARK INTRA:                  -0.737
REMARK UNBOUND:                -1.232
REMARK SMILES CCCCCCCCCCCCCCC(=O)[O-]
REMARK SMILES IDX 9 1 10 2 11 3 12 4 13 5 14 6 15 7 16 8 17 9 8 10 7 11 6 12
REMARK SMILES IDX 5 13 4 14 3 15 2 16 1 17
REMARK H PARENT
REMARK Flexibility Score: inf
ROOT
ATOM      1  C   UNL     1     -18.419  34.323 -12.430  1.00  0.00     0.000 C 
ENDROOT
BRANCH   1   2
ATOM      2  C   UNL     1     -17.544  33.059 -12.509  1.00  0.00     0.000 C 
BRANCH   2   3
ATOM      3  C   UNL     1     -16.041  33.379 -12.463  1.00  0.00     0.000 C 
BRANCH   3   4
ATOM      4  C   UNL     1     -15.464  33.321 -11.038  1.00  0.00     0.000 C 
BRANCH   4   5
ATOM      5  C   UNL     1     -14.490  34.474 -10.735  1.00  0.00     0.006 C 
BRANCH   5   6
ATOM      6  C   UNL     1     -14.253  34.711  -9.233  1.00  0.00     0.053 C 
BRANCH   6   7
ATOM      7  C   UNL     1     -13.188  35.731  -8.967  1.00  0.00     0.041 C 
ATOM      8  O   UNL     1     -12.344  36.016  -9.858  1.00  0.00    -0.550 OA
ATOM      9  O   UNL     1     -13.146  36.390  -7.746  1.00  0.00    -0.550 OA
ENDBRANCH   6   7
ENDBRANCH   5   6
ENDBRANCH   4   5
ENDBRANCH   3   4
ENDBRANCH   2   3
ENDBRANCH   1   2
BRANCH   1  10
ATOM     10  C   UNL     1     -18.848  34.666 -10.993  1.00  0.00     0.000 C 
BRANCH  10  11
ATOM     11  C   UNL     1     -18.772  33.499  -9.990  1.00  0.00    -0.000 C 
BRANCH  11  12
ATOM     12  C   UNL     1     -19.075  33.927  -8.547  1.00  0.00    -0.000 C 
BRANCH  12  13
ATOM     13  C   UNL     1     -20.331  33.219  -8.018  1.00  0.00    -0.000 C 
BRANCH  13  14
ATOM     14  C   UNL     1     -21.470  34.199  -7.693  1.00  0.00    -0.000 C 
BRANCH  14  15
ATOM     15  C   UNL     1     -22.754  33.484  -7.237  1.00  0.00    -0.000 C 
BRANCH  15  16
ATOM     16  C   UNL     1     -24.023  34.120  -7.827  1.00  0.00    -0.003 C 
ATOM     17  C   UNL     1     -23.868  35.619  -8.081  1.00  0.00     0.004 C 
ENDBRANCH  15  16
ENDBRANCH  14  15
ENDBRANCH  13  14
ENDBRANCH  12  13
ENDBRANCH  11  12
ENDBRANCH  10  11
ENDBRANCH   1  10
TORSDOF 13
ENDMDL
MODEL 6
REMARK VINA RESULT:    -2.440     12.337     15.893
REMARK INTER + INTRA:          -5.526
REMARK INTER:                  -4.942
REMARK INTRA:                  -0.584
REMARK UNBOUND:                -1.232
REMARK SMILES CCCCCCCCCCCCCCC(=O)[O-]
REMARK SMILES IDX 9 1 10 2 11 3 12 4 13 5 14 6 15 7 16 8 17 9 8 10 7 11 6 12
REMARK SMILES IDX 5 13 4 14 3 15 2 16 1 17
REMARK H PARENT
REMARK Flexibility Score: inf
ROOT
ATOM      1  C   UNL     1     -18.274  34.211 -12.279  1.00  0.00     0.000 C 
ENDROOT
BRANCH   1   2
ATOM      2  C   UNL     1     -18.851  34.525 -10.888  1.00  0.00     0.000 C 
BRANCH   2   3
ATOM      3  C   UNL     1     -18.540  33.425  -9.859  1.00  0.00     0.000 C 
BRANCH   3   4
ATOM      4  C   UNL     1     -19.005  33.792  -8.439  1.00  0.00     0.000 C 
BRANCH   4   5
ATOM      5  C   UNL     1     -20.420  33.278  -8.117  1.00  0.00     0.006 C 
BRANCH   5   6
ATOM      6  C   UNL     1     -21.386  34.374  -7.632  1.00  0.00     0.053 C 
BRANCH   6   7
ATOM      7  C   UNL     1     -22.794  33.883  -7.483  1.00  0.00     0.041 C 
ATOM      8  O   UNL     1     -23.032  32.819  -6.853  1.00  0.00    -0.550 OA
ATOM      9  O   UNL     1     -23.846  34.617  -8.015  1.00  0.00    -0.550 OA
ENDBRANCH   6   7
ENDBRANCH   5   6
ENDBRANCH   4   5
ENDBRANCH   3   4
ENDBRANCH   2   3
ENDBRANCH   1   2
BRANCH   1  10
ATOM     10  C   UNL     1     -17.333  32.994 -12.278  1.00  0.00     0.000 C 
BRANCH  10  11
ATOM     11  C   UNL     1     -15.901  33.272 -12.775  1.00  0.00    -0.000 C 
BRANCH  11  12
ATOM     12  C   UNL     1     -15.035  33.998 -11.735  1.00  0.00    -0.000 C 
BRANCH  12  13
ATOM     13  C   UNL     1     -15.479  33.644 -10.308  1.00  0.00    -0.000 C 
BRANCH  13  14
ATOM     14  C   UNL     1     -14.642  34.358  -9.235  1.00  0.00    -0.000 C 
BRANCH  14  15
ATOM     15  C   UNL     1     -13.486  35.177  -9.835  1.00  0.00    -0.000 C 
BRANCH  15  16
ATOM     16  C   UNL     1     -12.839  36.121  -8.808  1.00  0.00    -0.003 C 
ATOM     17  C   UNL     1     -13.432  35.965  -7.408  1.00  0.00     0.004 C 
ENDBRANCH  15  16
ENDBRANCH  14  15
ENDBRANCH  13  14
ENDBRANCH  12  13
ENDBRANCH  11  12
ENDBRANCH  10  11
ENDBRANCH   1  10
TORSDOF 13
ENDMDL
MODEL 7
REMARK VINA RESULT:    -2.342      2.754      5.567
REMARK INTER + INTRA:          -5.353
REMARK INTER:                  -4.678
REMARK INTRA:                  -0.675
REMARK UNBOUND:                -1.232
REMARK SMILES CCCCCCCCCCCCCCC(=O)[O-]
REMARK SMILES IDX 9 1 10 2 11 3 12 4 13 5 14 6 15 7 16 8 17 9 8 10 7 11 6 12
REMARK SMILES IDX 5 13 4 14 3 15 2 16 1 17
REMARK H PARENT
REMARK Flexibility Score: inf
ROOT
ATOM      1  C   UNL     1      -6.844  36.235   1.863  1.00  0.00     0.000 C 
ENDROOT
BRANCH   1   2
ATOM      2  C   UNL     1      -7.026  36.414   0.345  1.00  0.00     0.000 C 
BRANCH   2   3
ATOM      3  C   UNL     1      -7.356  37.865  -0.042  1.00  0.00     0.000 C 
BRANCH   3   4
ATOM      4  C   UNL     1      -7.359  38.087  -1.564  1.00  0.00     0.000 C 
BRANCH   4   5
ATOM      5  C   UNL     1      -8.715  37.764  -2.218  1.00  0.00     0.006 C 
BRANCH   5   6
ATOM      6  C   UNL     1      -9.886  37.689  -1.220  1.00  0.00     0.053 C 
BRANCH   6   7
ATOM      7  C   UNL     1     -10.629  36.390  -1.295  1.00  0.00     0.041 C 
ATOM      8  O   UNL     1     -10.204  35.378  -0.677  1.00  0.00    -0.550 OA
ATOM      9  O   UNL     1     -11.809  36.306  -2.022  1.00  0.00    -0.550 OA
ENDBRANCH   6   7
ENDBRANCH   5   6
ENDBRANCH   4   5
ENDBRANCH   3   4
ENDBRANCH   2   3
ENDBRANCH   1   2
BRANCH   1  10
ATOM     10  C   UNL     1      -6.094  37.408   2.519  1.00  0.00     0.000 C 
BRANCH  10  11
ATOM     11  C   UNL     1      -4.581  37.456   2.239  1.00  0.00    -0.000 C 
BRANCH  11  12
ATOM     12  C   UNL     1      -3.879  36.114   2.491  1.00  0.00    -0.000 C 
BRANCH  12  13
ATOM     13  C   UNL     1      -4.003  35.192   1.268  1.00  0.00    -0.000 C 
BRANCH  13  14
ATOM     14  C   UNL     1      -3.875  33.704   1.634  1.00  0.00    -0.000 C 
BRANCH  14  15
ATOM     15  C   UNL     1      -5.220  33.078   2.041  1.00  0.00    -0.000 C 
BRANCH  15  16
ATOM     16  C   UNL     1      -6.214  33.009   0.870  1.00  0.00    -0.003 C 
ATOM     17  C   UNL     1      -7.507  32.282   1.238  1.00  0.00     0.004 C 
ENDBRANCH  15  16
ENDBRANCH  14  15
ENDBRANCH  13  14
ENDBRANCH  12  13
ENDBRANCH  11  12
ENDBRANCH  10  11
ENDBRANCH   1  10
TORSDOF 13
ENDMDL
MODEL 8
REMARK VINA RESULT:    -1.704      2.846      5.600
REMARK INTER + INTRA:          -4.231
REMARK INTER:                  -3.358
REMARK INTRA:                  -0.872
REMARK UNBOUND:                -1.232
REMARK SMILES CCCCCCCCCCCCCCC(=O)[O-]
REMARK SMILES IDX 9 1 10 2 11 3 12 4 13 5 14 6 15 7 16 8 17 9 8 10 7 11 6 12
REMARK SMILES IDX 5 13 4 14 3 15 2 16 1 17
REMARK H PARENT
REMARK Flexibility Score: inf
ROOT
ATOM      1  C   UNL     1      -7.641  33.538   1.023  1.00  0.00     0.000 C 
ENDROOT
BRANCH   1   2
ATOM      2  C   UNL     1      -7.478  35.067   0.963  1.00  0.00     0.000 C 
BRANCH   2   3
ATOM      3  C   UNL     1      -8.365  35.714  -0.113  1.00  0.00     0.000 C 
BRANCH   3   4
ATOM      4  C   UNL     1      -7.891  37.124  -0.505  1.00  0.00     0.000 C 
BRANCH   4   5
ATOM      5  C   UNL     1      -8.757  37.767  -1.603  1.00  0.00     0.006 C 
BRANCH   5   6
ATOM      6  C   UNL     1     -10.258  37.816  -1.265  1.00  0.00     0.053 C 
BRANCH   6   7
ATOM      7  C   UNL     1     -10.986  36.573  -1.678  1.00  0.00     0.041 C 
ATOM      8  O   UNL     1     -11.375  35.745  -0.811  1.00  0.00    -0.550 OA
ATOM      9  O   UNL     1     -11.263  36.343  -3.019  1.00  0.00    -0.550 OA
ENDBRANCH   6   7
ENDBRANCH   5   6
ENDBRANCH   4   5
ENDBRANCH   3   4
ENDBRANCH   2   3
ENDBRANCH   1   2
BRANCH   1  10
ATOM     10  C   UNL     1      -6.296  32.793   1.081  1.00  0.00     0.000 C 
BRANCH  10  11
ATOM     11  C   UNL     1      -5.117  33.613   1.638  1.00  0.00    -0.000 C 
BRANCH  11  12
ATOM     12  C   UNL     1      -3.904  33.635   0.698  1.00  0.00    -0.000 C 
BRANCH  12  13
ATOM     13  C   UNL     1      -3.877  34.927  -0.132  1.00  0.00    -0.000 C 
BRANCH  13  14
ATOM     14  C   UNL     1      -4.223  36.173   0.701  1.00  0.00    -0.000 C 
BRANCH  14  15
ATOM     15  C   UNL     1      -4.132  37.473  -0.115  1.00  0.00    -0.000 C 
BRANCH  15  16
ATOM     16  C   UNL     1      -4.077  37.215  -1.629  1.00  0.00    -0.003 C 
ATOM     17  C   UNL     1      -5.115  38.026  -2.404  1.00  0.00     0.004 C 
ENDBRANCH  15  16
ENDBRANCH  14  15
ENDBRANCH  13  14
ENDBRANCH  12  13
ENDBRANCH  11  12
ENDBRANCH  10  11
ENDBRANCH   1  10
TORSDOF 13
ENDMDL
