MODEL 1
REMARK VINA RESULT:    -8.471      0.000      0.000
REMARK INTER + INTRA:         -10.181
REMARK INTER:                  -9.709
REMARK INTRA:                  -0.473
REMARK UNBOUND:                -0.473
REMARK SMILES C=C(C)[C@@H]1CC[C@@]2(C(=O)[O-])CC[C@]3(C)[C@@H](CC[C@@H]4[C@@]5(C)CC[C@H](O)C(C)(C)[C@H]5CC[C@@]43C)[C@@H]12
REMARK SMILES IDX 7 1 6 2 33 3 11 4 5 5 15 6 4 7 12 8 16 9 13 10 17 11 31 12
REMARK SMILES IDX 14 13 18 14 30 15 32 16 19 17 29 18 21 19 20 20 28 21 22 22
REMARK SMILES IDX 25 23 23 24 26 25 27 26 8 27 9 28 10 29 2 30 3 31 1 32 24 33
REMARK H PARENT 24 34
REMARK Flexibility Score: inf
ROOT
ATOM      1  C   UNL     1      51.222  19.194  56.079  1.00  0.00     0.014 C 
ATOM      2  C   UNL     1      51.993  20.403  55.516  1.00  0.00     0.014 C 
ATOM      3  C   UNL     1      52.338  18.336  56.777  1.00  0.00     0.012 C 
ATOM      4  C   UNL     1      50.393  18.479  54.960  1.00  0.00     0.014 C 
ATOM      5  C   UNL     1      53.145  20.675  56.482  1.00  0.00     0.009 C 
ATOM      6  C   UNL     1      52.907  17.130  55.926  1.00  0.00     0.000 C 
ATOM      7  C   UNL     1      53.426  19.357  57.228  1.00  0.00     0.018 C 
ATOM      8  C   UNL     1      51.028  17.248  54.286  1.00  0.00     0.008 C 
ATOM      9  C   UNL     1      53.998  17.555  54.901  1.00  0.00     0.005 C 
ATOM     10  C   UNL     1      51.787  16.274  55.256  1.00  0.00    -0.024 C 
ATOM     11  C   UNL     1      54.184  16.624  53.704  1.00  0.00     0.005 C 
ATOM     12  C   UNL     1      52.448  14.940  54.521  1.00  0.00    -0.024 C 
ATOM     13  C   UNL     1      50.734  15.852  56.345  1.00  0.00     0.012 C 
ATOM     14  C   UNL     1      53.983  15.135  54.092  1.00  0.00     0.002 C 
ATOM     15  C   UNL     1      51.635  14.582  53.252  1.00  0.00     0.008 C 
ATOM     16  C   UNL     1      52.360  13.722  55.507  1.00  0.00     0.012 C 
ATOM     17  C   UNL     1      54.628  14.101  53.009  1.00  0.00    -0.026 C 
ATOM     18  C   UNL     1      52.201  13.425  52.435  1.00  0.00     0.005 C 
ATOM     19  C   UNL     1      55.142  12.802  53.716  1.00  0.00     0.010 C 
ATOM     20  C   UNL     1      55.913  14.757  52.402  1.00  0.00     0.012 C 
ATOM     21  C   UNL     1      53.610  13.726  51.852  1.00  0.00     0.003 C 
ATOM     22  C   UNL     1      55.637  11.699  52.769  1.00  0.00     0.033 C 
ATOM     23  C   UNL     1      54.099  12.557  50.871  1.00  0.00    -0.006 C 
ATOM     24  C   UNL     1      54.601  11.324  51.698  1.00  0.00     0.120 C 
ATOM     25  C   UNL     1      52.925  12.085  49.958  1.00  0.00     0.014 C 
ATOM     26  C   UNL     1      55.207  13.053  49.886  1.00  0.00     0.014 C 
ENDROOT
BRANCH   1  27
ATOM     27  C   UNL     1      50.203  19.712  57.097  1.00  0.00     0.048 C 
ATOM     28  O   UNL     1      49.229  18.997  57.463  1.00  0.00    -0.550 OA
ATOM     29  O   UNL     1      50.212  21.050  57.469  1.00  0.00    -0.550 OA
ENDBRANCH   1  27
BRANCH   7  30
ATOM     30  C   UNL     1      53.523  19.490  58.749  1.00  0.00    -0.077 C 
ATOM     31  C   UNL     1      53.929  18.293  59.572  1.00  0.00     0.039 C 
ATOM     32  C   UNL     1      53.242  20.637  59.395  1.00  0.00     0.008 C 
ENDBRANCH   7  30
BRANCH  24  33
ATOM     33  O   UNL     1      55.179  10.351  50.864  1.00  0.00    -0.393 OA
ATOM     34  H   UNL     1      54.491  10.068  50.208  1.00  0.00     0.210 HD
ENDBRANCH  24  33
TORSDOF 3
ENDMDL
MODEL 2
REMARK VINA RESULT:    -8.018      1.657      3.161
REMARK INTER + INTRA:          -9.663
REMARK INTER:                  -9.060
REMARK INTRA:                  -0.603
REMARK UNBOUND:                -0.473
REMARK SMILES C=C(C)[C@@H]1CC[C@@]2(C(=O)[O-])CC[C@]3(C)[C@@H](CC[C@@H]4[C@@]5(C)CC[C@H](O)C(C)(C)[C@H]5CC[C@@]43C)[C@@H]12
REMARK SMILES IDX 7 1 6 2 33 3 11 4 5 5 15 6 4 7 12 8 16 9 13 10 17 11 31 12
REMARK SMILES IDX 14 13 18 14 30 15 32 16 19 17 29 18 21 19 20 20 28 21 22 22
REMARK SMILES IDX 25 23 23 24 26 25 27 26 8 27 9 28 10 29 2 30 3 31 1 32 24 33
REMARK H PARENT 24 34
REMARK Flexibility Score: inf
ROOT
ATOM      1  C   UNL     1      52.376  18.651  57.113  1.00  0.00     0.014 C 
ATOM      2  C   UNL     1      52.855  18.212  58.510  1.00  0.00     0.014 C 
ATOM      3  C   UNL     1      51.133  17.730  56.842  1.00  0.00     0.012 C 
ATOM      4  C   UNL     1      53.537  18.577  56.066  1.00  0.00     0.014 C 
ATOM      5  C   UNL     1      51.608  17.793  59.287  1.00  0.00     0.009 C 
ATOM      6  C   UNL     1      51.410  16.448  55.958  1.00  0.00     0.000 C 
ATOM      7  C   UNL     1      50.539  17.410  58.248  1.00  0.00     0.018 C 
ATOM      8  C   UNL     1      53.625  17.309  55.195  1.00  0.00     0.008 C 
ATOM      9  C   UNL     1      52.005  15.257  56.763  1.00  0.00     0.005 C 
ATOM     10  C   UNL     1      52.248  16.759  54.678  1.00  0.00    -0.024 C 
ATOM     11  C   UNL     1      52.800  14.237  55.949  1.00  0.00     0.005 C 
ATOM     12  C   UNL     1      52.357  15.405  53.723  1.00  0.00    -0.024 C 
ATOM     13  C   UNL     1      51.580  17.947  53.896  1.00  0.00     0.012 C 
ATOM     14  C   UNL     1      52.197  14.029  54.535  1.00  0.00     0.002 C 
ATOM     15  C   UNL     1      53.726  15.382  52.999  1.00  0.00     0.008 C 
ATOM     16  C   UNL     1      51.235  15.467  52.627  1.00  0.00     0.012 C 
ATOM     17  C   UNL     1      52.691  12.645  53.828  1.00  0.00    -0.026 C 
ATOM     18  C   UNL     1      53.985  14.135  52.160  1.00  0.00     0.005 C 
ATOM     19  C   UNL     1      51.571  12.060  52.903  1.00  0.00     0.010 C 
ATOM     20  C   UNL     1      52.890  11.563  54.942  1.00  0.00     0.012 C 
ATOM     21  C   UNL     1      54.035  12.833  53.007  1.00  0.00     0.003 C 
ATOM     22  C   UNL     1      51.986  10.834  52.077  1.00  0.00     0.033 C 
ATOM     23  C   UNL     1      54.468  11.572  52.116  1.00  0.00    -0.006 C 
ATOM     24  C   UNL     1      53.259  11.074  51.252  1.00  0.00     0.120 C 
ATOM     25  C   UNL     1      55.630  11.960  51.151  1.00  0.00     0.014 C 
ATOM     26  C   UNL     1      55.037  10.411  52.994  1.00  0.00     0.014 C 
ENDROOT
BRANCH   1  27
ATOM     27  C   UNL     1      51.969  20.124  57.191  1.00  0.00     0.048 C 
ATOM     28  O   UNL     1      51.205  20.634  56.325  1.00  0.00    -0.550 OA
ATOM     29  O   UNL     1      52.602  20.974  58.089  1.00  0.00    -0.550 OA
ENDBRANCH   1  27
BRANCH   7  30
ATOM     30  C   UNL     1      49.167  18.049  58.474  1.00  0.00    -0.077 C 
ATOM     31  C   UNL     1      48.410  17.744  59.743  1.00  0.00     0.039 C 
ATOM     32  C   UNL     1      48.591  18.867  57.574  1.00  0.00     0.008 C 
ENDBRANCH   7  30
BRANCH  24  33
ATOM     33  O   UNL     1      53.570   9.878  50.582  1.00  0.00    -0.393 OA
ATOM     34  H   UNL     1      53.578   9.149  51.254  1.00  0.00     0.210 HD
ENDBRANCH  24  33
TORSDOF 3
ENDMDL
MODEL 3
REMARK VINA RESULT:    -7.539      2.060      3.614
REMARK INTER + INTRA:          -9.113
REMARK INTER:                  -8.523
REMARK INTRA:                  -0.590
REMARK UNBOUND:                -0.473
REMARK SMILES C=C(C)[C@@H]1CC[C@@]2(C(=O)[O-])CC[C@]3(C)[C@@H](CC[C@@H]4[C@@]5(C)CC[C@H](O)C(C)(C)[C@H]5CC[C@@]43C)[C@@H]12
REMARK SMILES IDX 7 1 6 2 33 3 11 4 5 5 15 6 4 7 12 8 16 9 13 10 17 11 31 12
REMARK SMILES IDX 14 13 18 14 30 15 32 16 19 17 29 18 21 19 20 20 28 21 22 22
REMARK SMILES IDX 25 23 23 24 26 25 27 26 8 27 9 28 10 29 2 30 3 31 1 32 24 33
REMARK H PARENT 24 34
REMARK Flexibility Score: inf
ROOT
ATOM      1  C   UNL     1      52.635  18.950  59.189  1.00  0.00     0.014 C 
ATOM      2  C   UNL     1      53.341  18.282  60.385  1.00  0.00     0.014 C 
ATOM      3  C   UNL     1      51.432  17.987  58.885  1.00  0.00     0.012 C 
ATOM      4  C   UNL     1      53.635  19.208  58.012  1.00  0.00     0.014 C 
ATOM      5  C   UNL     1      52.253  17.591  61.204  1.00  0.00     0.009 C 
ATOM      6  C   UNL     1      51.666  16.949  57.715  1.00  0.00     0.000 C 
ATOM      7  C   UNL     1      51.072  17.327  60.250  1.00  0.00     0.018 C 
ATOM      8  C   UNL     1      53.683  18.162  56.883  1.00  0.00     0.008 C 
ATOM      9  C   UNL     1      52.453  15.682  58.159  1.00  0.00     0.005 C 
ATOM     10  C   UNL     1      52.286  17.597  56.438  1.00  0.00    -0.024 C 
ATOM     11  C   UNL     1      53.189  14.935  57.048  1.00  0.00     0.005 C 
ATOM     12  C   UNL     1      52.348  16.488  55.205  1.00  0.00    -0.024 C 
ATOM     13  C   UNL     1      51.431  18.850  56.024  1.00  0.00     0.012 C 
ATOM     14  C   UNL     1      52.404  14.964  55.711  1.00  0.00     0.002 C 
ATOM     15  C   UNL     1      53.596  16.749  54.325  1.00  0.00     0.008 C 
ATOM     16  C   UNL     1      51.078  16.663  54.300  1.00  0.00     0.012 C 
ATOM     17  C   UNL     1      52.884  13.811  54.662  1.00  0.00    -0.026 C 
ATOM     18  C   UNL     1      53.816  15.734  53.208  1.00  0.00     0.005 C 
ATOM     19  C   UNL     1      51.685  13.323  53.782  1.00  0.00     0.010 C 
ATOM     20  C   UNL     1      53.317  12.548  55.480  1.00  0.00     0.012 C 
ATOM     21  C   UNL     1      54.078  14.296  53.738  1.00  0.00     0.003 C 
ATOM     22  C   UNL     1      52.059  12.340  52.663  1.00  0.00     0.033 C 
ATOM     23  C   UNL     1      54.463  13.295  52.547  1.00  0.00    -0.006 C 
ATOM     24  C   UNL     1      53.179  12.870  51.755  1.00  0.00     0.120 C 
ATOM     25  C   UNL     1      55.443  13.986  51.549  1.00  0.00     0.014 C 
ATOM     26  C   UNL     1      55.232  12.040  53.070  1.00  0.00     0.014 C 
ENDROOT
BRANCH   1  27
ATOM     27  C   UNL     1      52.143  20.328  59.637  1.00  0.00     0.048 C 
ATOM     28  O   UNL     1      51.438  21.047  58.875  1.00  0.00    -0.550 OA
ATOM     29  O   UNL     1      52.641  20.899  60.802  1.00  0.00    -0.550 OA
ENDBRANCH   1  27
BRANCH   7  30
ATOM     30  C   UNL     1      49.707  17.768  60.784  1.00  0.00    -0.077 C 
ATOM     31  C   UNL     1      48.511  17.741  59.865  1.00  0.00     0.039 C 
ATOM     32  C   UNL     1      49.528  18.201  62.045  1.00  0.00     0.008 C 
ENDBRANCH   7  30
BRANCH  24  33
ATOM     33  O   UNL     1      53.471  11.873  50.806  1.00  0.00    -0.393 OA
ATOM     34  H   UNL     1      53.223  10.999  51.202  1.00  0.00     0.210 HD
ENDBRANCH  24  33
TORSDOF 3
ENDMDL
MODEL 4
REMARK VINA RESULT:    -7.449      1.635      8.397
REMARK INTER + INTRA:          -9.010
REMARK INTER:                  -8.381
REMARK INTRA:                  -0.629
REMARK UNBOUND:                -0.473
REMARK SMILES C=C(C)[C@@H]1CC[C@@]2(C(=O)[O-])CC[C@]3(C)[C@@H](CC[C@@H]4[C@@]5(C)CC[C@H](O)C(C)(C)[C@H]5CC[C@@]43C)[C@@H]12
REMARK SMILES IDX 7 1 6 2 33 3 11 4 5 5 15 6 4 7 12 8 16 9 13 10 17 11 31 12
REMARK SMILES IDX 14 13 18 14 30 15 32 16 19 17 29 18 21 19 20 20 28 21 22 22
REMARK SMILES IDX 25 23 23 24 26 25 27 26 8 27 9 28 10 29 2 30 3 31 1 32 24 33
REMARK H PARENT 24 34
REMARK Flexibility Score: inf
ROOT
ATOM      1  C   UNL     1      53.406  12.287  53.488  1.00  0.00     0.014 C 
ATOM      2  C   UNL     1      54.401  12.631  52.363  1.00  0.00     0.014 C 
ATOM      3  C   UNL     1      52.125  13.116  53.116  1.00  0.00     0.012 C 
ATOM      4  C   UNL     1      54.027  12.561  54.899  1.00  0.00     0.014 C 
ATOM      5  C   UNL     1      53.571  12.864  51.102  1.00  0.00     0.009 C 
ATOM      6  C   UNL     1      51.959  14.495  53.872  1.00  0.00     0.000 C 
ATOM      7  C   UNL     1      52.153  13.249  51.563  1.00  0.00     0.018 C 
ATOM      8  C   UNL     1      53.695  13.909  55.568  1.00  0.00     0.008 C 
ATOM      9  C   UNL     1      52.785  15.653  53.239  1.00  0.00     0.005 C 
ATOM     10  C   UNL     1      52.206  14.382  55.409  1.00  0.00    -0.024 C 
ATOM     11  C   UNL     1      53.129  16.811  54.174  1.00  0.00     0.005 C 
ATOM     12  C   UNL     1      51.854  15.824  56.153  1.00  0.00    -0.024 C 
ATOM     13  C   UNL     1      51.324  13.219  55.993  1.00  0.00     0.012 C 
ATOM     14  C   UNL     1      51.988  17.098  55.184  1.00  0.00     0.002 C 
ATOM     15  C   UNL     1      52.800  16.036  57.362  1.00  0.00     0.008 C 
ATOM     16  C   UNL     1      50.383  15.769  56.698  1.00  0.00     0.012 C 
ATOM     17  C   UNL     1      52.088  18.581  55.856  1.00  0.00    -0.026 C 
ATOM     18  C   UNL     1      52.636  17.375  58.074  1.00  0.00     0.005 C 
ATOM     19  C   UNL     1      50.663  19.150  56.167  1.00  0.00     0.010 C 
ATOM     20  C   UNL     1      52.685  19.566  54.795  1.00  0.00     0.012 C 
ATOM     21  C   UNL     1      52.979  18.591  57.168  1.00  0.00     0.003 C 
ATOM     22  C   UNL     1      50.648  20.481  56.934  1.00  0.00     0.033 C 
ATOM     23  C   UNL     1      52.952  19.963  57.996  1.00  0.00    -0.006 C 
ATOM     24  C   UNL     1      51.475  20.432  58.228  1.00  0.00     0.120 C 
ATOM     25  C   UNL     1      53.626  19.772  59.390  1.00  0.00     0.014 C 
ATOM     26  C   UNL     1      53.785  21.081  57.290  1.00  0.00     0.014 C 
ENDROOT
BRANCH   1  27
ATOM     27  C   UNL     1      53.129  10.783  53.433  1.00  0.00     0.048 C 
ATOM     28  O   UNL     1      51.947  10.341  53.378  1.00  0.00    -0.550 OA
ATOM     29  O   UNL     1      54.158   9.877  53.658  1.00  0.00    -0.550 OA
ENDBRANCH   1  27
BRANCH   7  30
ATOM     30  C   UNL     1      51.025  12.473  50.879  1.00  0.00    -0.077 C 
ATOM     31  C   UNL     1      49.594  12.879  51.124  1.00  0.00     0.039 C 
ATOM     32  C   UNL     1      51.256  11.419  50.073  1.00  0.00     0.008 C 
ENDBRANCH   7  30
BRANCH  24  33
ATOM     33  O   UNL     1      51.431  21.710  58.814  1.00  0.00    -0.393 OA
ATOM     34  H   UNL     1      50.482  21.923  59.002  1.00  0.00     0.210 HD
ENDBRANCH  24  33
TORSDOF 3
ENDMDL
MODEL 5
REMARK VINA RESULT:    -6.789      3.769      9.628
REMARK INTER + INTRA:          -8.254
REMARK INTER:                  -7.696
REMARK INTRA:                  -0.558
REMARK UNBOUND:                -0.473
REMARK SMILES C=C(C)[C@@H]1CC[C@@]2(C(=O)[O-])CC[C@]3(C)[C@@H](CC[C@@H]4[C@@]5(C)CC[C@H](O)C(C)(C)[C@H]5CC[C@@]43C)[C@@H]12
REMARK SMILES IDX 7 1 6 2 33 3 11 4 5 5 15 6 4 7 12 8 16 9 13 10 17 11 31 12
REMARK SMILES IDX 14 13 18 14 30 15 32 16 19 17 29 18 21 19 20 20 28 21 22 22
REMARK SMILES IDX 25 23 23 24 26 25 27 26 8 27 9 28 10 29 2 30 3 31 1 32 24 33
REMARK H PARENT 24 34
REMARK Flexibility Score: inf
ROOT
ATOM      1  C   UNL     1      52.372  18.437  55.419  1.00  0.00     0.014 C 
ATOM      2  C   UNL     1      51.047  18.479  54.634  1.00  0.00     0.014 C 
ATOM      3  C   UNL     1      52.211  17.184  56.351  1.00  0.00     0.012 C 
ATOM      4  C   UNL     1      52.654  19.802  56.131  1.00  0.00     0.014 C 
ATOM      5  C   UNL     1      50.597  17.029  54.459  1.00  0.00     0.009 C 
ATOM      6  C   UNL     1      51.751  17.488  57.834  1.00  0.00     0.000 C 
ATOM      7  C   UNL     1      51.261  16.214  55.584  1.00  0.00     0.018 C 
ATOM      8  C   UNL     1      52.248  19.925  57.612  1.00  0.00     0.008 C 
ATOM      9  C   UNL     1      50.214  17.684  57.978  1.00  0.00     0.005 C 
ATOM     10  C   UNL     1      52.547  18.659  58.492  1.00  0.00    -0.024 C 
ATOM     11  C   UNL     1      49.759  18.504  59.185  1.00  0.00     0.005 C 
ATOM     12  C   UNL     1      52.126  18.811  60.090  1.00  0.00    -0.024 C 
ATOM     13  C   UNL     1      54.088  18.389  58.339  1.00  0.00     0.012 C 
ATOM     14  C   UNL     1      50.657  18.255  60.425  1.00  0.00     0.002 C 
ATOM     15  C   UNL     1      52.185  20.301  60.510  1.00  0.00     0.008 C 
ATOM     16  C   UNL     1      53.164  18.023  60.965  1.00  0.00     0.012 C 
ATOM     17  C   UNL     1      49.952  18.708  61.824  1.00  0.00    -0.026 C 
ATOM     18  C   UNL     1      51.728  20.581  61.938  1.00  0.00     0.005 C 
ATOM     19  C   UNL     1      50.411  17.787  63.004  1.00  0.00     0.010 C 
ATOM     20  C   UNL     1      48.411  18.462  61.705  1.00  0.00     0.012 C 
ATOM     21  C   UNL     1      50.233  20.228  62.177  1.00  0.00     0.003 C 
ATOM     22  C   UNL     1      49.918  18.217  64.394  1.00  0.00     0.033 C 
ATOM     23  C   UNL     1      49.751  20.687  63.635  1.00  0.00    -0.006 C 
ATOM     24  C   UNL     1      50.260  19.678  64.721  1.00  0.00     0.120 C 
ATOM     25  C   UNL     1      50.319  22.099  63.979  1.00  0.00     0.014 C 
ATOM     26  C   UNL     1      48.197  20.843  63.708  1.00  0.00     0.014 C 
ENDROOT
BRANCH   1  27
ATOM     27  C   UNL     1      53.512  18.239  54.416  1.00  0.00     0.048 C 
ATOM     28  O   UNL     1      54.294  17.252  54.507  1.00  0.00    -0.550 OA
ATOM     29  O   UNL     1      53.835  19.253  53.522  1.00  0.00    -0.550 OA
ENDBRANCH   1  27
BRANCH   7  30
ATOM     30  C   UNL     1      51.963  14.936  55.120  1.00  0.00    -0.077 C 
ATOM     31  C   UNL     1      52.136  14.682  53.644  1.00  0.00     0.039 C 
ATOM     32  C   UNL     1      52.422  14.008  55.981  1.00  0.00     0.008 C 
ENDBRANCH   7  30
BRANCH  24  33
ATOM     33  O   UNL     1      49.719  19.973  65.985  1.00  0.00    -0.393 OA
ATOM     34  H   UNL     1      49.623  20.957  66.050  1.00  0.00     0.210 HD
ENDBRANCH  24  33
TORSDOF 3
ENDMDL
MODEL 6
REMARK VINA RESULT:    -6.717      1.362      8.328
REMARK INTER + INTRA:          -8.171
REMARK INTER:                  -7.785
REMARK INTRA:                  -0.386
REMARK UNBOUND:                -0.473
REMARK SMILES C=C(C)[C@@H]1CC[C@@]2(C(=O)[O-])CC[C@]3(C)[C@@H](CC[C@@H]4[C@@]5(C)CC[C@H](O)C(C)(C)[C@H]5CC[C@@]43C)[C@@H]12
REMARK SMILES IDX 7 1 6 2 33 3 11 4 5 5 15 6 4 7 12 8 16 9 13 10 17 11 31 12
REMARK SMILES IDX 14 13 18 14 30 15 32 16 19 17 29 18 21 19 20 20 28 21 22 22
REMARK SMILES IDX 25 23 23 24 26 25 27 26 8 27 9 28 10 29 2 30 3 31 1 32 24 33
REMARK H PARENT 24 34
REMARK Flexibility Score: inf
ROOT
ATOM      1  C   UNL     1      53.620  12.373  52.630  1.00  0.00     0.014 C 
ATOM      2  C   UNL     1      54.997  12.007  53.217  1.00  0.00     0.014 C 
ATOM      3  C   UNL     1      53.882  13.735  51.894  1.00  0.00     0.012 C 
ATOM      4  C   UNL     1      52.514  12.382  53.739  1.00  0.00     0.014 C 
ATOM      5  C   UNL     1      56.044  12.547  52.245  1.00  0.00     0.009 C 
ATOM      6  C   UNL     1      53.490  15.037  52.703  1.00  0.00     0.000 C 
ATOM      7  C   UNL     1      55.378  13.691  51.458  1.00  0.00     0.018 C 
ATOM      8  C   UNL     1      52.157  13.741  54.370  1.00  0.00     0.008 C 
ATOM      9  C   UNL     1      54.576  15.481  53.725  1.00  0.00     0.005 C 
ATOM     10  C   UNL     1      52.078  14.944  53.362  1.00  0.00    -0.024 C 
ATOM     11  C   UNL     1      54.079  16.333  54.892  1.00  0.00     0.005 C 
ATOM     12  C   UNL     1      51.671  16.398  54.050  1.00  0.00    -0.024 C 
ATOM     13  C   UNL     1      51.024  14.521  52.275  1.00  0.00     0.012 C 
ATOM     14  C   UNL     1      52.939  17.293  54.464  1.00  0.00     0.002 C 
ATOM     15  C   UNL     1      50.814  16.159  55.319  1.00  0.00     0.008 C 
ATOM     16  C   UNL     1      50.800  17.215  53.031  1.00  0.00     0.012 C 
ATOM     17  C   UNL     1      52.715  18.526  55.509  1.00  0.00    -0.026 C 
ATOM     18  C   UNL     1      50.454  17.421  56.095  1.00  0.00     0.005 C 
ATOM     19  C   UNL     1      52.235  19.813  54.759  1.00  0.00     0.010 C 
ATOM     20  C   UNL     1      54.103  18.915  56.118  1.00  0.00     0.012 C 
ATOM     21  C   UNL     1      51.697  18.157  56.668  1.00  0.00     0.003 C 
ATOM     22  C   UNL     1      51.857  20.992  55.668  1.00  0.00     0.033 C 
ATOM     23  C   UNL     1      51.269  19.382  57.609  1.00  0.00    -0.006 C 
ATOM     24  C   UNL     1      50.826  20.609  56.741  1.00  0.00     0.120 C 
ATOM     25  C   UNL     1      50.072  18.975  58.523  1.00  0.00     0.014 C 
ATOM     26  C   UNL     1      52.415  19.784  58.593  1.00  0.00     0.014 C 
ENDROOT
BRANCH   1  27
ATOM     27  C   UNL     1      53.218  11.276  51.641  1.00  0.00     0.048 C 
ATOM     28  O   UNL     1      52.227  11.423  50.874  1.00  0.00    -0.550 OA
ATOM     29  O   UNL     1      53.805  10.019  51.721  1.00  0.00    -0.550 OA
ENDBRANCH   1  27
BRANCH   7  30
ATOM     30  C   UNL     1      55.554  13.612  49.941  1.00  0.00    -0.077 C 
ATOM     31  C   UNL     1      56.402  14.644  49.239  1.00  0.00     0.039 C 
ATOM     32  C   UNL     1      54.964  12.662  49.191  1.00  0.00     0.008 C 
ENDBRANCH   7  30
BRANCH  24  33
ATOM     33  O   UNL     1      50.596  21.743  57.539  1.00  0.00    -0.393 OA
ATOM     34  H   UNL     1      49.624  21.788  57.728  1.00  0.00     0.210 HD
ENDBRANCH  24  33
TORSDOF 3
ENDMDL
MODEL 7
REMARK VINA RESULT:    -6.065      1.707      8.388
REMARK INTER + INTRA:          -7.424
REMARK INTER:                  -6.862
REMARK INTRA:                  -0.562
REMARK UNBOUND:                -0.473
REMARK SMILES C=C(C)[C@@H]1CC[C@@]2(C(=O)[O-])CC[C@]3(C)[C@@H](CC[C@@H]4[C@@]5(C)CC[C@H](O)C(C)(C)[C@H]5CC[C@@]43C)[C@@H]12
REMARK SMILES IDX 7 1 6 2 33 3 11 4 5 5 15 6 4 7 12 8 16 9 13 10 17 11 31 12
REMARK SMILES IDX 14 13 18 14 30 15 32 16 19 17 29 18 21 19 20 20 28 21 22 22
REMARK SMILES IDX 25 23 23 24 26 25 27 26 8 27 9 28 10 29 2 30 3 31 1 32 24 33
REMARK H PARENT 24 34
REMARK Flexibility Score: inf
ROOT
ATOM      1  C   UNL     1      52.832  11.664  52.561  1.00  0.00     0.014 C 
ATOM      2  C   UNL     1      52.387  10.472  53.430  1.00  0.00     0.014 C 
ATOM      3  C   UNL     1      54.095  12.219  53.313  1.00  0.00     0.012 C 
ATOM      4  C   UNL     1      51.657  12.674  52.337  1.00  0.00     0.014 C 
ATOM      5  C   UNL     1      53.656   9.875  54.036  1.00  0.00     0.009 C 
ATOM      6  C   UNL     1      53.837  13.460  54.261  1.00  0.00     0.000 C 
ATOM      7  C   UNL     1      54.718  10.990  54.042  1.00  0.00     0.018 C 
ATOM      8  C   UNL     1      51.588  13.898  53.269  1.00  0.00     0.008 C 
ATOM      9  C   UNL     1      53.284  13.066  55.661  1.00  0.00     0.005 C 
ATOM     10  C   UNL     1      52.970  14.571  53.589  1.00  0.00    -0.024 C 
ATOM     11  C   UNL     1      52.503  14.153  56.397  1.00  0.00     0.005 C 
ATOM     12  C   UNL     1      52.881  15.902  54.576  1.00  0.00    -0.024 C 
ATOM     13  C   UNL     1      53.595  14.945  52.195  1.00  0.00     0.012 C 
ATOM     14  C   UNL     1      53.089  15.565  56.133  1.00  0.00     0.002 C 
ATOM     15  C   UNL     1      51.501  16.587  54.411  1.00  0.00     0.008 C 
ATOM     16  C   UNL     1      53.983  16.931  54.141  1.00  0.00     0.012 C 
ATOM     17  C   UNL     1      52.619  16.668  57.239  1.00  0.00    -0.026 C 
ATOM     18  C   UNL     1      51.262  17.775  55.338  1.00  0.00     0.005 C 
ATOM     19  C   UNL     1      53.739  17.738  57.470  1.00  0.00     0.010 C 
ATOM     20  C   UNL     1      52.465  15.949  58.620  1.00  0.00     0.012 C 
ATOM     21  C   UNL     1      51.258  17.379  56.842  1.00  0.00     0.003 C 
ATOM     22  C   UNL     1      53.343  18.905  58.387  1.00  0.00     0.033 C 
ATOM     23  C   UNL     1      50.844  18.618  57.771  1.00  0.00    -0.006 C 
ATOM     24  C   UNL     1      52.051  19.604  57.936  1.00  0.00     0.120 C 
ATOM     25  C   UNL     1      49.657  19.405  57.133  1.00  0.00     0.014 C 
ATOM     26  C   UNL     1      50.319  18.146  59.165  1.00  0.00     0.014 C 
ENDROOT
BRANCH   1  27
ATOM     27  C   UNL     1      53.203  11.130  51.176  1.00  0.00     0.048 C 
ATOM     28  O   UNL     1      53.924  11.806  50.390  1.00  0.00    -0.550 OA
ATOM     29  O   UNL     1      52.578   9.993  50.679  1.00  0.00    -0.550 OA
ENDBRANCH   1  27
BRANCH   7  30
ATOM     30  C   UNL     1      56.076  10.583  53.466  1.00  0.00    -0.077 C 
ATOM     31  C   UNL     1      57.338  11.002  54.180  1.00  0.00     0.039 C 
ATOM     32  C   UNL     1      56.199   9.875  52.328  1.00  0.00     0.008 C 
ENDBRANCH   7  30
BRANCH  24  33
ATOM     33  O   UNL     1      51.761  20.614  58.871  1.00  0.00    -0.393 OA
ATOM     34  H   UNL     1      51.842  20.219  59.777  1.00  0.00     0.210 HD
ENDBRANCH  24  33
TORSDOF 3
ENDMDL
