MODEL 1
REMARK VINA RESULT:    -4.053      0.000      0.000
REMARK INTER + INTRA:          -5.466
REMARK INTER:                  -5.356
REMARK INTRA:                  -0.110
REMARK UNBOUND:                -0.110
REMARK SMILES CCCCCCCO
REMARK SMILES IDX 5 1 4 2 3 3 2 4 1 5 6 6 7 7 8 8
REMARK H PARENT 8 9
REMARK Flexibility Score: inf
ROOT
ATOM      1  C   UNL     1       6.665   3.813  -2.007  1.00  0.00     0.002 C 
ENDROOT
BRANCH   1   2
ATOM      2  C   UNL     1       6.607   4.620  -3.313  1.00  0.00     0.000 C 
BRANCH   2   3
ATOM      3  C   UNL     1       7.311   5.981  -3.199  1.00  0.00    -0.000 C 
BRANCH   3   4
ATOM      4  C   UNL     1       7.896   6.410  -4.549  1.00  0.00    -0.003 C 
ATOM      5  C   UNL     1       9.282   7.027  -4.379  1.00  0.00     0.004 C 
ENDBRANCH   3   4
ENDBRANCH   2   3
ENDBRANCH   1   2
BRANCH   1   6
ATOM      6  C   UNL     1       6.536   4.700  -0.758  1.00  0.00     0.028 C 
BRANCH   6   7
ATOM      7  C   UNL     1       6.529   3.870   0.527  1.00  0.00     0.156 C 
BRANCH   7   8
ATOM      8  O   UNL     1       6.819   4.685   1.629  1.00  0.00    -0.396 OA
ATOM      9  H   UNL     1       7.254   5.499   1.262  1.00  0.00     0.210 HD
ENDBRANCH   7   8
ENDBRANCH   6   7
ENDBRANCH   1   6
TORSDOF 6
ENDMDL
MODEL 2
REMARK VINA RESULT:    -3.933      2.343      4.667
REMARK INTER + INTRA:          -5.308
REMARK INTER:                  -5.137
REMARK INTRA:                  -0.171
REMARK UNBOUND:                -0.110
REMARK SMILES CCCCCCCO
REMARK SMILES IDX 5 1 4 2 3 3 2 4 1 5 6 6 7 7 8 8
REMARK H PARENT 8 9
REMARK Flexibility Score: inf
ROOT
ATOM      1  C   UNL     1       6.913   4.896  -3.281  1.00  0.00     0.002 C 
ENDROOT
BRANCH   1   2
ATOM      2  C   UNL     1       6.577   4.336  -1.890  1.00  0.00     0.000 C 
BRANCH   2   3
ATOM      3  C   UNL     1       6.557   5.422  -0.805  1.00  0.00    -0.000 C 
BRANCH   3   4
ATOM      4  C   UNL     1       6.862   4.825   0.574  1.00  0.00    -0.003 C 
ATOM      5  C   UNL     1       6.378   3.380   0.668  1.00  0.00     0.004 C 
ENDBRANCH   3   4
ENDBRANCH   2   3
ENDBRANCH   1   2
BRANCH   1   6
ATOM      6  C   UNL     1       7.282   6.389  -3.244  1.00  0.00     0.028 C 
BRANCH   6   7
ATOM      7  C   UNL     1       8.315   6.742  -4.316  1.00  0.00     0.156 C 
BRANCH   7   8
ATOM      8  O   UNL     1       9.593   6.813  -3.747  1.00  0.00    -0.396 OA
ATOM      9  H   UNL     1       9.454   6.922  -2.770  1.00  0.00     0.210 HD
ENDBRANCH   7   8
ENDBRANCH   6   7
ENDBRANCH   1   6
TORSDOF 6
ENDMDL
MODEL 3
REMARK VINA RESULT:    -3.893      1.975      2.581
REMARK INTER + INTRA:          -5.254
REMARK INTER:                  -5.113
REMARK INTRA:                  -0.141
REMARK UNBOUND:                -0.110
REMARK SMILES CCCCCCCO
REMARK SMILES IDX 5 1 4 2 3 3 2 4 1 5 6 6 7 7 8 8
REMARK H PARENT 8 9
REMARK Flexibility Score: inf
ROOT
ATOM      1  C   UNL     1       6.746   4.127  -1.639  1.00  0.00     0.002 C 
ENDROOT
BRANCH   1   2
ATOM      2  C   UNL     1       7.062   5.590  -1.986  1.00  0.00     0.000 C 
BRANCH   2   3
ATOM      3  C   UNL     1       6.440   6.581  -0.991  1.00  0.00    -0.000 C 
BRANCH   3   4
ATOM      4  C   UNL     1       6.680   8.028  -1.436  1.00  0.00    -0.003 C 
ATOM      5  C   UNL     1       5.509   8.927  -1.048  1.00  0.00     0.004 C 
ENDBRANCH   3   4
ENDBRANCH   2   3
ENDBRANCH   1   2
BRANCH   1   6
ATOM      6  C   UNL     1       5.829   3.995  -0.412  1.00  0.00     0.028 C 
BRANCH   6   7
ATOM      7  C   UNL     1       6.581   3.437   0.798  1.00  0.00     0.156 C 
BRANCH   7   8
ATOM      8  O   UNL     1       6.829   4.460   1.723  1.00  0.00    -0.396 OA
ATOM      9  H   UNL     1       7.098   4.009   2.566  1.00  0.00     0.210 HD
ENDBRANCH   7   8
ENDBRANCH   6   7
ENDBRANCH   1   6
TORSDOF 6
ENDMDL
MODEL 4
REMARK VINA RESULT:    -3.619      5.460      6.726
REMARK INTER + INTRA:          -4.892
REMARK INTER:                  -4.760
REMARK INTRA:                  -0.132
REMARK UNBOUND:                -0.110
REMARK SMILES CCCCCCCO
REMARK SMILES IDX 5 1 4 2 3 3 2 4 1 5 6 6 7 7 8 8
REMARK H PARENT 8 9
REMARK Flexibility Score: inf
ROOT
ATOM      1  C   UNL     1       8.858   4.465  -7.484  1.00  0.00     0.002 C 
ENDROOT
BRANCH   1   2
ATOM      2  C   UNL     1       9.184   5.925  -7.133  1.00  0.00     0.000 C 
BRANCH   2   3
ATOM      3  C   UNL     1       8.692   6.320  -5.732  1.00  0.00    -0.000 C 
BRANCH   3   4
ATOM      4  C   UNL     1       9.817   6.973  -4.921  1.00  0.00    -0.003 C 
ATOM      5  C   UNL     1      11.042   7.240  -5.791  1.00  0.00     0.004 C 
ENDBRANCH   3   4
ENDBRANCH   2   3
ENDBRANCH   1   2
BRANCH   1   6
ATOM      6  C   UNL     1       8.899   4.198  -8.998  1.00  0.00     0.028 C 
BRANCH   6   7
ATOM      7  C   UNL     1       8.992   2.702  -9.306  1.00  0.00     0.156 C 
BRANCH   7   8
ATOM      8  O   UNL     1       8.368   1.963  -8.292  1.00  0.00    -0.396 OA
ATOM      9  H   UNL     1       8.662   2.368  -7.435  1.00  0.00     0.210 HD
ENDBRANCH   7   8
ENDBRANCH   6   7
ENDBRANCH   1   6
TORSDOF 6
ENDMDL
MODEL 5
REMARK VINA RESULT:    -3.608      3.254      5.244
REMARK INTER + INTRA:          -4.877
REMARK INTER:                  -4.772
REMARK INTRA:                  -0.105
REMARK UNBOUND:                -0.110
REMARK SMILES CCCCCCCO
REMARK SMILES IDX 5 1 4 2 3 3 2 4 1 5 6 6 7 7 8 8
REMARK H PARENT 8 9
REMARK Flexibility Score: inf
ROOT
ATOM      1  C   UNL     1       7.247   5.854  -4.055  1.00  0.00     0.002 C 
ENDROOT
BRANCH   1   2
ATOM      2  C   UNL     1       7.055   5.605  -2.550  1.00  0.00     0.000 C 
BRANCH   2   3
ATOM      3  C   UNL     1       6.573   4.179  -2.243  1.00  0.00    -0.000 C 
BRANCH   3   4
ATOM      4  C   UNL     1       6.172   4.042  -0.770  1.00  0.00    -0.003 C 
ATOM      5  C   UNL     1       6.884   5.079   0.095  1.00  0.00     0.004 C 
ENDBRANCH   3   4
ENDBRANCH   2   3
ENDBRANCH   1   2
BRANCH   1   6
ATOM      6  C   UNL     1       8.492   6.703  -4.360  1.00  0.00     0.028 C 
BRANCH   6   7
ATOM      7  C   UNL     1       8.969   6.508  -5.800  1.00  0.00     0.156 C 
BRANCH   7   8
ATOM      8  O   UNL     1       8.438   7.510  -6.622  1.00  0.00    -0.396 OA
ATOM      9  H   UNL     1       8.269   7.083  -7.502  1.00  0.00     0.210 HD
ENDBRANCH   7   8
ENDBRANCH   6   7
ENDBRANCH   1   6
TORSDOF 6
ENDMDL
MODEL 6
REMARK VINA RESULT:    -3.604      4.754      6.542
REMARK INTER + INTRA:          -4.873
REMARK INTER:                  -4.772
REMARK INTRA:                  -0.101
REMARK UNBOUND:                -0.110
REMARK SMILES CCCCCCCO
REMARK SMILES IDX 5 1 4 2 3 3 2 4 1 5 6 6 7 7 8 8
REMARK H PARENT 8 9
REMARK Flexibility Score: inf
ROOT
ATOM      1  C   UNL     1       8.978   4.901  -7.201  1.00  0.00     0.002 C 
ENDROOT
BRANCH   1   2
ATOM      2  C   UNL     1       8.951   6.364  -6.730  1.00  0.00     0.000 C 
BRANCH   2   3
ATOM      3  C   UNL     1      10.079   6.687  -5.739  1.00  0.00    -0.000 C 
BRANCH   3   4
ATOM      4  C   UNL     1       9.510   7.072  -4.369  1.00  0.00    -0.003 C 
ATOM      5  C   UNL     1       8.007   6.817  -4.303  1.00  0.00     0.004 C 
ENDBRANCH   3   4
ENDBRANCH   2   3
ENDBRANCH   1   2
BRANCH   1   6
ATOM      6  C   UNL     1       8.988   4.773  -8.733  1.00  0.00     0.028 C 
BRANCH   6   7
ATOM      7  C   UNL     1       8.598   3.365  -9.184  1.00  0.00     0.156 C 
BRANCH   7   8
ATOM      8  O   UNL     1       8.330   2.559  -8.070  1.00  0.00    -0.396 OA
ATOM      9  H   UNL     1       8.586   1.636  -8.330  1.00  0.00     0.210 HD
ENDBRANCH   7   8
ENDBRANCH   6   7
ENDBRANCH   1   6
TORSDOF 6
ENDMDL
MODEL 7
REMARK VINA RESULT:    -3.600      3.077      4.829
REMARK INTER + INTRA:          -4.867
REMARK INTER:                  -4.725
REMARK INTRA:                  -0.143
REMARK UNBOUND:                -0.110
REMARK SMILES CCCCCCCO
REMARK SMILES IDX 5 1 4 2 3 3 2 4 1 5 6 6 7 7 8 8
REMARK H PARENT 8 9
REMARK Flexibility Score: inf
ROOT
ATOM      1  C   UNL     1       6.290   7.772  -1.091  1.00  0.00     0.002 C 
ENDROOT
BRANCH   1   2
ATOM      2  C   UNL     1       6.677   6.375  -0.579  1.00  0.00     0.000 C 
BRANCH   2   3
ATOM      3  C   UNL     1       6.700   5.321  -1.697  1.00  0.00    -0.000 C 
BRANCH   3   4
ATOM      4  C   UNL     1       6.730   3.904  -1.113  1.00  0.00    -0.003 C 
ATOM      5  C   UNL     1       6.432   3.917   0.384  1.00  0.00     0.004 C 
ENDBRANCH   3   4
ENDBRANCH   2   3
ENDBRANCH   1   2
BRANCH   1   6
ATOM      6  C   UNL     1       7.179   8.242  -2.254  1.00  0.00     0.028 C 
BRANCH   6   7
ATOM      7  C   UNL     1       8.074   9.413  -1.843  1.00  0.00     0.156 C 
BRANCH   7   8
ATOM      8  O   UNL     1       9.380   9.206  -2.305  1.00  0.00    -0.396 OA
ATOM      9  H   UNL     1       9.501   8.222  -2.357  1.00  0.00     0.210 HD
ENDBRANCH   7   8
ENDBRANCH   6   7
ENDBRANCH   1   6
TORSDOF 6
ENDMDL
MODEL 8
REMARK VINA RESULT:    -3.567      7.986      9.099
REMARK INTER + INTRA:          -4.824
REMARK INTER:                  -4.604
REMARK INTRA:                  -0.220
REMARK UNBOUND:                -0.110
REMARK SMILES CCCCCCCO
REMARK SMILES IDX 5 1 4 2 3 3 2 4 1 5 6 6 7 7 8 8
REMARK H PARENT 8 9
REMARK Flexibility Score: inf
ROOT
ATOM      1  C   UNL     1      10.670   1.185  -9.995  1.00  0.00     0.002 C 
ENDROOT
BRANCH   1   2
ATOM      2  C   UNL     1       9.685   2.002 -10.847  1.00  0.00     0.000 C 
BRANCH   2   3
ATOM      3  C   UNL     1       9.171   3.253 -10.120  1.00  0.00    -0.000 C 
BRANCH   3   4
ATOM      4  C   UNL     1       8.495   2.878  -8.796  1.00  0.00    -0.003 C 
ATOM      5  C   UNL     1       8.823   3.890  -7.701  1.00  0.00     0.004 C 
ENDBRANCH   3   4
ENDBRANCH   2   3
ENDBRANCH   1   2
BRANCH   1   6
ATOM      6  C   UNL     1      10.421  -0.329 -10.092  1.00  0.00     0.028 C 
BRANCH   6   7
ATOM      7  C   UNL     1       9.143  -0.739  -9.358  1.00  0.00     0.156 C 
BRANCH   7   8
ATOM      8  O   UNL     1       9.463  -1.332  -8.129  1.00  0.00    -0.396 OA
ATOM      9  H   UNL     1       8.767  -1.031  -7.489  1.00  0.00     0.210 HD
ENDBRANCH   7   8
ENDBRANCH   6   7
ENDBRANCH   1   6
TORSDOF 6
ENDMDL
