MODEL 1
REMARK VINA RESULT:    -5.795      0.000      0.000
REMARK INTER + INTRA:          -6.703
REMARK INTER:                  -6.811
REMARK INTRA:                   0.108
REMARK UNBOUND:                 0.108
REMARK SMILES CC1(C)CC[C@@]2(C(=O)[O-])CC[C@]3(C)C(=CC[C@@H]4[C@@]5(C)CC[C@@H](O)[C@](C)(CO)[C@H]5CC[C@@]43C)[C@@H]2C1
REMARK SMILES IDX 6 1 5 2 10 3 33 4 4 5 11 6 14 7 34 8 2 9 12 10 15 11 1 12
REMARK SMILES IDX 3 13 13 14 31 15 16 16 17 17 30 18 32 19 18 20 29 21 28 22
REMARK SMILES IDX 20 23 19 24 24 25 21 26 22 27 25 28 7 29 8 30 9 31 26 32
REMARK SMILES IDX 27 33 23 35
REMARK H PARENT 27 34 23 36
REMARK Flexibility Score: inf
ROOT
ATOM      1  C   UNL     1      -6.997 -55.855 -37.011  1.00  0.00     0.017 C 
ATOM      2  C   UNL     1      -8.376 -55.606 -37.666  1.00  0.00     0.014 C 
ATOM      3  C   UNL     1      -7.171 -56.763 -35.785  1.00  0.00     0.014 C 
ATOM      4  C   UNL     1      -6.113 -56.649 -38.017  1.00  0.00     0.028 C 
ATOM      5  C   UNL     1      -8.246 -54.794 -38.967  1.00  0.00     0.007 C 
ATOM      6  C   UNL     1      -5.854 -56.933 -35.019  1.00  0.00     0.013 C 
ATOM      7  C   UNL     1      -4.826 -57.234 -37.396  1.00  0.00    -0.064 C 
ATOM      8  C   UNL     1      -5.943 -55.875 -39.363  1.00  0.00     0.015 C 
ATOM      9  C   UNL     1      -7.300 -55.452 -40.008  1.00  0.00    -0.035 C 
ATOM     10  C   UNL     1      -4.559 -57.282 -35.875  1.00  0.00    -0.006 C 
ATOM     11  C   UNL     1      -3.988 -57.899 -38.212  1.00  0.00    -0.027 C 
ATOM     12  C   UNL     1      -7.014 -54.425 -41.125  1.00  0.00     0.011 C 
ATOM     13  C   UNL     1      -7.996 -56.672 -40.660  1.00  0.00     0.011 C 
ATOM     14  C   UNL     1      -3.495 -56.171 -35.609  1.00  0.00     0.017 C 
ATOM     15  C   UNL     1      -3.963 -58.717 -35.432  1.00  0.00    -0.020 C 
ATOM     16  C   UNL     1      -2.828 -58.735 -37.778  1.00  0.00     0.032 C 
ATOM     17  C   UNL     1      -2.657 -59.073 -36.255  1.00  0.00     0.006 C 
ATOM     18  C   UNL     1      -4.999 -59.842 -35.730  1.00  0.00     0.008 C 
ATOM     19  C   UNL     1      -3.642 -58.654 -33.892  1.00  0.00     0.012 C 
ATOM     20  C   UNL     1      -2.059 -60.561 -36.073  1.00  0.00    -0.025 C 
ATOM     21  C   UNL     1      -4.476 -61.268 -35.500  1.00  0.00     0.005 C 
ATOM     22  C   UNL     1      -3.191 -61.643 -36.304  1.00  0.00     0.006 C 
ATOM     23  C   UNL     1      -1.425 -60.783 -34.663  1.00  0.00     0.010 C 
ATOM     24  C   UNL     1      -0.875 -60.695 -37.096  1.00  0.00     0.012 C 
ATOM     25  C   UNL     1      -2.730 -63.155 -36.038  1.00  0.00     0.020 C 
ATOM     26  C   UNL     1      -0.909 -62.210 -34.408  1.00  0.00     0.033 C 
ATOM     27  C   UNL     1      -1.995 -63.292 -34.649  1.00  0.00     0.123 C 
ATOM     28  C   UNL     1      -3.966 -64.110 -36.016  1.00  0.00     0.017 C 
ENDROOT
BRANCH   1  29
ATOM     29  C   UNL     1      -6.446 -54.501 -36.556  1.00  0.00     0.048 C 
ATOM     30  O   UNL     1      -5.371 -54.031 -37.011  1.00  0.00    -0.550 OA
ATOM     31  O   UNL     1      -7.186 -53.722 -35.673  1.00  0.00    -0.550 OA
ENDBRANCH   1  29
BRANCH  25  32
ATOM     32  C   UNL     1      -1.848 -63.692 -37.241  1.00  0.00     0.165 C 
BRANCH  32  33
ATOM     33  O   UNL     1      -2.279 -64.928 -37.751  1.00  0.00    -0.396 OA
ATOM     34  H   UNL     1      -2.741 -65.406 -37.014  1.00  0.00     0.210 HD
ENDBRANCH  32  33
ENDBRANCH  25  32
BRANCH  27  35
ATOM     35  O   UNL     1      -2.920 -63.364 -33.580  1.00  0.00    -0.392 OA
ATOM     36  H   UNL     1      -3.094 -64.305 -33.325  1.00  0.00     0.210 HD
ENDBRANCH  27  35
TORSDOF 4
ENDMDL
MODEL 2
REMARK VINA RESULT:    -5.096      2.286      3.064
REMARK INTER + INTRA:          -5.881
REMARK INTER:                  -5.981
REMARK INTRA:                   0.100
REMARK UNBOUND:                 0.108
REMARK SMILES CC1(C)CC[C@@]2(C(=O)[O-])CC[C@]3(C)C(=CC[C@@H]4[C@@]5(C)CC[C@@H](O)[C@](C)(CO)[C@H]5CC[C@@]43C)[C@@H]2C1
REMARK SMILES IDX 6 1 5 2 10 3 33 4 4 5 11 6 14 7 34 8 2 9 12 10 15 11 1 12
REMARK SMILES IDX 3 13 13 14 31 15 16 16 17 17 30 18 32 19 18 20 29 21 28 22
REMARK SMILES IDX 20 23 19 24 24 25 21 26 22 27 25 28 7 29 8 30 9 31 26 32
REMARK SMILES IDX 27 33 23 35
REMARK H PARENT 27 34 23 36
REMARK Flexibility Score: inf
ROOT
ATOM      1  C   UNL     1      -4.852 -55.698 -33.762  1.00  0.00     0.017 C 
ATOM      2  C   UNL     1      -6.173 -54.893 -33.704  1.00  0.00     0.014 C 
ATOM      3  C   UNL     1      -5.052 -57.056 -33.074  1.00  0.00     0.014 C 
ATOM      4  C   UNL     1      -4.534 -56.009 -35.254  1.00  0.00     0.028 C 
ATOM      5  C   UNL     1      -6.063 -53.569 -34.480  1.00  0.00     0.007 C 
ATOM      6  C   UNL     1      -3.737 -57.840 -32.984  1.00  0.00     0.013 C 
ATOM      7  C   UNL     1      -3.420 -57.061 -35.452  1.00  0.00    -0.064 C 
ATOM      8  C   UNL     1      -4.410 -54.701 -36.098  1.00  0.00     0.015 C 
ATOM      9  C   UNL     1      -5.649 -53.760 -35.964  1.00  0.00    -0.035 C 
ATOM     10  C   UNL     1      -2.859 -57.934 -34.308  1.00  0.00    -0.006 C 
ATOM     11  C   UNL     1      -3.059 -57.353 -36.714  1.00  0.00    -0.027 C 
ATOM     12  C   UNL     1      -5.282 -52.380 -36.551  1.00  0.00     0.011 C 
ATOM     13  C   UNL     1      -6.843 -54.315 -36.780  1.00  0.00     0.011 C 
ATOM     14  C   UNL     1      -1.450 -57.342 -33.991  1.00  0.00     0.017 C 
ATOM     15  C   UNL     1      -2.704 -59.474 -34.771  1.00  0.00    -0.020 C 
ATOM     16  C   UNL     1      -2.187 -58.494 -37.129  1.00  0.00     0.032 C 
ATOM     17  C   UNL     1      -1.811 -59.593 -36.074  1.00  0.00     0.006 C 
ATOM     18  C   UNL     1      -4.100 -60.067 -35.130  1.00  0.00     0.008 C 
ATOM     19  C   UNL     1      -2.052 -60.275 -33.582  1.00  0.00     0.012 C 
ATOM     20  C   UNL     1      -1.730 -61.044 -36.777  1.00  0.00    -0.025 C 
ATOM     21  C   UNL     1      -4.056 -61.477 -35.740  1.00  0.00     0.005 C 
ATOM     22  C   UNL     1      -3.184 -61.617 -37.028  1.00  0.00     0.006 C 
ATOM     23  C   UNL     1      -0.918 -62.074 -35.930  1.00  0.00     0.010 C 
ATOM     24  C   UNL     1      -0.918 -60.851 -38.107  1.00  0.00     0.012 C 
ATOM     25  C   UNL     1      -3.219 -63.106 -37.623  1.00  0.00     0.020 C 
ATOM     26  C   UNL     1      -0.875 -63.496 -36.518  1.00  0.00     0.033 C 
ATOM     27  C   UNL     1      -2.288 -64.073 -36.794  1.00  0.00     0.123 C 
ATOM     28  C   UNL     1      -4.669 -63.684 -37.572  1.00  0.00     0.017 C 
ENDROOT
BRANCH   1  29
ATOM     29  C   UNL     1      -3.788 -54.903 -33.001  1.00  0.00     0.048 C 
ATOM     30  O   UNL     1      -2.836 -54.328 -33.589  1.00  0.00    -0.550 OA
ATOM     31  O   UNL     1      -3.910 -54.738 -31.625  1.00  0.00    -0.550 OA
ENDBRANCH   1  29
BRANCH  25  32
ATOM     32  C   UNL     1      -2.858 -63.100 -39.166  1.00  0.00     0.165 C 
BRANCH  32  33
ATOM     33  O   UNL     1      -1.930 -64.090 -39.533  1.00  0.00    -0.396 OA
ATOM     34  H   UNL     1      -2.012 -64.830 -38.877  1.00  0.00     0.210 HD
ENDBRANCH  32  33
ENDBRANCH  25  32
BRANCH  27  35
ATOM     35  O   UNL     1      -2.925 -64.510 -35.607  1.00  0.00    -0.392 OA
ATOM     36  H   UNL     1      -2.310 -64.450 -34.833  1.00  0.00     0.210 HD
ENDBRANCH  27  35
TORSDOF 4
ENDMDL
MODEL 3
REMARK VINA RESULT:    -5.046      2.777      7.644
REMARK INTER + INTRA:          -5.823
REMARK INTER:                  -5.972
REMARK INTRA:                   0.149
REMARK UNBOUND:                 0.108
REMARK SMILES CC1(C)CC[C@@]2(C(=O)[O-])CC[C@]3(C)C(=CC[C@@H]4[C@@]5(C)CC[C@@H](O)[C@](C)(CO)[C@H]5CC[C@@]43C)[C@@H]2C1
REMARK SMILES IDX 6 1 5 2 10 3 33 4 4 5 11 6 14 7 34 8 2 9 12 10 15 11 1 12
REMARK SMILES IDX 3 13 13 14 31 15 16 16 17 17 30 18 32 19 18 20 29 21 28 22
REMARK SMILES IDX 20 23 19 24 24 25 21 26 22 27 25 28 7 29 8 30 9 31 26 32
REMARK SMILES IDX 27 33 23 35
REMARK H PARENT 27 34 23 36
REMARK Flexibility Score: inf
ROOT
ATOM      1  C   UNL     1      -6.824 -61.891 -35.638  1.00  0.00     0.017 C 
ATOM      2  C   UNL     1      -6.663 -63.219 -34.859  1.00  0.00     0.014 C 
ATOM      3  C   UNL     1      -7.601 -60.886 -34.775  1.00  0.00     0.014 C 
ATOM      4  C   UNL     1      -5.411 -61.277 -35.854  1.00  0.00     0.028 C 
ATOM      5  C   UNL     1      -5.792 -64.226 -35.631  1.00  0.00     0.007 C 
ATOM      6  C   UNL     1      -7.907 -59.599 -35.551  1.00  0.00     0.013 C 
ATOM      7  C   UNL     1      -5.432 -59.812 -36.343  1.00  0.00    -0.064 C 
ATOM      8  C   UNL     1      -4.475 -62.254 -36.635  1.00  0.00     0.015 C 
ATOM      9  C   UNL     1      -4.386 -63.672 -35.989  1.00  0.00    -0.035 C 
ATOM     10  C   UNL     1      -6.704 -58.934 -36.353  1.00  0.00    -0.006 C 
ATOM     11  C   UNL     1      -4.249 -59.223 -36.594  1.00  0.00    -0.027 C 
ATOM     12  C   UNL     1      -3.726 -64.632 -37.002  1.00  0.00     0.011 C 
ATOM     13  C   UNL     1      -3.492 -63.637 -34.724  1.00  0.00     0.011 C 
ATOM     14  C   UNL     1      -7.125 -58.837 -37.853  1.00  0.00     0.017 C 
ATOM     15  C   UNL     1      -6.397 -57.455 -35.782  1.00  0.00    -0.020 C 
ATOM     16  C   UNL     1      -4.036 -57.763 -36.839  1.00  0.00     0.032 C 
ATOM     17  C   UNL     1      -5.218 -56.765 -36.584  1.00  0.00     0.006 C 
ATOM     18  C   UNL     1      -5.937 -57.539 -34.296  1.00  0.00     0.008 C 
ATOM     19  C   UNL     1      -7.717 -56.605 -35.904  1.00  0.00     0.012 C 
ATOM     20  C   UNL     1      -4.658 -55.366 -36.005  1.00  0.00    -0.025 C 
ATOM     21  C   UNL     1      -5.461 -56.206 -33.698  1.00  0.00     0.005 C 
ATOM     22  C   UNL     1      -4.296 -55.509 -34.471  1.00  0.00     0.006 C 
ATOM     23  C   UNL     1      -5.678 -54.195 -36.178  1.00  0.00     0.010 C 
ATOM     24  C   UNL     1      -3.417 -54.982 -36.887  1.00  0.00     0.012 C 
ATOM     25  C   UNL     1      -3.834 -54.146 -33.766  1.00  0.00     0.020 C 
ATOM     26  C   UNL     1      -5.225 -52.855 -35.572  1.00  0.00     0.033 C 
ATOM     27  C   UNL     1      -4.844 -52.973 -34.074  1.00  0.00     0.123 C 
ATOM     28  C   UNL     1      -3.771 -54.323 -32.215  1.00  0.00     0.017 C 
ENDROOT
BRANCH   1  29
ATOM     29  C   UNL     1      -7.628 -62.190 -36.906  1.00  0.00     0.048 C 
ATOM     30  O   UNL     1      -7.183 -61.933 -38.054  1.00  0.00    -0.550 OA
ATOM     31  O   UNL     1      -8.856 -62.837 -36.802  1.00  0.00    -0.550 OA
ENDBRANCH   1  29
BRANCH  25  32
ATOM     32  C   UNL     1      -2.346 -53.781 -34.174  1.00  0.00     0.165 C 
BRANCH  32  33
ATOM     33  O   UNL     1      -1.856 -52.622 -33.549  1.00  0.00    -0.396 OA
ATOM     34  H   UNL     1      -2.610 -51.979 -33.487  1.00  0.00     0.210 HD
ENDBRANCH  32  33
ENDBRANCH  25  32
BRANCH  27  35
ATOM     35  O   UNL     1      -5.985 -53.042 -33.238  1.00  0.00    -0.392 OA
ATOM     36  H   UNL     1      -6.023 -53.910 -32.762  1.00  0.00     0.210 HD
ENDBRANCH  27  35
TORSDOF 4
ENDMDL
MODEL 4
REMARK VINA RESULT:    -4.832      2.732      8.512
REMARK INTER + INTRA:          -5.572
REMARK INTER:                  -5.592
REMARK INTRA:                   0.021
REMARK UNBOUND:                 0.108
REMARK SMILES CC1(C)CC[C@@]2(C(=O)[O-])CC[C@]3(C)C(=CC[C@@H]4[C@@]5(C)CC[C@@H](O)[C@](C)(CO)[C@H]5CC[C@@]43C)[C@@H]2C1
REMARK SMILES IDX 6 1 5 2 10 3 33 4 4 5 11 6 14 7 34 8 2 9 12 10 15 11 1 12
REMARK SMILES IDX 3 13 13 14 31 15 16 16 17 17 30 18 32 19 18 20 29 21 28 22
REMARK SMILES IDX 20 23 19 24 24 25 21 26 22 27 25 28 7 29 8 30 9 31 26 32
REMARK SMILES IDX 27 33 23 35
REMARK H PARENT 27 34 23 36
REMARK Flexibility Score: inf
ROOT
ATOM      1  C   UNL     1      -3.170 -63.180 -35.210  1.00  0.00     0.017 C 
ATOM      2  C   UNL     1      -3.750 -64.502 -34.653  1.00  0.00     0.014 C 
ATOM      3  C   UNL     1      -4.283 -62.393 -35.916  1.00  0.00     0.014 C 
ATOM      4  C   UNL     1      -2.712 -62.302 -34.009  1.00  0.00     0.028 C 
ATOM      5  C   UNL     1      -2.703 -65.279 -33.835  1.00  0.00     0.007 C 
ATOM      6  C   UNL     1      -3.735 -61.138 -36.605  1.00  0.00     0.013 C 
ATOM      7  C   UNL     1      -2.397 -60.838 -34.387  1.00  0.00    -0.064 C 
ATOM      8  C   UNL     1      -1.646 -63.038 -33.136  1.00  0.00     0.015 C 
ATOM      9  C   UNL     1      -2.104 -64.453 -32.664  1.00  0.00    -0.035 C 
ATOM     10  C   UNL     1      -2.760 -60.212 -35.752  1.00  0.00    -0.006 C 
ATOM     11  C   UNL     1      -1.954 -60.026 -33.410  1.00  0.00    -0.027 C 
ATOM     12  C   UNL     1      -0.875 -65.208 -32.113  1.00  0.00     0.011 C 
ATOM     13  C   UNL     1      -3.136 -64.336 -31.516  1.00  0.00     0.011 C 
ATOM     14  C   UNL     1      -1.410 -60.099 -36.525  1.00  0.00     0.017 C 
ATOM     15  C   UNL     1      -3.402 -58.741 -35.567  1.00  0.00    -0.020 C 
ATOM     16  C   UNL     1      -1.822 -58.540 -33.504  1.00  0.00     0.032 C 
ATOM     17  C   UNL     1      -2.436 -57.795 -34.741  1.00  0.00     0.006 C 
ATOM     18  C   UNL     1      -4.732 -58.834 -34.761  1.00  0.00     0.008 C 
ATOM     19  C   UNL     1      -3.664 -58.144 -37.000  1.00  0.00     0.012 C 
ATOM     20  C   UNL     1      -3.021 -56.357 -34.299  1.00  0.00    -0.025 C 
ATOM     21  C   UNL     1      -5.347 -57.477 -34.384  1.00  0.00     0.005 C 
ATOM     22  C   UNL     1      -4.413 -56.529 -33.566  1.00  0.00     0.006 C 
ATOM     23  C   UNL     1      -3.201 -55.386 -35.509  1.00  0.00     0.010 C 
ATOM     24  C   UNL     1      -1.932 -55.695 -33.381  1.00  0.00     0.012 C 
ATOM     25  C   UNL     1      -5.138 -55.152 -33.182  1.00  0.00     0.020 C 
ATOM     26  C   UNL     1      -3.829 -54.027 -35.154  1.00  0.00     0.033 C 
ATOM     27  C   UNL     1      -5.186 -54.169 -34.415  1.00  0.00     0.123 C 
ATOM     28  C   UNL     1      -6.609 -55.413 -32.726  1.00  0.00     0.017 C 
ENDROOT
BRANCH   1  29
ATOM     29  C   UNL     1      -2.087 -63.541 -36.230  1.00  0.00     0.048 C 
ATOM     30  O   UNL     1      -0.875 -63.260 -36.044  1.00  0.00    -0.550 OA
ATOM     31  O   UNL     1      -2.430 -64.269 -37.364  1.00  0.00    -0.550 OA
ENDBRANCH   1  29
BRANCH  25  32
ATOM     32  C   UNL     1      -4.451 -54.493 -31.914  1.00  0.00     0.165 C 
BRANCH  32  33
ATOM     33  O   UNL     1      -4.605 -55.242 -30.735  1.00  0.00    -0.396 OA
ATOM     34  H   UNL     1      -3.841 -55.018 -30.141  1.00  0.00     0.210 HD
ENDBRANCH  32  33
ENDBRANCH  25  32
BRANCH  27  35
ATOM     35  O   UNL     1      -6.241 -54.501 -35.299  1.00  0.00    -0.392 OA
ATOM     36  H   UNL     1      -5.948 -54.429 -36.243  1.00  0.00     0.210 HD
ENDBRANCH  27  35
TORSDOF 4
ENDMDL
MODEL 5
REMARK VINA RESULT:    -4.585      2.061      7.841
REMARK INTER + INTRA:          -5.282
REMARK INTER:                  -5.282
REMARK INTRA:                   0.001
REMARK UNBOUND:                 0.108
REMARK SMILES CC1(C)CC[C@@]2(C(=O)[O-])CC[C@]3(C)C(=CC[C@@H]4[C@@]5(C)CC[C@@H](O)[C@](C)(CO)[C@H]5CC[C@@]43C)[C@@H]2C1
REMARK SMILES IDX 6 1 5 2 10 3 33 4 4 5 11 6 14 7 34 8 2 9 12 10 15 11 1 12
REMARK SMILES IDX 3 13 13 14 31 15 16 16 17 17 30 18 32 19 18 20 29 21 28 22
REMARK SMILES IDX 20 23 19 24 24 25 21 26 22 27 25 28 7 29 8 30 9 31 26 32
REMARK SMILES IDX 27 33 23 35
REMARK H PARENT 27 34 23 36
REMARK Flexibility Score: inf
ROOT
ATOM      1  C   UNL     1      -2.882 -62.206 -36.687  1.00  0.00     0.017 C 
ATOM      2  C   UNL     1      -3.128 -63.279 -37.775  1.00  0.00     0.014 C 
ATOM      3  C   UNL     1      -1.979 -61.102 -37.256  1.00  0.00     0.014 C 
ATOM      4  C   UNL     1      -4.242 -61.527 -36.353  1.00  0.00     0.028 C 
ATOM      5  C   UNL     1      -4.120 -64.353 -37.296  1.00  0.00     0.007 C 
ATOM      6  C   UNL     1      -1.593 -60.082 -36.178  1.00  0.00     0.013 C 
ATOM      7  C   UNL     1      -4.109 -60.237 -35.515  1.00  0.00    -0.064 C 
ATOM      8  C   UNL     1      -5.296 -62.569 -35.860  1.00  0.00     0.015 C 
ATOM      9  C   UNL     1      -5.485 -63.768 -36.841  1.00  0.00    -0.035 C 
ATOM     10  C   UNL     1      -2.765 -59.519 -35.260  1.00  0.00    -0.006 C 
ATOM     11  C   UNL     1      -5.245 -59.613 -35.150  1.00  0.00    -0.027 C 
ATOM     12  C   UNL     1      -6.274 -64.878 -36.112  1.00  0.00     0.011 C 
ATOM     13  C   UNL     1      -6.315 -63.336 -38.075  1.00  0.00     0.011 C 
ATOM     14  C   UNL     1      -2.404 -59.836 -33.775  1.00  0.00     0.017 C 
ATOM     15  C   UNL     1      -2.910 -57.922 -35.451  1.00  0.00    -0.020 C 
ATOM     16  C   UNL     1      -5.335 -58.246 -34.553  1.00  0.00     0.032 C 
ATOM     17  C   UNL     1      -4.057 -57.337 -34.527  1.00  0.00     0.006 C 
ATOM     18  C   UNL     1      -3.311 -57.592 -36.921  1.00  0.00     0.008 C 
ATOM     19  C   UNL     1      -1.526 -57.263 -35.094  1.00  0.00     0.012 C 
ATOM     20  C   UNL     1      -4.461 -55.790 -34.751  1.00  0.00    -0.025 C 
ATOM     21  C   UNL     1      -3.637 -56.113 -37.177  1.00  0.00     0.005 C 
ATOM     22  C   UNL     1      -4.766 -55.516 -36.280  1.00  0.00     0.006 C 
ATOM     23  C   UNL     1      -3.348 -54.805 -34.271  1.00  0.00     0.010 C 
ATOM     24  C   UNL     1      -5.701 -55.514 -33.827  1.00  0.00     0.012 C 
ATOM     25  C   UNL     1      -5.071 -53.981 -36.632  1.00  0.00     0.020 C 
ATOM     26  C   UNL     1      -3.650 -53.319 -34.533  1.00  0.00     0.033 C 
ATOM     27  C   UNL     1      -3.974 -53.027 -36.021  1.00  0.00     0.123 C 
ATOM     28  C   UNL     1      -5.081 -53.765 -38.179  1.00  0.00     0.017 C 
ENDROOT
BRANCH   1  29
ATOM     29  C   UNL     1      -2.165 -62.886 -35.517  1.00  0.00     0.048 C 
ATOM     30  O   UNL     1      -2.732 -63.083 -34.412  1.00  0.00    -0.550 OA
ATOM     31  O   UNL     1      -0.875 -63.374 -35.695  1.00  0.00    -0.550 OA
ENDBRANCH   1  29
BRANCH  25  32
ATOM     32  C   UNL     1      -6.536 -53.583 -36.176  1.00  0.00     0.165 C 
BRANCH  32  33
ATOM     33  O   UNL     1      -7.536 -54.434 -36.679  1.00  0.00    -0.396 OA
ATOM     34  H   UNL     1      -8.129 -54.673 -35.920  1.00  0.00     0.210 HD
ENDBRANCH  32  33
ENDBRANCH  25  32
BRANCH  27  35
ATOM     35  O   UNL     1      -2.808 -53.001 -36.824  1.00  0.00    -0.392 OA
ATOM     36  H   UNL     1      -2.272 -52.187 -36.644  1.00  0.00     0.210 HD
ENDBRANCH  27  35
TORSDOF 4
ENDMDL
MODEL 6
REMARK VINA RESULT:    -3.855      2.157      4.061
REMARK INTER + INTRA:          -4.423
REMARK INTER:                  -4.431
REMARK INTRA:                   0.007
REMARK UNBOUND:                 0.108
REMARK SMILES CC1(C)CC[C@@]2(C(=O)[O-])CC[C@]3(C)C(=CC[C@@H]4[C@@]5(C)CC[C@@H](O)[C@](C)(CO)[C@H]5CC[C@@]43C)[C@@H]2C1
REMARK SMILES IDX 6 1 5 2 10 3 33 4 4 5 11 6 14 7 34 8 2 9 12 10 15 11 1 12
REMARK SMILES IDX 3 13 13 14 31 15 16 16 17 17 30 18 32 19 18 20 29 21 28 22
REMARK SMILES IDX 20 23 19 24 24 25 21 26 22 27 25 28 7 29 8 30 9 31 26 32
REMARK SMILES IDX 27 33 23 35
REMARK H PARENT 27 34 23 36
REMARK Flexibility Score: inf
ROOT
ATOM      1  C   UNL     1      -5.161 -55.581 -34.667  1.00  0.00     0.017 C 
ATOM      2  C   UNL     1      -5.298 -54.626 -33.457  1.00  0.00     0.014 C 
ATOM      3  C   UNL     1      -3.710 -56.075 -34.765  1.00  0.00     0.014 C 
ATOM      4  C   UNL     1      -6.031 -56.843 -34.396  1.00  0.00     0.028 C 
ATOM      5  C   UNL     1      -6.758 -54.191 -33.243  1.00  0.00     0.007 C 
ATOM      6  C   UNL     1      -3.487 -56.918 -36.026  1.00  0.00     0.013 C 
ATOM      7  C   UNL     1      -5.758 -58.013 -35.366  1.00  0.00    -0.064 C 
ATOM      8  C   UNL     1      -7.530 -56.466 -34.169  1.00  0.00     0.015 C 
ATOM      9  C   UNL     1      -7.734 -55.385 -33.062  1.00  0.00    -0.035 C 
ATOM     10  C   UNL     1      -4.555 -58.056 -36.334  1.00  0.00    -0.006 C 
ATOM     11  C   UNL     1      -6.502 -59.126 -35.222  1.00  0.00    -0.027 C 
ATOM     12  C   UNL     1      -9.180 -54.852 -33.156  1.00  0.00     0.011 C 
ATOM     13  C   UNL     1      -7.554 -56.007 -31.655  1.00  0.00     0.011 C 
ATOM     14  C   UNL     1      -5.155 -57.780 -37.748  1.00  0.00     0.017 C 
ATOM     15  C   UNL     1      -3.848 -59.509 -36.322  1.00  0.00    -0.020 C 
ATOM     16  C   UNL     1      -6.243 -60.440 -35.886  1.00  0.00     0.032 C 
ATOM     17  C   UNL     1      -4.891 -60.656 -36.652  1.00  0.00     0.006 C 
ATOM     18  C   UNL     1      -3.280 -59.816 -34.905  1.00  0.00     0.008 C 
ATOM     19  C   UNL     1      -2.692 -59.493 -37.391  1.00  0.00     0.012 C 
ATOM     20  C   UNL     1      -4.383 -62.179 -36.480  1.00  0.00    -0.025 C 
ATOM     21  C   UNL     1      -2.728 -61.240 -34.733  1.00  0.00     0.005 C 
ATOM     22  C   UNL     1      -3.740 -62.387 -35.049  1.00  0.00     0.006 C 
ATOM     23  C   UNL     1      -3.342 -62.589 -37.569  1.00  0.00     0.010 C 
ATOM     24  C   UNL     1      -5.635 -63.096 -36.720  1.00  0.00     0.012 C 
ATOM     25  C   UNL     1      -3.101 -63.839 -34.811  1.00  0.00     0.020 C 
ATOM     26  C   UNL     1      -2.767 -64.007 -37.405  1.00  0.00     0.033 C 
ATOM     27  C   UNL     1      -2.149 -64.245 -36.002  1.00  0.00     0.123 C 
ATOM     28  C   UNL     1      -2.254 -63.858 -33.499  1.00  0.00     0.017 C 
ENDROOT
BRANCH   1  29
ATOM     29  C   UNL     1      -5.505 -54.786 -35.930  1.00  0.00     0.048 C 
ATOM     30  O   UNL     1      -6.548 -55.011 -36.596  1.00  0.00    -0.550 OA
ATOM     31  O   UNL     1      -4.688 -53.729 -36.317  1.00  0.00    -0.550 OA
ENDBRANCH   1  29
BRANCH  25  32
ATOM     32  C   UNL     1      -4.237 -64.915 -34.556  1.00  0.00     0.165 C 
BRANCH  32  33
ATOM     33  O   UNL     1      -5.047 -64.628 -33.444  1.00  0.00    -0.396 OA
ATOM     34  H   UNL     1      -4.487 -64.137 -32.789  1.00  0.00     0.210 HD
ENDBRANCH  32  33
ENDBRANCH  25  32
BRANCH  27  35
ATOM     35  O   UNL     1      -0.875 -63.641 -35.873  1.00  0.00    -0.392 OA
ATOM     36  H   UNL     1      -0.216 -64.074 -36.473  1.00  0.00     0.210 HD
ENDBRANCH  27  35
TORSDOF 4
ENDMDL
MODEL 7
REMARK VINA RESULT:    -2.899      2.447      5.219
REMARK INTER + INTRA:          -3.299
REMARK INTER:                  -3.363
REMARK INTRA:                   0.064
REMARK UNBOUND:                 0.108
REMARK SMILES CC1(C)CC[C@@]2(C(=O)[O-])CC[C@]3(C)C(=CC[C@@H]4[C@@]5(C)CC[C@@H](O)[C@](C)(CO)[C@H]5CC[C@@]43C)[C@@H]2C1
REMARK SMILES IDX 6 1 5 2 10 3 33 4 4 5 11 6 14 7 34 8 2 9 12 10 15 11 1 12
REMARK SMILES IDX 3 13 13 14 31 15 16 16 17 17 30 18 32 19 18 20 29 21 28 22
REMARK SMILES IDX 20 23 19 24 24 25 21 26 22 27 25 28 7 29 8 30 9 31 26 32
REMARK SMILES IDX 27 33 23 35
REMARK H PARENT 27 34 23 36
REMARK Flexibility Score: inf
ROOT
ATOM      1  C   UNL     1      -3.886 -55.116 -35.742  1.00  0.00     0.017 C 
ATOM      2  C   UNL     1      -2.591 -54.413 -35.270  1.00  0.00     0.014 C 
ATOM      3  C   UNL     1      -3.562 -56.040 -36.924  1.00  0.00     0.014 C 
ATOM      4  C   UNL     1      -4.388 -56.038 -34.593  1.00  0.00     0.028 C 
ATOM      5  C   UNL     1      -2.836 -53.560 -34.012  1.00  0.00     0.007 C 
ATOM      6  C   UNL     1      -4.833 -56.659 -37.518  1.00  0.00     0.013 C 
ATOM      7  C   UNL     1      -5.491 -57.031 -35.023  1.00  0.00    -0.064 C 
ATOM      8  C   UNL     1      -4.656 -55.230 -33.284  1.00  0.00     0.015 C 
ATOM      9  C   UNL     1      -3.435 -54.369 -32.830  1.00  0.00    -0.035 C 
ATOM     10  C   UNL     1      -5.875 -57.294 -36.496  1.00  0.00    -0.006 C 
ATOM     11  C   UNL     1      -6.007 -57.835 -34.075  1.00  0.00    -0.027 C 
ATOM     12  C   UNL     1      -3.911 -53.374 -31.749  1.00  0.00     0.011 C 
ATOM     13  C   UNL     1      -2.344 -55.266 -32.194  1.00  0.00     0.011 C 
ATOM     14  C   UNL     1      -7.244 -56.575 -36.699  1.00  0.00     0.017 C 
ATOM     15  C   UNL     1      -6.048 -58.875 -36.781  1.00  0.00    -0.020 C 
ATOM     16  C   UNL     1      -6.896 -59.012 -34.320  1.00  0.00     0.032 C 
ATOM     17  C   UNL     1      -7.101 -59.523 -35.789  1.00  0.00     0.006 C 
ATOM     18  C   UNL     1      -4.697 -59.613 -36.542  1.00  0.00     0.008 C 
ATOM     19  C   UNL     1      -6.518 -59.050 -38.273  1.00  0.00     0.012 C 
ATOM     20  C   UNL     1      -7.235 -61.131 -35.812  1.00  0.00    -0.025 C 
ATOM     21  C   UNL     1      -4.783 -61.145 -36.624  1.00  0.00     0.005 C 
ATOM     22  C   UNL     1      -5.812 -61.806 -35.653  1.00  0.00     0.006 C 
ATOM     23  C   UNL     1      -7.903 -61.657 -37.123  1.00  0.00     0.010 C 
ATOM     24  C   UNL     1      -8.220 -61.514 -34.650  1.00  0.00     0.012 C 
ATOM     25  C   UNL     1      -5.817 -63.405 -35.774  1.00  0.00     0.020 C 
ATOM     26  C   UNL     1      -7.985 -63.190 -37.230  1.00  0.00     0.033 C 
ATOM     27  C   UNL     1      -6.605 -63.878 -37.056  1.00  0.00     0.123 C 
ATOM     28  C   UNL     1      -4.358 -63.951 -35.886  1.00  0.00     0.017 C 
ENDROOT
BRANCH   1  29
ATOM     29  C   UNL     1      -4.862 -54.031 -36.206  1.00  0.00     0.048 C 
ATOM     30  O   UNL     1      -5.949 -53.813 -35.613  1.00  0.00    -0.550 OA
ATOM     31  O   UNL     1      -4.510 -53.203 -37.268  1.00  0.00    -0.550 OA
ENDBRANCH   1  29
BRANCH  25  32
ATOM     32  C   UNL     1      -6.377 -64.065 -34.446  1.00  0.00     0.165 C 
BRANCH  32  33
ATOM     33  O   UNL     1      -5.380 -64.632 -33.633  1.00  0.00    -0.396 OA
ATOM     34  H   UNL     1      -5.625 -64.440 -32.690  1.00  0.00     0.210 HD
ENDBRANCH  32  33
ENDBRANCH  25  32
BRANCH  27  35
ATOM     35  O   UNL     1      -5.808 -63.772 -38.221  1.00  0.00    -0.392 OA
ATOM     36  H   UNL     1      -6.235 -63.178 -38.890  1.00  0.00     0.210 HD
ENDBRANCH  27  35
TORSDOF 4
ENDMDL
