MODEL 1
REMARK VINA RESULT:    -3.802      0.000      0.000
REMARK INTER + INTRA:          -5.086
REMARK INTER:                  -4.913
REMARK INTRA:                  -0.173
REMARK UNBOUND:                -0.173
REMARK SMILES CCCCCCC(=O)[O-]
REMARK SMILES IDX 5 1 6 2 7 3 8 4 9 5 4 6 3 7 2 8 1 9
REMARK H PARENT
REMARK Flexibility Score: inf
ROOT
ATOM      1  C   UNL     1      27.012   5.279   9.808  1.00  0.00     0.006 C 
ENDROOT
BRANCH   1   2
ATOM      2  C   UNL     1      28.479   4.874   9.994  1.00  0.00     0.053 C 
BRANCH   2   3
ATOM      3  C   UNL     1      28.813   4.643  11.435  1.00  0.00     0.041 C 
ATOM      4  O   UNL     1      28.843   5.610  12.243  1.00  0.00    -0.550 OA
ATOM      5  O   UNL     1      29.125   3.365  11.882  1.00  0.00    -0.550 OA
ENDBRANCH   2   3
ENDBRANCH   1   2
BRANCH   1   6
ATOM      6  C   UNL     1      26.862   6.758   9.421  1.00  0.00     0.000 C 
BRANCH   6   7
ATOM      7  C   UNL     1      25.730   6.949   8.405  1.00  0.00    -0.000 C 
BRANCH   7   8
ATOM      8  C   UNL     1      26.185   7.824   7.232  1.00  0.00    -0.003 C 
ATOM      9  C   UNL     1      26.489   6.978   5.998  1.00  0.00     0.004 C 
ENDBRANCH   7   8
ENDBRANCH   6   7
ENDBRANCH   1   6
TORSDOF 5
ENDMDL
MODEL 2
REMARK VINA RESULT:    -3.704      3.189      5.051
REMARK INTER + INTRA:          -4.960
REMARK INTER:                  -4.759
REMARK INTRA:                  -0.201
REMARK UNBOUND:                -0.173
REMARK SMILES CCCCCCC(=O)[O-]
REMARK SMILES IDX 5 1 6 2 7 3 8 4 9 5 4 6 3 7 2 8 1 9
REMARK H PARENT
REMARK Flexibility Score: inf
ROOT
ATOM      1  C   UNL     1      25.602   6.395   9.489  1.00  0.00     0.006 C 
ENDROOT
BRANCH   1   2
ATOM      2  C   UNL     1      26.552   7.070   8.492  1.00  0.00     0.053 C 
BRANCH   2   3
ATOM      3  C   UNL     1      26.322   6.589   7.093  1.00  0.00     0.041 C 
ATOM      4  O   UNL     1      25.827   5.449   6.887  1.00  0.00    -0.550 OA
ATOM      5  O   UNL     1      26.686   7.385   6.014  1.00  0.00    -0.550 OA
ENDBRANCH   2   3
ENDBRANCH   1   2
BRANCH   1   6
ATOM      6  C   UNL     1      26.357   5.581  10.551  1.00  0.00     0.000 C 
BRANCH   6   7
ATOM      7  C   UNL     1      27.874   5.712  10.371  1.00  0.00    -0.000 C 
BRANCH   7   8
ATOM      8  C   UNL     1      28.618   5.282  11.640  1.00  0.00    -0.003 C 
ATOM      9  C   UNL     1      28.979   3.800  11.592  1.00  0.00     0.004 C 
ENDBRANCH   7   8
ENDBRANCH   6   7
ENDBRANCH   1   6
TORSDOF 5
ENDMDL
MODEL 3
REMARK VINA RESULT:    -3.683      3.257      5.091
REMARK INTER + INTRA:          -4.933
REMARK INTER:                  -4.715
REMARK INTRA:                  -0.218
REMARK UNBOUND:                -0.173
REMARK SMILES CCCCCCC(=O)[O-]
REMARK SMILES IDX 5 1 6 2 7 3 8 4 9 5 4 6 3 7 2 8 1 9
REMARK H PARENT
REMARK Flexibility Score: inf
ROOT
ATOM      1  C   UNL     1      26.347   4.600   8.569  1.00  0.00     0.006 C 
ENDROOT
BRANCH   1   2
ATOM      2  C   UNL     1      26.488   4.944   7.081  1.00  0.00     0.053 C 
BRANCH   2   3
ATOM      3  C   UNL     1      26.168   6.382   6.811  1.00  0.00     0.041 C 
ATOM      4  O   UNL     1      26.614   6.948   5.777  1.00  0.00    -0.550 OA
ATOM      5  O   UNL     1      25.406   7.108   7.717  1.00  0.00    -0.550 OA
ENDBRANCH   2   3
ENDBRANCH   1   2
BRANCH   1   6
ATOM      6  C   UNL     1      27.709   4.502   9.275  1.00  0.00     0.000 C 
BRANCH   6   7
ATOM      7  C   UNL     1      27.920   5.684  10.228  1.00  0.00    -0.000 C 
BRANCH   7   8
ATOM      8  C   UNL     1      28.640   5.237  11.506  1.00  0.00    -0.003 C 
ATOM      9  C   UNL     1      28.840   3.725  11.526  1.00  0.00     0.004 C 
ENDBRANCH   7   8
ENDBRANCH   6   7
ENDBRANCH   1   6
TORSDOF 5
ENDMDL
MODEL 4
REMARK VINA RESULT:    -3.633      0.910      1.475
REMARK INTER + INTRA:          -4.868
REMARK INTER:                  -4.615
REMARK INTRA:                  -0.253
REMARK UNBOUND:                -0.173
REMARK SMILES CCCCCCC(=O)[O-]
REMARK SMILES IDX 5 1 6 2 7 3 8 4 9 5 4 6 3 7 2 8 1 9
REMARK H PARENT
REMARK Flexibility Score: inf
ROOT
ATOM      1  C   UNL     1      26.547   4.817  10.065  1.00  0.00     0.006 C 
ENDROOT
BRANCH   1   2
ATOM      2  C   UNL     1      28.022   5.230  10.135  1.00  0.00     0.053 C 
BRANCH   2   3
ATOM      3  C   UNL     1      28.673   4.752  11.396  1.00  0.00     0.041 C 
ATOM      4  O   UNL     1      28.825   3.519  11.604  1.00  0.00    -0.550 OA
ATOM      5  O   UNL     1      29.082   5.667  12.359  1.00  0.00    -0.550 OA
ENDBRANCH   2   3
ENDBRANCH   1   2
BRANCH   1   6
ATOM      6  C   UNL     1      25.599   6.000  10.314  1.00  0.00     0.000 C 
BRANCH   6   7
ATOM      7  C   UNL     1      25.113   6.603   8.991  1.00  0.00    -0.000 C 
BRANCH   7   8
ATOM      8  C   UNL     1      25.875   7.892   8.661  1.00  0.00    -0.003 C 
ATOM      9  C   UNL     1      26.615   7.770   7.332  1.00  0.00     0.004 C 
ENDBRANCH   7   8
ENDBRANCH   6   7
ENDBRANCH   1   6
TORSDOF 5
ENDMDL
MODEL 5
REMARK VINA RESULT:    -3.617      3.210      4.811
REMARK INTER + INTRA:          -4.847
REMARK INTER:                  -4.650
REMARK INTRA:                  -0.197
REMARK UNBOUND:                -0.173
REMARK SMILES CCCCCCC(=O)[O-]
REMARK SMILES IDX 5 1 6 2 7 3 8 4 9 5 4 6 3 7 2 8 1 9
REMARK H PARENT
REMARK Flexibility Score: inf
ROOT
ATOM      1  C   UNL     1      27.167   3.575   9.293  1.00  0.00     0.006 C 
ENDROOT
BRANCH   1   2
ATOM      2  C   UNL     1      28.151   3.769  10.453  1.00  0.00     0.053 C 
BRANCH   2   3
ATOM      3  C   UNL     1      28.242   5.205  10.869  1.00  0.00     0.041 C 
ATOM      4  O   UNL     1      28.739   5.512  11.985  1.00  0.00    -0.550 OA
ATOM      5  O   UNL     1      27.749   6.204  10.039  1.00  0.00    -0.550 OA
ENDBRANCH   2   3
ENDBRANCH   1   2
BRANCH   1   6
ATOM      6  C   UNL     1      27.784   2.778   8.134  1.00  0.00     0.000 C 
BRANCH   6   7
ATOM      7  C   UNL     1      27.324   1.316   8.165  1.00  0.00    -0.000 C 
BRANCH   7   8
ATOM      8  C   UNL     1      28.457   0.392   8.627  1.00  0.00    -0.003 C 
ATOM      9  C   UNL     1      27.911  -0.809   9.394  1.00  0.00     0.004 C 
ENDBRANCH   7   8
ENDBRANCH   6   7
ENDBRANCH   1   6
TORSDOF 5
ENDMDL
MODEL 6
REMARK VINA RESULT:    -3.607      3.663      4.995
REMARK INTER + INTRA:          -4.834
REMARK INTER:                  -4.594
REMARK INTRA:                  -0.240
REMARK UNBOUND:                -0.173
REMARK SMILES CCCCCCC(=O)[O-]
REMARK SMILES IDX 5 1 6 2 7 3 8 4 9 5 4 6 3 7 2 8 1 9
REMARK H PARENT
REMARK Flexibility Score: inf
ROOT
ATOM      1  C   UNL     1      27.324   1.958   8.432  1.00  0.00     0.006 C 
ENDROOT
BRANCH   1   2
ATOM      2  C   UNL     1      28.339   0.813   8.327  1.00  0.00     0.053 C 
BRANCH   2   3
ATOM      3  C   UNL     1      28.357  -0.030   9.564  1.00  0.00     0.041 C 
ATOM      4  O   UNL     1      28.827   0.430  10.639  1.00  0.00    -0.550 OA
ATOM      5  O   UNL     1      27.884  -1.335   9.524  1.00  0.00    -0.550 OA
ENDBRANCH   2   3
ENDBRANCH   1   2
BRANCH   1   6
ATOM      6  C   UNL     1      27.992   3.297   8.781  1.00  0.00     0.000 C 
BRANCH   6   7
ATOM      7  C   UNL     1      27.543   3.793  10.161  1.00  0.00    -0.000 C 
BRANCH   7   8
ATOM      8  C   UNL     1      28.738   3.931  11.111  1.00  0.00    -0.003 C 
ATOM      9  C   UNL     1      28.756   5.302  11.779  1.00  0.00     0.004 C 
ENDBRANCH   7   8
ENDBRANCH   6   7
ENDBRANCH   1   6
TORSDOF 5
ENDMDL
MODEL 7
REMARK VINA RESULT:    -3.571      3.083      4.562
REMARK INTER + INTRA:          -4.787
REMARK INTER:                  -4.493
REMARK INTRA:                  -0.294
REMARK UNBOUND:                -0.173
REMARK SMILES CCCCCCC(=O)[O-]
REMARK SMILES IDX 5 1 6 2 7 3 8 4 9 5 4 6 3 7 2 8 1 9
REMARK H PARENT
REMARK Flexibility Score: inf
ROOT
ATOM      1  C   UNL     1      25.899   4.301   9.319  1.00  0.00     0.006 C 
ENDROOT
BRANCH   1   2
ATOM      2  C   UNL     1      26.848   4.516   8.133  1.00  0.00     0.053 C 
BRANCH   2   3
ATOM      3  C   UNL     1      27.076   3.250   7.367  1.00  0.00     0.041 C 
ATOM      4  O   UNL     1      26.491   3.059   6.268  1.00  0.00    -0.550 OA
ATOM      5  O   UNL     1      27.908   2.264   7.883  1.00  0.00    -0.550 OA
ENDBRANCH   2   3
ENDBRANCH   1   2
BRANCH   1   6
ATOM      6  C   UNL     1      26.325   5.103  10.558  1.00  0.00     0.000 C 
BRANCH   6   7
ATOM      7  C   UNL     1      27.718   5.713  10.366  1.00  0.00    -0.000 C 
BRANCH   7   8
ATOM      8  C   UNL     1      28.663   5.295  11.498  1.00  0.00    -0.003 C 
ATOM      9  C   UNL     1      28.868   3.783  11.515  1.00  0.00     0.004 C 
ENDBRANCH   7   8
ENDBRANCH   6   7
ENDBRANCH   1   6
TORSDOF 5
ENDMDL
MODEL 8
REMARK VINA RESULT:    -3.541      9.860     10.432
REMARK INTER + INTRA:          -4.749
REMARK INTER:                  -4.540
REMARK INTRA:                  -0.210
REMARK UNBOUND:                -0.173
REMARK SMILES CCCCCCC(=O)[O-]
REMARK SMILES IDX 5 1 6 2 7 3 8 4 9 5 4 6 3 7 2 8 1 9
REMARK H PARENT
REMARK Flexibility Score: inf
ROOT
ATOM      1  C   UNL     1      24.138   2.476  17.474  1.00  0.00     0.006 C 
ENDROOT
BRANCH   1   2
ATOM      2  C   UNL     1      25.142   1.373  17.832  1.00  0.00     0.053 C 
BRANCH   2   3
ATOM      3  C   UNL     1      24.496   0.261  18.598  1.00  0.00     0.041 C 
ATOM      4  O   UNL     1      23.484   0.487  19.314  1.00  0.00    -0.550 OA
ATOM      5  O   UNL     1      25.030  -1.021  18.549  1.00  0.00    -0.550 OA
ENDBRANCH   2   3
ENDBRANCH   1   2
BRANCH   1   6
ATOM      6  C   UNL     1      24.528   3.835  18.075  1.00  0.00     0.000 C 
BRANCH   6   7
ATOM      7  C   UNL     1      23.838   4.057  19.426  1.00  0.00    -0.000 C 
BRANCH   7   8
ATOM      8  C   UNL     1      22.786   5.168  19.330  1.00  0.00    -0.003 C 
ATOM      9  C   UNL     1      22.783   5.806  17.944  1.00  0.00     0.004 C 
ENDBRANCH   7   8
ENDBRANCH   6   7
ENDBRANCH   1   6
TORSDOF 5
ENDMDL
MODEL 9
REMARK VINA RESULT:    -3.541      9.566     10.302
REMARK INTER + INTRA:          -4.749
REMARK INTER:                  -4.537
REMARK INTRA:                  -0.211
REMARK UNBOUND:                -0.173
REMARK SMILES CCCCCCC(=O)[O-]
REMARK SMILES IDX 5 1 6 2 7 3 8 4 9 5 4 6 3 7 2 8 1 9
REMARK H PARENT
REMARK Flexibility Score: inf
ROOT
ATOM      1  C   UNL     1      24.298   2.341  17.377  1.00  0.00     0.006 C 
ENDROOT
BRANCH   1   2
ATOM      2  C   UNL     1      25.251   1.239  17.858  1.00  0.00     0.053 C 
BRANCH   2   3
ATOM      3  C   UNL     1      24.526   0.175  18.623  1.00  0.00     0.041 C 
ATOM      4  O   UNL     1      24.935  -1.017  18.595  1.00  0.00    -0.550 OA
ATOM      5  O   UNL     1      23.380   0.490  19.342  1.00  0.00    -0.550 OA
ENDBRANCH   2   3
ENDBRANCH   1   2
BRANCH   1   6
ATOM      6  C   UNL     1      24.671   3.720  17.942  1.00  0.00     0.000 C 
BRANCH   6   7
ATOM      7  C   UNL     1      23.796   4.074  19.149  1.00  0.00    -0.000 C 
BRANCH   7   8
ATOM      8  C   UNL     1      22.798   5.184  18.799  1.00  0.00    -0.003 C 
ATOM      9  C   UNL     1      23.102   5.786  17.430  1.00  0.00     0.004 C 
ENDBRANCH   7   8
ENDBRANCH   6   7
ENDBRANCH   1   6
TORSDOF 5
ENDMDL
