MODEL 1
REMARK VINA RESULT:    -2.946      0.000      0.000
REMARK INTER + INTRA:          -3.817
REMARK INTER:                  -3.721
REMARK INTRA:                  -0.097
REMARK UNBOUND:                -0.097
REMARK SMILES CCCCCCO
REMARK SMILES IDX 4 1 3 2 2 3 1 4 5 5 6 6 7 7
REMARK H PARENT 7 8
REMARK Flexibility Score: inf
ROOT
ATOM      1  C   UNL     1     127.259 142.501 106.667  1.00  0.00     0.002 C 
ENDROOT
BRANCH   1   2
ATOM      2  C   UNL     1     127.687 143.360 105.468  1.00  0.00    -0.000 C 
BRANCH   2   3
ATOM      3  C   UNL     1     127.761 144.842 105.854  1.00  0.00    -0.003 C 
ATOM      4  C   UNL     1     126.883 145.694 104.943  1.00  0.00     0.004 C 
ENDBRANCH   2   3
ENDBRANCH   1   2
BRANCH   1   5
ATOM      5  C   UNL     1     127.590 143.158 108.016  1.00  0.00     0.028 C 
BRANCH   5   6
ATOM      6  C   UNL     1     128.004 142.140 109.085  1.00  0.00     0.156 C 
BRANCH   6   7
ATOM      7  O   UNL     1     127.233 142.317 110.243  1.00  0.00    -0.396 OA
ATOM      8  H   UNL     1     127.580 143.131 110.694  1.00  0.00     0.210 HD
ENDBRANCH   6   7
ENDBRANCH   5   6
ENDBRANCH   1   5
TORSDOF 5
ENDMDL
MODEL 2
REMARK VINA RESULT:    -2.933      2.733      3.202
REMARK INTER + INTRA:          -3.801
REMARK INTER:                  -3.683
REMARK INTRA:                  -0.118
REMARK UNBOUND:                -0.097
REMARK SMILES CCCCCCO
REMARK SMILES IDX 4 1 3 2 2 3 1 4 5 5 6 6 7 7
REMARK H PARENT 7 8
REMARK Flexibility Score: inf
ROOT
ATOM      1  C   UNL     1     127.146 145.232 107.199  1.00  0.00     0.002 C 
ENDROOT
BRANCH   1   2
ATOM      2  C   UNL     1     126.875 146.049 105.926  1.00  0.00    -0.000 C 
BRANCH   2   3
ATOM      3  C   UNL     1     127.263 145.257 104.673  1.00  0.00    -0.003 C 
ATOM      4  C   UNL     1     127.748 143.856 105.033  1.00  0.00     0.004 C 
ENDBRANCH   2   3
ENDBRANCH   1   2
BRANCH   1   5
ATOM      5  C   UNL     1     127.400 146.117 108.428  1.00  0.00     0.028 C 
BRANCH   5   6
ATOM      6  C   UNL     1     128.803 145.925 109.017  1.00  0.00     0.156 C 
BRANCH   6   7
ATOM      7  O   UNL     1     129.775 146.149 108.031  1.00  0.00    -0.396 OA
ATOM      8  H   UNL     1     129.295 146.496 107.233  1.00  0.00     0.210 HD
ENDBRANCH   6   7
ENDBRANCH   5   6
ENDBRANCH   1   5
TORSDOF 5
ENDMDL
MODEL 3
REMARK VINA RESULT:    -2.901      1.111      1.661
REMARK INTER + INTRA:          -3.760
REMARK INTER:                  -3.684
REMARK INTRA:                  -0.076
REMARK UNBOUND:                -0.097
REMARK SMILES CCCCCCO
REMARK SMILES IDX 4 1 3 2 2 3 1 4 5 5 6 6 7 7
REMARK H PARENT 7 8
REMARK Flexibility Score: inf
ROOT
ATOM      1  C   UNL     1     127.307 144.218 107.558  1.00  0.00     0.002 C 
ENDROOT
BRANCH   1   2
ATOM      2  C   UNL     1     127.011 145.543 106.838  1.00  0.00    -0.000 C 
BRANCH   2   3
ATOM      3  C   UNL     1     127.294 145.426 105.337  1.00  0.00    -0.003 C 
ATOM      4  C   UNL     1     127.660 143.995 104.954  1.00  0.00     0.004 C 
ENDBRANCH   2   3
ENDBRANCH   1   2
BRANCH   1   5
ATOM      5  C   UNL     1     127.645 144.415 109.044  1.00  0.00     0.028 C 
BRANCH   5   6
ATOM      6  C   UNL     1     128.118 143.122 109.720  1.00  0.00     0.156 C 
BRANCH   6   7
ATOM      7  O   UNL     1     127.067 142.545 110.448  1.00  0.00    -0.396 OA
ATOM      8  H   UNL     1     127.341 142.560 111.403  1.00  0.00     0.210 HD
ENDBRANCH   6   7
ENDBRANCH   5   6
ENDBRANCH   1   5
TORSDOF 5
ENDMDL
MODEL 4
REMARK VINA RESULT:    -2.895      1.812      1.960
REMARK INTER + INTRA:          -3.753
REMARK INTER:                  -3.676
REMARK INTRA:                  -0.077
REMARK UNBOUND:                -0.097
REMARK SMILES CCCCCCO
REMARK SMILES IDX 4 1 3 2 2 3 1 4 5 5 6 6 7 7
REMARK H PARENT 7 8
REMARK Flexibility Score: inf
ROOT
ATOM      1  C   UNL     1     127.303 142.967 106.140  1.00  0.00     0.002 C 
ENDROOT
BRANCH   1   2
ATOM      2  C   UNL     1     127.712 143.751 104.883  1.00  0.00    -0.000 C 
BRANCH   2   3
ATOM      3  C   UNL     1     127.353 145.235 105.021  1.00  0.00    -0.003 C 
ATOM      4  C   UNL     1     126.991 145.583 106.462  1.00  0.00     0.004 C 
ENDBRANCH   2   3
ENDBRANCH   1   2
BRANCH   1   5
ATOM      5  C   UNL     1     128.028 141.618 106.258  1.00  0.00     0.028 C 
BRANCH   5   6
ATOM      6  C   UNL     1     127.864 140.976 107.641  1.00  0.00     0.156 C 
BRANCH   6   7
ATOM      7  O   UNL     1     127.052 139.836 107.550  1.00  0.00    -0.396 OA
ATOM      8  H   UNL     1     126.179 140.077 107.957  1.00  0.00     0.210 HD
ENDBRANCH   6   7
ENDBRANCH   5   6
ENDBRANCH   1   5
TORSDOF 5
ENDMDL
MODEL 5
REMARK VINA RESULT:    -2.797     17.315     17.553
REMARK INTER + INTRA:          -3.630
REMARK INTER:                  -3.540
REMARK INTRA:                  -0.089
REMARK UNBOUND:                -0.097
REMARK SMILES CCCCCCO
REMARK SMILES IDX 4 1 3 2 2 3 1 4 5 5 6 6 7 7
REMARK H PARENT 7 8
REMARK Flexibility Score: inf
ROOT
ATOM      1  C   UNL     1     144.775 142.215 105.043  1.00  0.00     0.002 C 
ENDROOT
BRANCH   1   2
ATOM      2  C   UNL     1     144.232 143.186 106.101  1.00  0.00    -0.000 C 
BRANCH   2   3
ATOM      3  C   UNL     1     144.765 144.604 105.870  1.00  0.00    -0.003 C 
ATOM      4  C   UNL     1     143.679 145.649 106.108  1.00  0.00     0.004 C 
ENDBRANCH   2   3
ENDBRANCH   1   2
BRANCH   1   5
ATOM      5  C   UNL     1     145.413 140.961 105.661  1.00  0.00     0.028 C 
BRANCH   5   6
ATOM      6  C   UNL     1     145.144 140.840 107.166  1.00  0.00     0.156 C 
BRANCH   6   7
ATOM      7  O   UNL     1     146.353 140.859 107.875  1.00  0.00    -0.396 OA
ATOM      8  H   UNL     1     146.501 141.799 108.159  1.00  0.00     0.210 HD
ENDBRANCH   6   7
ENDBRANCH   5   6
ENDBRANCH   1   5
TORSDOF 5
ENDMDL
MODEL 6
REMARK VINA RESULT:    -2.781      2.756      3.114
REMARK INTER + INTRA:          -3.609
REMARK INTER:                  -3.466
REMARK INTRA:                  -0.143
REMARK UNBOUND:                -0.097
REMARK SMILES CCCCCCO
REMARK SMILES IDX 4 1 3 2 2 3 1 4 5 5 6 6 7 7
REMARK H PARENT 7 8
REMARK Flexibility Score: inf
ROOT
ATOM      1  C   UNL     1     129.564 145.445 106.005  1.00  0.00     0.002 C 
ENDROOT
BRANCH   1   2
ATOM      2  C   UNL     1     129.007 144.045 105.708  1.00  0.00    -0.000 C 
BRANCH   2   3
ATOM      3  C   UNL     1     127.646 144.133 105.008  1.00  0.00    -0.003 C 
ATOM      4  C   UNL     1     127.092 145.553 105.055  1.00  0.00     0.004 C 
ENDBRANCH   2   3
ENDBRANCH   1   2
BRANCH   1   5
ATOM      5  C   UNL     1     130.106 145.575 107.437  1.00  0.00     0.028 C 
BRANCH   5   6
ATOM      6  C   UNL     1     128.992 145.691 108.485  1.00  0.00     0.156 C 
BRANCH   6   7
ATOM      7  O   UNL     1     129.365 146.597 109.488  1.00  0.00    -0.396 OA
ATOM      8  H   UNL     1     130.252 146.300 109.823  1.00  0.00     0.210 HD
ENDBRANCH   6   7
ENDBRANCH   5   6
ENDBRANCH   1   5
TORSDOF 5
ENDMDL
MODEL 7
REMARK VINA RESULT:    -2.758     17.334     17.680
REMARK INTER + INTRA:          -3.580
REMARK INTER:                  -3.446
REMARK INTRA:                  -0.134
REMARK UNBOUND:                -0.097
REMARK SMILES CCCCCCO
REMARK SMILES IDX 4 1 3 2 2 3 1 4 5 5 6 6 7 7
REMARK H PARENT 7 8
REMARK Flexibility Score: inf
ROOT
ATOM      1  C   UNL     1     144.476 144.049 105.821  1.00  0.00     0.002 C 
ENDROOT
BRANCH   1   2
ATOM      2  C   UNL     1     143.948 142.649 105.472  1.00  0.00    -0.000 C 
BRANCH   2   3
ATOM      3  C   UNL     1     145.039 141.800 104.811  1.00  0.00    -0.003 C 
ATOM      4  C   UNL     1     145.484 140.664 105.727  1.00  0.00     0.004 C 
ENDBRANCH   2   3
ENDBRANCH   1   2
BRANCH   1   5
ATOM      5  C   UNL     1     144.334 144.380 107.314  1.00  0.00     0.028 C 
BRANCH   5   6
ATOM      6  C   UNL     1     145.055 143.371 108.217  1.00  0.00     0.156 C 
BRANCH   6   7
ATOM      7  O   UNL     1     146.272 143.906 108.662  1.00  0.00    -0.396 OA
ATOM      8  H   UNL     1     146.363 143.649 109.617  1.00  0.00     0.210 HD
ENDBRANCH   6   7
ENDBRANCH   5   6
ENDBRANCH   1   5
TORSDOF 5
ENDMDL
MODEL 8
REMARK VINA RESULT:    -2.685      3.142      4.012
REMARK INTER + INTRA:          -3.488
REMARK INTER:                  -3.398
REMARK INTRA:                  -0.090
REMARK UNBOUND:                -0.097
REMARK SMILES CCCCCCO
REMARK SMILES IDX 4 1 3 2 2 3 1 4 5 5 6 6 7 7
REMARK H PARENT 7 8
REMARK Flexibility Score: inf
ROOT
ATOM      1  C   UNL     1     129.792 144.973 106.095  1.00  0.00     0.002 C 
ENDROOT
BRANCH   1   2
ATOM      2  C   UNL     1     128.429 145.598 105.760  1.00  0.00    -0.000 C 
BRANCH   2   3
ATOM      3  C   UNL     1     127.573 144.637 104.930  1.00  0.00    -0.003 C 
ATOM      4  C   UNL     1     127.637 143.218 105.488  1.00  0.00     0.004 C 
ENDBRANCH   2   3
ENDBRANCH   1   2
BRANCH   1   5
ATOM      5  C   UNL     1     130.929 146.005 106.115  1.00  0.00     0.028 C 
BRANCH   5   6
ATOM      6  C   UNL     1     131.726 145.984 107.425  1.00  0.00     0.156 C 
BRANCH   6   7
ATOM      7  O   UNL     1     130.882 146.275 108.507  1.00  0.00    -0.396 OA
ATOM      8  H   UNL     1     130.145 146.836 108.150  1.00  0.00     0.210 HD
ENDBRANCH   6   7
ENDBRANCH   5   6
ENDBRANCH   1   5
TORSDOF 5
ENDMDL
