MODEL 1
REMARK VINA RESULT:    -3.884      0.000      0.000
REMARK INTER + INTRA:          -5.769
REMARK INTER:                  -5.246
REMARK INTRA:                  -0.523
REMARK UNBOUND:                -0.523
REMARK SMILES CCCCCCCC(=O)[O-]
REMARK SMILES IDX 5 1 6 2 7 3 8 4 9 5 10 6 4 7 3 8 2 9 1 10
REMARK H PARENT
REMARK Flexibility Score: inf
ROOT
ATOM      1  C   UNL     1       1.076  56.169  16.730  1.00  0.00     0.000 C 
ENDROOT
BRANCH   1   2
ATOM      2  C   UNL     1       1.303  56.894  18.065  1.00  0.00     0.006 C 
BRANCH   2   3
ATOM      3  C   UNL     1       1.757  55.947  19.182  1.00  0.00     0.053 C 
BRANCH   3   4
ATOM      4  C   UNL     1       0.594  55.549  20.035  1.00  0.00     0.041 C 
ATOM      5  O   UNL     1       0.743  54.702  20.954  1.00  0.00    -0.550 OA
ATOM      6  O   UNL     1      -0.666  56.077  19.783  1.00  0.00    -0.550 OA
ENDBRANCH   3   4
ENDBRANCH   2   3
ENDBRANCH   1   2
BRANCH   1   7
ATOM      7  C   UNL     1       1.952  54.910  16.586  1.00  0.00     0.000 C 
BRANCH   7   8
ATOM      8  C   UNL     1       3.197  55.154  15.718  1.00  0.00    -0.000 C 
BRANCH   8   9
ATOM      9  C   UNL     1       4.497  55.130  16.533  1.00  0.00    -0.003 C 
ATOM     10  C   UNL     1       4.998  56.546  16.808  1.00  0.00     0.004 C 
ENDBRANCH   8   9
ENDBRANCH   7   8
ENDBRANCH   1   7
TORSDOF 6
ENDMDL
MODEL 2
REMARK VINA RESULT:    -3.861      2.735      4.239
REMARK INTER + INTRA:          -5.738
REMARK INTER:                  -5.164
REMARK INTRA:                  -0.574
REMARK UNBOUND:                -0.523
REMARK SMILES CCCCCCCC(=O)[O-]
REMARK SMILES IDX 5 1 6 2 7 3 8 4 9 5 10 6 4 7 3 8 2 9 1 10
REMARK H PARENT
REMARK Flexibility Score: inf
ROOT
ATOM      1  C   UNL     1      -0.152  55.753  17.871  1.00  0.00     0.000 C 
ENDROOT
BRANCH   1   2
ATOM      2  C   UNL     1       0.891  56.398  16.947  1.00  0.00     0.006 C 
BRANCH   2   3
ATOM      3  C   UNL     1       1.953  55.400  16.468  1.00  0.00     0.053 C 
BRANCH   3   4
ATOM      4  C   UNL     1       3.323  55.882  16.825  1.00  0.00     0.041 C 
ATOM      5  O   UNL     1       3.492  56.622  17.830  1.00  0.00    -0.550 OA
ATOM      6  O   UNL     1       4.407  55.556  16.020  1.00  0.00    -0.550 OA
ENDBRANCH   3   4
ENDBRANCH   2   3
ENDBRANCH   1   2
BRANCH   1   7
ATOM      7  C   UNL     1       0.012  56.186  19.340  1.00  0.00     0.000 C 
BRANCH   7   8
ATOM      8  C   UNL     1       0.460  55.030  20.249  1.00  0.00    -0.000 C 
BRANCH   8   9
ATOM      9  C   UNL     1       1.944  55.124  20.632  1.00  0.00    -0.003 C 
ATOM     10  C   UNL     1       2.701  53.869  20.205  1.00  0.00     0.004 C 
ENDBRANCH   8   9
ENDBRANCH   7   8
ENDBRANCH   1   7
TORSDOF 6
ENDMDL
MODEL 3
REMARK VINA RESULT:    -3.843      1.554      2.595
REMARK INTER + INTRA:          -5.713
REMARK INTER:                  -5.032
REMARK INTRA:                  -0.681
REMARK UNBOUND:                -0.523
REMARK SMILES CCCCCCCC(=O)[O-]
REMARK SMILES IDX 5 1 6 2 7 3 8 4 9 5 10 6 4 7 3 8 2 9 1 10
REMARK H PARENT
REMARK Flexibility Score: inf
ROOT
ATOM      1  C   UNL     1       1.584  53.958  16.874  1.00  0.00     0.000 C 
ENDROOT
BRANCH   1   2
ATOM      2  C   UNL     1       0.681  53.849  18.112  1.00  0.00     0.006 C 
BRANCH   2   3
ATOM      3  C   UNL     1       1.474  53.612  19.403  1.00  0.00     0.053 C 
BRANCH   3   4
ATOM      4  C   UNL     1       1.219  54.712  20.383  1.00  0.00     0.041 C 
ATOM      5  O   UNL     1       0.107  55.301  20.399  1.00  0.00    -0.550 OA
ATOM      6  O   UNL     1       2.227  55.121  21.248  1.00  0.00    -0.550 OA
ENDBRANCH   3   4
ENDBRANCH   2   3
ENDBRANCH   1   2
BRANCH   1   7
ATOM      7  C   UNL     1       1.950  55.414  16.536  1.00  0.00     0.000 C 
BRANCH   7   8
ATOM      8  C   UNL     1       0.863  56.412  16.967  1.00  0.00    -0.000 C 
BRANCH   8   9
ATOM      9  C   UNL     1       1.409  57.522  17.876  1.00  0.00    -0.003 C 
ATOM     10  C   UNL     1       2.846  57.229  18.298  1.00  0.00     0.004 C 
ENDBRANCH   8   9
ENDBRANCH   7   8
ENDBRANCH   1   7
TORSDOF 6
ENDMDL
MODEL 4
REMARK VINA RESULT:    -3.783      3.163      4.673
REMARK INTER + INTRA:          -5.633
REMARK INTER:                  -5.181
REMARK INTRA:                  -0.452
REMARK UNBOUND:                -0.523
REMARK SMILES CCCCCCCC(=O)[O-]
REMARK SMILES IDX 5 1 6 2 7 3 8 4 9 5 10 6 4 7 3 8 2 9 1 10
REMARK H PARENT
REMARK Flexibility Score: inf
ROOT
ATOM      1  C   UNL     1       1.521  57.506  17.997  1.00  0.00     0.000 C 
ENDROOT
BRANCH   1   2
ATOM      2  C   UNL     1       3.041  57.369  18.179  1.00  0.00     0.006 C 
BRANCH   2   3
ATOM      3  C   UNL     1       3.551  55.962  17.847  1.00  0.00     0.053 C 
BRANCH   3   4
ATOM      4  C   UNL     1       4.468  56.003  16.667  1.00  0.00     0.041 C 
ATOM      5  O   UNL     1       4.236  55.287  15.658  1.00  0.00    -0.550 OA
ATOM      6  O   UNL     1       5.610  56.794  16.701  1.00  0.00    -0.550 OA
ENDBRANCH   3   4
ENDBRANCH   2   3
ENDBRANCH   1   2
BRANCH   1   7
ATOM      7  C   UNL     1       0.908  56.316  17.237  1.00  0.00     0.000 C 
BRANCH   7   8
ATOM      8  C   UNL     1      -0.158  55.575  18.060  1.00  0.00    -0.000 C 
BRANCH   8   9
ATOM      9  C   UNL     1      -0.211  56.050  19.519  1.00  0.00    -0.003 C 
ATOM     10  C   UNL     1       0.327  54.979  20.464  1.00  0.00     0.004 C 
ENDBRANCH   8   9
ENDBRANCH   7   8
ENDBRANCH   1   7
TORSDOF 6
ENDMDL
MODEL 5
REMARK VINA RESULT:    -3.783      2.744      4.519
REMARK INTER + INTRA:          -5.632
REMARK INTER:                  -5.202
REMARK INTRA:                  -0.430
REMARK UNBOUND:                -0.523
REMARK SMILES CCCCCCCC(=O)[O-]
REMARK SMILES IDX 5 1 6 2 7 3 8 4 9 5 10 6 4 7 3 8 2 9 1 10
REMARK H PARENT
REMARK Flexibility Score: inf
ROOT
ATOM      1  C   UNL     1       0.839  56.193  17.222  1.00  0.00     0.000 C 
ENDROOT
BRANCH   1   2
ATOM      2  C   UNL     1       1.589  54.910  16.833  1.00  0.00     0.006 C 
BRANCH   2   3
ATOM      3  C   UNL     1       2.676  55.159  15.780  1.00  0.00     0.053 C 
BRANCH   3   4
ATOM      4  C   UNL     1       4.031  55.142  16.413  1.00  0.00     0.041 C 
ATOM      5  O   UNL     1       4.446  54.106  16.995  1.00  0.00    -0.550 OA
ATOM      6  O   UNL     1       4.817  56.289  16.405  1.00  0.00    -0.550 OA
ENDBRANCH   3   4
ENDBRANCH   2   3
ENDBRANCH   1   2
BRANCH   1   7
ATOM      7  C   UNL     1       0.776  56.400  18.747  1.00  0.00     0.000 C 
BRANCH   7   8
ATOM      8  C   UNL     1       2.078  55.989  19.453  1.00  0.00    -0.000 C 
BRANCH   8   9
ATOM      9  C   UNL     1       1.826  55.143  20.709  1.00  0.00    -0.003 C 
ATOM     10  C   UNL     1       0.405  54.585  20.718  1.00  0.00     0.004 C 
ENDBRANCH   8   9
ENDBRANCH   7   8
ENDBRANCH   1   7
TORSDOF 6
ENDMDL
MODEL 6
REMARK VINA RESULT:    -3.777      2.817      3.812
REMARK INTER + INTRA:          -5.625
REMARK INTER:                  -4.947
REMARK INTRA:                  -0.678
REMARK UNBOUND:                -0.523
REMARK SMILES CCCCCCCC(=O)[O-]
REMARK SMILES IDX 5 1 6 2 7 3 8 4 9 5 10 6 4 7 3 8 2 9 1 10
REMARK H PARENT
REMARK Flexibility Score: inf
ROOT
ATOM      1  C   UNL     1       0.348  54.839  20.317  1.00  0.00     0.000 C 
ENDROOT
BRANCH   1   2
ATOM      2  C   UNL     1       1.836  54.952  20.682  1.00  0.00     0.006 C 
BRANCH   2   3
ATOM      3  C   UNL     1       2.660  53.762  20.173  1.00  0.00     0.053 C 
BRANCH   3   4
ATOM      4  C   UNL     1       2.975  53.928  18.721  1.00  0.00     0.041 C 
ATOM      5  O   UNL     1       3.768  54.829  18.342  1.00  0.00    -0.550 OA
ATOM      6  O   UNL     1       2.354  53.117  17.778  1.00  0.00    -0.550 OA
ENDBRANCH   3   4
ENDBRANCH   2   3
ENDBRANCH   1   2
BRANCH   1   7
ATOM      7  C   UNL     1      -0.157  56.054  19.516  1.00  0.00     0.000 C 
BRANCH   7   8
ATOM      8  C   UNL     1      -0.385  55.728  18.031  1.00  0.00    -0.000 C 
BRANCH   8   9
ATOM      9  C   UNL     1       0.633  56.419  17.113  1.00  0.00    -0.003 C 
ATOM     10  C   UNL     1       1.399  57.506  17.863  1.00  0.00     0.004 C 
ENDBRANCH   8   9
ENDBRANCH   7   8
ENDBRANCH   1   7
TORSDOF 6
ENDMDL
MODEL 7
REMARK VINA RESULT:    -3.772      1.781      2.322
REMARK INTER + INTRA:          -5.618
REMARK INTER:                  -4.930
REMARK INTRA:                  -0.688
REMARK UNBOUND:                -0.523
REMARK SMILES CCCCCCCC(=O)[O-]
REMARK SMILES IDX 5 1 6 2 7 3 8 4 9 5 10 6 4 7 3 8 2 9 1 10
REMARK H PARENT
REMARK Flexibility Score: inf
ROOT
ATOM      1  C   UNL     1      -0.234  55.675  18.027  1.00  0.00     0.000 C 
ENDROOT
BRANCH   1   2
ATOM      2  C   UNL     1      -0.278  56.009  19.526  1.00  0.00     0.006 C 
BRANCH   2   3
ATOM      3  C   UNL     1       0.034  54.796  20.411  1.00  0.00     0.053 C 
BRANCH   3   4
ATOM      4  C   UNL     1       1.508  54.551  20.462  1.00  0.00     0.041 C 
ATOM      5  O   UNL     1       2.261  55.343  21.088  1.00  0.00    -0.550 OA
ATOM      6  O   UNL     1       2.059  53.476  19.776  1.00  0.00    -0.550 OA
ENDBRANCH   3   4
ENDBRANCH   2   3
ENDBRANCH   1   2
BRANCH   1   7
ATOM      7  C   UNL     1       0.791  56.531  17.261  1.00  0.00     0.000 C 
BRANCH   7   8
ATOM      8  C   UNL     1       2.092  55.769  16.963  1.00  0.00    -0.000 C 
BRANCH   8   9
ATOM      9  C   UNL     1       3.307  56.375  17.678  1.00  0.00    -0.003 C 
ATOM     10  C   UNL     1       2.914  57.621  18.467  1.00  0.00     0.004 C 
ENDBRANCH   8   9
ENDBRANCH   7   8
ENDBRANCH   1   7
TORSDOF 6
ENDMDL
MODEL 8
REMARK VINA RESULT:    -3.701      1.536      2.070
REMARK INTER + INTRA:          -5.522
REMARK INTER:                  -5.040
REMARK INTRA:                  -0.482
REMARK UNBOUND:                -0.523
REMARK SMILES CCCCCCCC(=O)[O-]
REMARK SMILES IDX 5 1 6 2 7 3 8 4 9 5 10 6 4 7 3 8 2 9 1 10
REMARK H PARENT
REMARK Flexibility Score: inf
ROOT
ATOM      1  C   UNL     1       1.102  56.280  17.296  1.00  0.00     0.000 C 
ENDROOT
BRANCH   1   2
ATOM      2  C   UNL     1      -0.100  55.669  18.032  1.00  0.00     0.006 C 
BRANCH   2   3
ATOM      3  C   UNL     1      -0.138  56.048  19.518  1.00  0.00     0.053 C 
BRANCH   3   4
ATOM      4  C   UNL     1       0.405  54.935  20.356  1.00  0.00     0.041 C 
ATOM      5  O   UNL     1      -0.373  54.212  21.030  1.00  0.00    -0.550 OA
ATOM      6  O   UNL     1       1.777  54.727  20.432  1.00  0.00    -0.550 OA
ENDBRANCH   3   4
ENDBRANCH   2   3
ENDBRANCH   1   2
BRANCH   1   7
ATOM      7  C   UNL     1       1.600  57.578  17.956  1.00  0.00     0.000 C 
BRANCH   7   8
ATOM      8  C   UNL     1       3.081  57.504  18.362  1.00  0.00    -0.000 C 
BRANCH   8   9
ATOM      9  C   UNL     1       3.783  56.257  17.805  1.00  0.00    -0.003 C 
ATOM     10  C   UNL     1       5.076  56.630  17.087  1.00  0.00     0.004 C 
ENDBRANCH   8   9
ENDBRANCH   7   8
ENDBRANCH   1   7
TORSDOF 6
ENDMDL
MODEL 9
REMARK VINA RESULT:    -3.697      1.841      3.062
REMARK INTER + INTRA:          -5.516
REMARK INTER:                  -4.870
REMARK INTRA:                  -0.646
REMARK UNBOUND:                -0.523
REMARK SMILES CCCCCCCC(=O)[O-]
REMARK SMILES IDX 5 1 6 2 7 3 8 4 9 5 10 6 4 7 3 8 2 9 1 10
REMARK H PARENT
REMARK Flexibility Score: inf
ROOT
ATOM      1  C   UNL     1       2.209  53.027  17.645  1.00  0.00     0.000 C 
ENDROOT
BRANCH   1   2
ATOM      2  C   UNL     1       3.213  53.765  18.544  1.00  0.00     0.006 C 
BRANCH   2   3
ATOM      3  C   UNL     1       2.857  53.667  20.032  1.00  0.00     0.053 C 
BRANCH   3   4
ATOM      4  C   UNL     1       1.951  54.789  20.427  1.00  0.00     0.041 C 
ATOM      5  O   UNL     1       2.315  55.984  20.270  1.00  0.00    -0.550 OA
ATOM      6  O   UNL     1       0.722  54.517  21.017  1.00  0.00    -0.550 OA
ENDBRANCH   3   4
ENDBRANCH   2   3
ENDBRANCH   1   2
BRANCH   1   7
ATOM      7  C   UNL     1       1.272  53.989  16.892  1.00  0.00     0.000 C 
BRANCH   7   8
ATOM      8  C   UNL     1       1.904  55.372  16.667  1.00  0.00    -0.000 C 
BRANCH   8   9
ATOM      9  C   UNL     1       0.907  56.518  16.888  1.00  0.00    -0.003 C 
ATOM     10  C   UNL     1      -0.284  56.057  17.724  1.00  0.00     0.004 C 
ENDBRANCH   8   9
ENDBRANCH   7   8
ENDBRANCH   1   7
TORSDOF 6
ENDMDL
