MODEL 1
REMARK VINA RESULT:    -3.131      0.000      0.000
REMARK INTER + INTRA:          -7.582
REMARK INTER:                  -5.510
REMARK INTRA:                  -2.072
REMARK UNBOUND:                -2.072
REMARK SMILES CCCCCCCCCCCCCCC(=O)[O-]
REMARK SMILES IDX 9 1 10 2 11 3 12 4 13 5 14 6 15 7 16 8 17 9 8 10 7 11 6 12
REMARK SMILES IDX 5 13 4 14 3 15 2 16 1 17
REMARK H PARENT
REMARK Flexibility Score: inf
ROOT
ATOM      1  C   UNL     1      58.360  29.190  49.713  1.00  0.00     0.000 C 
ENDROOT
BRANCH   1   2
ATOM      2  C   UNL     1      59.568  28.389  49.189  1.00  0.00     0.000 C 
BRANCH   2   3
ATOM      3  C   UNL     1      59.432  26.858  49.307  1.00  0.00     0.000 C 
BRANCH   3   4
ATOM      4  C   UNL     1      60.664  26.135  49.887  1.00  0.00     0.000 C 
BRANCH   4   5
ATOM      5  C   UNL     1      60.488  25.596  51.319  1.00  0.00     0.006 C 
BRANCH   5   6
ATOM      6  C   UNL     1      60.648  26.685  52.388  1.00  0.00     0.053 C 
BRANCH   6   7
ATOM      7  C   UNL     1      61.895  27.475  52.146  1.00  0.00     0.041 C 
ATOM      8  O   UNL     1      61.827  28.708  51.900  1.00  0.00    -0.550 OA
ATOM      9  O   UNL     1      63.137  26.861  52.242  1.00  0.00    -0.550 OA
ENDBRANCH   6   7
ENDBRANCH   5   6
ENDBRANCH   4   5
ENDBRANCH   3   4
ENDBRANCH   2   3
ENDBRANCH   1   2
BRANCH   1  10
ATOM     10  C   UNL     1      58.086  29.046  51.224  1.00  0.00     0.000 C 
BRANCH  10  11
ATOM     11  C   UNL     1      56.753  28.368  51.587  1.00  0.00    -0.000 C 
BRANCH  11  12
ATOM     12  C   UNL     1      56.935  26.924  52.088  1.00  0.00    -0.000 C 
BRANCH  12  13
ATOM     13  C   UNL     1      56.258  25.892  51.172  1.00  0.00    -0.000 C 
BRANCH  13  14
ATOM     14  C   UNL     1      55.793  26.495  49.838  1.00  0.00    -0.000 C 
BRANCH  14  15
ATOM     15  C   UNL     1      54.522  25.796  49.333  1.00  0.00    -0.000 C 
BRANCH  15  16
ATOM     16  C   UNL     1      53.258  26.643  49.543  1.00  0.00    -0.003 C 
ATOM     17  C   UNL     1      53.566  28.126  49.750  1.00  0.00     0.004 C 
ENDBRANCH  15  16
ENDBRANCH  14  15
ENDBRANCH  13  14
ENDBRANCH  12  13
ENDBRANCH  11  12
ENDBRANCH  10  11
ENDBRANCH   1  10
TORSDOF 13
ENDMDL
MODEL 2
REMARK VINA RESULT:    -3.112     11.957     13.607
REMARK INTER + INTRA:          -7.549
REMARK INTER:                  -6.474
REMARK INTRA:                  -1.074
REMARK UNBOUND:                -2.072
REMARK SMILES CCCCCCCCCCCCCCC(=O)[O-]
REMARK SMILES IDX 9 1 10 2 11 3 12 4 13 5 14 6 15 7 16 8 17 9 8 10 7 11 6 12
REMARK SMILES IDX 5 13 4 14 3 15 2 16 1 17
REMARK H PARENT
REMARK Flexibility Score: inf
ROOT
ATOM      1  C   UNL     1      65.433  30.051  60.072  1.00  0.00     0.000 C 
ENDROOT
BRANCH   1   2
ATOM      2  C   UNL     1      66.595  29.045  59.962  1.00  0.00     0.000 C 
BRANCH   2   3
ATOM      3  C   UNL     1      67.128  28.519  61.309  1.00  0.00     0.000 C 
BRANCH   3   4
ATOM      4  C   UNL     1      68.593  28.884  61.621  1.00  0.00     0.000 C 
BRANCH   4   5
ATOM      5  C   UNL     1      69.597  28.560  60.499  1.00  0.00     0.006 C 
BRANCH   5   6
ATOM      6  C   UNL     1      70.298  29.808  59.948  1.00  0.00     0.053 C 
BRANCH   6   7
ATOM      7  C   UNL     1      71.392  30.242  60.870  1.00  0.00     0.041 C 
ATOM      8  O   UNL     1      71.627  31.467  61.044  1.00  0.00    -0.550 OA
ATOM      9  O   UNL     1      72.120  29.295  61.580  1.00  0.00    -0.550 OA
ENDBRANCH   6   7
ENDBRANCH   5   6
ENDBRANCH   4   5
ENDBRANCH   3   4
ENDBRANCH   2   3
ENDBRANCH   1   2
BRANCH   1  10
ATOM     10  C   UNL     1      64.367  29.704  61.132  1.00  0.00     0.000 C 
BRANCH  10  11
ATOM     11  C   UNL     1      62.914  29.702  60.624  1.00  0.00    -0.000 C 
BRANCH  11  12
ATOM     12  C   UNL     1      61.904  30.127  61.704  1.00  0.00    -0.000 C 
BRANCH  12  13
ATOM     13  C   UNL     1      61.067  31.345  61.282  1.00  0.00    -0.000 C 
BRANCH  13  14
ATOM     14  C   UNL     1      61.691  32.118  60.111  1.00  0.00    -0.000 C 
BRANCH  14  15
ATOM     15  C   UNL     1      62.278  33.456  60.587  1.00  0.00    -0.000 C 
BRANCH  15  16
ATOM     16  C   UNL     1      63.796  33.390  60.812  1.00  0.00    -0.003 C 
ATOM     17  C   UNL     1      64.362  34.677  61.411  1.00  0.00     0.004 C 
ENDBRANCH  15  16
ENDBRANCH  14  15
ENDBRANCH  13  14
ENDBRANCH  12  13
ENDBRANCH  11  12
ENDBRANCH  10  11
ENDBRANCH   1  10
TORSDOF 13
ENDMDL
MODEL 3
REMARK VINA RESULT:    -3.105     10.782     12.439
REMARK INTER + INTRA:          -7.537
REMARK INTER:                  -5.282
REMARK INTRA:                  -2.255
REMARK UNBOUND:                -2.072
REMARK SMILES CCCCCCCCCCCCCCC(=O)[O-]
REMARK SMILES IDX 9 1 10 2 11 3 12 4 13 5 14 6 15 7 16 8 17 9 8 10 7 11 6 12
REMARK SMILES IDX 5 13 4 14 3 15 2 16 1 17
REMARK H PARENT
REMARK Flexibility Score: inf
ROOT
ATOM      1  C   UNL     1      63.027  29.120  61.135  1.00  0.00     0.000 C 
ENDROOT
BRANCH   1   2
ATOM      2  C   UNL     1      63.962  30.319  61.389  1.00  0.00     0.000 C 
BRANCH   2   3
ATOM      3  C   UNL     1      65.025  30.555  60.297  1.00  0.00     0.000 C 
BRANCH   3   4
ATOM      4  C   UNL     1      64.474  31.047  58.944  1.00  0.00     0.000 C 
BRANCH   4   5
ATOM      5  C   UNL     1      65.124  32.336  58.407  1.00  0.00     0.006 C 
BRANCH   5   6
ATOM      6  C   UNL     1      64.153  33.195  57.585  1.00  0.00     0.053 C 
BRANCH   6   7
ATOM      7  C   UNL     1      64.542  34.637  57.658  1.00  0.00     0.041 C 
ATOM      8  O   UNL     1      65.686  34.965  58.069  1.00  0.00    -0.550 OA
ATOM      9  O   UNL     1      63.660  35.618  57.223  1.00  0.00    -0.550 OA
ENDBRANCH   6   7
ENDBRANCH   5   6
ENDBRANCH   4   5
ENDBRANCH   3   4
ENDBRANCH   2   3
ENDBRANCH   1   2
BRANCH   1  10
ATOM     10  C   UNL     1      61.534  29.386  61.416  1.00  0.00     0.000 C 
BRANCH  10  11
ATOM     11  C   UNL     1      61.097  30.857  61.302  1.00  0.00    -0.000 C 
BRANCH  11  12
ATOM     12  C   UNL     1      60.727  31.260  59.864  1.00  0.00    -0.000 C 
BRANCH  12  13
ATOM     13  C   UNL     1      61.036  32.736  59.567  1.00  0.00    -0.000 C 
BRANCH  13  14
ATOM     14  C   UNL     1      61.998  33.360  60.589  1.00  0.00    -0.000 C 
BRANCH  14  15
ATOM     15  C   UNL     1      61.982  34.893  60.493  1.00  0.00    -0.000 C 
BRANCH  15  16
ATOM     16  C   UNL     1      63.219  35.539  61.136  1.00  0.00    -0.003 C 
ATOM     17  C   UNL     1      64.359  34.545  61.355  1.00  0.00     0.004 C 
ENDBRANCH  15  16
ENDBRANCH  14  15
ENDBRANCH  13  14
ENDBRANCH  12  13
ENDBRANCH  11  12
ENDBRANCH  10  11
ENDBRANCH   1  10
TORSDOF 13
ENDMDL
MODEL 4
REMARK VINA RESULT:    -3.089     10.703     12.744
REMARK INTER + INTRA:          -7.509
REMARK INTER:                  -5.550
REMARK INTRA:                  -1.959
REMARK UNBOUND:                -2.072
REMARK SMILES CCCCCCCCCCCCCCC(=O)[O-]
REMARK SMILES IDX 9 1 10 2 11 3 12 4 13 5 14 6 15 7 16 8 17 9 8 10 7 11 6 12
REMARK SMILES IDX 5 13 4 14 3 15 2 16 1 17
REMARK H PARENT
REMARK Flexibility Score: inf
ROOT
ATOM      1  C   UNL     1      61.896  33.423  60.346  1.00  0.00     0.000 C 
ENDROOT
BRANCH   1   2
ATOM      2  C   UNL     1      61.496  34.911  60.369  1.00  0.00     0.000 C 
BRANCH   2   3
ATOM      3  C   UNL     1      62.489  35.840  61.096  1.00  0.00     0.000 C 
BRANCH   3   4
ATOM      4  C   UNL     1      63.939  35.321  61.162  1.00  0.00     0.000 C 
BRANCH   4   5
ATOM      5  C   UNL     1      64.898  35.936  60.125  1.00  0.00     0.006 C 
BRANCH   5   6
ATOM      6  C   UNL     1      65.167  35.004  58.937  1.00  0.00     0.053 C 
BRANCH   6   7
ATOM      7  C   UNL     1      64.135  35.202  57.874  1.00  0.00     0.041 C 
ATOM      8  O   UNL     1      63.763  36.363  57.560  1.00  0.00    -0.550 OA
ATOM      9  O   UNL     1      63.620  34.107  57.192  1.00  0.00    -0.550 OA
ENDBRANCH   6   7
ENDBRANCH   5   6
ENDBRANCH   4   5
ENDBRANCH   3   4
ENDBRANCH   2   3
ENDBRANCH   1   2
BRANCH   1  10
ATOM     10  C   UNL     1      61.060  32.536  59.401  1.00  0.00     0.000 C 
BRANCH  10  11
ATOM     11  C   UNL     1      60.917  31.067  59.837  1.00  0.00    -0.000 C 
BRANCH  11  12
ATOM     12  C   UNL     1      60.784  30.906  61.361  1.00  0.00    -0.000 C 
BRANCH  12  13
ATOM     13  C   UNL     1      61.960  30.132  61.978  1.00  0.00    -0.000 C 
BRANCH  13  14
ATOM     14  C   UNL     1      62.737  29.307  60.941  1.00  0.00    -0.000 C 
BRANCH  14  15
ATOM     15  C   UNL     1      64.241  29.610  61.014  1.00  0.00    -0.000 C 
BRANCH  15  16
ATOM     16  C   UNL     1      64.563  31.083  60.719  1.00  0.00    -0.003 C 
ATOM     17  C   UNL     1      64.841  31.344  59.239  1.00  0.00     0.004 C 
ENDBRANCH  15  16
ENDBRANCH  14  15
ENDBRANCH  13  14
ENDBRANCH  12  13
ENDBRANCH  11  12
ENDBRANCH  10  11
ENDBRANCH   1  10
TORSDOF 13
ENDMDL
MODEL 5
REMARK VINA RESULT:    -3.060      2.038      4.187
REMARK INTER + INTRA:          -7.458
REMARK INTER:                  -5.722
REMARK INTRA:                  -1.736
REMARK UNBOUND:                -2.072
REMARK SMILES CCCCCCCCCCCCCCC(=O)[O-]
REMARK SMILES IDX 9 1 10 2 11 3 12 4 13 5 14 6 15 7 16 8 17 9 8 10 7 11 6 12
REMARK SMILES IDX 5 13 4 14 3 15 2 16 1 17
REMARK H PARENT
REMARK Flexibility Score: inf
ROOT
ATOM      1  C   UNL     1      56.335  26.298  50.060  1.00  0.00     0.000 C 
ENDROOT
BRANCH   1   2
ATOM      2  C   UNL     1      56.416  27.516  51.002  1.00  0.00     0.000 C 
BRANCH   2   3
ATOM      3  C   UNL     1      56.754  28.851  50.310  1.00  0.00     0.000 C 
BRANCH   3   4
ATOM      4  C   UNL     1      58.240  29.258  50.365  1.00  0.00     0.000 C 
BRANCH   4   5
ATOM      5  C   UNL     1      59.053  28.923  49.100  1.00  0.00     0.006 C 
BRANCH   5   6
ATOM      6  C   UNL     1      60.429  28.324  49.418  1.00  0.00     0.053 C 
BRANCH   6   7
ATOM      7  C   UNL     1      60.278  26.979  50.055  1.00  0.00     0.041 C 
ATOM      8  O   UNL     1      60.608  26.807  51.258  1.00  0.00    -0.550 OA
ATOM      9  O   UNL     1      59.725  25.928  49.336  1.00  0.00    -0.550 OA
ENDBRANCH   6   7
ENDBRANCH   5   6
ENDBRANCH   4   5
ENDBRANCH   3   4
ENDBRANCH   2   3
ENDBRANCH   1   2
BRANCH   1  10
ATOM     10  C   UNL     1      54.906  25.825  49.727  1.00  0.00     0.000 C 
BRANCH  10  11
ATOM     11  C   UNL     1      53.776  26.614  50.412  1.00  0.00    -0.000 C 
BRANCH  11  12
ATOM     12  C   UNL     1      53.016  27.534  49.441  1.00  0.00    -0.000 C 
BRANCH  12  13
ATOM     13  C   UNL     1      53.078  29.012  49.857  1.00  0.00    -0.000 C 
BRANCH  13  14
ATOM     14  C   UNL     1      53.059  29.202  51.381  1.00  0.00    -0.000 C 
BRANCH  14  15
ATOM     15  C   UNL     1      53.665  30.558  51.773  1.00  0.00    -0.000 C 
BRANCH  15  16
ATOM     16  C   UNL     1      54.229  30.564  53.202  1.00  0.00    -0.003 C 
ATOM     17  C   UNL     1      55.750  30.713  53.237  1.00  0.00     0.004 C 
ENDBRANCH  15  16
ENDBRANCH  14  15
ENDBRANCH  13  14
ENDBRANCH  12  13
ENDBRANCH  11  12
ENDBRANCH  10  11
ENDBRANCH   1  10
TORSDOF 13
ENDMDL
MODEL 6
REMARK VINA RESULT:    -3.054     10.840     13.089
REMARK INTER + INTRA:          -7.447
REMARK INTER:                  -5.913
REMARK INTRA:                  -1.534
REMARK UNBOUND:                -2.072
REMARK SMILES CCCCCCCCCCCCCCC(=O)[O-]
REMARK SMILES IDX 9 1 10 2 11 3 12 4 13 5 14 6 15 7 16 8 17 9 8 10 7 11 6 12
REMARK SMILES IDX 5 13 4 14 3 15 2 16 1 17
REMARK H PARENT
REMARK Flexibility Score: inf
ROOT
ATOM      1  C   UNL     1      60.680  30.985  59.745  1.00  0.00     0.000 C 
ENDROOT
BRANCH   1   2
ATOM      2  C   UNL     1      61.567  31.956  58.943  1.00  0.00     0.000 C 
BRANCH   2   3
ATOM      3  C   UNL     1      61.057  33.410  58.893  1.00  0.00     0.000 C 
BRANCH   3   4
ATOM      4  C   UNL     1      62.086  34.479  59.312  1.00  0.00     0.000 C 
BRANCH   4   5
ATOM      5  C   UNL     1      62.586  34.365  60.764  1.00  0.00     0.006 C 
BRANCH   5   6
ATOM      6  C   UNL     1      64.077  34.014  60.854  1.00  0.00     0.053 C 
BRANCH   6   7
ATOM      7  C   UNL     1      64.893  35.251  61.051  1.00  0.00     0.041 C 
ATOM      8  O   UNL     1      64.968  35.788  62.187  1.00  0.00    -0.550 OA
ATOM      9  O   UNL     1      65.614  35.784  59.989  1.00  0.00    -0.550 OA
ENDBRANCH   6   7
ENDBRANCH   5   6
ENDBRANCH   4   5
ENDBRANCH   3   4
ENDBRANCH   2   3
ENDBRANCH   1   2
BRANCH   1  10
ATOM     10  C   UNL     1      60.811  31.095  61.278  1.00  0.00     0.000 C 
BRANCH  10  11
ATOM     11  C   UNL     1      62.036  30.388  61.884  1.00  0.00    -0.000 C 
BRANCH  11  12
ATOM     12  C   UNL     1      62.208  28.947  61.373  1.00  0.00    -0.000 C 
BRANCH  12  13
ATOM     13  C   UNL     1      63.571  28.718  60.700  1.00  0.00    -0.000 C 
BRANCH  13  14
ATOM     14  C   UNL     1      64.325  30.027  60.424  1.00  0.00    -0.000 C 
BRANCH  14  15
ATOM     15  C   UNL     1      65.836  29.776  60.308  1.00  0.00    -0.000 C 
BRANCH  15  16
ATOM     16  C   UNL     1      66.279  28.492  61.027  1.00  0.00    -0.003 C 
ATOM     17  C   UNL     1      67.751  28.522  61.439  1.00  0.00     0.004 C 
ENDBRANCH  15  16
ENDBRANCH  14  15
ENDBRANCH  13  14
ENDBRANCH  12  13
ENDBRANCH  11  12
ENDBRANCH  10  11
ENDBRANCH   1  10
TORSDOF 13
ENDMDL
MODEL 7
REMARK VINA RESULT:    -3.049     10.622     13.235
REMARK INTER + INTRA:          -7.438
REMARK INTER:                  -5.940
REMARK INTRA:                  -1.498
REMARK UNBOUND:                -2.072
REMARK SMILES CCCCCCCCCCCCCCC(=O)[O-]
REMARK SMILES IDX 9 1 10 2 11 3 12 4 13 5 14 6 15 7 16 8 17 9 8 10 7 11 6 12
REMARK SMILES IDX 5 13 4 14 3 15 2 16 1 17
REMARK H PARENT
REMARK Flexibility Score: inf
ROOT
ATOM      1  C   UNL     1      61.883  32.155  58.738  1.00  0.00     0.000 C 
ENDROOT
BRANCH   1   2
ATOM      2  C   UNL     1      60.861  31.448  59.650  1.00  0.00     0.000 C 
BRANCH   2   3
ATOM      3  C   UNL     1      61.184  31.510  61.156  1.00  0.00     0.000 C 
BRANCH   3   4
ATOM      4  C   UNL     1      61.551  30.159  61.802  1.00  0.00     0.000 C 
BRANCH   4   5
ATOM      5  C   UNL     1      62.787  29.465  61.201  1.00  0.00     0.006 C 
BRANCH   5   6
ATOM      6  C   UNL     1      64.047  30.339  61.259  1.00  0.00     0.053 C 
BRANCH   6   7
ATOM      7  C   UNL     1      65.201  29.633  60.621  1.00  0.00     0.041 C 
ATOM      8  O   UNL     1      65.489  28.455  60.958  1.00  0.00    -0.550 OA
ATOM      9  O   UNL     1      65.928  30.258  59.615  1.00  0.00    -0.550 OA
ENDBRANCH   6   7
ENDBRANCH   5   6
ENDBRANCH   4   5
ENDBRANCH   3   4
ENDBRANCH   2   3
ENDBRANCH   1   2
BRANCH   1  10
ATOM     10  C   UNL     1      62.701  33.272  59.417  1.00  0.00     0.000 C 
BRANCH  10  11
ATOM     11  C   UNL     1      62.129  34.692  59.259  1.00  0.00    -0.000 C 
BRANCH  11  12
ATOM     12  C   UNL     1      61.206  35.097  60.422  1.00  0.00    -0.000 C 
BRANCH  12  13
ATOM     13  C   UNL     1      61.416  36.555  60.861  1.00  0.00    -0.000 C 
BRANCH  13  14
ATOM     14  C   UNL     1      62.821  37.079  60.531  1.00  0.00    -0.000 C 
BRANCH  14  15
ATOM     15  C   UNL     1      63.718  37.068  61.779  1.00  0.00    -0.000 C 
BRANCH  15  16
ATOM     16  C   UNL     1      64.684  35.874  61.803  1.00  0.00    -0.003 C 
ATOM     17  C   UNL     1      65.596  35.825  60.577  1.00  0.00     0.004 C 
ENDBRANCH  15  16
ENDBRANCH  14  15
ENDBRANCH  13  14
ENDBRANCH  12  13
ENDBRANCH  11  12
ENDBRANCH  10  11
ENDBRANCH   1  10
TORSDOF 13
ENDMDL
MODEL 8
REMARK VINA RESULT:    -3.044     11.226     12.866
REMARK INTER + INTRA:          -7.430
REMARK INTER:                  -5.859
REMARK INTRA:                  -1.570
REMARK UNBOUND:                -2.072
REMARK SMILES CCCCCCCCCCCCCCC(=O)[O-]
REMARK SMILES IDX 9 1 10 2 11 3 12 4 13 5 14 6 15 7 16 8 17 9 8 10 7 11 6 12
REMARK SMILES IDX 5 13 4 14 3 15 2 16 1 17
REMARK H PARENT
REMARK Flexibility Score: inf
ROOT
ATOM      1  C   UNL     1      61.894  32.359  60.160  1.00  0.00     0.000 C 
ENDROOT
BRANCH   1   2
ATOM      2  C   UNL     1      60.880  31.561  61.004  1.00  0.00     0.000 C 
BRANCH   2   3
ATOM      3  C   UNL     1      61.473  30.355  61.760  1.00  0.00     0.000 C 
BRANCH   3   4
ATOM      4  C   UNL     1      61.673  29.085  60.910  1.00  0.00     0.000 C 
BRANCH   4   5
ATOM      5  C   UNL     1      63.088  28.480  60.968  1.00  0.00     0.006 C 
BRANCH   5   6
ATOM      6  C   UNL     1      64.159  29.508  61.354  1.00  0.00     0.053 C 
BRANCH   6   7
ATOM      7  C   UNL     1      65.238  29.552  60.319  1.00  0.00     0.041 C 
ATOM      8  O   UNL     1      66.439  29.366  60.648  1.00  0.00    -0.550 OA
ATOM      9  O   UNL     1      64.912  29.747  58.983  1.00  0.00    -0.550 OA
ENDBRANCH   6   7
ENDBRANCH   5   6
ENDBRANCH   4   5
ENDBRANCH   3   4
ENDBRANCH   2   3
ENDBRANCH   1   2
BRANCH   1  10
ATOM     10  C   UNL     1      63.146  32.836  60.923  1.00  0.00     0.000 C 
BRANCH  10  11
ATOM     11  C   UNL     1      63.926  33.981  60.253  1.00  0.00    -0.000 C 
BRANCH  11  12
ATOM     12  C   UNL     1      64.669  34.870  61.265  1.00  0.00    -0.000 C 
BRANCH  12  13
ATOM     13  C   UNL     1      63.952  36.206  61.516  1.00  0.00    -0.000 C 
BRANCH  13  14
ATOM     14  C   UNL     1      62.960  36.566  60.400  1.00  0.00    -0.000 C 
BRANCH  14  15
ATOM     15  C   UNL     1      61.535  36.712  60.958  1.00  0.00    -0.000 C 
BRANCH  15  16
ATOM     16  C   UNL     1      60.494  35.946  60.128  1.00  0.00    -0.003 C 
ATOM     17  C   UNL     1      60.972  35.648  58.707  1.00  0.00     0.004 C 
ENDBRANCH  15  16
ENDBRANCH  14  15
ENDBRANCH  13  14
ENDBRANCH  12  13
ENDBRANCH  11  12
ENDBRANCH  10  11
ENDBRANCH   1  10
TORSDOF 13
ENDMDL
MODEL 9
REMARK VINA RESULT:    -3.035     10.473     12.387
REMARK INTER + INTRA:          -7.414
REMARK INTER:                  -5.432
REMARK INTRA:                  -1.982
REMARK UNBOUND:                -2.072
REMARK SMILES CCCCCCCCCCCCCCC(=O)[O-]
REMARK SMILES IDX 9 1 10 2 11 3 12 4 13 5 14 6 15 7 16 8 17 9 8 10 7 11 6 12
REMARK SMILES IDX 5 13 4 14 3 15 2 16 1 17
REMARK H PARENT
REMARK Flexibility Score: inf
ROOT
ATOM      1  C   UNL     1      63.920  31.043  58.508  1.00  0.00     0.000 C 
ENDROOT
BRANCH   1   2
ATOM      2  C   UNL     1      64.864  30.340  59.502  1.00  0.00     0.000 C 
BRANCH   2   3
ATOM      3  C   UNL     1      64.166  29.411  60.515  1.00  0.00     0.000 C 
BRANCH   3   4
ATOM      4  C   UNL     1      63.420  30.131  61.656  1.00  0.00     0.000 C 
BRANCH   4   5
ATOM      5  C   UNL     1      61.912  29.830  61.739  1.00  0.00     0.006 C 
BRANCH   5   6
ATOM      6  C   UNL     1      61.042  31.047  61.398  1.00  0.00     0.053 C 
BRANCH   6   7
ATOM      7  C   UNL     1      60.526  30.944  59.998  1.00  0.00     0.041 C 
ATOM      8  O   UNL     1      60.029  29.863  59.584  1.00  0.00    -0.550 OA
ATOM      9  O   UNL     1      60.545  32.055  59.166  1.00  0.00    -0.550 OA
ENDBRANCH   6   7
ENDBRANCH   5   6
ENDBRANCH   4   5
ENDBRANCH   3   4
ENDBRANCH   2   3
ENDBRANCH   1   2
BRANCH   1  10
ATOM     10  C   UNL     1      63.948  32.584  58.557  1.00  0.00     0.000 C 
BRANCH  10  11
ATOM     11  C   UNL     1      64.518  33.188  59.853  1.00  0.00    -0.000 C 
BRANCH  11  12
ATOM     12  C   UNL     1      63.429  33.767  60.772  1.00  0.00    -0.000 C 
BRANCH  12  13
ATOM     13  C   UNL     1      63.647  35.258  61.079  1.00  0.00    -0.000 C 
BRANCH  13  14
ATOM     14  C   UNL     1      62.336  36.058  61.098  1.00  0.00    -0.000 C 
BRANCH  14  15
ATOM     15  C   UNL     1      61.192  35.252  60.464  1.00  0.00    -0.000 C 
BRANCH  15  16
ATOM     16  C   UNL     1      60.710  35.855  59.135  1.00  0.00    -0.003 C 
ATOM     17  C   UNL     1      61.547  35.398  57.940  1.00  0.00     0.004 C 
ENDBRANCH  15  16
ENDBRANCH  14  15
ENDBRANCH  13  14
ENDBRANCH  12  13
ENDBRANCH  11  12
ENDBRANCH  10  11
ENDBRANCH   1  10
TORSDOF 13
ENDMDL
