MODEL 1
REMARK VINA RESULT:    -4.364      0.000      0.000
REMARK INTER + INTRA:          -5.611
REMARK INTER:                  -5.130
REMARK INTRA:                  -0.482
REMARK UNBOUND:                -0.482
REMARK SMILES C=CC(C)=CCC=C(C)C
REMARK SMILES IDX 5 1 3 2 4 3 6 4 7 5 9 6 8 7 10 8 2 9 1 10
REMARK H PARENT
REMARK Flexibility Score: inf
ROOT
ATOM      1  C   UNL     1      55.456  45.762  42.505  1.00  0.00    -0.020 C 
ATOM      2  C   UNL     1      54.498  44.821  42.366  1.00  0.00    -0.055 C 
ATOM      3  C   UNL     1      54.789  43.348  42.554  1.00  0.00     0.044 C 
ENDROOT
BRANCH   1   4
ATOM      4  C   UNL     1      56.890  45.488  42.871  1.00  0.00     0.055 C 
BRANCH   4   5
ATOM      5  C   UNL     1      57.800  45.594  41.670  1.00  0.00    -0.024 C 
ATOM      6  C   UNL     1      58.426  43.182  41.818  1.00  0.00     0.039 C 
ATOM      7  C   UNL     1      58.503  44.550  41.184  1.00  0.00    -0.080 C 
ATOM      8  C   UNL     1      59.382  44.768  39.980  1.00  0.00     0.039 C 
ENDBRANCH   4   5
ENDBRANCH   1   4
BRANCH   2   9
ATOM      9  C   UNL     1      53.143  45.265  41.950  1.00  0.00    -0.005 C 
ATOM     10  C   UNL     1      52.444  46.204  42.590  1.00  0.00     0.009 C 
ENDBRANCH   2   9
TORSDOF 3
ENDMDL
MODEL 2
REMARK VINA RESULT:    -4.170      0.959      1.736
REMARK INTER + INTRA:          -5.383
REMARK INTER:                  -4.987
REMARK INTRA:                  -0.396
REMARK UNBOUND:                -0.482
REMARK SMILES C=CC(C)=CCC=C(C)C
REMARK SMILES IDX 5 1 3 2 4 3 6 4 7 5 9 6 8 7 10 8 2 9 1 10
REMARK H PARENT
REMARK Flexibility Score: inf
ROOT
ATOM      1  C   UNL     1      54.944  44.276  42.359  1.00  0.00    -0.020 C 
ATOM      2  C   UNL     1      54.247  45.359  42.762  1.00  0.00    -0.055 C 
ATOM      3  C   UNL     1      54.727  46.250  43.887  1.00  0.00     0.044 C 
ENDROOT
BRANCH   1   4
ATOM      4  C   UNL     1      56.259  43.830  42.942  1.00  0.00     0.055 C 
BRANCH   4   5
ATOM      5  C   UNL     1      57.320  43.693  41.876  1.00  0.00    -0.024 C 
ATOM      6  C   UNL     1      57.939  46.105  42.057  1.00  0.00     0.039 C 
ATOM      7  C   UNL     1      58.090  44.724  41.467  1.00  0.00    -0.080 C 
ATOM      8  C   UNL     1      59.119  44.477  40.395  1.00  0.00     0.039 C 
ENDBRANCH   4   5
ENDBRANCH   1   4
BRANCH   2   9
ATOM      9  C   UNL     1      52.939  45.624  42.109  1.00  0.00    -0.005 C 
ATOM     10  C   UNL     1      51.987  46.391  42.644  1.00  0.00     0.009 C 
ENDBRANCH   2   9
TORSDOF 3
ENDMDL
MODEL 3
REMARK VINA RESULT:    -4.123      1.297      4.953
REMARK INTER + INTRA:          -5.328
REMARK INTER:                  -5.050
REMARK INTRA:                  -0.278
REMARK UNBOUND:                -0.482
REMARK SMILES C=CC(C)=CCC=C(C)C
REMARK SMILES IDX 5 1 3 2 4 3 6 4 7 5 9 6 8 7 10 8 2 9 1 10
REMARK H PARENT
REMARK Flexibility Score: inf
ROOT
ATOM      1  C   UNL     1      56.555  43.392  41.889  1.00  0.00    -0.020 C 
ATOM      2  C   UNL     1      57.796  43.143  42.359  1.00  0.00    -0.055 C 
ATOM      3  C   UNL     1      58.061  42.885  43.826  1.00  0.00     0.044 C 
ENDROOT
BRANCH   1   4
ATOM      4  C   UNL     1      55.305  43.428  42.728  1.00  0.00     0.055 C 
BRANCH   4   5
ATOM      5  C   UNL     1      55.107  44.780  43.371  1.00  0.00    -0.024 C 
ATOM      6  C   UNL     1      53.148  45.288  41.909  1.00  0.00     0.039 C 
ATOM      7  C   UNL     1      54.128  45.634  43.004  1.00  0.00    -0.080 C 
ATOM      8  C   UNL     1      54.021  46.959  43.712  1.00  0.00     0.039 C 
ENDBRANCH   4   5
ENDBRANCH   1   4
BRANCH   2   9
ATOM      9  C   UNL     1      58.926  43.197  41.396  1.00  0.00    -0.005 C 
ATOM     10  C   UNL     1      59.138  44.215  40.561  1.00  0.00     0.009 C 
ENDBRANCH   2   9
TORSDOF 3
ENDMDL
MODEL 4
REMARK VINA RESULT:    -4.123      1.098      5.075
REMARK INTER + INTRA:          -5.327
REMARK INTER:                  -4.846
REMARK INTRA:                  -0.482
REMARK UNBOUND:                -0.482
REMARK SMILES C=CC(C)=CCC=C(C)C
REMARK SMILES IDX 5 1 3 2 4 3 6 4 7 5 9 6 8 7 10 8 2 9 1 10
REMARK H PARENT
REMARK Flexibility Score: inf
ROOT
ATOM      1  C   UNL     1      57.170  43.147  42.270  1.00  0.00    -0.020 C 
ATOM      2  C   UNL     1      58.174  43.979  41.919  1.00  0.00    -0.055 C 
ATOM      3  C   UNL     1      58.270  45.390  42.457  1.00  0.00     0.044 C 
ENDROOT
BRANCH   1   4
ATOM      4  C   UNL     1      56.057  43.490  43.225  1.00  0.00     0.055 C 
BRANCH   4   5
ATOM      5  C   UNL     1      54.798  43.884  42.490  1.00  0.00    -0.024 C 
ATOM      6  C   UNL     1      54.850  46.187  43.452  1.00  0.00     0.039 C 
ATOM      7  C   UNL     1      54.241  45.109  42.588  1.00  0.00    -0.080 C 
ATOM      8  C   UNL     1      52.982  45.396  41.812  1.00  0.00     0.039 C 
ENDBRANCH   4   5
ENDBRANCH   1   4
BRANCH   2   9
ATOM      9  C   UNL     1      59.162  43.492  40.923  1.00  0.00    -0.005 C 
ATOM     10  C   UNL     1      59.549  42.219  40.826  1.00  0.00     0.009 C 
ENDBRANCH   2   9
TORSDOF 3
ENDMDL
MODEL 5
REMARK VINA RESULT:    -3.768      1.198      2.133
REMARK INTER + INTRA:          -4.910
REMARK INTER:                  -4.475
REMARK INTRA:                  -0.436
REMARK UNBOUND:                -0.482
REMARK SMILES C=CC(C)=CCC=C(C)C
REMARK SMILES IDX 5 1 3 2 4 3 6 4 7 5 9 6 8 7 10 8 2 9 1 10
REMARK H PARENT
REMARK Flexibility Score: inf
ROOT
ATOM      1  C   UNL     1      56.239  43.784  42.993  1.00  0.00    -0.020 C 
ATOM      2  C   UNL     1      55.460  44.789  42.539  1.00  0.00    -0.055 C 
ATOM      3  C   UNL     1      56.017  46.165  42.247  1.00  0.00     0.044 C 
ENDROOT
BRANCH   1   4
ATOM      4  C   UNL     1      57.720  43.886  43.245  1.00  0.00     0.055 C 
BRANCH   4   5
ATOM      5  C   UNL     1      58.484  42.809  42.510  1.00  0.00    -0.024 C 
ATOM      6  C   UNL     1      59.082  44.373  40.658  1.00  0.00     0.039 C 
ATOM      7  C   UNL     1      59.106  43.022  41.332  1.00  0.00    -0.080 C 
ATOM      8  C   UNL     1      59.839  41.876  40.684  1.00  0.00     0.039 C 
ENDBRANCH   4   5
ENDBRANCH   1   4
BRANCH   2   9
ATOM      9  C   UNL     1      54.005  44.527  42.395  1.00  0.00    -0.005 C 
ATOM     10  C   UNL     1      53.130  45.436  41.960  1.00  0.00     0.009 C 
ENDBRANCH   2   9
TORSDOF 3
ENDMDL
MODEL 6
REMARK VINA RESULT:    -3.643      1.592      5.147
REMARK INTER + INTRA:          -4.763
REMARK INTER:                  -4.411
REMARK INTRA:                  -0.352
REMARK UNBOUND:                -0.482
REMARK SMILES C=CC(C)=CCC=C(C)C
REMARK SMILES IDX 5 1 3 2 4 3 6 4 7 5 9 6 8 7 10 8 2 9 1 10
REMARK H PARENT
REMARK Flexibility Score: inf
ROOT
ATOM      1  C   UNL     1      56.915  42.968  43.171  1.00  0.00    -0.020 C 
ATOM      2  C   UNL     1      58.236  43.089  42.924  1.00  0.00    -0.055 C 
ATOM      3  C   UNL     1      58.765  43.473  41.560  1.00  0.00     0.044 C 
ENDROOT
BRANCH   1   4
ATOM      4  C   UNL     1      55.822  43.206  42.162  1.00  0.00     0.055 C 
BRANCH   4   5
ATOM      5  C   UNL     1      54.765  44.141  42.700  1.00  0.00    -0.024 C 
ATOM      6  C   UNL     1      56.127  46.154  42.131  1.00  0.00     0.039 C 
ATOM      7  C   UNL     1      54.895  45.484  42.691  1.00  0.00    -0.080 C 
ATOM      8  C   UNL     1      53.778  46.323  43.254  1.00  0.00     0.039 C 
ENDBRANCH   4   5
ENDBRANCH   1   4
BRANCH   2   9
ATOM      9  C   UNL     1      59.180  42.766  44.025  1.00  0.00    -0.005 C 
ATOM     10  C   UNL     1      60.494  42.612  43.852  1.00  0.00     0.009 C 
ENDBRANCH   2   9
TORSDOF 3
ENDMDL
MODEL 7
REMARK VINA RESULT:    -3.545     21.684     23.123
REMARK INTER + INTRA:          -4.648
REMARK INTER:                  -4.172
REMARK INTRA:                  -0.477
REMARK UNBOUND:                -0.482
REMARK SMILES C=CC(C)=CCC=C(C)C
REMARK SMILES IDX 5 1 3 2 4 3 6 4 7 5 9 6 8 7 10 8 2 9 1 10
REMARK H PARENT
REMARK Flexibility Score: inf
ROOT
ATOM      1  C   UNL     1      55.286  27.403  27.109  1.00  0.00    -0.020 C 
ATOM      2  C   UNL     1      56.501  27.979  26.989  1.00  0.00    -0.055 C 
ATOM      3  C   UNL     1      56.774  29.385  27.477  1.00  0.00     0.044 C 
ENDROOT
BRANCH   1   4
ATOM      4  C   UNL     1      54.081  28.052  27.738  1.00  0.00     0.055 C 
BRANCH   4   5
ATOM      5  C   UNL     1      52.945  28.187  26.752  1.00  0.00    -0.024 C 
ATOM      6  C   UNL     1      53.463  30.595  26.347  1.00  0.00     0.039 C 
ATOM      7  C   UNL     1      52.656  29.340  26.115  1.00  0.00    -0.080 C 
ATOM      8  C   UNL     1      51.498  29.364  25.150  1.00  0.00     0.039 C 
ENDBRANCH   4   5
ENDBRANCH   1   4
BRANCH   2   9
ATOM      9  C   UNL     1      57.566  27.211  26.295  1.00  0.00    -0.005 C 
ATOM     10  C   UNL     1      57.540  26.922  24.992  1.00  0.00     0.009 C 
ENDBRANCH   2   9
TORSDOF 3
ENDMDL
MODEL 8
REMARK VINA RESULT:    -3.485     21.369     22.369
REMARK INTER + INTRA:          -4.578
REMARK INTER:                  -4.123
REMARK INTRA:                  -0.455
REMARK UNBOUND:                -0.482
REMARK SMILES C=CC(C)=CCC=C(C)C
REMARK SMILES IDX 5 1 3 2 4 3 6 4 7 5 9 6 8 7 10 8 2 9 1 10
REMARK H PARENT
REMARK Flexibility Score: inf
ROOT
ATOM      1  C   UNL     1      55.098  30.593  26.253  1.00  0.00    -0.020 C 
ATOM      2  C   UNL     1      53.908  30.014  26.520  1.00  0.00    -0.055 C 
ATOM      3  C   UNL     1      53.804  28.586  27.012  1.00  0.00     0.044 C 
ENDROOT
BRANCH   1   4
ATOM      4  C   UNL     1      56.439  29.929  26.418  1.00  0.00     0.055 C 
BRANCH   4   5
ATOM      5  C   UNL     1      56.847  29.184  25.169  1.00  0.00    -0.024 C 
ATOM      6  C   UNL     1      57.342  27.106  26.463  1.00  0.00     0.039 C 
ATOM      7  C   UNL     1      57.260  27.899  25.180  1.00  0.00    -0.080 C 
ATOM      8  C   UNL     1      57.645  27.252  23.875  1.00  0.00     0.039 C 
ENDBRANCH   4   5
ENDBRANCH   1   4
BRANCH   2   9
ATOM      9  C   UNL     1      52.677  30.801  26.251  1.00  0.00    -0.005 C 
ATOM     10  C   UNL     1      52.651  32.133  26.183  1.00  0.00     0.009 C 
ENDBRANCH   2   9
TORSDOF 3
ENDMDL
MODEL 9
REMARK VINA RESULT:    -3.439     21.637     22.729
REMARK INTER + INTRA:          -4.523
REMARK INTER:                  -4.065
REMARK INTRA:                  -0.458
REMARK UNBOUND:                -0.482
REMARK SMILES C=CC(C)=CCC=C(C)C
REMARK SMILES IDX 5 1 3 2 4 3 6 4 7 5 9 6 8 7 10 8 2 9 1 10
REMARK H PARENT
REMARK Flexibility Score: inf
ROOT
ATOM      1  C   UNL     1      55.044  30.298  23.991  1.00  0.00    -0.020 C 
ATOM      2  C   UNL     1      53.954  30.719  24.668  1.00  0.00    -0.055 C 
ATOM      3  C   UNL     1      54.032  31.177  26.107  1.00  0.00     0.044 C 
ENDROOT
BRANCH   1   4
ATOM      4  C   UNL     1      56.441  30.246  24.550  1.00  0.00     0.055 C 
BRANCH   4   5
ATOM      5  C   UNL     1      56.892  28.824  24.785  1.00  0.00    -0.024 C 
ATOM      6  C   UNL     1      56.861  29.129  27.263  1.00  0.00     0.039 C 
ATOM      7  C   UNL     1      57.086  28.307  26.017  1.00  0.00    -0.080 C 
ATOM      8  C   UNL     1      57.538  26.875  26.137  1.00  0.00     0.039 C 
ENDBRANCH   4   5
ENDBRANCH   1   4
BRANCH   2   9
ATOM      9  C   UNL     1      52.641  30.656  23.975  1.00  0.00    -0.005 C 
ATOM     10  C   UNL     1      51.729  31.627  24.032  1.00  0.00     0.009 C 
ENDBRANCH   2   9
TORSDOF 3
ENDMDL
