MODEL 1
REMARK VINA RESULT:    -3.910      0.000      0.000
REMARK INTER + INTRA:         -11.984
REMARK INTER:                  -8.939
REMARK INTRA:                  -3.045
REMARK UNBOUND:                -3.045
REMARK SMILES CCCCCCCCCCCCCCCCCCCCCCCC(=O)[O-]
REMARK SMILES IDX 13 1 14 2 15 3 16 4 17 5 18 6 19 7 20 8 21 9 22 10 23 11
REMARK SMILES IDX 24 12 25 13 26 14 12 15 11 16 10 17 9 18 8 19 7 20 6 21 5 22
REMARK SMILES IDX 4 23 3 24 2 25 1 26
REMARK H PARENT
REMARK Flexibility Score: inf
ROOT
ATOM      1  C   UNL     1      -4.732 -67.731  -3.872  1.00  0.00     0.000 C 
ENDROOT
BRANCH   1   2
ATOM      2  C   UNL     1      -3.716 -67.646  -5.021  1.00  0.00     0.000 C 
BRANCH   2   3
ATOM      3  C   UNL     1      -4.367 -67.270  -6.366  1.00  0.00     0.000 C 
BRANCH   3   4
ATOM      4  C   UNL     1      -3.753 -66.039  -7.066  1.00  0.00     0.000 C 
BRANCH   4   5
ATOM      5  C   UNL     1      -3.999 -64.693  -6.354  1.00  0.00     0.000 C 
BRANCH   5   6
ATOM      6  C   UNL     1      -5.480 -64.342  -6.113  1.00  0.00     0.000 C 
BRANCH   6   7
ATOM      7  C   UNL     1      -6.271 -63.979  -7.382  1.00  0.00     0.000 C 
BRANCH   7   8
ATOM      8  C   UNL     1      -7.478 -64.903  -7.616  1.00  0.00     0.000 C 
BRANCH   8   9
ATOM      9  C   UNL     1      -7.501 -65.499  -9.035  1.00  0.00     0.000 C 
BRANCH   9  10
ATOM     10  C   UNL     1      -6.854 -66.892  -9.154  1.00  0.00     0.006 C 
BRANCH  10  11
ATOM     11  C   UNL     1      -7.669 -67.850 -10.032  1.00  0.00     0.053 C 
BRANCH  11  12
ATOM     12  C   UNL     1      -7.007 -69.189 -10.112  1.00  0.00     0.041 C 
ATOM     13  O   UNL     1      -6.169 -69.427 -11.020  1.00  0.00    -0.550 OA
ATOM     14  O   UNL     1      -7.300 -70.168  -9.170  1.00  0.00    -0.550 OA
ENDBRANCH  11  12
ENDBRANCH  10  11
ENDBRANCH   9  10
ENDBRANCH   8   9
ENDBRANCH   7   8
ENDBRANCH   6   7
ENDBRANCH   5   6
ENDBRANCH   4   5
ENDBRANCH   3   4
ENDBRANCH   2   3
ENDBRANCH   1   2
BRANCH   1  15
ATOM     15  C   UNL     1      -4.711 -66.452  -3.027  1.00  0.00     0.000 C 
BRANCH  15  16
ATOM     16  C   UNL     1      -5.106 -66.750  -1.572  1.00  0.00     0.000 C 
BRANCH  16  17
ATOM     17  C   UNL     1      -4.787 -65.587  -0.617  1.00  0.00     0.000 C 
BRANCH  17  18
ATOM     18  C   UNL     1      -4.104 -64.373  -1.276  1.00  0.00    -0.000 C 
BRANCH  18  19
ATOM     19  C   UNL     1      -4.979 -63.101  -1.294  1.00  0.00    -0.000 C 
BRANCH  19  20
ATOM     20  C   UNL     1      -6.335 -63.317  -0.599  1.00  0.00    -0.000 C 
BRANCH  20  21
ATOM     21  C   UNL     1      -7.493 -63.464  -1.596  1.00  0.00    -0.000 C 
BRANCH  21  22
ATOM     22  C   UNL     1      -8.413 -64.652  -1.261  1.00  0.00    -0.000 C 
BRANCH  22  23
ATOM     23  C   UNL     1      -8.294 -65.094   0.206  1.00  0.00    -0.000 C 
BRANCH  23  24
ATOM     24  C   UNL     1      -8.323 -66.625   0.366  1.00  0.00    -0.000 C 
BRANCH  24  25
ATOM     25  C   UNL     1      -9.196 -67.311  -0.696  1.00  0.00    -0.003 C 
ATOM     26  C   UNL     1      -8.489 -68.493  -1.363  1.00  0.00     0.004 C 
ENDBRANCH  24  25
ENDBRANCH  23  24
ENDBRANCH  22  23
ENDBRANCH  21  22
ENDBRANCH  20  21
ENDBRANCH  19  20
ENDBRANCH  18  19
ENDBRANCH  17  18
ENDBRANCH  16  17
ENDBRANCH  15  16
ENDBRANCH   1  15
TORSDOF 22
ENDMDL
MODEL 2
REMARK VINA RESULT:    -3.847      3.958      5.327
REMARK INTER + INTRA:         -11.840
REMARK INTER:                  -8.805
REMARK INTRA:                  -3.035
REMARK UNBOUND:                -3.045
REMARK SMILES CCCCCCCCCCCCCCCCCCCCCCCC(=O)[O-]
REMARK SMILES IDX 13 1 14 2 15 3 16 4 17 5 18 6 19 7 20 8 21 9 22 10 23 11
REMARK SMILES IDX 24 12 25 13 26 14 12 15 11 16 10 17 9 18 8 19 7 20 6 21 5 22
REMARK SMILES IDX 4 23 3 24 2 25 1 26
REMARK H PARENT
REMARK Flexibility Score: inf
ROOT
ATOM      1  C   UNL     1      -4.309 -67.889  -5.751  1.00  0.00     0.000 C 
ENDROOT
BRANCH   1   2
ATOM      2  C   UNL     1      -4.003 -66.778  -6.767  1.00  0.00     0.000 C 
BRANCH   2   3
ATOM      3  C   UNL     1      -5.267 -66.036  -7.238  1.00  0.00     0.000 C 
BRANCH   3   4
ATOM      4  C   UNL     1      -5.365 -64.563  -6.786  1.00  0.00     0.000 C 
BRANCH   4   5
ATOM      5  C   UNL     1      -4.394 -64.160  -5.656  1.00  0.00     0.000 C 
BRANCH   5   6
ATOM      6  C   UNL     1      -3.227 -63.252  -6.091  1.00  0.00     0.000 C 
BRANCH   6   7
ATOM      7  C   UNL     1      -3.112 -63.033  -7.609  1.00  0.00     0.000 C 
BRANCH   7   8
ATOM      8  C   UNL     1      -1.834 -63.649  -8.204  1.00  0.00     0.000 C 
BRANCH   8   9
ATOM      9  C   UNL     1      -1.101 -64.567  -7.209  1.00  0.00     0.000 C 
BRANCH   9  10
ATOM     10  C   UNL     1       0.436 -64.495  -7.286  1.00  0.00     0.006 C 
BRANCH  10  11
ATOM     11  C   UNL     1       0.965 -63.057  -7.212  1.00  0.00     0.053 C 
BRANCH  11  12
ATOM     12  C   UNL     1       1.378 -62.715  -5.815  1.00  0.00     0.041 C 
ATOM     13  O   UNL     1       1.731 -63.625  -5.020  1.00  0.00    -0.550 OA
ATOM     14  O   UNL     1       1.391 -61.390  -5.398  1.00  0.00    -0.550 OA
ENDBRANCH  11  12
ENDBRANCH  10  11
ENDBRANCH   9  10
ENDBRANCH   8   9
ENDBRANCH   7   8
ENDBRANCH   6   7
ENDBRANCH   5   6
ENDBRANCH   4   5
ENDBRANCH   3   4
ENDBRANCH   2   3
ENDBRANCH   1   2
BRANCH   1  15
ATOM     15  C   UNL     1      -3.937 -67.450  -4.330  1.00  0.00     0.000 C 
BRANCH  15  16
ATOM     16  C   UNL     1      -5.017 -67.878  -3.323  1.00  0.00     0.000 C 
BRANCH  16  17
ATOM     17  C   UNL     1      -5.153 -66.902  -2.143  1.00  0.00     0.000 C 
BRANCH  17  18
ATOM     18  C   UNL     1      -4.294 -65.627  -2.250  1.00  0.00    -0.000 C 
BRANCH  18  19
ATOM     19  C   UNL     1      -4.895 -64.408  -1.518  1.00  0.00    -0.000 C 
BRANCH  19  20
ATOM     20  C   UNL     1      -5.803 -63.569  -2.434  1.00  0.00    -0.000 C 
BRANCH  20  21
ATOM     21  C   UNL     1      -7.283 -63.652  -2.032  1.00  0.00    -0.000 C 
BRANCH  21  22
ATOM     22  C   UNL     1      -7.517 -63.274  -0.559  1.00  0.00    -0.000 C 
BRANCH  22  23
ATOM     23  C   UNL     1      -8.302 -64.350   0.208  1.00  0.00    -0.000 C 
BRANCH  23  24
ATOM     24  C   UNL     1      -8.810 -65.478  -0.709  1.00  0.00    -0.000 C 
BRANCH  24  25
ATOM     25  C   UNL     1      -8.708 -66.862  -0.052  1.00  0.00    -0.003 C 
ATOM     26  C   UNL     1      -8.795 -68.003  -1.068  1.00  0.00     0.004 C 
ENDBRANCH  24  25
ENDBRANCH  23  24
ENDBRANCH  22  23
ENDBRANCH  21  22
ENDBRANCH  20  21
ENDBRANCH  19  20
ENDBRANCH  18  19
ENDBRANCH  17  18
ENDBRANCH  16  17
ENDBRANCH  15  16
ENDBRANCH   1  15
TORSDOF 22
ENDMDL
MODEL 3
REMARK VINA RESULT:    -3.810      3.349      4.632
REMARK INTER + INTRA:         -11.756
REMARK INTER:                  -8.016
REMARK INTRA:                  -3.739
REMARK UNBOUND:                -3.045
REMARK SMILES CCCCCCCCCCCCCCCCCCCCCCCC(=O)[O-]
REMARK SMILES IDX 13 1 14 2 15 3 16 4 17 5 18 6 19 7 20 8 21 9 22 10 23 11
REMARK SMILES IDX 24 12 25 13 26 14 12 15 11 16 10 17 9 18 8 19 7 20 6 21 5 22
REMARK SMILES IDX 4 23 3 24 2 25 1 26
REMARK H PARENT
REMARK Flexibility Score: inf
ROOT
ATOM      1  C   UNL     1      -4.837 -64.839  -4.141  1.00  0.00     0.000 C 
ENDROOT
BRANCH   1   2
ATOM      2  C   UNL     1      -3.954 -66.044  -3.785  1.00  0.00     0.000 C 
BRANCH   2   3
ATOM      3  C   UNL     1      -4.173 -67.244  -4.726  1.00  0.00     0.000 C 
BRANCH   3   4
ATOM      4  C   UNL     1      -3.471 -67.134  -6.096  1.00  0.00     0.000 C 
BRANCH   4   5
ATOM      5  C   UNL     1      -4.395 -67.308  -7.319  1.00  0.00     0.000 C 
BRANCH   5   6
ATOM      6  C   UNL     1      -5.417 -66.174  -7.533  1.00  0.00     0.000 C 
BRANCH   6   7
ATOM      7  C   UNL     1      -4.907 -64.998  -8.383  1.00  0.00     0.000 C 
BRANCH   7   8
ATOM      8  C   UNL     1      -4.712 -63.712  -7.562  1.00  0.00     0.000 C 
BRANCH   8   9
ATOM      9  C   UNL     1      -3.389 -62.996  -7.889  1.00  0.00     0.000 C 
BRANCH   9  10
ATOM     10  C   UNL     1      -2.162 -63.924  -7.971  1.00  0.00     0.006 C 
BRANCH  10  11
ATOM     11  C   UNL     1      -1.536 -64.200  -6.598  1.00  0.00     0.053 C 
BRANCH  11  12
ATOM     12  C   UNL     1      -0.225 -63.492  -6.462  1.00  0.00     0.041 C 
ATOM     13  O   UNL     1      -0.027 -62.706  -5.500  1.00  0.00    -0.550 OA
ATOM     14  O   UNL     1       0.786 -63.717  -7.389  1.00  0.00    -0.550 OA
ENDBRANCH  11  12
ENDBRANCH  10  11
ENDBRANCH   9  10
ENDBRANCH   8   9
ENDBRANCH   7   8
ENDBRANCH   6   7
ENDBRANCH   5   6
ENDBRANCH   4   5
ENDBRANCH   3   4
ENDBRANCH   2   3
ENDBRANCH   1   2
BRANCH   1  15
ATOM     15  C   UNL     1      -4.102 -63.521  -3.867  1.00  0.00     0.000 C 
BRANCH  15  16
ATOM     16  C   UNL     1      -2.713 -63.783  -3.264  1.00  0.00     0.000 C 
BRANCH  16  17
ATOM     17  C   UNL     1      -2.497 -63.059  -1.925  1.00  0.00     0.000 C 
BRANCH  17  18
ATOM     18  C   UNL     1      -2.638 -63.948  -0.675  1.00  0.00    -0.000 C 
BRANCH  18  19
ATOM     19  C   UNL     1      -3.655 -63.416   0.358  1.00  0.00    -0.000 C 
BRANCH  19  20
ATOM     20  C   UNL     1      -5.002 -64.154   0.282  1.00  0.00    -0.000 C 
BRANCH  20  21
ATOM     21  C   UNL     1      -4.883 -65.534  -0.380  1.00  0.00    -0.000 C 
BRANCH  21  22
ATOM     22  C   UNL     1      -6.241 -66.080  -0.855  1.00  0.00    -0.000 C 
BRANCH  22  23
ATOM     23  C   UNL     1      -7.246 -64.962  -1.176  1.00  0.00    -0.000 C 
BRANCH  23  24
ATOM     24  C   UNL     1      -8.701 -65.373  -0.886  1.00  0.00    -0.000 C 
BRANCH  24  25
ATOM     25  C   UNL     1      -8.793 -66.635  -0.014  1.00  0.00    -0.003 C 
ATOM     26  C   UNL     1      -9.281 -67.855  -0.797  1.00  0.00     0.004 C 
ENDBRANCH  24  25
ENDBRANCH  23  24
ENDBRANCH  22  23
ENDBRANCH  21  22
ENDBRANCH  20  21
ENDBRANCH  19  20
ENDBRANCH  18  19
ENDBRANCH  17  18
ENDBRANCH  16  17
ENDBRANCH  15  16
ENDBRANCH   1  15
TORSDOF 22
ENDMDL
MODEL 4
REMARK VINA RESULT:    -3.758      3.182      4.720
REMARK INTER + INTRA:         -11.637
REMARK INTER:                  -8.075
REMARK INTRA:                  -3.563
REMARK UNBOUND:                -3.045
REMARK SMILES CCCCCCCCCCCCCCCCCCCCCCCC(=O)[O-]
REMARK SMILES IDX 13 1 14 2 15 3 16 4 17 5 18 6 19 7 20 8 21 9 22 10 23 11
REMARK SMILES IDX 24 12 25 13 26 14 12 15 11 16 10 17 9 18 8 19 7 20 6 21 5 22
REMARK SMILES IDX 4 23 3 24 2 25 1 26
REMARK H PARENT
REMARK Flexibility Score: inf
ROOT
ATOM      1  C   UNL     1      -3.331 -64.548  -3.561  1.00  0.00     0.000 C 
ENDROOT
BRANCH   1   2
ATOM      2  C   UNL     1      -4.398 -65.417  -4.243  1.00  0.00     0.000 C 
BRANCH   2   3
ATOM      3  C   UNL     1      -4.061 -66.920  -4.197  1.00  0.00     0.000 C 
BRANCH   3   4
ATOM      4  C   UNL     1      -3.421 -67.484  -5.484  1.00  0.00     0.000 C 
BRANCH   4   5
ATOM      5  C   UNL     1      -4.420 -68.032  -6.524  1.00  0.00     0.000 C 
BRANCH   5   6
ATOM      6  C   UNL     1      -4.361 -67.353  -7.906  1.00  0.00     0.000 C 
BRANCH   6   7
ATOM      7  C   UNL     1      -5.507 -66.366  -8.188  1.00  0.00     0.000 C 
BRANCH   7   8
ATOM      8  C   UNL     1      -5.205 -64.945  -7.682  1.00  0.00     0.000 C 
BRANCH   8   9
ATOM      9  C   UNL     1      -3.906 -64.369  -8.273  1.00  0.00     0.000 C 
BRANCH   9  10
ATOM     10  C   UNL     1      -2.912 -63.829  -7.227  1.00  0.00     0.006 C 
BRANCH  10  11
ATOM     11  C   UNL     1      -1.689 -64.740  -7.049  1.00  0.00     0.053 C 
BRANCH  11  12
ATOM     12  C   UNL     1      -0.423 -63.977  -7.278  1.00  0.00     0.041 C 
ATOM     13  O   UNL     1       0.691 -64.516  -7.047  1.00  0.00    -0.550 OA
ATOM     14  O   UNL     1      -0.473 -62.677  -7.766  1.00  0.00    -0.550 OA
ENDBRANCH  11  12
ENDBRANCH  10  11
ENDBRANCH   9  10
ENDBRANCH   8   9
ENDBRANCH   7   8
ENDBRANCH   6   7
ENDBRANCH   5   6
ENDBRANCH   4   5
ENDBRANCH   3   4
ENDBRANCH   2   3
ENDBRANCH   1   2
BRANCH   1  15
ATOM     15  C   UNL     1      -3.941 -63.242  -3.038  1.00  0.00     0.000 C 
BRANCH  15  16
ATOM     16  C   UNL     1      -4.856 -63.508  -1.832  1.00  0.00     0.000 C 
BRANCH  16  17
ATOM     17  C   UNL     1      -4.268 -64.538  -0.853  1.00  0.00     0.000 C 
BRANCH  17  18
ATOM     18  C   UNL     1      -5.222 -65.684  -0.464  1.00  0.00    -0.000 C 
BRANCH  18  19
ATOM     19  C   UNL     1      -6.602 -65.606  -1.151  1.00  0.00    -0.000 C 
BRANCH  19  20
ATOM     20  C   UNL     1      -7.412 -66.902  -0.978  1.00  0.00    -0.000 C 
BRANCH  20  21
ATOM     21  C   UNL     1      -8.883 -66.637  -0.626  1.00  0.00    -0.000 C 
BRANCH  21  22
ATOM     22  C   UNL     1      -9.042 -65.617   0.516  1.00  0.00    -0.000 C 
BRANCH  22  23
ATOM     23  C   UNL     1      -8.687 -66.211   1.889  1.00  0.00    -0.000 C 
BRANCH  23  24
ATOM     24  C   UNL     1      -7.421 -65.578   2.497  1.00  0.00    -0.000 C 
BRANCH  24  25
ATOM     25  C   UNL     1      -7.322 -64.072   2.213  1.00  0.00    -0.003 C 
ATOM     26  C   UNL     1      -5.925 -63.512   2.489  1.00  0.00     0.004 C 
ENDBRANCH  24  25
ENDBRANCH  23  24
ENDBRANCH  22  23
ENDBRANCH  21  22
ENDBRANCH  20  21
ENDBRANCH  19  20
ENDBRANCH  18  19
ENDBRANCH  17  18
ENDBRANCH  16  17
ENDBRANCH  15  16
ENDBRANCH   1  15
TORSDOF 22
ENDMDL
MODEL 5
REMARK VINA RESULT:    -3.748      3.497      8.684
REMARK INTER + INTRA:         -11.613
REMARK INTER:                  -8.027
REMARK INTRA:                  -3.586
REMARK UNBOUND:                -3.045
REMARK SMILES CCCCCCCCCCCCCCCCCCCCCCCC(=O)[O-]
REMARK SMILES IDX 13 1 14 2 15 3 16 4 17 5 18 6 19 7 20 8 21 9 22 10 23 11
REMARK SMILES IDX 24 12 25 13 26 14 12 15 11 16 10 17 9 18 8 19 7 20 6 21 5 22
REMARK SMILES IDX 4 23 3 24 2 25 1 26
REMARK H PARENT
REMARK Flexibility Score: inf
ROOT
ATOM      1  C   UNL     1      -5.934 -64.708  -7.982  1.00  0.00     0.000 C 
ENDROOT
BRANCH   1   2
ATOM      2  C   UNL     1      -5.314 -65.303  -6.709  1.00  0.00     0.000 C 
BRANCH   2   3
ATOM      3  C   UNL     1      -4.507 -66.587  -6.982  1.00  0.00     0.000 C 
BRANCH   3   4
ATOM      4  C   UNL     1      -3.666 -67.094  -5.790  1.00  0.00     0.000 C 
BRANCH   4   5
ATOM      5  C   UNL     1      -4.444 -67.919  -4.745  1.00  0.00     0.000 C 
BRANCH   5   6
ATOM      6  C   UNL     1      -4.510 -67.296  -3.337  1.00  0.00     0.000 C 
BRANCH   6   7
ATOM      7  C   UNL     1      -3.957 -65.864  -3.241  1.00  0.00     0.000 C 
BRANCH   7   8
ATOM      8  C   UNL     1      -5.055 -64.818  -2.983  1.00  0.00     0.000 C 
BRANCH   8   9
ATOM      9  C   UNL     1      -5.132 -64.391  -1.506  1.00  0.00     0.000 C 
BRANCH   9  10
ATOM     10  C   UNL     1      -5.488 -65.528  -0.530  1.00  0.00     0.006 C 
BRANCH  10  11
ATOM     11  C   UNL     1      -6.915 -66.055  -0.731  1.00  0.00     0.053 C 
BRANCH  11  12
ATOM     12  C   UNL     1      -7.922 -65.009  -0.372  1.00  0.00     0.041 C 
ATOM     13  O   UNL     1      -8.612 -64.460  -1.269  1.00  0.00    -0.550 OA
ATOM     14  O   UNL     1      -8.112 -64.656   0.959  1.00  0.00    -0.550 OA
ENDBRANCH  11  12
ENDBRANCH  10  11
ENDBRANCH   9  10
ENDBRANCH   8   9
ENDBRANCH   7   8
ENDBRANCH   6   7
ENDBRANCH   5   6
ENDBRANCH   4   5
ENDBRANCH   3   4
ENDBRANCH   2   3
ENDBRANCH   1   2
BRANCH   1  15
ATOM     15  C   UNL     1      -7.416 -65.082  -8.096  1.00  0.00     0.000 C 
BRANCH  15  16
ATOM     16  C   UNL     1      -7.713 -65.739  -9.453  1.00  0.00     0.000 C 
BRANCH  16  17
ATOM     17  C   UNL     1      -7.691 -67.276  -9.390  1.00  0.00     0.000 C 
BRANCH  17  18
ATOM     18  C   UNL     1      -6.720 -67.954 -10.375  1.00  0.00    -0.000 C 
BRANCH  18  19
ATOM     19  C   UNL     1      -5.588 -68.747  -9.687  1.00  0.00    -0.000 C 
BRANCH  19  20
ATOM     20  C   UNL     1      -4.194 -68.313 -10.172  1.00  0.00    -0.000 C 
BRANCH  20  21
ATOM     21  C   UNL     1      -4.182 -66.880 -10.725  1.00  0.00    -0.000 C 
BRANCH  21  22
ATOM     22  C   UNL     1      -2.939 -66.087 -10.282  1.00  0.00    -0.000 C 
BRANCH  22  23
ATOM     23  C   UNL     1      -3.118 -64.570 -10.448  1.00  0.00    -0.000 C 
BRANCH  23  24
ATOM     24  C   UNL     1      -2.634 -63.780  -9.218  1.00  0.00    -0.000 C 
BRANCH  24  25
ATOM     25  C   UNL     1      -1.670 -64.590  -8.339  1.00  0.00    -0.003 C 
ATOM     26  C   UNL     1      -1.656 -64.112  -6.886  1.00  0.00     0.004 C 
ENDBRANCH  24  25
ENDBRANCH  23  24
ENDBRANCH  22  23
ENDBRANCH  21  22
ENDBRANCH  20  21
ENDBRANCH  19  20
ENDBRANCH  18  19
ENDBRANCH  17  18
ENDBRANCH  16  17
ENDBRANCH  15  16
ENDBRANCH   1  15
TORSDOF 22
ENDMDL
MODEL 6
REMARK VINA RESULT:    -3.721      3.577      5.549
REMARK INTER + INTRA:         -11.552
REMARK INTER:                  -8.459
REMARK INTRA:                  -3.093
REMARK UNBOUND:                -3.045
REMARK SMILES CCCCCCCCCCCCCCCCCCCCCCCC(=O)[O-]
REMARK SMILES IDX 13 1 14 2 15 3 16 4 17 5 18 6 19 7 20 8 21 9 22 10 23 11
REMARK SMILES IDX 24 12 25 13 26 14 12 15 11 16 10 17 9 18 8 19 7 20 6 21 5 22
REMARK SMILES IDX 4 23 3 24 2 25 1 26
REMARK H PARENT
REMARK Flexibility Score: inf
ROOT
ATOM      1  C   UNL     1      -5.796 -67.714  -9.022  1.00  0.00     0.000 C 
ENDROOT
BRANCH   1   2
ATOM      2  C   UNL     1      -6.044 -66.567 -10.013  1.00  0.00     0.000 C 
BRANCH   2   3
ATOM      3  C   UNL     1      -7.035 -65.518  -9.476  1.00  0.00     0.000 C 
BRANCH   3   4
ATOM      4  C   UNL     1      -7.272 -65.565  -7.951  1.00  0.00     0.000 C 
BRANCH   4   5
ATOM      5  C   UNL     1      -6.616 -64.420  -7.152  1.00  0.00     0.000 C 
BRANCH   5   6
ATOM      6  C   UNL     1      -5.664 -63.519  -7.964  1.00  0.00     0.000 C 
BRANCH   6   7
ATOM      7  C   UNL     1      -4.173 -63.683  -7.621  1.00  0.00     0.000 C 
BRANCH   7   8
ATOM      8  C   UNL     1      -3.313 -64.010  -8.854  1.00  0.00     0.000 C 
BRANCH   8   9
ATOM      9  C   UNL     1      -2.039 -64.796  -8.495  1.00  0.00     0.000 C 
BRANCH   9  10
ATOM     10  C   UNL     1      -1.378 -64.372  -7.170  1.00  0.00     0.006 C 
BRANCH  10  11
ATOM     11  C   UNL     1       0.129 -64.663  -7.141  1.00  0.00     0.053 C 
BRANCH  11  12
ATOM     12  C   UNL     1       0.842 -63.679  -6.269  1.00  0.00     0.041 C 
ATOM     13  O   UNL     1       1.875 -64.024  -5.639  1.00  0.00    -0.550 OA
ATOM     14  O   UNL     1       0.377 -62.373  -6.170  1.00  0.00    -0.550 OA
ENDBRANCH  11  12
ENDBRANCH  10  11
ENDBRANCH   9  10
ENDBRANCH   8   9
ENDBRANCH   7   8
ENDBRANCH   6   7
ENDBRANCH   5   6
ENDBRANCH   4   5
ENDBRANCH   3   4
ENDBRANCH   2   3
ENDBRANCH   1   2
BRANCH   1  15
ATOM     15  C   UNL     1      -4.400 -67.606  -8.396  1.00  0.00     0.000 C 
BRANCH  15  16
ATOM     16  C   UNL     1      -4.414 -68.092  -6.938  1.00  0.00     0.000 C 
BRANCH  16  17
ATOM     17  C   UNL     1      -3.514 -67.248  -6.020  1.00  0.00     0.000 C 
BRANCH  17  18
ATOM     18  C   UNL     1      -4.187 -66.755  -4.724  1.00  0.00    -0.000 C 
BRANCH  18  19
ATOM     19  C   UNL     1      -3.935 -65.262  -4.421  1.00  0.00    -0.000 C 
BRANCH  19  20
ATOM     20  C   UNL     1      -3.796 -64.990  -2.913  1.00  0.00    -0.000 C 
BRANCH  20  21
ATOM     21  C   UNL     1      -5.128 -64.593  -2.260  1.00  0.00    -0.000 C 
BRANCH  21  22
ATOM     22  C   UNL     1      -5.744 -65.738  -1.435  1.00  0.00    -0.000 C 
BRANCH  22  23
ATOM     23  C   UNL     1      -6.937 -65.274  -0.583  1.00  0.00    -0.000 C 
BRANCH  23  24
ATOM     24  C   UNL     1      -7.763 -66.451  -0.033  1.00  0.00    -0.000 C 
BRANCH  24  25
ATOM     25  C   UNL     1      -8.201 -67.429  -1.134  1.00  0.00    -0.003 C 
ATOM     26  C   UNL     1      -9.472 -68.196  -0.767  1.00  0.00     0.004 C 
ENDBRANCH  24  25
ENDBRANCH  23  24
ENDBRANCH  22  23
ENDBRANCH  21  22
ENDBRANCH  20  21
ENDBRANCH  19  20
ENDBRANCH  18  19
ENDBRANCH  17  18
ENDBRANCH  16  17
ENDBRANCH  15  16
ENDBRANCH   1  15
TORSDOF 22
ENDMDL
MODEL 7
REMARK VINA RESULT:    -3.708      5.243      9.964
REMARK INTER + INTRA:         -11.522
REMARK INTER:                  -8.446
REMARK INTRA:                  -3.075
REMARK UNBOUND:                -3.045
REMARK SMILES CCCCCCCCCCCCCCCCCCCCCCCC(=O)[O-]
REMARK SMILES IDX 13 1 14 2 15 3 16 4 17 5 18 6 19 7 20 8 21 9 22 10 23 11
REMARK SMILES IDX 24 12 25 13 26 14 12 15 11 16 10 17 9 18 8 19 7 20 6 21 5 22
REMARK SMILES IDX 4 23 3 24 2 25 1 26
REMARK H PARENT
REMARK Flexibility Score: inf
ROOT
ATOM      1  C   UNL     1      -8.834 -65.601  -1.160  1.00  0.00     0.000 C 
ENDROOT
BRANCH   1   2
ATOM      2  C   UNL     1      -8.618 -66.638  -0.048  1.00  0.00     0.000 C 
BRANCH   2   3
ATOM      3  C   UNL     1      -8.921 -66.081   1.355  1.00  0.00     0.000 C 
BRANCH   3   4
ATOM      4  C   UNL     1      -8.165 -66.774   2.509  1.00  0.00     0.000 C 
BRANCH   4   5
ATOM      5  C   UNL     1      -8.661 -66.414   3.925  1.00  0.00     0.000 C 
BRANCH   5   6
ATOM      6  C   UNL     1      -8.276 -67.420   5.027  1.00  0.00     0.000 C 
BRANCH   6   7
ATOM      7  C   UNL     1      -7.852 -68.807   4.515  1.00  0.00     0.000 C 
BRANCH   7   8
ATOM      8  C   UNL     1      -7.047 -69.605   5.555  1.00  0.00     0.000 C 
BRANCH   8   9
ATOM      9  C   UNL     1      -6.145 -70.673   4.912  1.00  0.00     0.000 C 
BRANCH   9  10
ATOM     10  C   UNL     1      -6.629 -72.122   5.109  1.00  0.00     0.006 C 
BRANCH  10  11
ATOM     11  C   UNL     1      -8.111 -72.202   5.498  1.00  0.00     0.053 C 
BRANCH  11  12
ATOM     12  C   UNL     1      -8.945 -72.609   4.325  1.00  0.00     0.041 C 
ATOM     13  O   UNL     1     -10.068 -73.149   4.504  1.00  0.00    -0.550 OA
ATOM     14  O   UNL     1      -8.492 -72.371   3.033  1.00  0.00    -0.550 OA
ENDBRANCH  11  12
ENDBRANCH  10  11
ENDBRANCH   9  10
ENDBRANCH   8   9
ENDBRANCH   7   8
ENDBRANCH   6   7
ENDBRANCH   5   6
ENDBRANCH   4   5
ENDBRANCH   3   4
ENDBRANCH   2   3
ENDBRANCH   1   2
BRANCH   1  15
ATOM     15  C   UNL     1      -8.652 -64.176  -0.623  1.00  0.00     0.000 C 
BRANCH  15  16
ATOM     16  C   UNL     1      -7.355 -63.550  -1.161  1.00  0.00     0.000 C 
BRANCH  16  17
ATOM     17  C   UNL     1      -6.616 -62.710  -0.105  1.00  0.00     0.000 C 
BRANCH  17  18
ATOM     18  C   UNL     1      -5.354 -63.369   0.484  1.00  0.00    -0.000 C 
BRANCH  18  19
ATOM     19  C   UNL     1      -5.446 -64.907   0.588  1.00  0.00    -0.000 C 
BRANCH  19  20
ATOM     20  C   UNL     1      -4.436 -65.613  -0.332  1.00  0.00    -0.000 C 
BRANCH  20  21
ATOM     21  C   UNL     1      -5.117 -66.423  -1.445  1.00  0.00    -0.000 C 
BRANCH  21  22
ATOM     22  C   UNL     1      -4.670 -65.985  -2.851  1.00  0.00    -0.000 C 
BRANCH  22  23
ATOM     23  C   UNL     1      -3.565 -64.918  -2.812  1.00  0.00    -0.000 C 
BRANCH  23  24
ATOM     24  C   UNL     1      -3.884 -63.703  -3.703  1.00  0.00    -0.000 C 
BRANCH  24  25
ATOM     25  C   UNL     1      -4.162 -62.431  -2.888  1.00  0.00    -0.003 C 
ATOM     26  C   UNL     1      -2.975 -62.023  -2.014  1.00  0.00     0.004 C 
ENDBRANCH  24  25
ENDBRANCH  23  24
ENDBRANCH  22  23
ENDBRANCH  21  22
ENDBRANCH  20  21
ENDBRANCH  19  20
ENDBRANCH  18  19
ENDBRANCH  17  18
ENDBRANCH  16  17
ENDBRANCH  15  16
ENDBRANCH   1  15
TORSDOF 22
ENDMDL
MODEL 8
REMARK VINA RESULT:    -3.687      2.967      5.789
REMARK INTER + INTRA:         -11.475
REMARK INTER:                  -7.357
REMARK INTRA:                  -4.118
REMARK UNBOUND:                -3.045
REMARK SMILES CCCCCCCCCCCCCCCCCCCCCCCC(=O)[O-]
REMARK SMILES IDX 13 1 14 2 15 3 16 4 17 5 18 6 19 7 20 8 21 9 22 10 23 11
REMARK SMILES IDX 24 12 25 13 26 14 12 15 11 16 10 17 9 18 8 19 7 20 6 21 5 22
REMARK SMILES IDX 4 23 3 24 2 25 1 26
REMARK H PARENT
REMARK Flexibility Score: inf
ROOT
ATOM      1  C   UNL     1      -6.146 -66.392  -1.402  1.00  0.00     0.000 C 
ENDROOT
BRANCH   1   2
ATOM      2  C   UNL     1      -4.748 -66.074  -0.850  1.00  0.00     0.000 C 
BRANCH   2   3
ATOM      3  C   UNL     1      -4.772 -65.000   0.253  1.00  0.00     0.000 C 
BRANCH   3   4
ATOM      4  C   UNL     1      -3.718 -63.883   0.099  1.00  0.00     0.000 C 
BRANCH   4   5
ATOM      5  C   UNL     1      -4.290 -62.453   0.010  1.00  0.00     0.000 C 
BRANCH   5   6
ATOM      6  C   UNL     1      -5.430 -62.267  -1.011  1.00  0.00     0.000 C 
BRANCH   6   7
ATOM      7  C   UNL     1      -4.966 -62.052  -2.462  1.00  0.00     0.000 C 
BRANCH   7   8
ATOM      8  C   UNL     1      -4.970 -63.351  -3.286  1.00  0.00     0.000 C 
BRANCH   8   9
ATOM      9  C   UNL     1      -3.554 -63.797  -3.695  1.00  0.00     0.000 C 
BRANCH   9  10
ATOM     10  C   UNL     1      -3.512 -64.798  -4.865  1.00  0.00     0.006 C 
BRANCH  10  11
ATOM     11  C   UNL     1      -4.326 -66.069  -4.585  1.00  0.00     0.053 C 
BRANCH  11  12
ATOM     12  C   UNL     1      -4.358 -66.953  -5.791  1.00  0.00     0.041 C 
ATOM     13  O   UNL     1      -4.371 -68.205  -5.658  1.00  0.00    -0.550 OA
ATOM     14  O   UNL     1      -4.396 -66.394  -7.063  1.00  0.00    -0.550 OA
ENDBRANCH  11  12
ENDBRANCH  10  11
ENDBRANCH   9  10
ENDBRANCH   8   9
ENDBRANCH   7   8
ENDBRANCH   6   7
ENDBRANCH   5   6
ENDBRANCH   4   5
ENDBRANCH   3   4
ENDBRANCH   2   3
ENDBRANCH   1   2
BRANCH   1  15
ATOM     15  C   UNL     1      -7.204 -65.477  -0.774  1.00  0.00     0.000 C 
BRANCH  15  16
ATOM     16  C   UNL     1      -8.579 -66.163  -0.750  1.00  0.00     0.000 C 
BRANCH  16  17
ATOM     17  C   UNL     1      -9.253 -66.100   0.631  1.00  0.00     0.000 C 
BRANCH  17  18
ATOM     18  C   UNL     1      -8.372 -66.563   1.807  1.00  0.00    -0.000 C 
BRANCH  18  19
ATOM     19  C   UNL     1      -8.932 -66.178   3.194  1.00  0.00    -0.000 C 
BRANCH  19  20
ATOM     20  C   UNL     1      -7.995 -65.225   3.956  1.00  0.00    -0.000 C 
BRANCH  20  21
ATOM     21  C   UNL     1      -6.796 -64.774   3.109  1.00  0.00    -0.000 C 
BRANCH  21  22
ATOM     22  C   UNL     1      -6.781 -63.254   2.868  1.00  0.00    -0.000 C 
BRANCH  22  23
ATOM     23  C   UNL     1      -7.697 -62.833   1.708  1.00  0.00    -0.000 C 
BRANCH  23  24
ATOM     24  C   UNL     1      -8.272 -61.416   1.893  1.00  0.00    -0.000 C 
BRANCH  24  25
ATOM     25  C   UNL     1      -7.272 -60.456   2.554  1.00  0.00    -0.003 C 
ATOM     26  C   UNL     1      -6.402 -59.720   1.533  1.00  0.00     0.004 C 
ENDBRANCH  24  25
ENDBRANCH  23  24
ENDBRANCH  22  23
ENDBRANCH  21  22
ENDBRANCH  20  21
ENDBRANCH  19  20
ENDBRANCH  18  19
ENDBRANCH  17  18
ENDBRANCH  16  17
ENDBRANCH  15  16
ENDBRANCH   1  15
TORSDOF 22
ENDMDL
MODEL 9
REMARK VINA RESULT:    -3.653      3.063      5.991
REMARK INTER + INTRA:         -11.397
REMARK INTER:                  -7.047
REMARK INTRA:                  -4.350
REMARK UNBOUND:                -3.045
REMARK SMILES CCCCCCCCCCCCCCCCCCCCCCCC(=O)[O-]
REMARK SMILES IDX 13 1 14 2 15 3 16 4 17 5 18 6 19 7 20 8 21 9 22 10 23 11
REMARK SMILES IDX 24 12 25 13 26 14 12 15 11 16 10 17 9 18 8 19 7 20 6 21 5 22
REMARK SMILES IDX 4 23 3 24 2 25 1 26
REMARK H PARENT
REMARK Flexibility Score: inf
ROOT
ATOM      1  C   UNL     1      -4.992 -62.293  -1.732  1.00  0.00     0.000 C 
ENDROOT
BRANCH   1   2
ATOM      2  C   UNL     1      -5.461 -63.095  -2.955  1.00  0.00     0.000 C 
BRANCH   2   3
ATOM      3  C   UNL     1      -6.963 -63.433  -2.908  1.00  0.00     0.000 C 
BRANCH   3   4
ATOM      4  C   UNL     1      -7.575 -63.487  -1.492  1.00  0.00     0.000 C 
BRANCH   4   5
ATOM      5  C   UNL     1      -8.330 -64.789  -1.156  1.00  0.00     0.000 C 
BRANCH   5   6
ATOM      6  C   UNL     1      -7.435 -65.983  -0.772  1.00  0.00     0.000 C 
BRANCH   6   7
ATOM      7  C   UNL     1      -6.131 -65.605  -0.048  1.00  0.00     0.000 C 
BRANCH   7   8
ATOM      8  C   UNL     1      -4.874 -66.056  -0.811  1.00  0.00     0.000 C 
BRANCH   8   9
ATOM      9  C   UNL     1      -5.209 -66.835  -2.096  1.00  0.00     0.000 C 
BRANCH   9  10
ATOM     10  C   UNL     1      -4.347 -66.457  -3.315  1.00  0.00     0.006 C 
BRANCH  10  11
ATOM     11  C   UNL     1      -4.191 -67.615  -4.310  1.00  0.00     0.053 C 
BRANCH  11  12
ATOM     12  C   UNL     1      -4.398 -67.140  -5.713  1.00  0.00     0.041 C 
ATOM     13  O   UNL     1      -4.657 -65.929  -5.939  1.00  0.00    -0.550 OA
ATOM     14  O   UNL     1      -4.284 -68.031  -6.773  1.00  0.00    -0.550 OA
ENDBRANCH  11  12
ENDBRANCH  10  11
ENDBRANCH   9  10
ENDBRANCH   8   9
ENDBRANCH   7   8
ENDBRANCH   6   7
ENDBRANCH   5   6
ENDBRANCH   4   5
ENDBRANCH   3   4
ENDBRANCH   2   3
ENDBRANCH   1   2
BRANCH   1  15
ATOM     15  C   UNL     1      -3.462 -62.295  -1.629  1.00  0.00     0.000 C 
BRANCH  15  16
ATOM     16  C   UNL     1      -3.008 -62.747  -0.232  1.00  0.00     0.000 C 
BRANCH  16  17
ATOM     17  C   UNL     1      -4.170 -62.847   0.770  1.00  0.00     0.000 C 
BRANCH  17  18
ATOM     18  C   UNL     1      -3.851 -62.336   2.189  1.00  0.00    -0.000 C 
BRANCH  18  19
ATOM     19  C   UNL     1      -3.052 -61.015   2.210  1.00  0.00    -0.000 C 
BRANCH  19  20
ATOM     20  C   UNL     1      -3.950 -59.796   2.484  1.00  0.00    -0.000 C 
BRANCH  20  21
ATOM     21  C   UNL     1      -5.154 -60.138   3.373  1.00  0.00    -0.000 C 
BRANCH  21  22
ATOM     22  C   UNL     1      -6.454 -59.473   2.887  1.00  0.00    -0.000 C 
BRANCH  22  23
ATOM     23  C   UNL     1      -6.584 -59.483   1.356  1.00  0.00    -0.000 C 
BRANCH  23  24
ATOM     24  C   UNL     1      -7.198 -60.791   0.823  1.00  0.00    -0.000 C 
BRANCH  24  25
ATOM     25  C   UNL     1      -8.077 -61.497   1.867  1.00  0.00    -0.003 C 
ATOM     26  C   UNL     1      -7.623 -62.931   2.144  1.00  0.00     0.004 C 
ENDBRANCH  24  25
ENDBRANCH  23  24
ENDBRANCH  22  23
ENDBRANCH  21  22
ENDBRANCH  20  21
ENDBRANCH  19  20
ENDBRANCH  18  19
ENDBRANCH  17  18
ENDBRANCH  16  17
ENDBRANCH  15  16
ENDBRANCH   1  15
TORSDOF 22
ENDMDL
