MODEL 1
REMARK VINA RESULT:    -4.184      0.000      0.000
REMARK INTER + INTRA:         -10.062
REMARK INTER:                  -7.853
REMARK INTRA:                  -2.209
REMARK UNBOUND:                -2.209
REMARK SMILES O=C([O-])CCCCCCCCCCCCCCC(=O)[O-]
REMARK SMILES IDX 10 1 9 2 8 3 7 4 6 5 5 6 4 7 2 8 1 9 3 10 11 11 12 12 13 13
REMARK SMILES IDX 14 14 15 15 16 16 17 17 18 18 19 19 20 20
REMARK H PARENT
REMARK Flexibility Score: inf
ROOT
ATOM      1  C   UNL     1     177.072 176.935 180.588  1.00  0.00     0.000 C 
ENDROOT
BRANCH   1   2
ATOM      2  C   UNL     1     175.997 177.301 179.550  1.00  0.00     0.000 C 
BRANCH   2   3
ATOM      3  C   UNL     1     174.786 176.342 179.585  1.00  0.00     0.000 C 
BRANCH   3   4
ATOM      4  C   UNL     1     173.462 177.034 179.959  1.00  0.00     0.000 C 
BRANCH   4   5
ATOM      5  C   UNL     1     172.768 176.456 181.205  1.00  0.00     0.000 C 
BRANCH   5   6
ATOM      6  C   UNL     1     172.900 177.348 182.459  1.00  0.00     0.006 C 
BRANCH   6   7
ATOM      7  C   UNL     1     171.607 178.103 182.791  1.00  0.00     0.053 C 
BRANCH   7   8
ATOM      8  C   UNL     1     170.423 177.201 182.642  1.00  0.00     0.041 C 
ATOM      9  O   UNL     1     169.587 177.400 181.722  1.00  0.00    -0.550 OA
ATOM     10  O   UNL     1     170.216 176.171 183.550  1.00  0.00    -0.550 OA
ENDBRANCH   7   8
ENDBRANCH   6   7
ENDBRANCH   5   6
ENDBRANCH   4   5
ENDBRANCH   3   4
ENDBRANCH   2   3
ENDBRANCH   1   2
BRANCH   1  11
ATOM     11  C   UNL     1     176.978 177.787 181.863  1.00  0.00     0.000 C 
BRANCH  11  12
ATOM     12  C   UNL     1     176.517 176.973 183.084  1.00  0.00     0.000 C 
BRANCH  12  13
ATOM     13  C   UNL     1     176.617 175.456 182.855  1.00  0.00     0.000 C 
BRANCH  13  14
ATOM     14  C   UNL     1     175.319 174.718 183.213  1.00  0.00     0.000 C 
BRANCH  14  15
ATOM     15  C   UNL     1     174.997 173.638 182.173  1.00  0.00     0.000 C 
BRANCH  15  16
ATOM     16  C   UNL     1     176.191 173.404 181.236  1.00  0.00     0.006 C 
BRANCH  16  17
ATOM     17  C   UNL     1     176.994 172.154 181.621  1.00  0.00     0.053 C 
BRANCH  17  18
ATOM     18  C   UNL     1     176.760 171.027 180.661  1.00  0.00     0.041 C 
ATOM     19  O   UNL     1     177.359 169.930 180.812  1.00  0.00    -0.550 OA
ATOM     20  O   UNL     1     175.857 171.180 179.617  1.00  0.00    -0.550 OA
ENDBRANCH  17  18
ENDBRANCH  16  17
ENDBRANCH  15  16
ENDBRANCH  14  15
ENDBRANCH  13  14
ENDBRANCH  12  13
ENDBRANCH  11  12
ENDBRANCH   1  11
TORSDOF 15
ENDMDL
MODEL 2
REMARK VINA RESULT:    -4.147      2.917      5.438
REMARK INTER + INTRA:          -9.992
REMARK INTER:                  -7.834
REMARK INTRA:                  -2.157
REMARK UNBOUND:                -2.209
REMARK SMILES O=C([O-])CCCCCCCCCCCCCCC(=O)[O-]
REMARK SMILES IDX 10 1 9 2 8 3 7 4 6 5 5 6 4 7 2 8 1 9 3 10 11 11 12 12 13 13
REMARK SMILES IDX 14 14 15 15 16 16 17 17 18 18 19 19 20 20
REMARK H PARENT
REMARK Flexibility Score: inf
ROOT
ATOM      1  C   UNL     1     174.883 175.100 182.374  1.00  0.00     0.000 C 
ENDROOT
BRANCH   1   2
ATOM      2  C   UNL     1     175.916 175.807 183.269  1.00  0.00     0.000 C 
BRANCH   2   3
ATOM      3  C   UNL     1     177.041 176.486 182.457  1.00  0.00     0.000 C 
BRANCH   3   4
ATOM      4  C   UNL     1     176.948 176.232 180.941  1.00  0.00     0.000 C 
BRANCH   4   5
ATOM      5  C   UNL     1     176.833 177.505 180.084  1.00  0.00     0.000 C 
BRANCH   5   6
ATOM      6  C   UNL     1     175.447 177.689 179.428  1.00  0.00     0.006 C 
BRANCH   6   7
ATOM      7  C   UNL     1     174.843 176.368 178.936  1.00  0.00     0.053 C 
BRANCH   7   8
ATOM      8  C   UNL     1     173.351 176.463 178.883  1.00  0.00     0.041 C 
ATOM      9  O   UNL     1     172.654 175.425 178.736  1.00  0.00    -0.550 OA
ATOM     10  O   UNL     1     172.731 177.705 178.947  1.00  0.00    -0.550 OA
ENDBRANCH   7   8
ENDBRANCH   6   7
ENDBRANCH   5   6
ENDBRANCH   4   5
ENDBRANCH   3   4
ENDBRANCH   2   3
ENDBRANCH   1   2
BRANCH   1  11
ATOM     11  C   UNL     1     173.480 175.717 182.492  1.00  0.00     0.000 C 
BRANCH  11  12
ATOM     12  C   UNL     1     173.517 177.251 182.598  1.00  0.00     0.000 C 
BRANCH  12  13
ATOM     13  C   UNL     1     172.115 177.881 182.538  1.00  0.00     0.000 C 
BRANCH  13  14
ATOM     14  C   UNL     1     171.069 176.936 181.928  1.00  0.00     0.000 C 
BRANCH  14  15
ATOM     15  C   UNL     1     169.807 176.881 182.797  1.00  0.00     0.000 C 
BRANCH  15  16
ATOM     16  C   UNL     1     169.923 175.785 183.867  1.00  0.00     0.006 C 
BRANCH  16  17
ATOM     17  C   UNL     1     170.162 174.399 183.254  1.00  0.00     0.053 C 
BRANCH  17  18
ATOM     18  C   UNL     1     170.698 173.430 184.264  1.00  0.00     0.041 C 
ATOM     19  O   UNL     1     171.932 173.394 184.516  1.00  0.00    -0.550 OA
ATOM     20  O   UNL     1     169.830 172.589 184.949  1.00  0.00    -0.550 OA
ENDBRANCH  17  18
ENDBRANCH  16  17
ENDBRANCH  15  16
ENDBRANCH  14  15
ENDBRANCH  13  14
ENDBRANCH  12  13
ENDBRANCH  11  12
ENDBRANCH   1  11
TORSDOF 15
ENDMDL
MODEL 3
REMARK VINA RESULT:    -4.145      1.207      2.193
REMARK INTER + INTRA:          -9.990
REMARK INTER:                  -7.818
REMARK INTRA:                  -2.172
REMARK UNBOUND:                -2.209
REMARK SMILES O=C([O-])CCCCCCCCCCCCCCC(=O)[O-]
REMARK SMILES IDX 10 1 9 2 8 3 7 4 6 5 5 6 4 7 2 8 1 9 3 10 11 11 12 12 13 13
REMARK SMILES IDX 14 14 15 15 16 16 17 17 18 18 19 19 20 20
REMARK H PARENT
REMARK Flexibility Score: inf
ROOT
ATOM      1  C   UNL     1     175.262 176.117 178.839  1.00  0.00     0.000 C 
ENDROOT
BRANCH   1   2
ATOM      2  C   UNL     1     174.261 177.282 178.917  1.00  0.00     0.000 C 
BRANCH   2   3
ATOM      3  C   UNL     1     172.920 176.871 179.566  1.00  0.00     0.000 C 
BRANCH   3   4
ATOM      4  C   UNL     1     173.055 176.432 181.036  1.00  0.00     0.000 C 
BRANCH   4   5
ATOM      5  C   UNL     1     172.855 177.562 182.062  1.00  0.00     0.000 C 
BRANCH   5   6
ATOM      6  C   UNL     1     171.532 177.455 182.853  1.00  0.00     0.006 C 
BRANCH   6   7
ATOM      7  C   UNL     1     170.568 176.419 182.262  1.00  0.00     0.053 C 
BRANCH   7   8
ATOM      8  C   UNL     1     169.387 177.097 181.643  1.00  0.00     0.041 C 
ATOM      9  O   UNL     1     168.265 177.060 182.212  1.00  0.00    -0.550 OA
ATOM     10  O   UNL     1     169.515 177.729 180.412  1.00  0.00    -0.550 OA
ENDBRANCH   7   8
ENDBRANCH   6   7
ENDBRANCH   5   6
ENDBRANCH   4   5
ENDBRANCH   3   4
ENDBRANCH   2   3
ENDBRANCH   1   2
BRANCH   1  11
ATOM     11  C   UNL     1     176.695 176.546 179.194  1.00  0.00     0.000 C 
BRANCH  11  12
ATOM     12  C   UNL     1     176.732 177.665 180.249  1.00  0.00     0.000 C 
BRANCH  12  13
ATOM     13  C   UNL     1     177.317 177.194 181.590  1.00  0.00     0.000 C 
BRANCH  13  14
ATOM     14  C   UNL     1     176.291 177.245 182.733  1.00  0.00     0.000 C 
BRANCH  14  15
ATOM     15  C   UNL     1     176.002 175.840 183.275  1.00  0.00     0.000 C 
BRANCH  15  16
ATOM     16  C   UNL     1     176.781 174.776 182.487  1.00  0.00     0.006 C 
BRANCH  16  17
ATOM     17  C   UNL     1     175.865 173.675 181.937  1.00  0.00     0.053 C 
BRANCH  17  18
ATOM     18  C   UNL     1     176.585 172.785 180.971  1.00  0.00     0.041 C 
ATOM     19  O   UNL     1     177.530 172.051 181.367  1.00  0.00    -0.550 OA
ATOM     20  O   UNL     1     176.194 172.743 179.639  1.00  0.00    -0.550 OA
ENDBRANCH  17  18
ENDBRANCH  16  17
ENDBRANCH  15  16
ENDBRANCH  14  15
ENDBRANCH  13  14
ENDBRANCH  12  13
ENDBRANCH  11  12
ENDBRANCH   1  11
TORSDOF 15
ENDMDL
MODEL 4
REMARK VINA RESULT:    -4.111      2.758      5.857
REMARK INTER + INTRA:          -9.925
REMARK INTER:                  -7.768
REMARK INTRA:                  -2.157
REMARK UNBOUND:                -2.209
REMARK SMILES O=C([O-])CCCCCCCCCCCCCCC(=O)[O-]
REMARK SMILES IDX 10 1 9 2 8 3 7 4 6 5 5 6 4 7 2 8 1 9 3 10 11 11 12 12 13 13
REMARK SMILES IDX 14 14 15 15 16 16 17 17 18 18 19 19 20 20
REMARK H PARENT
REMARK Flexibility Score: inf
ROOT
ATOM      1  C   UNL     1     177.088 175.429 181.284  1.00  0.00     0.000 C 
ENDROOT
BRANCH   1   2
ATOM      2  C   UNL     1     177.126 176.936 181.592  1.00  0.00     0.000 C 
BRANCH   2   3
ATOM      3  C   UNL     1     177.121 177.805 180.314  1.00  0.00     0.000 C 
BRANCH   3   4
ATOM      4  C   UNL     1     176.352 177.172 179.141  1.00  0.00     0.000 C 
BRANCH   4   5
ATOM      5  C   UNL     1     174.840 177.463 179.136  1.00  0.00     0.000 C 
BRANCH   5   6
ATOM      6  C   UNL     1     173.982 176.278 178.639  1.00  0.00     0.006 C 
BRANCH   6   7
ATOM      7  C   UNL     1     172.928 176.700 177.607  1.00  0.00     0.053 C 
BRANCH   7   8
ATOM      8  C   UNL     1     173.541 176.801 176.246  1.00  0.00     0.041 C 
ATOM      9  O   UNL     1     173.060 177.591 175.392  1.00  0.00    -0.550 OA
ATOM     10  O   UNL     1     174.614 175.987 175.905  1.00  0.00    -0.550 OA
ENDBRANCH   7   8
ENDBRANCH   6   7
ENDBRANCH   5   6
ENDBRANCH   4   5
ENDBRANCH   3   4
ENDBRANCH   2   3
ENDBRANCH   1   2
BRANCH   1  11
ATOM     11  C   UNL     1     176.756 174.581 182.522  1.00  0.00     0.000 C 
BRANCH  11  12
ATOM     12  C   UNL     1     175.515 175.094 183.273  1.00  0.00     0.000 C 
BRANCH  12  13
ATOM     13  C   UNL     1     174.222 174.393 182.826  1.00  0.00     0.000 C 
BRANCH  13  14
ATOM     14  C   UNL     1     173.162 175.379 182.312  1.00  0.00     0.000 C 
BRANCH  14  15
ATOM     15  C   UNL     1     173.599 176.829 182.552  1.00  0.00     0.000 C 
BRANCH  15  16
ATOM     16  C   UNL     1     172.395 177.781 182.508  1.00  0.00     0.006 C 
BRANCH  16  17
ATOM     17  C   UNL     1     171.585 177.632 181.213  1.00  0.00     0.053 C 
BRANCH  17  18
ATOM     18  C   UNL     1     170.137 177.363 181.493  1.00  0.00     0.041 C 
ATOM     19  O   UNL     1     169.267 177.594 180.612  1.00  0.00    -0.550 OA
ATOM     20  O   UNL     1     169.753 176.827 182.716  1.00  0.00    -0.550 OA
ENDBRANCH  17  18
ENDBRANCH  16  17
ENDBRANCH  15  16
ENDBRANCH  14  15
ENDBRANCH  13  14
ENDBRANCH  12  13
ENDBRANCH  11  12
ENDBRANCH   1  11
TORSDOF 15
ENDMDL
MODEL 5
REMARK VINA RESULT:    -4.059      2.254      6.634
REMARK INTER + INTRA:          -9.828
REMARK INTER:                  -7.630
REMARK INTRA:                  -2.198
REMARK UNBOUND:                -2.209
REMARK SMILES O=C([O-])CCCCCCCCCCCCCCC(=O)[O-]
REMARK SMILES IDX 10 1 9 2 8 3 7 4 6 5 5 6 4 7 2 8 1 9 3 10 11 11 12 12 13 13
REMARK SMILES IDX 14 14 15 15 16 16 17 17 18 18 19 19 20 20
REMARK H PARENT
REMARK Flexibility Score: inf
ROOT
ATOM      1  C   UNL     1     174.958 174.169 181.813  1.00  0.00     0.000 C 
ENDROOT
BRANCH   1   2
ATOM      2  C   UNL     1     176.308 174.635 182.386  1.00  0.00     0.000 C 
BRANCH   2   3
ATOM      3  C   UNL     1     176.173 175.883 183.287  1.00  0.00     0.000 C 
BRANCH   3   4
ATOM      4  C   UNL     1     176.042 177.200 182.501  1.00  0.00     0.000 C 
BRANCH   4   5
ATOM      5  C   UNL     1     177.323 177.636 181.766  1.00  0.00     0.000 C 
BRANCH   5   6
ATOM      6  C   UNL     1     177.091 178.012 180.285  1.00  0.00     0.006 C 
BRANCH   6   7
ATOM      7  C   UNL     1     175.800 177.410 179.715  1.00  0.00     0.053 C 
BRANCH   7   8
ATOM      8  C   UNL     1     176.115 176.275 178.794  1.00  0.00     0.041 C 
ATOM      9  O   UNL     1     177.091 175.516 179.033  1.00  0.00    -0.550 OA
ATOM     10  O   UNL     1     175.360 176.084 177.643  1.00  0.00    -0.550 OA
ENDBRANCH   7   8
ENDBRANCH   6   7
ENDBRANCH   5   6
ENDBRANCH   4   5
ENDBRANCH   3   4
ENDBRANCH   2   3
ENDBRANCH   1   2
BRANCH   1  11
ATOM     11  C   UNL     1     173.818 174.258 182.840  1.00  0.00     0.000 C 
BRANCH  11  12
ATOM     12  C   UNL     1     172.565 174.947 182.273  1.00  0.00     0.000 C 
BRANCH  12  13
ATOM     13  C   UNL     1     172.413 176.395 182.768  1.00  0.00     0.000 C 
BRANCH  13  14
ATOM     14  C   UNL     1     172.586 177.425 181.641  1.00  0.00     0.000 C 
BRANCH  14  15
ATOM     15  C   UNL     1     172.150 176.842 180.292  1.00  0.00     0.000 C 
BRANCH  15  16
ATOM     16  C   UNL     1     170.897 177.557 179.764  1.00  0.00     0.006 C 
BRANCH  16  17
ATOM     17  C   UNL     1     169.635 176.697 179.906  1.00  0.00     0.053 C 
BRANCH  17  18
ATOM     18  C   UNL     1     168.733 177.212 180.987  1.00  0.00     0.041 C 
ATOM     19  O   UNL     1     167.640 177.765 180.691  1.00  0.00    -0.550 OA
ATOM     20  O   UNL     1     169.084 177.052 182.321  1.00  0.00    -0.550 OA
ENDBRANCH  17  18
ENDBRANCH  16  17
ENDBRANCH  15  16
ENDBRANCH  14  15
ENDBRANCH  13  14
ENDBRANCH  12  13
ENDBRANCH  11  12
ENDBRANCH   1  11
TORSDOF 15
ENDMDL
MODEL 6
REMARK VINA RESULT:    -4.058      2.485      6.077
REMARK INTER + INTRA:          -9.825
REMARK INTER:                  -7.514
REMARK INTRA:                  -2.311
REMARK UNBOUND:                -2.209
REMARK SMILES O=C([O-])CCCCCCCCCCCCCCC(=O)[O-]
REMARK SMILES IDX 10 1 9 2 8 3 7 4 6 5 5 6 4 7 2 8 1 9 3 10 11 11 12 12 13 13
REMARK SMILES IDX 14 14 15 15 16 16 17 17 18 18 19 19 20 20
REMARK H PARENT
REMARK Flexibility Score: inf
ROOT
ATOM      1  C   UNL     1     175.711 172.419 181.047  1.00  0.00     0.000 C 
ENDROOT
BRANCH   1   2
ATOM      2  C   UNL     1     177.052 172.779 181.710  1.00  0.00     0.000 C 
BRANCH   2   3
ATOM      3  C   UNL     1     177.349 174.295 181.666  1.00  0.00     0.000 C 
BRANCH   3   4
ATOM      4  C   UNL     1     176.753 175.076 182.851  1.00  0.00     0.000 C 
BRANCH   4   5
ATOM      5  C   UNL     1     176.573 176.584 182.599  1.00  0.00     0.000 C 
BRANCH   5   6
ATOM      6  C   UNL     1     177.015 177.034 181.189  1.00  0.00     0.006 C 
BRANCH   6   7
ATOM      7  C   UNL     1     175.831 177.388 180.280  1.00  0.00     0.053 C 
BRANCH   7   8
ATOM      8  C   UNL     1     176.053 176.855 178.900  1.00  0.00     0.041 C 
ATOM      9  O   UNL     1     177.210 176.531 178.525  1.00  0.00    -0.550 OA
ATOM     10  O   UNL     1     174.989 176.761 178.012  1.00  0.00    -0.550 OA
ENDBRANCH   7   8
ENDBRANCH   6   7
ENDBRANCH   5   6
ENDBRANCH   4   5
ENDBRANCH   3   4
ENDBRANCH   2   3
ENDBRANCH   1   2
BRANCH   1  11
ATOM     11  C   UNL     1     175.235 173.494 180.057  1.00  0.00     0.000 C 
BRANCH  11  12
ATOM     12  C   UNL     1     173.912 174.150 180.490  1.00  0.00     0.000 C 
BRANCH  12  13
ATOM     13  C   UNL     1     173.233 173.401 181.648  1.00  0.00     0.000 C 
BRANCH  13  14
ATOM     14  C   UNL     1     173.101 174.264 182.912  1.00  0.00     0.000 C 
BRANCH  14  15
ATOM     15  C   UNL     1     173.120 175.756 182.564  1.00  0.00     0.000 C 
BRANCH  15  16
ATOM     16  C   UNL     1     171.694 176.320 182.476  1.00  0.00     0.006 C 
BRANCH  16  17
ATOM     17  C   UNL     1     171.664 177.732 181.879  1.00  0.00     0.053 C 
BRANCH  17  18
ATOM     18  C   UNL     1     170.989 177.754 180.541  1.00  0.00     0.041 C 
ATOM     19  O   UNL     1     171.675 177.754 179.484  1.00  0.00    -0.550 OA
ATOM     20  O   UNL     1     169.603 177.744 180.461  1.00  0.00    -0.550 OA
ENDBRANCH  17  18
ENDBRANCH  16  17
ENDBRANCH  15  16
ENDBRANCH  14  15
ENDBRANCH  13  14
ENDBRANCH  12  13
ENDBRANCH  11  12
ENDBRANCH   1  11
TORSDOF 15
ENDMDL
MODEL 7
REMARK VINA RESULT:    -4.034      2.881      4.338
REMARK INTER + INTRA:          -9.781
REMARK INTER:                  -7.762
REMARK INTRA:                  -2.019
REMARK UNBOUND:                -2.209
REMARK SMILES O=C([O-])CCCCCCCCCCCCCCC(=O)[O-]
REMARK SMILES IDX 10 1 9 2 8 3 7 4 6 5 5 6 4 7 2 8 1 9 3 10 11 11 12 12 13 13
REMARK SMILES IDX 14 14 15 15 16 16 17 17 18 18 19 19 20 20
REMARK H PARENT
REMARK Flexibility Score: inf
ROOT
ATOM      1  C   UNL     1     173.493 175.847 182.488  1.00  0.00     0.000 C 
ENDROOT
BRANCH   1   2
ATOM      2  C   UNL     1     173.541 177.384 182.500  1.00  0.00     0.000 C 
BRANCH   2   3
ATOM      3  C   UNL     1     172.143 178.023 182.655  1.00  0.00     0.000 C 
BRANCH   3   4
ATOM      4  C   UNL     1     171.163 177.643 181.529  1.00  0.00     0.000 C 
BRANCH   4   5
ATOM      5  C   UNL     1     169.804 177.111 182.017  1.00  0.00     0.000 C 
BRANCH   5   6
ATOM      6  C   UNL     1     169.812 176.644 183.490  1.00  0.00     0.006 C 
BRANCH   6   7
ATOM      7  C   UNL     1     170.097 175.144 183.635  1.00  0.00     0.053 C 
BRANCH   7   8
ATOM      8  C   UNL     1     169.497 174.384 182.495  1.00  0.00     0.041 C 
ATOM      9  O   UNL     1     170.232 173.931 181.579  1.00  0.00    -0.550 OA
ATOM     10  O   UNL     1     168.120 174.219 182.418  1.00  0.00    -0.550 OA
ENDBRANCH   7   8
ENDBRANCH   6   7
ENDBRANCH   5   6
ENDBRANCH   4   5
ENDBRANCH   3   4
ENDBRANCH   2   3
ENDBRANCH   1   2
BRANCH   1  11
ATOM     11  C   UNL     1     174.887 175.211 182.597  1.00  0.00     0.000 C 
BRANCH  11  12
ATOM     12  C   UNL     1     175.860 176.061 183.433  1.00  0.00     0.000 C 
BRANCH  12  13
ATOM     13  C   UNL     1     177.018 176.628 182.595  1.00  0.00     0.000 C 
BRANCH  13  14
ATOM     14  C   UNL     1     176.965 176.174 181.129  1.00  0.00     0.000 C 
BRANCH  14  15
ATOM     15  C   UNL     1     177.100 177.369 180.178  1.00  0.00     0.000 C 
BRANCH  15  16
ATOM     16  C   UNL     1     175.762 177.677 179.489  1.00  0.00     0.006 C 
BRANCH  16  17
ATOM     17  C   UNL     1     175.068 176.408 178.976  1.00  0.00     0.053 C 
BRANCH  17  18
ATOM     18  C   UNL     1     173.586 176.594 178.862  1.00  0.00     0.041 C 
ATOM     19  O   UNL     1     173.106 177.732 178.613  1.00  0.00    -0.550 OA
ATOM     20  O   UNL     1     172.735 175.504 179.000  1.00  0.00    -0.550 OA
ENDBRANCH  17  18
ENDBRANCH  16  17
ENDBRANCH  15  16
ENDBRANCH  14  15
ENDBRANCH  13  14
ENDBRANCH  12  13
ENDBRANCH  11  12
ENDBRANCH   1  11
TORSDOF 15
ENDMDL
MODEL 8
REMARK VINA RESULT:    -4.030      2.323      4.056
REMARK INTER + INTRA:          -9.772
REMARK INTER:                  -7.909
REMARK INTRA:                  -1.863
REMARK UNBOUND:                -2.209
REMARK SMILES O=C([O-])CCCCCCCCCCCCCCC(=O)[O-]
REMARK SMILES IDX 10 1 9 2 8 3 7 4 6 5 5 6 4 7 2 8 1 9 3 10 11 11 12 12 13 13
REMARK SMILES IDX 14 14 15 15 16 16 17 17 18 18 19 19 20 20
REMARK H PARENT
REMARK Flexibility Score: inf
ROOT
ATOM      1  C   UNL     1     175.284 172.837 181.666  1.00  0.00     0.000 C 
ENDROOT
BRANCH   1   2
ATOM      2  C   UNL     1     173.825 173.229 181.375  1.00  0.00     0.000 C 
BRANCH   2   3
ATOM      3  C   UNL     1     172.870 172.871 182.536  1.00  0.00     0.000 C 
BRANCH   3   4
ATOM      4  C   UNL     1     172.333 174.100 183.293  1.00  0.00     0.000 C 
BRANCH   4   5
ATOM      5  C   UNL     1     172.523 175.438 182.557  1.00  0.00     0.000 C 
BRANCH   5   6
ATOM      6  C   UNL     1     171.312 176.390 182.678  1.00  0.00     0.006 C 
BRANCH   6   7
ATOM      7  C   UNL     1     171.539 177.733 181.975  1.00  0.00     0.053 C 
BRANCH   7   8
ATOM      8  C   UNL     1     170.859 177.748 180.642  1.00  0.00     0.041 C 
ATOM      9  O   UNL     1     171.539 177.816 179.585  1.00  0.00    -0.550 OA
ATOM     10  O   UNL     1     169.472 177.734 180.570  1.00  0.00    -0.550 OA
ENDBRANCH   7   8
ENDBRANCH   6   7
ENDBRANCH   5   6
ENDBRANCH   4   5
ENDBRANCH   3   4
ENDBRANCH   2   3
ENDBRANCH   1   2
BRANCH   1  11
ATOM     11  C   UNL     1     176.283 173.927 181.247  1.00  0.00     0.000 C 
BRANCH  11  12
ATOM     12  C   UNL     1     177.038 174.528 182.445  1.00  0.00     0.000 C 
BRANCH  12  13
ATOM     13  C   UNL     1     176.171 175.500 183.262  1.00  0.00     0.000 C 
BRANCH  13  14
ATOM     14  C   UNL     1     175.812 176.772 182.479  1.00  0.00     0.000 C 
BRANCH  14  15
ATOM     15  C   UNL     1     177.075 177.526 182.049  1.00  0.00     0.000 C 
BRANCH  15  16
ATOM     16  C   UNL     1     177.100 177.735 180.528  1.00  0.00     0.006 C 
BRANCH  16  17
ATOM     17  C   UNL     1     175.814 177.240 179.853  1.00  0.00     0.053 C 
BRANCH  17  18
ATOM     18  C   UNL     1     176.105 176.493 178.587  1.00  0.00     0.041 C 
ATOM     19  O   UNL     1     177.171 175.832 178.470  1.00  0.00    -0.550 OA
ATOM     20  O   UNL     1     175.183 176.501 177.548  1.00  0.00    -0.550 OA
ENDBRANCH  17  18
ENDBRANCH  16  17
ENDBRANCH  15  16
ENDBRANCH  14  15
ENDBRANCH  13  14
ENDBRANCH  12  13
ENDBRANCH  11  12
ENDBRANCH   1  11
TORSDOF 15
ENDMDL
MODEL 9
REMARK VINA RESULT:    -3.981      3.268      4.821
REMARK INTER + INTRA:          -9.681
REMARK INTER:                  -7.543
REMARK INTRA:                  -2.138
REMARK UNBOUND:                -2.209
REMARK SMILES O=C([O-])CCCCCCCCCCCCCCC(=O)[O-]
REMARK SMILES IDX 10 1 9 2 8 3 7 4 6 5 5 6 4 7 2 8 1 9 3 10 11 11 12 12 13 13
REMARK SMILES IDX 14 14 15 15 16 16 17 17 18 18 19 19 20 20
REMARK H PARENT
REMARK Flexibility Score: inf
ROOT
ATOM      1  C   UNL     1     176.702 174.350 182.256  1.00  0.00     0.000 C 
ENDROOT
BRANCH   1   2
ATOM      2  C   UNL     1     175.803 175.134 183.227  1.00  0.00     0.000 C 
BRANCH   2   3
ATOM      3  C   UNL     1     174.322 174.698 183.151  1.00  0.00     0.000 C 
BRANCH   3   4
ATOM      4  C   UNL     1     173.478 175.548 182.184  1.00  0.00     0.000 C 
BRANCH   4   5
ATOM      5  C   UNL     1     173.377 177.037 182.562  1.00  0.00     0.000 C 
BRANCH   5   6
ATOM      6  C   UNL     1     172.114 177.733 182.009  1.00  0.00     0.006 C 
BRANCH   6   7
ATOM      7  C   UNL     1     170.960 176.756 181.754  1.00  0.00     0.053 C 
BRANCH   7   8
ATOM      8  C   UNL     1     169.785 177.099 182.613  1.00  0.00     0.041 C 
ATOM      9  O   UNL     1     169.930 177.248 183.855  1.00  0.00    -0.550 OA
ATOM     10  O   UNL     1     168.520 177.205 182.050  1.00  0.00    -0.550 OA
ENDBRANCH   7   8
ENDBRANCH   6   7
ENDBRANCH   5   6
ENDBRANCH   4   5
ENDBRANCH   3   4
ENDBRANCH   2   3
ENDBRANCH   1   2
BRANCH   1  11
ATOM     11  C   UNL     1     177.052 175.156 180.995  1.00  0.00     0.000 C 
BRANCH  11  12
ATOM     12  C   UNL     1     176.983 176.675 181.227  1.00  0.00     0.000 C 
BRANCH  12  13
ATOM     13  C   UNL     1     176.785 177.464 179.922  1.00  0.00     0.000 C 
BRANCH  13  14
ATOM     14  C   UNL     1     175.307 177.577 179.519  1.00  0.00     0.000 C 
BRANCH  14  15
ATOM     15  C   UNL     1     174.996 176.678 178.316  1.00  0.00     0.000 C 
BRANCH  15  16
ATOM     16  C   UNL     1     173.703 175.880 178.546  1.00  0.00     0.006 C 
BRANCH  16  17
ATOM     17  C   UNL     1     172.686 176.087 177.416  1.00  0.00     0.053 C 
BRANCH  17  18
ATOM     18  C   UNL     1     172.197 177.502 177.362  1.00  0.00     0.041 C 
ATOM     19  O   UNL     1     172.170 178.124 176.267  1.00  0.00    -0.550 OA
ATOM     20  O   UNL     1     171.741 178.125 178.517  1.00  0.00    -0.550 OA
ENDBRANCH  17  18
ENDBRANCH  16  17
ENDBRANCH  15  16
ENDBRANCH  14  15
ENDBRANCH  13  14
ENDBRANCH  12  13
ENDBRANCH  11  12
ENDBRANCH   1  11
TORSDOF 15
ENDMDL
