MODEL 1
REMARK VINA RESULT:    -4.719      0.000      0.000
REMARK INTER + INTRA:          -8.257
REMARK INTER:                  -7.202
REMARK INTRA:                  -1.055
REMARK UNBOUND:                -1.055
REMARK SMILES CCCCCCCCCC=CC(=O)[O-]
REMARK SMILES IDX 7 1 8 2 9 3 10 4 11 5 12 6 13 7 14 8 6 9 5 10 4 11 3 12 2 13
REMARK SMILES IDX 1 14
REMARK H PARENT
REMARK Flexibility Score: inf
ROOT
ATOM      1  C   UNL     1      -5.769  12.562  -4.094  1.00  0.00     0.000 C 
ENDROOT
BRANCH   1   2
ATOM      2  C   UNL     1      -6.266  12.037  -5.448  1.00  0.00     0.004 C 
BRANCH   2   3
ATOM      3  C   UNL     1      -6.302  10.503  -5.507  1.00  0.00     0.027 C 
BRANCH   3   4
ATOM      4  C   UNL     1      -5.874   9.883  -4.202  1.00  0.00    -0.025 C 
ATOM      5  C   UNL     1      -5.982   8.593  -3.845  1.00  0.00     0.020 C 
BRANCH   5   6
ATOM      6  C   UNL     1      -6.518   7.479  -4.657  1.00  0.00     0.064 C 
ATOM      7  O   UNL     1      -7.739   7.488  -4.964  1.00  0.00    -0.545 OA
ATOM      8  O   UNL     1      -5.738   6.405  -5.056  1.00  0.00    -0.545 OA
ENDBRANCH   5   6
ENDBRANCH   3   4
ENDBRANCH   2   3
ENDBRANCH   1   2
BRANCH   1   9
ATOM      9  C   UNL     1      -4.632  13.573  -4.282  1.00  0.00     0.000 C 
BRANCH   9  10
ATOM     10  C   UNL     1      -3.628  13.493  -3.125  1.00  0.00     0.000 C 
BRANCH  10  11
ATOM     11  C   UNL     1      -4.344  13.273  -1.788  1.00  0.00    -0.000 C 
BRANCH  11  12
ATOM     12  C   UNL     1      -3.542  12.325  -0.884  1.00  0.00    -0.000 C 
BRANCH  12  13
ATOM     13  C   UNL     1      -3.984  10.861  -1.024  1.00  0.00    -0.003 C 
ATOM     14  C   UNL     1      -3.080  10.058  -1.960  1.00  0.00     0.004 C 
ENDBRANCH  12  13
ENDBRANCH  11  12
ENDBRANCH  10  11
ENDBRANCH   9  10
ENDBRANCH   1   9
TORSDOF 9
ENDMDL
MODEL 2
REMARK VINA RESULT:    -4.589      1.913      3.530
REMARK INTER + INTRA:          -8.058
REMARK INTER:                  -7.031
REMARK INTRA:                  -1.027
REMARK UNBOUND:                -1.055
REMARK SMILES CCCCCCCCCC=CC(=O)[O-]
REMARK SMILES IDX 7 1 8 2 9 3 10 4 11 5 12 6 13 7 14 8 6 9 5 10 4 11 3 12 2 13
REMARK SMILES IDX 1 14
REMARK H PARENT
REMARK Flexibility Score: inf
ROOT
ATOM      1  C   UNL     1      -5.737   9.326  -2.159  1.00  0.00     0.000 C 
ENDROOT
BRANCH   1   2
ATOM      2  C   UNL     1      -6.095   7.958  -2.755  1.00  0.00     0.004 C 
BRANCH   2   3
ATOM      3  C   UNL     1      -5.959   7.928  -4.284  1.00  0.00     0.027 C 
BRANCH   3   4
ATOM      4  C   UNL     1      -7.287   8.132  -4.967  1.00  0.00    -0.025 C 
ATOM      5  C   UNL     1      -7.786   9.286  -5.441  1.00  0.00     0.020 C 
BRANCH   5   6
ATOM      6  C   UNL     1      -7.137  10.615  -5.428  1.00  0.00     0.064 C 
ATOM      7  O   UNL     1      -6.263  10.870  -6.297  1.00  0.00    -0.545 OA
ATOM      8  O   UNL     1      -7.424  11.575  -4.469  1.00  0.00    -0.545 OA
ENDBRANCH   5   6
ENDBRANCH   3   4
ENDBRANCH   2   3
ENDBRANCH   1   2
BRANCH   1   9
ATOM      9  C   UNL     1      -4.576   9.972  -2.924  1.00  0.00     0.000 C 
BRANCH   9  10
ATOM     10  C   UNL     1      -3.407  10.290  -1.983  1.00  0.00     0.000 C 
BRANCH  10  11
ATOM     11  C   UNL     1      -3.682  11.563  -1.174  1.00  0.00    -0.000 C 
BRANCH  11  12
ATOM     12  C   UNL     1      -3.199  12.810  -1.929  1.00  0.00    -0.000 C 
BRANCH  12  13
ATOM     13  C   UNL     1      -4.357  13.633  -2.512  1.00  0.00    -0.003 C 
ATOM     14  C   UNL     1      -4.421  13.563  -4.038  1.00  0.00     0.004 C 
ENDBRANCH  12  13
ENDBRANCH  11  12
ENDBRANCH  10  11
ENDBRANCH   9  10
ENDBRANCH   1   9
TORSDOF 9
ENDMDL
MODEL 3
REMARK VINA RESULT:    -4.567      1.750      3.388
REMARK INTER + INTRA:          -8.026
REMARK INTER:                  -6.616
REMARK INTRA:                  -1.410
REMARK UNBOUND:                -1.055
REMARK SMILES CCCCCCCCCC=CC(=O)[O-]
REMARK SMILES IDX 7 1 8 2 9 3 10 4 11 5 12 6 13 7 14 8 6 9 5 10 4 11 3 12 2 13
REMARK SMILES IDX 1 14
REMARK H PARENT
REMARK Flexibility Score: inf
ROOT
ATOM      1  C   UNL     1      -3.199  13.095  -2.225  1.00  0.00     0.000 C 
ENDROOT
BRANCH   1   2
ATOM      2  C   UNL     1      -4.265  13.897  -2.983  1.00  0.00     0.004 C 
BRANCH   2   3
ATOM      3  C   UNL     1      -4.914  13.091  -4.117  1.00  0.00     0.027 C 
BRANCH   3   4
ATOM      4  C   UNL     1      -6.142  12.355  -3.647  1.00  0.00    -0.025 C 
ATOM      5  C   UNL     1      -6.784  11.361  -4.282  1.00  0.00     0.020 C 
BRANCH   5   6
ATOM      6  C   UNL     1      -6.418  10.740  -5.574  1.00  0.00     0.064 C 
ATOM      7  O   UNL     1      -5.946   9.573  -5.572  1.00  0.00    -0.545 OA
ATOM      8  O   UNL     1      -6.536  11.409  -6.782  1.00  0.00    -0.545 OA
ENDBRANCH   5   6
ENDBRANCH   3   4
ENDBRANCH   2   3
ENDBRANCH   1   2
BRANCH   1   9
ATOM      9  C   UNL     1      -3.641  12.822  -0.782  1.00  0.00     0.000 C 
BRANCH   9  10
ATOM     10  C   UNL     1      -3.985  11.340  -0.583  1.00  0.00     0.000 C 
BRANCH  10  11
ATOM     11  C   UNL     1      -3.177  10.453  -1.538  1.00  0.00    -0.000 C 
BRANCH  11  12
ATOM     12  C   UNL     1      -4.106   9.641  -2.451  1.00  0.00    -0.000 C 
BRANCH  12  13
ATOM     13  C   UNL     1      -5.298   9.037  -1.693  1.00  0.00    -0.003 C 
ATOM     14  C   UNL     1      -5.966   7.895  -2.457  1.00  0.00     0.004 C 
ENDBRANCH  12  13
ENDBRANCH  11  12
ENDBRANCH  10  11
ENDBRANCH   9  10
ENDBRANCH   1   9
TORSDOF 9
ENDMDL
MODEL 4
REMARK VINA RESULT:    -4.518      2.422      4.304
REMARK INTER + INTRA:          -7.951
REMARK INTER:                  -6.527
REMARK INTRA:                  -1.423
REMARK UNBOUND:                -1.055
REMARK SMILES CCCCCCCCCC=CC(=O)[O-]
REMARK SMILES IDX 7 1 8 2 9 3 10 4 11 5 12 6 13 7 14 8 6 9 5 10 4 11 3 12 2 13
REMARK SMILES IDX 1 14
REMARK H PARENT
REMARK Flexibility Score: inf
ROOT
ATOM      1  C   UNL     1      -5.740  11.967  -3.002  1.00  0.00     0.000 C 
ENDROOT
BRANCH   1   2
ATOM      2  C   UNL     1      -4.447  11.415  -2.385  1.00  0.00     0.004 C 
BRANCH   2   3
ATOM      3  C   UNL     1      -4.536   9.915  -2.075  1.00  0.00     0.027 C 
BRANCH   3   4
ATOM      4  C   UNL     1      -5.954   9.485  -1.795  1.00  0.00    -0.025 C 
ATOM      5  C   UNL     1      -6.353   8.347  -1.203  1.00  0.00     0.020 C 
BRANCH   5   6
ATOM      6  C   UNL     1      -5.497   7.269  -0.663  1.00  0.00     0.064 C 
ATOM      7  O   UNL     1      -5.094   6.368  -1.444  1.00  0.00    -0.545 OA
ATOM      8  O   UNL     1      -5.156   7.189   0.679  1.00  0.00    -0.545 OA
ENDBRANCH   5   6
ENDBRANCH   3   4
ENDBRANCH   2   3
ENDBRANCH   1   2
BRANCH   1   9
ATOM      9  C   UNL     1      -5.495  12.469  -4.430  1.00  0.00     0.000 C 
BRANCH   9  10
ATOM     10  C   UNL     1      -6.440  11.782  -5.424  1.00  0.00     0.000 C 
BRANCH  10  11
ATOM     11  C   UNL     1      -6.209  10.266  -5.447  1.00  0.00    -0.000 C 
BRANCH  11  12
ATOM     12  C   UNL     1      -7.539   9.506  -5.346  1.00  0.00    -0.000 C 
BRANCH  12  13
ATOM     13  C   UNL     1      -7.350   8.038  -4.935  1.00  0.00    -0.003 C 
ATOM     14  C   UNL     1      -5.880   7.620  -4.898  1.00  0.00     0.004 C 
ENDBRANCH  12  13
ENDBRANCH  11  12
ENDBRANCH  10  11
ENDBRANCH   9  10
ENDBRANCH   1   9
TORSDOF 9
ENDMDL
MODEL 5
REMARK VINA RESULT:    -4.516      2.119      3.284
REMARK INTER + INTRA:          -7.947
REMARK INTER:                  -6.903
REMARK INTRA:                  -1.044
REMARK UNBOUND:                -1.055
REMARK SMILES CCCCCCCCCC=CC(=O)[O-]
REMARK SMILES IDX 7 1 8 2 9 3 10 4 11 5 12 6 13 7 14 8 6 9 5 10 4 11 3 12 2 13
REMARK SMILES IDX 1 14
REMARK H PARENT
REMARK Flexibility Score: inf
ROOT
ATOM      1  C   UNL     1      -5.973   9.915  -4.827  1.00  0.00     0.000 C 
ENDROOT
BRANCH   1   2
ATOM      2  C   UNL     1      -7.157   8.973  -4.573  1.00  0.00     0.004 C 
BRANCH   2   3
ATOM      3  C   UNL     1      -7.283   8.571  -3.096  1.00  0.00     0.027 C 
BRANCH   3   4
ATOM      4  C   UNL     1      -6.129   9.087  -2.276  1.00  0.00    -0.025 C 
ATOM      5  C   UNL     1      -5.356   8.383  -1.433  1.00  0.00     0.020 C 
BRANCH   5   6
ATOM      6  C   UNL     1      -5.438   6.937  -1.137  1.00  0.00     0.064 C 
ATOM      7  O   UNL     1      -4.913   6.123  -1.942  1.00  0.00    -0.545 OA
ATOM      8  O   UNL     1      -6.108   6.439  -0.030  1.00  0.00    -0.545 OA
ENDBRANCH   5   6
ENDBRANCH   3   4
ENDBRANCH   2   3
ENDBRANCH   1   2
BRANCH   1   9
ATOM      9  C   UNL     1      -6.354  11.019  -5.821  1.00  0.00     0.000 C 
BRANCH   9  10
ATOM     10  C   UNL     1      -6.292  12.401  -5.159  1.00  0.00     0.000 C 
BRANCH  10  11
ATOM     11  C   UNL     1      -5.522  12.343  -3.833  1.00  0.00    -0.000 C 
BRANCH  11  12
ATOM     12  C   UNL     1      -4.462  13.453  -3.765  1.00  0.00    -0.000 C 
BRANCH  12  13
ATOM     13  C   UNL     1      -3.378  13.169  -2.714  1.00  0.00    -0.003 C 
ATOM     14  C   UNL     1      -3.575  11.827  -2.010  1.00  0.00     0.004 C 
ENDBRANCH  12  13
ENDBRANCH  11  12
ENDBRANCH  10  11
ENDBRANCH   9  10
ENDBRANCH   1   9
TORSDOF 9
ENDMDL
MODEL 6
REMARK VINA RESULT:    -4.490      1.552      3.536
REMARK INTER + INTRA:          -7.907
REMARK INTER:                  -6.487
REMARK INTRA:                  -1.420
REMARK UNBOUND:                -1.055
REMARK SMILES CCCCCCCCCC=CC(=O)[O-]
REMARK SMILES IDX 7 1 8 2 9 3 10 4 11 5 12 6 13 7 14 8 6 9 5 10 4 11 3 12 2 13
REMARK SMILES IDX 1 14
REMARK H PARENT
REMARK Flexibility Score: inf
ROOT
ATOM      1  C   UNL     1      -3.830  10.678  -0.048  1.00  0.00     0.000 C 
ENDROOT
BRANCH   1   2
ATOM      2  C   UNL     1      -3.297  10.590  -1.484  1.00  0.00     0.004 C 
BRANCH   2   3
ATOM      3  C   UNL     1      -4.211   9.767  -2.403  1.00  0.00     0.027 C 
BRANCH   3   4
ATOM      4  C   UNL     1      -5.591  10.365  -2.500  1.00  0.00    -0.025 C 
ATOM      5  C   UNL     1      -6.404  10.356  -3.569  1.00  0.00     0.020 C 
BRANCH   5   6
ATOM      6  C   UNL     1      -6.147   9.733  -4.885  1.00  0.00     0.064 C 
ATOM      7  O   UNL     1      -6.127  10.467  -5.909  1.00  0.00    -0.545 OA
ATOM      8  O   UNL     1      -5.970   8.367  -5.042  1.00  0.00    -0.545 OA
ENDBRANCH   5   6
ENDBRANCH   3   4
ENDBRANCH   2   3
ENDBRANCH   1   2
BRANCH   1   9
ATOM      9  C   UNL     1      -3.549  12.057   0.558  1.00  0.00     0.000 C 
BRANCH   9  10
ATOM     10  C   UNL     1      -4.743  13.000   0.357  1.00  0.00     0.000 C 
BRANCH  10  11
ATOM     11  C   UNL     1      -4.352  14.211  -0.498  1.00  0.00    -0.000 C 
BRANCH  11  12
ATOM     12  C   UNL     1      -5.019  14.147  -1.880  1.00  0.00    -0.000 C 
BRANCH  12  13
ATOM     13  C   UNL     1      -4.033  13.766  -2.995  1.00  0.00    -0.003 C 
ATOM     14  C   UNL     1      -4.726  13.505  -4.332  1.00  0.00     0.004 C 
ENDBRANCH  12  13
ENDBRANCH  11  12
ENDBRANCH  10  11
ENDBRANCH   9  10
ENDBRANCH   1   9
TORSDOF 9
ENDMDL
MODEL 7
REMARK VINA RESULT:    -4.466      1.990      3.803
REMARK INTER + INTRA:          -7.870
REMARK INTER:                  -6.862
REMARK INTRA:                  -1.009
REMARK UNBOUND:                -1.055
REMARK SMILES CCCCCCCCCC=CC(=O)[O-]
REMARK SMILES IDX 7 1 8 2 9 3 10 4 11 5 12 6 13 7 14 8 6 9 5 10 4 11 3 12 2 13
REMARK SMILES IDX 1 14
REMARK H PARENT
REMARK Flexibility Score: inf
ROOT
ATOM      1  C   UNL     1      -3.274  12.419  -1.752  1.00  0.00     0.000 C 
ENDROOT
BRANCH   1   2
ATOM      2  C   UNL     1      -3.861  11.123  -1.175  1.00  0.00     0.004 C 
BRANCH   2   3
ATOM      3  C   UNL     1      -3.549   9.897  -2.043  1.00  0.00     0.027 C 
BRANCH   3   4
ATOM      4  C   UNL     1      -4.741   9.476  -2.865  1.00  0.00    -0.025 C 
ATOM      5  C   UNL     1      -5.619   8.502  -2.578  1.00  0.00     0.020 C 
BRANCH   5   6
ATOM      6  C   UNL     1      -5.639   7.638  -1.378  1.00  0.00     0.064 C 
ATOM      7  O   UNL     1      -6.133   8.092  -0.313  1.00  0.00    -0.545 OA
ATOM      8  O   UNL     1      -5.096   6.362  -1.369  1.00  0.00    -0.545 OA
ENDBRANCH   5   6
ENDBRANCH   3   4
ENDBRANCH   2   3
ENDBRANCH   1   2
BRANCH   1   9
ATOM      9  C   UNL     1      -4.374  13.295  -2.363  1.00  0.00     0.000 C 
BRANCH   9  10
ATOM     10  C   UNL     1      -4.012  13.715  -3.793  1.00  0.00     0.000 C 
BRANCH  10  11
ATOM     11  C   UNL     1      -5.186  13.480  -4.751  1.00  0.00    -0.000 C 
BRANCH  11  12
ATOM     12  C   UNL     1      -5.892  12.153  -4.439  1.00  0.00    -0.000 C 
BRANCH  12  13
ATOM     13  C   UNL     1      -6.290  11.384  -5.708  1.00  0.00    -0.003 C 
ATOM     14  C   UNL     1      -7.409  10.373  -5.460  1.00  0.00     0.004 C 
ENDBRANCH  12  13
ENDBRANCH  11  12
ENDBRANCH  10  11
ENDBRANCH   9  10
ENDBRANCH   1   9
TORSDOF 9
ENDMDL
MODEL 8
REMARK VINA RESULT:    -4.454      1.111      2.300
REMARK INTER + INTRA:          -7.854
REMARK INTER:                  -6.506
REMARK INTRA:                  -1.347
REMARK UNBOUND:                -1.055
REMARK SMILES CCCCCCCCCC=CC(=O)[O-]
REMARK SMILES IDX 7 1 8 2 9 3 10 4 11 5 12 6 13 7 14 8 6 9 5 10 4 11 3 12 2 13
REMARK SMILES IDX 1 14
REMARK H PARENT
REMARK Flexibility Score: inf
ROOT
ATOM      1  C   UNL     1      -3.780  13.620  -3.049  1.00  0.00     0.000 C 
ENDROOT
BRANCH   1   2
ATOM      2  C   UNL     1      -4.716  13.446  -4.253  1.00  0.00     0.004 C 
BRANCH   2   3
ATOM      3  C   UNL     1      -5.745  12.327  -4.042  1.00  0.00     0.027 C 
BRANCH   3   4
ATOM      4  C   UNL     1      -6.217  11.748  -5.351  1.00  0.00    -0.025 C 
ATOM      5  C   UNL     1      -6.519  10.465  -5.608  1.00  0.00     0.020 C 
BRANCH   5   6
ATOM      6  C   UNL     1      -6.485   9.330  -4.661  1.00  0.00     0.064 C 
ATOM      7  O   UNL     1      -5.545   8.496  -4.749  1.00  0.00    -0.545 OA
ATOM      8  O   UNL     1      -7.471   9.124  -3.708  1.00  0.00    -0.545 OA
ENDBRANCH   5   6
ENDBRANCH   3   4
ENDBRANCH   2   3
ENDBRANCH   1   2
BRANCH   1   9
ATOM      9  C   UNL     1      -4.576  13.692  -1.741  1.00  0.00     0.000 C 
BRANCH   9  10
ATOM     10  C   UNL     1      -3.667  13.444  -0.530  1.00  0.00     0.000 C 
BRANCH  10  11
ATOM     11  C   UNL     1      -3.642  11.958  -0.153  1.00  0.00    -0.000 C 
BRANCH  11  12
ATOM     12  C   UNL     1      -4.958  11.270  -0.546  1.00  0.00    -0.000 C 
BRANCH  12  13
ATOM     13  C   UNL     1      -4.733   9.981  -1.351  1.00  0.00    -0.003 C 
ATOM     14  C   UNL     1      -3.417   9.992  -2.127  1.00  0.00     0.004 C 
ENDBRANCH  12  13
ENDBRANCH  11  12
ENDBRANCH  10  11
ENDBRANCH   9  10
ENDBRANCH   1   9
TORSDOF 9
ENDMDL
MODEL 9
REMARK VINA RESULT:    -4.450      3.233      5.147
REMARK INTER + INTRA:          -7.847
REMARK INTER:                  -6.858
REMARK INTRA:                  -0.989
REMARK UNBOUND:                -1.055
REMARK SMILES CCCCCCCCCC=CC(=O)[O-]
REMARK SMILES IDX 7 1 8 2 9 3 10 4 11 5 12 6 13 7 14 8 6 9 5 10 4 11 3 12 2 13
REMARK SMILES IDX 1 14
REMARK H PARENT
REMARK Flexibility Score: inf
ROOT
ATOM      1  C   UNL     1      -5.504  12.748  -3.677  1.00  0.00     0.000 C 
ENDROOT
BRANCH   1   2
ATOM      2  C   UNL     1      -4.160  13.479  -3.562  1.00  0.00     0.004 C 
BRANCH   2   3
ATOM      3  C   UNL     1      -3.341  13.020  -2.347  1.00  0.00     0.027 C 
BRANCH   3   4
ATOM      4  C   UNL     1      -3.525  11.549  -2.072  1.00  0.00    -0.025 C 
ATOM      5  C   UNL     1      -3.806  10.975  -0.891  1.00  0.00     0.020 C 
BRANCH   5   6
ATOM      6  C   UNL     1      -4.027  11.653   0.405  1.00  0.00     0.064 C 
ATOM      7  O   UNL     1      -5.099  12.290   0.579  1.00  0.00    -0.545 OA
ATOM      8  O   UNL     1      -3.081  11.649   1.419  1.00  0.00    -0.545 OA
ENDBRANCH   5   6
ENDBRANCH   3   4
ENDBRANCH   2   3
ENDBRANCH   1   2
BRANCH   1   9
ATOM      9  C   UNL     1      -5.876  12.511  -5.145  1.00  0.00     0.000 C 
BRANCH   9  10
ATOM     10  C   UNL     1      -6.252  11.043  -5.387  1.00  0.00     0.000 C 
BRANCH  10  11
ATOM     11  C   UNL     1      -6.402  10.286  -4.062  1.00  0.00    -0.000 C 
BRANCH  11  12
ATOM     12  C   UNL     1      -5.492   9.049  -4.030  1.00  0.00    -0.000 C 
BRANCH  12  13
ATOM     13  C   UNL     1      -6.278   7.744  -3.836  1.00  0.00    -0.003 C 
ATOM     14  C   UNL     1      -6.213   6.828  -5.057  1.00  0.00     0.004 C 
ENDBRANCH  12  13
ENDBRANCH  11  12
ENDBRANCH  10  11
ENDBRANCH   9  10
ENDBRANCH   1   9
TORSDOF 9
ENDMDL
