MODEL 1
REMARK VINA RESULT:    -4.214      0.000      0.000
REMARK INTER + INTRA:          -5.340
REMARK INTER:                  -5.076
REMARK INTRA:                  -0.265
REMARK UNBOUND:                -0.265
REMARK SMILES NC(=O)C[C@H]([NH3+])C(=O)[O-]
REMARK SMILES IDX 4 1 5 2 6 3 7 7 8 8 9 9 2 10 3 11 1 12
REMARK H PARENT 6 4 6 5 6 6 1 13 1 14
REMARK Flexibility Score: inf
ROOT
ATOM      1  C   UNL     1     -38.407  20.844 -29.256  1.00  0.00     0.171 C 
ENDROOT
BRANCH   1   2
ATOM      2  C   UNL     1     -39.080  19.456 -29.241  1.00  0.00     0.237 C 
BRANCH   2   3
ATOM      3  N   UNL     1     -40.035  19.362 -28.131  1.00  0.00    -0.350 N 
ATOM      4  H   UNL     1     -40.173  20.307 -27.702  1.00  0.00     0.345 HD
ATOM      5  H   UNL     1     -40.960  19.027 -28.486  1.00  0.00     0.345 HD
ATOM      6  H   UNL     1     -39.687  18.702 -27.398  1.00  0.00     0.345 HD
ENDBRANCH   2   3
BRANCH   2   7
ATOM      7  C   UNL     1     -38.051  18.360 -29.129  1.00  0.00     0.100 C 
ATOM      8  O   UNL     1     -37.539  18.084 -28.012  1.00  0.00    -0.544 OA
ATOM      9  O   UNL     1     -37.669  17.641 -30.255  1.00  0.00    -0.544 OA
ENDBRANCH   2   7
ENDBRANCH   1   2
BRANCH   1  10
ATOM     10  C   UNL     1     -39.422  21.950 -29.304  1.00  0.00     0.223 C 
ATOM     11  O   UNL     1     -40.415  21.857 -30.074  1.00  0.00    -0.275 OA
ATOM     12  N   UNL     1     -39.287  23.091 -28.456  1.00  0.00    -0.369 N 
ATOM     13  H   UNL     1     -38.478  23.174 -27.801  1.00  0.00     0.159 HD
ATOM     14  H   UNL     1     -40.002  23.853 -28.481  1.00  0.00     0.159 HD
ENDBRANCH   1  10
TORSDOF 4
ENDMDL
MODEL 2
REMARK VINA RESULT:    -4.018      2.550      4.458
REMARK INTER + INTRA:          -5.104
REMARK INTER:                  -4.825
REMARK INTRA:                  -0.280
REMARK UNBOUND:                -0.265
REMARK SMILES NC(=O)C[C@H]([NH3+])C(=O)[O-]
REMARK SMILES IDX 4 1 5 2 6 3 7 7 8 8 9 9 2 10 3 11 1 12
REMARK H PARENT 6 4 6 5 6 6 1 13 1 14
REMARK Flexibility Score: inf
ROOT
ATOM      1  C   UNL     1     -38.009  18.047 -30.432  1.00  0.00     0.171 C 
ENDROOT
BRANCH   1   2
ATOM      2  C   UNL     1     -38.012  18.984 -29.207  1.00  0.00     0.237 C 
BRANCH   2   3
ATOM      3  N   UNL     1     -37.619  18.250 -27.999  1.00  0.00    -0.350 N 
ATOM      4  H   UNL     1     -37.924  17.252 -28.077  1.00  0.00     0.345 HD
ATOM      5  H   UNL     1     -36.579  18.266 -27.896  1.00  0.00     0.345 HD
ATOM      6  H   UNL     1     -38.057  18.675 -27.149  1.00  0.00     0.345 HD
ENDBRANCH   2   3
BRANCH   2   7
ATOM      7  C   UNL     1     -39.369  19.611 -29.012  1.00  0.00     0.100 C 
ATOM      8  O   UNL     1     -40.286  18.966 -28.439  1.00  0.00    -0.544 OA
ATOM      9  O   UNL     1     -39.613  20.906 -29.451  1.00  0.00    -0.544 OA
ENDBRANCH   2   7
ENDBRANCH   1   2
BRANCH   1  10
ATOM     10  C   UNL     1     -36.744  17.241 -30.508  1.00  0.00     0.223 C 
ATOM     11  O   UNL     1     -35.629  17.810 -30.369  1.00  0.00    -0.275 OA
ATOM     12  N   UNL     1     -36.799  15.828 -30.704  1.00  0.00    -0.369 N 
ATOM     13  H   UNL     1     -37.716  15.340 -30.805  1.00  0.00     0.159 HD
ATOM     14  H   UNL     1     -35.918  15.267 -30.743  1.00  0.00     0.159 HD
ENDBRANCH   1  10
TORSDOF 4
ENDMDL
MODEL 3
REMARK VINA RESULT:    -3.962      1.980      2.555
REMARK INTER + INTRA:          -5.037
REMARK INTER:                  -4.619
REMARK INTRA:                  -0.418
REMARK UNBOUND:                -0.265
REMARK SMILES NC(=O)C[C@H]([NH3+])C(=O)[O-]
REMARK SMILES IDX 4 1 5 2 6 3 7 7 8 8 9 9 2 10 3 11 1 12
REMARK H PARENT 6 4 6 5 6 6 1 13 1 14
REMARK Flexibility Score: inf
ROOT
ATOM      1  C   UNL     1     -37.768  20.620 -29.834  1.00  0.00     0.171 C 
ENDROOT
BRANCH   1   2
ATOM      2  C   UNL     1     -37.494  19.751 -31.078  1.00  0.00     0.237 C 
BRANCH   2   3
ATOM      3  N   UNL     1     -38.197  20.291 -32.246  1.00  0.00    -0.350 N 
ATOM      4  H   UNL     1     -37.596  20.193 -33.098  1.00  0.00     0.345 HD
ATOM      5  H   UNL     1     -39.081  19.756 -32.408  1.00  0.00     0.345 HD
ATOM      6  H   UNL     1     -38.426  21.302 -32.106  1.00  0.00     0.345 HD
ENDBRANCH   2   3
BRANCH   2   7
ATOM      7  C   UNL     1     -37.912  18.322 -30.839  1.00  0.00     0.100 C 
ATOM      8  O   UNL     1     -38.483  17.670 -31.753  1.00  0.00    -0.544 OA
ATOM      9  O   UNL     1     -37.662  17.713 -29.616  1.00  0.00    -0.544 OA
ENDBRANCH   2   7
ENDBRANCH   1   2
BRANCH   1  10
ATOM     10  C   UNL     1     -39.240  20.759 -29.572  1.00  0.00     0.223 C 
ATOM     11  O   UNL     1     -39.912  21.616 -30.205  1.00  0.00    -0.275 OA
ATOM     12  N   UNL     1     -39.891  19.903 -28.632  1.00  0.00    -0.369 N 
ATOM     13  H   UNL     1     -39.350  19.178 -28.111  1.00  0.00     0.159 HD
ATOM     14  H   UNL     1     -40.917  19.992 -28.461  1.00  0.00     0.159 HD
ENDBRANCH   1  10
TORSDOF 4
ENDMDL
MODEL 4
REMARK VINA RESULT:    -3.934      2.217      2.971
REMARK INTER + INTRA:          -5.004
REMARK INTER:                  -4.731
REMARK INTRA:                  -0.273
REMARK UNBOUND:                -0.265
REMARK SMILES NC(=O)C[C@H]([NH3+])C(=O)[O-]
REMARK SMILES IDX 4 1 5 2 6 3 7 7 8 8 9 9 2 10 3 11 1 12
REMARK H PARENT 6 4 6 5 6 6 1 13 1 14
REMARK Flexibility Score: inf
ROOT
ATOM      1  C   UNL     1     -38.036  18.274 -29.001  1.00  0.00     0.171 C 
ENDROOT
BRANCH   1   2
ATOM      2  C   UNL     1     -37.413  18.102 -30.401  1.00  0.00     0.237 C 
BRANCH   2   3
ATOM      3  N   UNL     1     -38.448  17.768 -31.385  1.00  0.00    -0.350 N 
ATOM      4  H   UNL     1     -38.740  16.770 -31.267  1.00  0.00     0.345 HD
ATOM      5  H   UNL     1     -39.288  18.373 -31.237  1.00  0.00     0.345 HD
ATOM      6  H   UNL     1     -38.091  17.906 -32.359  1.00  0.00     0.345 HD
ENDBRANCH   2   3
BRANCH   2   7
ATOM      7  C   UNL     1     -36.348  17.034 -30.389  1.00  0.00     0.100 C 
ATOM      8  O   UNL     1     -36.667  15.826 -30.232  1.00  0.00    -0.544 OA
ATOM      9  O   UNL     1     -35.012  17.374 -30.561  1.00  0.00    -0.544 OA
ENDBRANCH   2   7
ENDBRANCH   1   2
BRANCH   1  10
ATOM     10  C   UNL     1     -39.077  19.356 -28.989  1.00  0.00     0.223 C 
ATOM     11  O   UNL     1     -38.998  20.312 -29.806  1.00  0.00    -0.275 OA
ATOM     12  N   UNL     1     -40.176  19.292 -28.079  1.00  0.00    -0.369 N 
ATOM     13  H   UNL     1     -40.264  18.497 -27.407  1.00  0.00     0.159 HD
ATOM     14  H   UNL     1     -40.906  20.038 -28.081  1.00  0.00     0.159 HD
ENDBRANCH   1  10
TORSDOF 4
ENDMDL
MODEL 5
REMARK VINA RESULT:    -3.918      2.393      3.149
REMARK INTER + INTRA:          -4.984
REMARK INTER:                  -4.861
REMARK INTRA:                  -0.124
REMARK UNBOUND:                -0.265
REMARK SMILES NC(=O)C[C@H]([NH3+])C(=O)[O-]
REMARK SMILES IDX 4 1 5 2 6 3 7 7 8 8 9 9 2 10 3 11 1 12
REMARK H PARENT 6 4 6 5 6 6 1 13 1 14
REMARK Flexibility Score: inf
ROOT
ATOM      1  C   UNL     1     -37.630  20.672 -29.816  1.00  0.00     0.171 C 
ENDROOT
BRANCH   1   2
ATOM      2  C   UNL     1     -39.147  20.464 -29.634  1.00  0.00     0.237 C 
BRANCH   2   3
ATOM      3  N   UNL     1     -39.775  21.689 -29.127  1.00  0.00    -0.350 N 
ATOM      4  H   UNL     1     -39.959  21.594 -28.101  1.00  0.00     0.345 HD
ATOM      5  H   UNL     1     -39.134  22.502 -29.270  1.00  0.00     0.345 HD
ATOM      6  H   UNL     1     -40.679  21.872 -29.620  1.00  0.00     0.345 HD
ENDBRANCH   2   3
BRANCH   2   7
ATOM      7  C   UNL     1     -39.425  19.316 -28.696  1.00  0.00     0.100 C 
ATOM      8  O   UNL     1     -40.607  19.050 -28.356  1.00  0.00    -0.544 OA
ATOM      9  O   UNL     1     -38.380  18.539 -28.210  1.00  0.00    -0.544 OA
ENDBRANCH   2   7
ENDBRANCH   1   2
BRANCH   1  10
ATOM     10  C   UNL     1     -37.147  20.103 -31.119  1.00  0.00     0.223 C 
ATOM     11  O   UNL     1     -36.196  19.275 -31.128  1.00  0.00    -0.275 OA
ATOM     12  N   UNL     1     -37.780  20.467 -32.345  1.00  0.00    -0.369 N 
ATOM     13  H   UNL     1     -38.579  21.140 -32.352  1.00  0.00     0.159 HD
ATOM     14  H   UNL     1     -37.451  20.060 -33.250  1.00  0.00     0.159 HD
ENDBRANCH   1  10
TORSDOF 4
ENDMDL
MODEL 6
REMARK VINA RESULT:    -3.911      2.016      2.089
REMARK INTER + INTRA:          -4.976
REMARK INTER:                  -4.828
REMARK INTRA:                  -0.147
REMARK UNBOUND:                -0.265
REMARK SMILES NC(=O)C[C@H]([NH3+])C(=O)[O-]
REMARK SMILES IDX 4 1 5 2 6 3 7 7 8 8 9 9 2 10 3 11 1 12
REMARK H PARENT 6 4 6 5 6 6 1 13 1 14
REMARK Flexibility Score: inf
ROOT
ATOM      1  C   UNL     1     -38.902  21.049 -30.200  1.00  0.00     0.171 C 
ENDROOT
BRANCH   1   2
ATOM      2  C   UNL     1     -38.119  19.738 -29.983  1.00  0.00     0.237 C 
BRANCH   2   3
ATOM      3  N   UNL     1     -38.110  18.937 -31.211  1.00  0.00    -0.350 N 
ATOM      4  H   UNL     1     -37.624  19.463 -31.974  1.00  0.00     0.345 HD
ATOM      5  H   UNL     1     -37.590  18.044 -31.049  1.00  0.00     0.345 HD
ATOM      6  H   UNL     1     -39.086  18.716 -31.517  1.00  0.00     0.345 HD
ENDBRANCH   2   3
BRANCH   2   7
ATOM      7  C   UNL     1     -38.711  18.939 -28.850  1.00  0.00     0.100 C 
ATOM      8  O   UNL     1     -37.959  18.303 -28.065  1.00  0.00    -0.544 OA
ATOM      9  O   UNL     1     -40.087  18.907 -28.658  1.00  0.00    -0.544 OA
ENDBRANCH   2   7
ENDBRANCH   1   2
BRANCH   1  10
ATOM     10  C   UNL     1     -38.538  22.086 -29.177  1.00  0.00     0.223 C 
ATOM     11  O   UNL     1     -37.335  22.233 -28.833  1.00  0.00    -0.275 OA
ATOM     12  N   UNL     1     -39.542  22.932 -28.617  1.00  0.00    -0.369 N 
ATOM     13  H   UNL     1     -40.542  22.833 -28.905  1.00  0.00     0.159 HD
ATOM     14  H   UNL     1     -39.286  23.663 -27.916  1.00  0.00     0.159 HD
ENDBRANCH   1  10
TORSDOF 4
ENDMDL
MODEL 7
REMARK VINA RESULT:    -3.887      2.074      2.482
REMARK INTER + INTRA:          -4.947
REMARK INTER:                  -4.707
REMARK INTRA:                  -0.240
REMARK UNBOUND:                -0.265
REMARK SMILES NC(=O)C[C@H]([NH3+])C(=O)[O-]
REMARK SMILES IDX 4 1 5 2 6 3 7 7 8 8 9 9 2 10 3 11 1 12
REMARK H PARENT 6 4 6 5 6 6 1 13 1 14
REMARK Flexibility Score: inf
ROOT
ATOM      1  C   UNL     1     -37.981  19.537 -29.361  1.00  0.00     0.171 C 
ENDROOT
BRANCH   1   2
ATOM      2  C   UNL     1     -37.639  18.052 -29.126  1.00  0.00     0.237 C 
BRANCH   2   3
ATOM      3  N   UNL     1     -37.101  17.857 -27.776  1.00  0.00    -0.350 N 
ATOM      4  H   UNL     1     -36.193  17.339 -27.828  1.00  0.00     0.345 HD
ATOM      5  H   UNL     1     -36.921  18.785 -27.328  1.00  0.00     0.345 HD
ATOM      6  H   UNL     1     -37.771  17.313 -27.185  1.00  0.00     0.345 HD
ENDBRANCH   2   3
BRANCH   2   7
ATOM      7  C   UNL     1     -36.651  17.558 -30.152  1.00  0.00     0.100 C 
ATOM      8  O   UNL     1     -35.922  18.376 -30.772  1.00  0.00    -0.544 OA
ATOM      9  O   UNL     1     -36.530  16.198 -30.411  1.00  0.00    -0.544 OA
ENDBRANCH   2   7
ENDBRANCH   1   2
BRANCH   1  10
ATOM     10  C   UNL     1     -39.396  19.848 -28.966  1.00  0.00     0.223 C 
ATOM     11  O   UNL     1     -40.059  19.011 -28.296  1.00  0.00    -0.275 OA
ATOM     12  N   UNL     1     -39.984  21.101 -29.314  1.00  0.00    -0.369 N 
ATOM     13  H   UNL     1     -39.442  21.811 -29.854  1.00  0.00     0.159 HD
ATOM     14  H   UNL     1     -40.964  21.322 -29.026  1.00  0.00     0.159 HD
ENDBRANCH   1  10
TORSDOF 4
ENDMDL
MODEL 8
REMARK VINA RESULT:    -3.833      1.762      4.069
REMARK INTER + INTRA:          -4.882
REMARK INTER:                  -4.778
REMARK INTRA:                  -0.104
REMARK UNBOUND:                -0.265
REMARK SMILES NC(=O)C[C@H]([NH3+])C(=O)[O-]
REMARK SMILES IDX 4 1 5 2 6 3 7 7 8 8 9 9 2 10 3 11 1 12
REMARK H PARENT 6 4 6 5 6 6 1 13 1 14
REMARK Flexibility Score: inf
ROOT
ATOM      1  C   UNL     1     -38.475  18.424 -29.664  1.00  0.00     0.171 C 
ENDROOT
BRANCH   1   2
ATOM      2  C   UNL     1     -38.874  19.620 -28.775  1.00  0.00     0.237 C 
BRANCH   2   3
ATOM      3  N   UNL     1     -40.186  19.387 -28.162  1.00  0.00    -0.350 N 
ATOM      4  H   UNL     1     -40.837  18.965 -28.865  1.00  0.00     0.345 HD
ATOM      5  H   UNL     1     -40.091  18.718 -27.363  1.00  0.00     0.345 HD
ATOM      6  H   UNL     1     -40.596  20.284 -27.813  1.00  0.00     0.345 HD
ENDBRANCH   2   3
BRANCH   2   7
ATOM      7  C   UNL     1     -38.898  20.899 -29.573  1.00  0.00     0.100 C 
ATOM      8  O   UNL     1     -38.807  20.863 -30.828  1.00  0.00    -0.544 OA
ATOM      9  O   UNL     1     -39.031  22.124 -28.930  1.00  0.00    -0.544 OA
ENDBRANCH   2   7
ENDBRANCH   1   2
BRANCH   1  10
ATOM     10  C   UNL     1     -37.256  17.726 -29.135  1.00  0.00     0.223 C 
ATOM     11  O   UNL     1     -36.551  17.022 -29.907  1.00  0.00    -0.275 OA
ATOM     12  N   UNL     1     -36.868  17.882 -27.770  1.00  0.00    -0.369 N 
ATOM     13  H   UNL     1     -37.433  18.476 -27.122  1.00  0.00     0.159 HD
ATOM     14  H   UNL     1     -36.012  17.407 -27.406  1.00  0.00     0.159 HD
ENDBRANCH   1  10
TORSDOF 4
ENDMDL
MODEL 9
REMARK VINA RESULT:    -3.805     16.708     17.588
REMARK INTER + INTRA:          -4.848
REMARK INTER:                  -4.630
REMARK INTRA:                  -0.219
REMARK UNBOUND:                -0.265
REMARK SMILES NC(=O)C[C@H]([NH3+])C(=O)[O-]
REMARK SMILES IDX 4 1 5 2 6 3 7 7 8 8 9 9 2 10 3 11 1 12
REMARK H PARENT 6 4 6 5 6 6 1 13 1 14
REMARK Flexibility Score: inf
ROOT
ATOM      1  C   UNL     1     -51.342   7.712 -33.420  1.00  0.00     0.171 C 
ENDROOT
BRANCH   1   2
ATOM      2  C   UNL     1     -50.969   8.978 -32.623  1.00  0.00     0.237 C 
BRANCH   2   3
ATOM      3  N   UNL     1     -51.736  10.132 -33.104  1.00  0.00    -0.350 N 
ATOM      4  H   UNL     1     -52.358  10.487 -32.341  1.00  0.00     0.345 HD
ATOM      5  H   UNL     1     -51.084  10.903 -33.379  1.00  0.00     0.345 HD
ATOM      6  H   UNL     1     -52.324   9.868 -33.928  1.00  0.00     0.345 HD
ENDBRANCH   2   3
BRANCH   2   7
ATOM      7  C   UNL     1     -49.491   9.262 -32.725  1.00  0.00     0.100 C 
ATOM      8  O   UNL     1     -48.943  10.055 -31.915  1.00  0.00    -0.544 OA
ATOM      9  O   UNL     1     -48.724   8.643 -33.704  1.00  0.00    -0.544 OA
ENDBRANCH   2   7
ENDBRANCH   1   2
BRANCH   1  10
ATOM     10  C   UNL     1     -52.821   7.635 -33.674  1.00  0.00     0.223 C 
ATOM     11  O   UNL     1     -53.616   7.488 -32.708  1.00  0.00    -0.275 OA
ATOM     12  N   UNL     1     -53.333   7.763 -35.000  1.00  0.00    -0.369 N 
ATOM     13  H   UNL     1     -52.687   7.901 -35.809  1.00  0.00     0.159 HD
ATOM     14  H   UNL     1     -54.363   7.723 -35.174  1.00  0.00     0.159 HD
ENDBRANCH   1  10
TORSDOF 4
ENDMDL
