MODEL 1
REMARK VINA RESULT:    -4.859      0.000      0.000
REMARK INTER + INTRA:          -4.859
REMARK INTER:                  -4.859
REMARK INTRA:                   0.000
REMARK UNBOUND:                 0.000
REMARK SMILES CC(C)=C1CC[C@H](C)CC1=O
REMARK SMILES IDX 8 1 7 2 6 3 5 4 4 5 2 6 1 7 3 8 10 9 11 10 9 11
REMARK H PARENT
REMARK Flexibility Score: inf
ROOT
ATOM      1  C   UNL     1      83.829   4.758  25.274  1.00  0.00     0.008 C 
ATOM      2  C   UNL     1      82.787   4.609  26.389  1.00  0.00    -0.006 C 
ATOM      3  C   UNL     1      82.670   3.141  26.826  1.00  0.00     0.008 C 
ATOM      4  C   UNL     1      81.559   2.956  27.868  1.00  0.00     0.039 C 
ATOM      5  C   UNL     1      81.703   3.908  29.049  1.00  0.00    -0.006 C 
ATOM      6  C   UNL     1      81.298   3.550  30.303  1.00  0.00    -0.070 C 
ATOM      7  C   UNL     1      81.487   4.464  31.492  1.00  0.00     0.039 C 
ATOM      8  C   UNL     1      80.674   2.199  30.569  1.00  0.00     0.039 C 
ATOM      9  C   UNL     1      82.197   5.280  28.728  1.00  0.00     0.159 C 
ATOM     10  O   UNL     1      81.821   6.283  29.390  1.00  0.00    -0.295 OA
ATOM     11  C   UNL     1      83.159   5.487  27.593  1.00  0.00     0.084 C 
ENDROOT
TORSDOF 0
ENDMDL
MODEL 2
REMARK VINA RESULT:    -4.518     17.685     19.344
REMARK INTER + INTRA:          -4.518
REMARK INTER:                  -4.518
REMARK INTRA:                   0.000
REMARK UNBOUND:                 0.000
REMARK SMILES CC(C)=C1CC[C@H](C)CC1=O
REMARK SMILES IDX 8 1 7 2 6 3 5 4 4 5 2 6 1 7 3 8 10 9 11 10 9 11
REMARK H PARENT
REMARK Flexibility Score: inf
ROOT
ATOM      1  C   UNL     1      79.963  -9.767  18.010  1.00  0.00     0.008 C 
ATOM      2  C   UNL     1      79.737  -9.464  16.525  1.00  0.00    -0.006 C 
ATOM      3  C   UNL     1      78.409 -10.070  16.046  1.00  0.00     0.008 C 
ATOM      4  C   UNL     1      78.214  -9.865  14.537  1.00  0.00     0.039 C 
ATOM      5  C   UNL     1      78.376  -8.409  14.120  1.00  0.00    -0.006 C 
ATOM      6  C   UNL     1      77.671  -7.888  13.073  1.00  0.00    -0.070 C 
ATOM      7  C   UNL     1      77.781  -6.431  12.686  1.00  0.00     0.039 C 
ATOM      8  C   UNL     1      76.713  -8.740  12.273  1.00  0.00     0.039 C 
ATOM      9  C   UNL     1      79.427  -7.634  14.844  1.00  0.00     0.159 C 
ATOM     10  O   UNL     1      80.071  -6.713  14.274  1.00  0.00    -0.295 OA
ATOM     11  C   UNL     1      79.741  -7.948  16.279  1.00  0.00     0.084 C 
ENDROOT
TORSDOF 0
ENDMDL
MODEL 3
REMARK VINA RESULT:    -3.955      1.673      4.662
REMARK INTER + INTRA:          -3.955
REMARK INTER:                  -3.955
REMARK INTRA:                   0.000
REMARK UNBOUND:                 0.000
REMARK SMILES CC(C)=C1CC[C@H](C)CC1=O
REMARK SMILES IDX 8 1 7 2 6 3 5 4 4 5 2 6 1 7 3 8 10 9 11 10 9 11
REMARK H PARENT
REMARK Flexibility Score: inf
ROOT
ATOM      1  C   UNL     1      81.133   3.747  31.457  1.00  0.00     0.008 C 
ATOM      2  C   UNL     1      81.246   4.083  29.966  1.00  0.00    -0.006 C 
ATOM      3  C   UNL     1      81.937   5.442  29.769  1.00  0.00     0.008 C 
ATOM      4  C   UNL     1      81.966   5.843  28.288  1.00  0.00     0.039 C 
ATOM      5  C   UNL     1      82.553   4.753  27.399  1.00  0.00    -0.006 C 
ATOM      6  C   UNL     1      83.249   5.060  26.265  1.00  0.00    -0.070 C 
ATOM      7  C   UNL     1      83.884   3.991  25.407  1.00  0.00     0.039 C 
ATOM      8  C   UNL     1      83.450   6.495  25.834  1.00  0.00     0.039 C 
ATOM      9  C   UNL     1      82.222   3.348  27.780  1.00  0.00     0.159 C 
ATOM     10  O   UNL     1      82.097   2.445  26.910  1.00  0.00    -0.295 OA
ATOM     11  C   UNL     1      82.023   2.986  29.224  1.00  0.00     0.084 C 
ENDROOT
TORSDOF 0
ENDMDL
MODEL 4
REMARK VINA RESULT:    -3.900     11.518     12.617
REMARK INTER + INTRA:          -3.900
REMARK INTER:                  -3.900
REMARK INTRA:                   0.000
REMARK UNBOUND:                 0.000
REMARK SMILES CC(C)=C1CC[C@H](C)CC1=O
REMARK SMILES IDX 8 1 7 2 6 3 5 4 4 5 2 6 1 7 3 8 10 9 11 10 9 11
REMARK H PARENT
REMARK Flexibility Score: inf
ROOT
ATOM      1  C   UNL     1      83.614  -7.626  27.581  1.00  0.00     0.008 C 
ATOM      2  C   UNL     1      84.375  -7.548  28.909  1.00  0.00    -0.006 C 
ATOM      3  C   UNL     1      85.246  -8.799  29.108  1.00  0.00     0.008 C 
ATOM      4  C   UNL     1      85.936  -8.787  30.478  1.00  0.00     0.039 C 
ATOM      5  C   UNL     1      86.702  -7.495  30.735  1.00  0.00    -0.006 C 
ATOM      6  C   UNL     1      87.838  -7.482  31.493  1.00  0.00    -0.070 C 
ATOM      7  C   UNL     1      88.637  -6.217  31.707  1.00  0.00     0.039 C 
ATOM      8  C   UNL     1      88.373  -8.746  32.125  1.00  0.00     0.039 C 
ATOM      9  C   UNL     1      86.074  -6.246  30.210  1.00  0.00     0.159 C 
ATOM     10  O   UNL     1      86.213  -5.144  30.803  1.00  0.00    -0.295 OA
ATOM     11  C   UNL     1      85.251  -6.287  28.954  1.00  0.00     0.084 C 
ENDROOT
TORSDOF 0
ENDMDL
MODEL 5
REMARK VINA RESULT:    -3.869     17.900     19.635
REMARK INTER + INTRA:          -3.869
REMARK INTER:                  -3.869
REMARK INTRA:                   0.000
REMARK UNBOUND:                 0.000
REMARK SMILES CC(C)=C1CC[C@H](C)CC1=O
REMARK SMILES IDX 8 1 7 2 6 3 5 4 4 5 2 6 1 7 3 8 10 9 11 10 9 11
REMARK H PARENT
REMARK Flexibility Score: inf
ROOT
ATOM      1  C   UNL     1      80.385  -9.096  17.831  1.00  0.00     0.008 C 
ATOM      2  C   UNL     1      79.390  -8.651  16.753  1.00  0.00    -0.006 C 
ATOM      3  C   UNL     1      80.028  -7.604  15.827  1.00  0.00     0.008 C 
ATOM      4  C   UNL     1      79.015  -7.072  14.805  1.00  0.00     0.039 C 
ATOM      5  C   UNL     1      78.321  -8.188  14.035  1.00  0.00    -0.006 C 
ATOM      6  C   UNL     1      77.917  -8.014  12.742  1.00  0.00    -0.070 C 
ATOM      7  C   UNL     1      77.279  -9.133  11.950  1.00  0.00     0.039 C 
ATOM      8  C   UNL     1      78.126  -6.700  12.026  1.00  0.00     0.039 C 
ATOM      9  C   UNL     1      78.010  -9.424  14.812  1.00  0.00     0.159 C 
ATOM     10  O   UNL     1      76.992 -10.122  14.554  1.00  0.00    -0.295 OA
ATOM     11  C   UNL     1      78.912  -9.858  15.932  1.00  0.00     0.084 C 
ENDROOT
TORSDOF 0
ENDMDL
MODEL 6
REMARK VINA RESULT:    -3.819     11.778     13.163
REMARK INTER + INTRA:          -3.819
REMARK INTER:                  -3.819
REMARK INTRA:                   0.000
REMARK UNBOUND:                 0.000
REMARK SMILES CC(C)=C1CC[C@H](C)CC1=O
REMARK SMILES IDX 8 1 7 2 6 3 5 4 4 5 2 6 1 7 3 8 10 9 11 10 9 11
REMARK H PARENT
REMARK Flexibility Score: inf
ROOT
ATOM      1  C   UNL     1      86.904  -7.173  31.144  1.00  0.00     0.008 C 
ATOM      2  C   UNL     1      85.664  -7.398  30.271  1.00  0.00    -0.006 C 
ATOM      3  C   UNL     1      85.625  -6.383  29.117  1.00  0.00     0.008 C 
ATOM      4  C   UNL     1      84.339  -6.526  28.292  1.00  0.00     0.039 C 
ATOM      5  C   UNL     1      84.102  -7.955  27.823  1.00  0.00    -0.006 C 
ATOM      6  C   UNL     1      83.472  -8.219  26.640  1.00  0.00    -0.070 C 
ATOM      7  C   UNL     1      83.282  -9.632  26.137  1.00  0.00     0.039 C 
ATOM      8  C   UNL     1      82.967  -7.102  25.756  1.00  0.00     0.039 C 
ATOM      9  C   UNL     1      84.491  -9.032  28.781  1.00  0.00     0.159 C 
ATOM     10  O   UNL     1      83.861 -10.122  28.833  1.00  0.00    -0.295 OA
ATOM     11  C   UNL     1      85.651  -8.828  29.713  1.00  0.00     0.084 C 
ENDROOT
TORSDOF 0
ENDMDL
MODEL 7
REMARK VINA RESULT:    -3.749     11.765     12.943
REMARK INTER + INTRA:          -3.749
REMARK INTER:                  -3.749
REMARK INTRA:                   0.000
REMARK UNBOUND:                 0.000
REMARK SMILES CC(C)=C1CC[C@H](C)CC1=O
REMARK SMILES IDX 8 1 7 2 6 3 5 4 4 5 2 6 1 7 3 8 10 9 11 10 9 11
REMARK H PARENT
REMARK Flexibility Score: inf
ROOT
ATOM      1  C   UNL     1      82.567  -7.292  27.184  1.00  0.00     0.008 C 
ATOM      2  C   UNL     1      83.960  -7.481  27.797  1.00  0.00    -0.006 C 
ATOM      3  C   UNL     1      84.378  -6.228  28.583  1.00  0.00     0.008 C 
ATOM      4  C   UNL     1      85.811  -6.358  29.117  1.00  0.00     0.039 C 
ATOM      5  C   UNL     1      86.026  -7.643  29.906  1.00  0.00    -0.006 C 
ATOM      6  C   UNL     1      86.905  -7.696  30.950  1.00  0.00    -0.070 C 
ATOM      7  C   UNL     1      87.084  -8.950  31.776  1.00  0.00     0.039 C 
ATOM      8  C   UNL     1      87.715  -6.486  31.355  1.00  0.00     0.039 C 
ATOM      9  C   UNL     1      85.313  -8.852  29.397  1.00  0.00     0.159 C 
ATOM     10  O   UNL     1      85.807 -10.004  29.518  1.00  0.00    -0.295 OA
ATOM     11  C   UNL     1      83.981  -8.709  28.717  1.00  0.00     0.084 C 
ENDROOT
TORSDOF 0
ENDMDL
MODEL 8
REMARK VINA RESULT:    -3.744      9.639     11.035
REMARK INTER + INTRA:          -3.744
REMARK INTER:                  -3.744
REMARK INTRA:                   0.000
REMARK UNBOUND:                 0.000
REMARK SMILES CC(C)=C1CC[C@H](C)CC1=O
REMARK SMILES IDX 8 1 7 2 6 3 5 4 4 5 2 6 1 7 3 8 10 9 11 10 9 11
REMARK H PARENT
REMARK Flexibility Score: inf
ROOT
ATOM      1  C   UNL     1      85.974  -4.889  32.124  1.00  0.00     0.008 C 
ATOM      2  C   UNL     1      85.652  -5.193  30.656  1.00  0.00    -0.006 C 
ATOM      3  C   UNL     1      85.664  -6.709  30.403  1.00  0.00     0.008 C 
ATOM      4  C   UNL     1      85.445  -7.028  28.918  1.00  0.00     0.039 C 
ATOM      5  C   UNL     1      84.204  -6.350  28.352  1.00  0.00    -0.006 C 
ATOM      6  C   UNL     1      83.469  -6.930  27.357  1.00  0.00    -0.070 C 
ATOM      7  C   UNL     1      82.204  -6.294  26.827  1.00  0.00     0.039 C 
ATOM      8  C   UNL     1      83.868  -8.261  26.763  1.00  0.00     0.039 C 
ATOM      9  C   UNL     1      83.915  -4.979  28.866  1.00  0.00     0.159 C 
ATOM     10  O   UNL     1      83.365  -4.109  28.138  1.00  0.00    -0.295 OA
ATOM     11  C   UNL     1      84.285  -4.608  30.273  1.00  0.00     0.084 C 
ENDROOT
TORSDOF 0
ENDMDL
MODEL 9
REMARK VINA RESULT:    -3.737     10.690     11.855
REMARK INTER + INTRA:          -3.737
REMARK INTER:                  -3.737
REMARK INTRA:                   0.000
REMARK UNBOUND:                 0.000
REMARK SMILES CC(C)=C1CC[C@H](C)CC1=O
REMARK SMILES IDX 8 1 7 2 6 3 5 4 4 5 2 6 1 7 3 8 10 9 11 10 9 11
REMARK H PARENT
REMARK Flexibility Score: inf
ROOT
ATOM      1  C   UNL     1      82.253  -4.161  27.252  1.00  0.00     0.008 C 
ATOM      2  C   UNL     1      83.397  -5.136  27.553  1.00  0.00    -0.006 C 
ATOM      3  C   UNL     1      83.897  -4.953  28.995  1.00  0.00     0.008 C 
ATOM      4  C   UNL     1      85.109  -5.849  29.283  1.00  0.00     0.039 C 
ATOM      5  C   UNL     1      84.852  -7.309  28.934  1.00  0.00    -0.006 C 
ATOM      6  C   UNL     1      85.441  -8.321  29.637  1.00  0.00    -0.070 C 
ATOM      7  C   UNL     1      85.149  -9.774  29.337  1.00  0.00     0.039 C 
ATOM      8  C   UNL     1      86.388  -8.034  30.779  1.00  0.00     0.039 C 
ATOM      9  C   UNL     1      84.020  -7.556  27.719  1.00  0.00     0.159 C 
ATOM     10  O   UNL     1      84.207  -8.568  26.992  1.00  0.00    -0.295 OA
ATOM     11  C   UNL     1      82.939  -6.586  27.337  1.00  0.00     0.084 C 
ENDROOT
TORSDOF 0
ENDMDL
