MODEL 1
REMARK VINA RESULT:    -3.903      0.000      0.000
REMARK INTER + INTRA:          -4.705
REMARK INTER:                  -4.702
REMARK INTRA:                  -0.003
REMARK UNBOUND:                -0.003
REMARK SMILES OCC(O)CO
REMARK SMILES IDX 3 1 5 2 6 3 2 5 1 6 4 8
REMARK H PARENT 6 4 1 7 4 9
REMARK Flexibility Score: inf
ROOT
ATOM      1  C   UNL     1      33.853  14.929  45.193  1.00  0.00     0.165 C 
ENDROOT
BRANCH   1   2
ATOM      2  C   UNL     1      34.937  14.218  46.026  1.00  0.00     0.190 C 
BRANCH   2   3
ATOM      3  O   UNL     1      34.663  14.325  47.397  1.00  0.00    -0.394 OA
ATOM      4  H   UNL     1      33.687  14.488  47.480  1.00  0.00     0.210 HD
ENDBRANCH   2   3
ENDBRANCH   1   2
BRANCH   1   5
ATOM      5  C   UNL     1      33.033  13.952  44.330  1.00  0.00     0.190 C 
BRANCH   5   6
ATOM      6  O   UNL     1      32.439  14.608  43.240  1.00  0.00    -0.394 OA
ATOM      7  H   UNL     1      32.807  14.193  42.417  1.00  0.00     0.210 HD
ENDBRANCH   5   6
ENDBRANCH   1   5
BRANCH   1   8
ATOM      8  O   UNL     1      33.008  15.691  46.020  1.00  0.00    -0.388 OA
ATOM      9  H   UNL     1      33.323  16.632  45.992  1.00  0.00     0.211 HD
ENDBRANCH   1   8
TORSDOF 5
ENDMDL
MODEL 2
REMARK VINA RESULT:    -3.595     13.998     15.364
REMARK INTER + INTRA:          -4.333
REMARK INTER:                  -4.110
REMARK INTRA:                  -0.223
REMARK UNBOUND:                -0.003
REMARK SMILES OCC(O)CO
REMARK SMILES IDX 3 1 5 2 6 3 2 5 1 6 4 8
REMARK H PARENT 6 4 1 7 4 9
REMARK Flexibility Score: inf
ROOT
ATOM      1  C   UNL     1      23.646   4.178  41.138  1.00  0.00     0.165 C 
ENDROOT
BRANCH   1   2
ATOM      2  C   UNL     1      22.316   4.100  40.364  1.00  0.00     0.190 C 
BRANCH   2   3
ATOM      3  O   UNL     1      21.234   4.426  41.196  1.00  0.00    -0.394 OA
ATOM      4  H   UNL     1      20.866   5.285  40.860  1.00  0.00     0.210 HD
ENDBRANCH   2   3
ENDBRANCH   1   2
BRANCH   1   5
ATOM      5  C   UNL     1      24.044   5.625  41.489  1.00  0.00     0.190 C 
BRANCH   5   6
ATOM      6  O   UNL     1      23.186   6.169  42.457  1.00  0.00    -0.394 OA
ATOM      7  H   UNL     1      23.490   5.826  43.337  1.00  0.00     0.210 HD
ENDBRANCH   5   6
ENDBRANCH   1   5
BRANCH   1   8
ATOM      8  O   UNL     1      23.597   3.382  42.296  1.00  0.00    -0.388 OA
ATOM      9  H   UNL     1      22.754   3.592  42.776  1.00  0.00     0.211 HD
ENDBRANCH   1   8
TORSDOF 5
ENDMDL
MODEL 3
REMARK VINA RESULT:    -3.575     13.437     14.867
REMARK INTER + INTRA:          -4.309
REMARK INTER:                  -4.087
REMARK INTRA:                  -0.222
REMARK UNBOUND:                -0.003
REMARK SMILES OCC(O)CO
REMARK SMILES IDX 3 1 5 2 6 3 2 5 1 6 4 8
REMARK H PARENT 6 4 1 7 4 9
REMARK Flexibility Score: inf
ROOT
ATOM      1  C   UNL     1      23.414   4.465  41.270  1.00  0.00     0.165 C 
ENDROOT
BRANCH   1   2
ATOM      2  C   UNL     1      24.128   4.311  39.914  1.00  0.00     0.190 C 
BRANCH   2   3
ATOM      3  O   UNL     1      23.533   5.127  38.940  1.00  0.00    -0.394 OA
ATOM      4  H   UNL     1      23.572   6.057  39.287  1.00  0.00     0.210 HD
ENDBRANCH   2   3
ENDBRANCH   1   2
BRANCH   1   5
ATOM      5  C   UNL     1      23.966   5.638  42.102  1.00  0.00     0.190 C 
BRANCH   5   6
ATOM      6  O   UNL     1      23.988   6.826  41.356  1.00  0.00    -0.394 OA
ATOM      7  H   UNL     1      24.942   7.050  41.196  1.00  0.00     0.210 HD
ENDBRANCH   5   6
ENDBRANCH   1   5
BRANCH   1   8
ATOM      8  O   UNL     1      22.025   4.593  41.091  1.00  0.00    -0.388 OA
ATOM      9  H   UNL     1      21.640   4.943  41.936  1.00  0.00     0.211 HD
ENDBRANCH   1   8
TORSDOF 5
ENDMDL
MODEL 4
REMARK VINA RESULT:    -3.561      1.524      3.348
REMARK INTER + INTRA:          -4.293
REMARK INTER:                  -4.290
REMARK INTRA:                  -0.002
REMARK UNBOUND:                -0.003
REMARK SMILES OCC(O)CO
REMARK SMILES IDX 3 1 5 2 6 3 2 5 1 6 4 8
REMARK H PARENT 6 4 1 7 4 9
REMARK Flexibility Score: inf
ROOT
ATOM      1  C   UNL     1      35.154  14.395  46.069  1.00  0.00     0.165 C 
ENDROOT
BRANCH   1   2
ATOM      2  C   UNL     1      33.877  14.649  45.245  1.00  0.00     0.190 C 
BRANCH   2   3
ATOM      3  O   UNL     1      33.064  15.608  45.868  1.00  0.00    -0.394 OA
ATOM      4  H   UNL     1      32.247  15.133  46.173  1.00  0.00     0.210 HD
ENDBRANCH   2   3
ENDBRANCH   1   2
BRANCH   1   5
ATOM      5  C   UNL     1      36.220  15.487  45.863  1.00  0.00     0.190 C 
BRANCH   5   6
ATOM      6  O   UNL     1      37.515  14.975  46.035  1.00  0.00    -0.394 OA
ATOM      7  H   UNL     1      38.139  15.617  45.606  1.00  0.00     0.210 HD
ENDBRANCH   5   6
ENDBRANCH   1   5
BRANCH   1   8
ATOM      8  O   UNL     1      34.848  14.250  47.434  1.00  0.00    -0.388 OA
ATOM      9  H   UNL     1      34.363  13.392  47.548  1.00  0.00     0.211 HD
ENDBRANCH   1   8
TORSDOF 5
ENDMDL
MODEL 5
REMARK VINA RESULT:    -3.501     13.684     15.009
REMARK INTER + INTRA:          -4.220
REMARK INTER:                  -4.185
REMARK INTRA:                  -0.035
REMARK UNBOUND:                -0.003
REMARK SMILES OCC(O)CO
REMARK SMILES IDX 3 1 5 2 6 3 2 5 1 6 4 8
REMARK H PARENT 6 4 1 7 4 9
REMARK Flexibility Score: inf
ROOT
ATOM      1  C   UNL     1      23.682   4.547  40.621  1.00  0.00     0.165 C 
ENDROOT
BRANCH   1   2
ATOM      2  C   UNL     1      23.799   5.480  41.841  1.00  0.00     0.190 C 
BRANCH   2   3
ATOM      3  O   UNL     1      23.981   6.811  41.436  1.00  0.00    -0.394 OA
ATOM      4  H   UNL     1      23.637   6.874  40.507  1.00  0.00     0.210 HD
ENDBRANCH   2   3
ENDBRANCH   1   2
BRANCH   1   5
ATOM      5  C   UNL     1      22.326   3.817  40.560  1.00  0.00     0.190 C 
BRANCH   5   6
ATOM      6  O   UNL     1      21.330   4.536  41.239  1.00  0.00    -0.394 OA
ATOM      7  H   UNL     1      20.648   3.877  41.532  1.00  0.00     0.210 HD
ENDBRANCH   5   6
ENDBRANCH   1   5
BRANCH   1   8
ATOM      8  O   UNL     1      23.920   5.252  39.427  1.00  0.00    -0.388 OA
ATOM      9  H   UNL     1      23.095   5.756  39.202  1.00  0.00     0.211 HD
ENDBRANCH   1   8
TORSDOF 5
ENDMDL
MODEL 6
REMARK VINA RESULT:    -3.405     13.777     14.996
REMARK INTER + INTRA:          -4.104
REMARK INTER:                  -3.904
REMARK INTRA:                  -0.200
REMARK UNBOUND:                -0.003
REMARK SMILES OCC(O)CO
REMARK SMILES IDX 3 1 5 2 6 3 2 5 1 6 4 8
REMARK H PARENT 6 4 1 7 4 9
REMARK Flexibility Score: inf
ROOT
ATOM      1  C   UNL     1      23.050   4.464  40.651  1.00  0.00     0.165 C 
ENDROOT
BRANCH   1   2
ATOM      2  C   UNL     1      23.626   5.304  41.807  1.00  0.00     0.190 C 
BRANCH   2   3
ATOM      3  O   UNL     1      24.000   6.580  41.360  1.00  0.00    -0.394 OA
ATOM      4  H   UNL     1      23.507   7.234  41.922  1.00  0.00     0.210 HD
ENDBRANCH   2   3
ENDBRANCH   1   2
BRANCH   1   5
ATOM      5  C   UNL     1      24.070   4.234  39.520  1.00  0.00     0.190 C 
BRANCH   5   6
ATOM      6  O   UNL     1      24.000   5.250  38.555  1.00  0.00    -0.394 OA
ATOM      7  H   UNL     1      23.643   4.837  37.726  1.00  0.00     0.210 HD
ENDBRANCH   5   6
ENDBRANCH   1   5
BRANCH   1   8
ATOM      8  O   UNL     1      22.549   3.238  41.125  1.00  0.00    -0.388 OA
ATOM      9  H   UNL     1      22.981   3.050  41.999  1.00  0.00     0.211 HD
ENDBRANCH   1   8
TORSDOF 5
ENDMDL
MODEL 7
REMARK VINA RESULT:    -3.382     15.154     16.642
REMARK INTER + INTRA:          -4.077
REMARK INTER:                  -4.068
REMARK INTRA:                  -0.008
REMARK UNBOUND:                -0.003
REMARK SMILES OCC(O)CO
REMARK SMILES IDX 3 1 5 2 6 3 2 5 1 6 4 8
REMARK H PARENT 6 4 1 7 4 9
REMARK Flexibility Score: inf
ROOT
ATOM      1  C   UNL     1      21.816   3.817  40.464  1.00  0.00     0.165 C 
ENDROOT
BRANCH   1   2
ATOM      2  C   UNL     1      21.694   4.127  38.960  1.00  0.00     0.190 C 
BRANCH   2   3
ATOM      3  O   UNL     1      20.617   4.991  38.713  1.00  0.00    -0.394 OA
ATOM      4  H   UNL     1      20.138   5.100  39.576  1.00  0.00     0.210 HD
ENDBRANCH   2   3
ENDBRANCH   1   2
BRANCH   1   5
ATOM      5  C   UNL     1      23.128   4.343  41.074  1.00  0.00     0.190 C 
BRANCH   5   6
ATOM      6  O   UNL     1      22.883   5.339  42.031  1.00  0.00    -0.394 OA
ATOM      7  H   UNL     1      23.205   4.989  42.902  1.00  0.00     0.210 HD
ENDBRANCH   5   6
ENDBRANCH   1   5
BRANCH   1   8
ATOM      8  O   UNL     1      20.705   4.316  41.168  1.00  0.00    -0.388 OA
ATOM      9  H   UNL     1      20.762   3.985  42.102  1.00  0.00     0.211 HD
ENDBRANCH   1   8
TORSDOF 5
ENDMDL
MODEL 8
REMARK VINA RESULT:    -3.315     14.917     15.896
REMARK INTER + INTRA:          -3.996
REMARK INTER:                  -3.979
REMARK INTRA:                  -0.016
REMARK UNBOUND:                -0.003
REMARK SMILES OCC(O)CO
REMARK SMILES IDX 3 1 5 2 6 3 2 5 1 6 4 8
REMARK H PARENT 6 4 1 7 4 9
REMARK Flexibility Score: inf
ROOT
ATOM      1  C   UNL     1      22.951   4.195  40.957  1.00  0.00     0.165 C 
ENDROOT
BRANCH   1   2
ATOM      2  C   UNL     1      21.603   3.903  40.271  1.00  0.00     0.190 C 
BRANCH   2   3
ATOM      3  O   UNL     1      20.533   4.353  41.059  1.00  0.00    -0.394 OA
ATOM      4  H   UNL     1      20.477   3.740  41.838  1.00  0.00     0.210 HD
ENDBRANCH   2   3
ENDBRANCH   1   2
BRANCH   1   5
ATOM      5  C   UNL     1      24.075   4.504  39.951  1.00  0.00     0.190 C 
BRANCH   5   6
ATOM      6  O   UNL     1      23.567   5.110  38.791  1.00  0.00    -0.394 OA
ATOM      7  H   UNL     1      24.189   5.847  38.555  1.00  0.00     0.210 HD
ENDBRANCH   5   6
ENDBRANCH   1   5
BRANCH   1   8
ATOM      8  O   UNL     1      22.820   5.237  41.892  1.00  0.00    -0.388 OA
ATOM      9  H   UNL     1      21.899   5.600  41.816  1.00  0.00     0.211 HD
ENDBRANCH   1   8
TORSDOF 5
ENDMDL
MODEL 9
REMARK VINA RESULT:    -3.165     13.018     13.715
REMARK INTER + INTRA:          -3.815
REMARK INTER:                  -3.595
REMARK INTRA:                  -0.220
REMARK UNBOUND:                -0.003
REMARK SMILES OCC(O)CO
REMARK SMILES IDX 3 1 5 2 6 3 2 5 1 6 4 8
REMARK H PARENT 6 4 1 7 4 9
REMARK Flexibility Score: inf
ROOT
ATOM      1  C   UNL     1      38.668   2.019  45.559  1.00  0.00     0.165 C 
ENDROOT
BRANCH   1   2
ATOM      2  C   UNL     1      39.999   1.509  46.145  1.00  0.00     0.190 C 
BRANCH   2   3
ATOM      3  O   UNL     1      40.125   1.878  47.493  1.00  0.00    -0.394 OA
ATOM      4  H   UNL     1      40.732   2.664  47.516  1.00  0.00     0.210 HD
ENDBRANCH   2   3
ENDBRANCH   1   2
BRANCH   1   5
ATOM      5  C   UNL     1      37.440   1.382  46.235  1.00  0.00     0.190 C 
BRANCH   5   6
ATOM      6  O   UNL     1      37.261   1.877  47.537  1.00  0.00    -0.394 OA
ATOM      7  H   UNL     1      38.118   1.740  48.018  1.00  0.00     0.210 HD
ENDBRANCH   5   6
ENDBRANCH   1   5
BRANCH   1   8
ATOM      8  O   UNL     1      38.599   3.423  45.623  1.00  0.00    -0.388 OA
ATOM      9  H   UNL     1      37.685   3.669  45.920  1.00  0.00     0.211 HD
ENDBRANCH   1   8
TORSDOF 5
ENDMDL
