MODEL 1
REMARK VINA RESULT:    -5.750      0.000      0.000
REMARK INTER + INTRA:         -20.234
REMARK INTER:                 -15.162
REMARK INTRA:                  -5.072
REMARK UNBOUND:                -5.072
REMARK SMILES CCCCCCCCCCCCCCCCCCCCCCCCCCCCCC(=O)[O-]
REMARK SMILES IDX 16 1 17 2 18 3 19 4 20 5 21 6 22 7 23 8 24 9 25 10 26 11
REMARK SMILES IDX 27 12 28 13 29 14 30 15 31 16 32 17 15 18 14 19 13 20 12 21
REMARK SMILES IDX 11 22 10 23 9 24 8 25 7 26 6 27 5 28 4 29 3 30 2 31 1 32
REMARK H PARENT
REMARK Flexibility Score: inf
ROOT
ATOM      1  C   UNL     1     120.221 174.340 130.223  1.00  0.00     0.000 C 
ENDROOT
BRANCH   1   2
ATOM      2  C   UNL     1     119.100 173.649 129.428  1.00  0.00     0.000 C 
BRANCH   2   3
ATOM      3  C   UNL     1     118.918 172.172 129.820  1.00  0.00     0.000 C 
BRANCH   3   4
ATOM      4  C   UNL     1     119.810 171.758 131.001  1.00  0.00     0.000 C 
BRANCH   4   5
ATOM      5  C   UNL     1     120.477 170.389 130.784  1.00  0.00     0.000 C 
BRANCH   5   6
ATOM      6  C   UNL     1     120.960 170.186 129.339  1.00  0.00     0.000 C 
BRANCH   6   7
ATOM      7  C   UNL     1     122.206 171.021 129.007  1.00  0.00     0.000 C 
BRANCH   7   8
ATOM      8  C   UNL     1     121.990 171.846 127.730  1.00  0.00     0.000 C 
BRANCH   8   9
ATOM      9  C   UNL     1     122.709 173.203 127.768  1.00  0.00     0.000 C 
BRANCH   9  10
ATOM     10  C   UNL     1     122.560 173.993 126.459  1.00  0.00     0.000 C 
BRANCH  10  11
ATOM     11  C   UNL     1     121.114 174.462 126.257  1.00  0.00     0.000 C 
BRANCH  11  12
ATOM     12  C   UNL     1     120.892 175.840 126.891  1.00  0.00     0.000 C 
BRANCH  12  13
ATOM     13  C   UNL     1     119.428 176.275 126.774  1.00  0.00     0.006 C 
BRANCH  13  14
ATOM     14  C   UNL     1     119.198 177.622 127.467  1.00  0.00     0.053 C 
BRANCH  14  15
ATOM     15  C   UNL     1     118.812 178.668 126.468  1.00  0.00     0.041 C 
ATOM     16  O   UNL     1     119.125 179.873 126.657  1.00  0.00    -0.550 OA
ATOM     17  O   UNL     1     118.151 178.302 125.300  1.00  0.00    -0.550 OA
ENDBRANCH  14  15
ENDBRANCH  13  14
ENDBRANCH  12  13
ENDBRANCH  11  12
ENDBRANCH  10  11
ENDBRANCH   9  10
ENDBRANCH   8   9
ENDBRANCH   7   8
ENDBRANCH   6   7
ENDBRANCH   5   6
ENDBRANCH   4   5
ENDBRANCH   3   4
ENDBRANCH   2   3
ENDBRANCH   1   2
BRANCH   1  18
ATOM     18  C   UNL     1     119.770 175.682 130.826  1.00  0.00     0.000 C 
BRANCH  18  19
ATOM     19  C   UNL     1     120.855 176.769 130.730  1.00  0.00     0.000 C 
BRANCH  19  20
ATOM     20  C   UNL     1     122.115 176.281 129.997  1.00  0.00     0.000 C 
BRANCH  20  21
ATOM     21  C   UNL     1     123.368 177.104 130.350  1.00  0.00     0.000 C 
BRANCH  21  22
ATOM     22  C   UNL     1     123.228 178.627 130.153  1.00  0.00     0.000 C 
BRANCH  22  23
ATOM     23  C   UNL     1     123.618 179.150 128.757  1.00  0.00     0.000 C 
BRANCH  23  24
ATOM     24  C   UNL     1     122.482 179.131 127.713  1.00  0.00    -0.000 C 
BRANCH  24  25
ATOM     25  C   UNL     1     122.921 178.754 126.286  1.00  0.00    -0.000 C 
BRANCH  25  26
ATOM     26  C   UNL     1     124.248 177.974 126.203  1.00  0.00    -0.000 C 
BRANCH  26  27
ATOM     27  C   UNL     1     124.646 177.577 124.765  1.00  0.00    -0.000 C 
BRANCH  27  28
ATOM     28  C   UNL     1     123.427 177.220 123.894  1.00  0.00    -0.000 C 
BRANCH  28  29
ATOM     29  C   UNL     1     123.740 177.249 122.386  1.00  0.00    -0.000 C 
BRANCH  29  30
ATOM     30  C   UNL     1     125.233 177.423 122.046  1.00  0.00    -0.000 C 
BRANCH  30  31
ATOM     31  C   UNL     1     125.874 176.129 121.520  1.00  0.00    -0.003 C 
ATOM     32  C   UNL     1     126.811 175.520 122.563  1.00  0.00     0.004 C 
ENDBRANCH  30  31
ENDBRANCH  29  30
ENDBRANCH  28  29
ENDBRANCH  27  28
ENDBRANCH  26  27
ENDBRANCH  25  26
ENDBRANCH  24  25
ENDBRANCH  23  24
ENDBRANCH  22  23
ENDBRANCH  21  22
ENDBRANCH  20  21
ENDBRANCH  19  20
ENDBRANCH  18  19
ENDBRANCH   1  18
TORSDOF 28
ENDMDL
MODEL 2
REMARK VINA RESULT:    -5.585      2.812      6.261
REMARK INTER + INTRA:         -19.800
REMARK INTER:                 -15.172
REMARK INTRA:                  -4.628
REMARK UNBOUND:                -5.072
REMARK SMILES CCCCCCCCCCCCCCCCCCCCCCCCCCCCCC(=O)[O-]
REMARK SMILES IDX 16 1 17 2 18 3 19 4 20 5 21 6 22 7 23 8 24 9 25 10 26 11
REMARK SMILES IDX 27 12 28 13 29 14 30 15 31 16 32 17 15 18 14 19 13 20 12 21
REMARK SMILES IDX 11 22 10 23 9 24 8 25 7 26 6 27 5 28 4 29 3 30 2 31 1 32
REMARK H PARENT
REMARK Flexibility Score: inf
ROOT
ATOM      1  C   UNL     1     119.570 179.800 126.331  1.00  0.00     0.000 C 
ENDROOT
BRANCH   1   2
ATOM      2  C   UNL     1     120.625 179.389 127.372  1.00  0.00     0.000 C 
BRANCH   2   3
ATOM      3  C   UNL     1     122.065 179.638 126.887  1.00  0.00     0.000 C 
BRANCH   3   4
ATOM      4  C   UNL     1     123.058 178.591 127.417  1.00  0.00     0.000 C 
BRANCH   4   5
ATOM      5  C   UNL     1     123.923 179.130 128.570  1.00  0.00     0.000 C 
BRANCH   5   6
ATOM      6  C   UNL     1     123.238 178.993 129.940  1.00  0.00     0.000 C 
BRANCH   6   7
ATOM      7  C   UNL     1     123.265 177.553 130.475  1.00  0.00     0.000 C 
BRANCH   7   8
ATOM      8  C   UNL     1     121.863 177.104 130.912  1.00  0.00     0.000 C 
BRANCH   8   9
ATOM      9  C   UNL     1     121.282 176.003 130.012  1.00  0.00     0.000 C 
BRANCH   9  10
ATOM     10  C   UNL     1     119.974 176.425 129.324  1.00  0.00     0.000 C 
BRANCH  10  11
ATOM     11  C   UNL     1     119.880 175.842 127.909  1.00  0.00     0.000 C 
BRANCH  11  12
ATOM     12  C   UNL     1     121.271 175.717 127.275  1.00  0.00     0.000 C 
BRANCH  12  13
ATOM     13  C   UNL     1     121.312 174.578 126.251  1.00  0.00     0.006 C 
BRANCH  13  14
ATOM     14  C   UNL     1     122.716 173.971 126.162  1.00  0.00     0.053 C 
BRANCH  14  15
ATOM     15  C   UNL     1     122.782 172.684 126.923  1.00  0.00     0.041 C 
ATOM     16  O   UNL     1     123.023 171.603 126.324  1.00  0.00    -0.550 OA
ATOM     17  O   UNL     1     122.630 172.686 128.306  1.00  0.00    -0.550 OA
ENDBRANCH  14  15
ENDBRANCH  13  14
ENDBRANCH  12  13
ENDBRANCH  11  12
ENDBRANCH  10  11
ENDBRANCH   9  10
ENDBRANCH   8   9
ENDBRANCH   7   8
ENDBRANCH   6   7
ENDBRANCH   5   6
ENDBRANCH   4   5
ENDBRANCH   3   4
ENDBRANCH   2   3
ENDBRANCH   1   2
BRANCH   1  18
ATOM     18  C   UNL     1     120.193 180.125 124.962  1.00  0.00     0.000 C 
BRANCH  18  19
ATOM     19  C   UNL     1     119.931 179.027 123.916  1.00  0.00     0.000 C 
BRANCH  19  20
ATOM     20  C   UNL     1     120.794 179.197 122.655  1.00  0.00     0.000 C 
BRANCH  20  21
ATOM     21  C   UNL     1     121.955 178.186 122.584  1.00  0.00     0.000 C 
BRANCH  21  22
ATOM     22  C   UNL     1     122.458 177.672 123.949  1.00  0.00     0.000 C 
BRANCH  22  23
ATOM     23  C   UNL     1     123.645 176.691 123.886  1.00  0.00     0.000 C 
BRANCH  23  24
ATOM     24  C   UNL     1     125.006 177.286 124.302  1.00  0.00    -0.000 C 
BRANCH  24  25
ATOM     25  C   UNL     1     125.997 177.507 123.145  1.00  0.00    -0.000 C 
BRANCH  25  26
ATOM     26  C   UNL     1     125.573 176.880 121.802  1.00  0.00    -0.000 C 
BRANCH  26  27
ATOM     27  C   UNL     1     126.619 175.909 121.212  1.00  0.00    -0.000 C 
BRANCH  27  28
ATOM     28  C   UNL     1     127.504 175.267 122.297  1.00  0.00    -0.000 C 
BRANCH  28  29
ATOM     29  C   UNL     1     126.926 173.944 122.835  1.00  0.00    -0.000 C 
BRANCH  29  30
ATOM     30  C   UNL     1     126.580 173.960 124.336  1.00  0.00    -0.000 C 
BRANCH  30  31
ATOM     31  C   UNL     1     126.021 172.616 124.828  1.00  0.00    -0.003 C 
ATOM     32  C   UNL     1     126.343 171.496 123.839  1.00  0.00     0.004 C 
ENDBRANCH  30  31
ENDBRANCH  29  30
ENDBRANCH  28  29
ENDBRANCH  27  28
ENDBRANCH  26  27
ENDBRANCH  25  26
ENDBRANCH  24  25
ENDBRANCH  23  24
ENDBRANCH  22  23
ENDBRANCH  21  22
ENDBRANCH  20  21
ENDBRANCH  19  20
ENDBRANCH  18  19
ENDBRANCH   1  18
TORSDOF 28
ENDMDL
MODEL 3
REMARK VINA RESULT:    -5.521      3.097      7.244
REMARK INTER + INTRA:         -19.631
REMARK INTER:                 -15.211
REMARK INTRA:                  -4.419
REMARK UNBOUND:                -5.072
REMARK SMILES CCCCCCCCCCCCCCCCCCCCCCCCCCCCCC(=O)[O-]
REMARK SMILES IDX 16 1 17 2 18 3 19 4 20 5 21 6 22 7 23 8 24 9 25 10 26 11
REMARK SMILES IDX 27 12 28 13 29 14 30 15 31 16 32 17 15 18 14 19 13 20 12 21
REMARK SMILES IDX 11 22 10 23 9 24 8 25 7 26 6 27 5 28 4 29 3 30 2 31 1 32
REMARK H PARENT
REMARK Flexibility Score: inf
ROOT
ATOM      1  C   UNL     1     119.505 174.811 130.129  1.00  0.00     0.000 C 
ENDROOT
BRANCH   1   2
ATOM      2  C   UNL     1     118.601 175.808 129.387  1.00  0.00     0.000 C 
BRANCH   2   3
ATOM      3  C   UNL     1     119.395 176.939 128.709  1.00  0.00     0.000 C 
BRANCH   3   4
ATOM      4  C   UNL     1     118.988 177.154 127.243  1.00  0.00     0.000 C 
BRANCH   4   5
ATOM      5  C   UNL     1     118.952 178.643 126.853  1.00  0.00     0.000 C 
BRANCH   5   6
ATOM      6  C   UNL     1     120.209 179.405 127.304  1.00  0.00     0.000 C 
BRANCH   6   7
ATOM      7  C   UNL     1     121.144 179.751 126.135  1.00  0.00     0.000 C 
BRANCH   7   8
ATOM      8  C   UNL     1     120.361 179.851 124.818  1.00  0.00     0.000 C 
BRANCH   8   9
ATOM      9  C   UNL     1     120.899 178.908 123.731  1.00  0.00     0.000 C 
BRANCH   9  10
ATOM     10  C   UNL     1     122.019 177.987 124.242  1.00  0.00     0.000 C 
BRANCH  10  11
ATOM     11  C   UNL     1     122.885 177.476 123.085  1.00  0.00     0.000 C 
BRANCH  11  12
ATOM     12  C   UNL     1     124.067 176.651 123.610  1.00  0.00     0.000 C 
BRANCH  12  13
ATOM     13  C   UNL     1     125.404 177.309 123.252  1.00  0.00     0.006 C 
BRANCH  13  14
ATOM     14  C   UNL     1     125.694 177.182 121.753  1.00  0.00     0.053 C 
BRANCH  14  15
ATOM     15  C   UNL     1     126.505 175.954 121.477  1.00  0.00     0.041 C 
ATOM     16  O   UNL     1     126.394 175.355 120.374  1.00  0.00    -0.550 OA
ATOM     17  O   UNL     1     127.423 175.502 122.418  1.00  0.00    -0.550 OA
ENDBRANCH  14  15
ENDBRANCH  13  14
ENDBRANCH  12  13
ENDBRANCH  11  12
ENDBRANCH  10  11
ENDBRANCH   9  10
ENDBRANCH   8   9
ENDBRANCH   7   8
ENDBRANCH   6   7
ENDBRANCH   5   6
ENDBRANCH   4   5
ENDBRANCH   3   4
ENDBRANCH   2   3
ENDBRANCH   1   2
BRANCH   1  18
ATOM     18  C   UNL     1     119.134 173.348 129.831  1.00  0.00     0.000 C 
BRANCH  18  19
ATOM     19  C   UNL     1     119.327 172.426 131.047  1.00  0.00     0.000 C 
BRANCH  19  20
ATOM     20  C   UNL     1     118.769 171.013 130.810  1.00  0.00     0.000 C 
BRANCH  20  21
ATOM     21  C   UNL     1     119.861 169.926 130.845  1.00  0.00     0.000 C 
BRANCH  21  22
ATOM     22  C   UNL     1     121.309 170.454 130.891  1.00  0.00     0.000 C 
BRANCH  22  23
ATOM     23  C   UNL     1     122.151 170.177 129.630  1.00  0.00     0.000 C 
BRANCH  23  24
ATOM     24  C   UNL     1     121.774 171.022 128.395  1.00  0.00    -0.000 C 
BRANCH  24  25
ATOM     25  C   UNL     1     122.923 171.259 127.398  1.00  0.00    -0.000 C 
BRANCH  25  26
ATOM     26  C   UNL     1     123.380 172.726 127.274  1.00  0.00    -0.000 C 
BRANCH  26  27
ATOM     27  C   UNL     1     122.537 173.712 128.112  1.00  0.00    -0.000 C 
BRANCH  27  28
ATOM     28  C   UNL     1     122.140 174.969 127.316  1.00  0.00    -0.000 C 
BRANCH  28  29
ATOM     29  C   UNL     1     121.300 174.645 126.066  1.00  0.00    -0.000 C 
BRANCH  29  30
ATOM     30  C   UNL     1     120.061 173.770 126.337  1.00  0.00    -0.000 C 
BRANCH  30  31
ATOM     31  C   UNL     1     119.885 172.656 125.293  1.00  0.00    -0.003 C 
ATOM     32  C   UNL     1     119.220 171.426 125.913  1.00  0.00     0.004 C 
ENDBRANCH  30  31
ENDBRANCH  29  30
ENDBRANCH  28  29
ENDBRANCH  27  28
ENDBRANCH  26  27
ENDBRANCH  25  26
ENDBRANCH  24  25
ENDBRANCH  23  24
ENDBRANCH  22  23
ENDBRANCH  21  22
ENDBRANCH  20  21
ENDBRANCH  19  20
ENDBRANCH  18  19
ENDBRANCH   1  18
TORSDOF 28
ENDMDL
MODEL 4
REMARK VINA RESULT:    -5.506      2.803      7.110
REMARK INTER + INTRA:         -19.592
REMARK INTER:                 -15.272
REMARK INTRA:                  -4.319
REMARK UNBOUND:                -5.072
REMARK SMILES CCCCCCCCCCCCCCCCCCCCCCCCCCCCCC(=O)[O-]
REMARK SMILES IDX 16 1 17 2 18 3 19 4 20 5 21 6 22 7 23 8 24 9 25 10 26 11
REMARK SMILES IDX 27 12 28 13 29 14 30 15 31 16 32 17 15 18 14 19 13 20 12 21
REMARK SMILES IDX 11 22 10 23 9 24 8 25 7 26 6 27 5 28 4 29 3 30 2 31 1 32
REMARK H PARENT
REMARK Flexibility Score: inf
ROOT
ATOM      1  C   UNL     1     119.225 175.081 130.412  1.00  0.00     0.000 C 
ENDROOT
BRANCH   1   2
ATOM      2  C   UNL     1     118.322 176.010 129.583  1.00  0.00     0.000 C 
BRANCH   2   3
ATOM      3  C   UNL     1     119.124 176.973 128.689  1.00  0.00     0.000 C 
BRANCH   3   4
ATOM      4  C   UNL     1     118.956 176.669 127.192  1.00  0.00     0.000 C 
BRANCH   4   5
ATOM      5  C   UNL     1     118.619 177.926 126.369  1.00  0.00     0.000 C 
BRANCH   5   6
ATOM      6  C   UNL     1     119.222 179.207 126.968  1.00  0.00     0.000 C 
BRANCH   6   7
ATOM      7  C   UNL     1     120.561 179.592 126.319  1.00  0.00     0.000 C 
BRANCH   7   8
ATOM      8  C   UNL     1     120.474 179.502 124.789  1.00  0.00     0.000 C 
BRANCH   8   9
ATOM      9  C   UNL     1     121.513 178.544 124.188  1.00  0.00     0.000 C 
BRANCH   9  10
ATOM     10  C   UNL     1     122.135 177.606 125.234  1.00  0.00     0.000 C 
BRANCH  10  11
ATOM     11  C   UNL     1     123.650 177.483 125.036  1.00  0.00     0.000 C 
BRANCH  11  12
ATOM     12  C   UNL     1     123.986 177.142 123.579  1.00  0.00     0.000 C 
BRANCH  12  13
ATOM     13  C   UNL     1     125.472 177.369 123.285  1.00  0.00     0.006 C 
BRANCH  13  14
ATOM     14  C   UNL     1     125.757 177.262 121.784  1.00  0.00     0.053 C 
BRANCH  14  15
ATOM     15  C   UNL     1     126.636 176.083 121.498  1.00  0.00     0.041 C 
ATOM     16  O   UNL     1     126.840 175.214 122.386  1.00  0.00    -0.550 OA
ATOM     17  O   UNL     1     127.185 175.918 120.232  1.00  0.00    -0.550 OA
ENDBRANCH  14  15
ENDBRANCH  13  14
ENDBRANCH  12  13
ENDBRANCH  11  12
ENDBRANCH  10  11
ENDBRANCH   9  10
ENDBRANCH   8   9
ENDBRANCH   7   8
ENDBRANCH   6   7
ENDBRANCH   5   6
ENDBRANCH   4   5
ENDBRANCH   3   4
ENDBRANCH   2   3
ENDBRANCH   1   2
BRANCH   1  18
ATOM     18  C   UNL     1     119.225 173.637 129.881  1.00  0.00     0.000 C 
BRANCH  18  19
ATOM     19  C   UNL     1     119.633 172.610 130.952  1.00  0.00     0.000 C 
BRANCH  19  20
ATOM     20  C   UNL     1     119.024 171.222 130.699  1.00  0.00     0.000 C 
BRANCH  20  21
ATOM     21  C   UNL     1     120.087 170.148 130.399  1.00  0.00     0.000 C 
BRANCH  21  22
ATOM     22  C   UNL     1     121.545 170.654 130.397  1.00  0.00     0.000 C 
BRANCH  22  23
ATOM     23  C   UNL     1     122.284 170.530 129.051  1.00  0.00     0.000 C 
BRANCH  23  24
ATOM     24  C   UNL     1     121.944 171.624 128.017  1.00  0.00    -0.000 C 
BRANCH  24  25
ATOM     25  C   UNL     1     123.161 172.232 127.295  1.00  0.00    -0.000 C 
BRANCH  25  26
ATOM     26  C   UNL     1     122.910 173.612 126.656  1.00  0.00    -0.000 C 
BRANCH  26  27
ATOM     27  C   UNL     1     121.818 174.439 127.370  1.00  0.00    -0.000 C 
BRANCH  27  28
ATOM     28  C   UNL     1     122.282 174.969 128.739  1.00  0.00    -0.000 C 
BRANCH  28  29
ATOM     29  C   UNL     1     122.688 176.454 128.698  1.00  0.00    -0.000 C 
BRANCH  29  30
ATOM     30  C   UNL     1     122.550 177.192 130.044  1.00  0.00    -0.000 C 
BRANCH  30  31
ATOM     31  C   UNL     1     123.007 178.657 129.964  1.00  0.00    -0.003 C 
ATOM     32  C   UNL     1     123.367 179.040 128.528  1.00  0.00     0.004 C 
ENDBRANCH  30  31
ENDBRANCH  29  30
ENDBRANCH  28  29
ENDBRANCH  27  28
ENDBRANCH  26  27
ENDBRANCH  25  26
ENDBRANCH  24  25
ENDBRANCH  23  24
ENDBRANCH  22  23
ENDBRANCH  21  22
ENDBRANCH  20  21
ENDBRANCH  19  20
ENDBRANCH  18  19
ENDBRANCH   1  18
TORSDOF 28
ENDMDL
MODEL 5
REMARK VINA RESULT:    -5.380      2.936      7.097
REMARK INTER + INTRA:         -19.260
REMARK INTER:                 -14.615
REMARK INTRA:                  -4.645
REMARK UNBOUND:                -5.072
REMARK SMILES CCCCCCCCCCCCCCCCCCCCCCCCCCCCCC(=O)[O-]
REMARK SMILES IDX 16 1 17 2 18 3 19 4 20 5 21 6 22 7 23 8 24 9 25 10 26 11
REMARK SMILES IDX 27 12 28 13 29 14 30 15 31 16 32 17 15 18 14 19 13 20 12 21
REMARK SMILES IDX 11 22 10 23 9 24 8 25 7 26 6 27 5 28 4 29 3 30 2 31 1 32
REMARK H PARENT
REMARK Flexibility Score: inf
ROOT
ATOM      1  C   UNL     1     121.632 174.482 126.915  1.00  0.00     0.000 C 
ENDROOT
BRANCH   1   2
ATOM      2  C   UNL     1     122.220 175.673 127.689  1.00  0.00     0.000 C 
BRANCH   2   3
ATOM      3  C   UNL     1     122.452 175.356 129.178  1.00  0.00     0.000 C 
BRANCH   3   4
ATOM      4  C   UNL     1     122.491 176.619 130.053  1.00  0.00     0.000 C 
BRANCH   4   5
ATOM      5  C   UNL     1     123.606 177.593 129.633  1.00  0.00     0.000 C 
BRANCH   5   6
ATOM      6  C   UNL     1     123.066 178.970 129.214  1.00  0.00     0.000 C 
BRANCH   6   7
ATOM      7  C   UNL     1     123.878 179.602 128.073  1.00  0.00     0.000 C 
BRANCH   7   8
ATOM      8  C   UNL     1     123.209 179.344 126.715  1.00  0.00     0.000 C 
BRANCH   8   9
ATOM      9  C   UNL     1     123.863 178.190 125.939  1.00  0.00     0.000 C 
BRANCH   9  10
ATOM     10  C   UNL     1     123.014 177.717 124.748  1.00  0.00     0.000 C 
BRANCH  10  11
ATOM     11  C   UNL     1     123.783 176.708 123.886  1.00  0.00     0.000 C 
BRANCH  11  12
ATOM     12  C   UNL     1     125.289 176.786 124.166  1.00  0.00     0.000 C 
BRANCH  12  13
ATOM     13  C   UNL     1     126.078 175.896 123.200  1.00  0.00     0.006 C 
BRANCH  13  14
ATOM     14  C   UNL     1     126.076 176.484 121.786  1.00  0.00     0.053 C 
BRANCH  14  15
ATOM     15  C   UNL     1     126.831 175.596 120.846  1.00  0.00     0.041 C 
ATOM     16  O   UNL     1     127.588 176.095 119.972  1.00  0.00    -0.550 OA
ATOM     17  O   UNL     1     126.738 174.215 120.971  1.00  0.00    -0.550 OA
ENDBRANCH  14  15
ENDBRANCH  13  14
ENDBRANCH  12  13
ENDBRANCH  11  12
ENDBRANCH  10  11
ENDBRANCH   9  10
ENDBRANCH   8   9
ENDBRANCH   7   8
ENDBRANCH   6   7
ENDBRANCH   5   6
ENDBRANCH   4   5
ENDBRANCH   3   4
ENDBRANCH   2   3
ENDBRANCH   1   2
BRANCH   1  18
ATOM     18  C   UNL     1     122.713 173.481 126.469  1.00  0.00     0.000 C 
BRANCH  18  19
ATOM     19  C   UNL     1     122.825 172.269 127.410  1.00  0.00     0.000 C 
BRANCH  19  20
ATOM     20  C   UNL     1     121.452 171.701 127.804  1.00  0.00     0.000 C 
BRANCH  20  21
ATOM     21  C   UNL     1     121.355 171.358 129.303  1.00  0.00     0.000 C 
BRANCH  21  22
ATOM     22  C   UNL     1     120.042 171.788 129.989  1.00  0.00     0.000 C 
BRANCH  22  23
ATOM     23  C   UNL     1     119.259 172.906 129.273  1.00  0.00     0.000 C 
BRANCH  23  24
ATOM     24  C   UNL     1     119.312 174.285 129.963  1.00  0.00    -0.000 C 
BRANCH  24  25
ATOM     25  C   UNL     1     118.373 175.346 129.361  1.00  0.00    -0.000 C 
BRANCH  25  26
ATOM     26  C   UNL     1     118.985 176.755 129.237  1.00  0.00    -0.000 C 
BRANCH  26  27
ATOM     27  C   UNL     1     118.750 177.415 127.861  1.00  0.00    -0.000 C 
BRANCH  27  28
ATOM     28  C   UNL     1     119.962 178.239 127.389  1.00  0.00    -0.000 C 
BRANCH  28  29
ATOM     29  C   UNL     1     119.583 179.670 126.963  1.00  0.00    -0.000 C 
BRANCH  29  30
ATOM     30  C   UNL     1     118.549 179.746 125.823  1.00  0.00    -0.000 C 
BRANCH  30  31
ATOM     31  C   UNL     1     119.023 179.035 124.546  1.00  0.00    -0.003 C 
ATOM     32  C   UNL     1     120.253 179.727 123.960  1.00  0.00     0.004 C 
ENDBRANCH  30  31
ENDBRANCH  29  30
ENDBRANCH  28  29
ENDBRANCH  27  28
ENDBRANCH  26  27
ENDBRANCH  25  26
ENDBRANCH  24  25
ENDBRANCH  23  24
ENDBRANCH  22  23
ENDBRANCH  21  22
ENDBRANCH  20  21
ENDBRANCH  19  20
ENDBRANCH  18  19
ENDBRANCH   1  18
TORSDOF 28
ENDMDL
MODEL 6
REMARK VINA RESULT:    -5.330      2.846      6.654
REMARK INTER + INTRA:         -19.128
REMARK INTER:                 -14.712
REMARK INTRA:                  -4.416
REMARK UNBOUND:                -5.072
REMARK SMILES CCCCCCCCCCCCCCCCCCCCCCCCCCCCCC(=O)[O-]
REMARK SMILES IDX 16 1 17 2 18 3 19 4 20 5 21 6 22 7 23 8 24 9 25 10 26 11
REMARK SMILES IDX 27 12 28 13 29 14 30 15 31 16 32 17 15 18 14 19 13 20 12 21
REMARK SMILES IDX 11 22 10 23 9 24 8 25 7 26 6 27 5 28 4 29 3 30 2 31 1 32
REMARK H PARENT
REMARK Flexibility Score: inf
ROOT
ATOM      1  C   UNL     1     120.946 171.514 127.870  1.00  0.00     0.000 C 
ENDROOT
BRANCH   1   2
ATOM      2  C   UNL     1     122.236 172.071 128.497  1.00  0.00     0.000 C 
BRANCH   2   3
ATOM      3  C   UNL     1     122.553 173.502 128.027  1.00  0.00     0.000 C 
BRANCH   3   4
ATOM      4  C   UNL     1     121.736 173.916 126.793  1.00  0.00     0.000 C 
BRANCH   4   5
ATOM      5  C   UNL     1     121.836 175.422 126.497  1.00  0.00     0.000 C 
BRANCH   5   6
ATOM      6  C   UNL     1     122.838 175.742 125.376  1.00  0.00     0.000 C 
BRANCH   6   7
ATOM      7  C   UNL     1     122.357 176.877 124.458  1.00  0.00     0.000 C 
BRANCH   7   8
ATOM      8  C   UNL     1     123.429 177.234 123.419  1.00  0.00     0.000 C 
BRANCH   8   9
ATOM      9  C   UNL     1     124.839 177.325 124.023  1.00  0.00     0.000 C 
BRANCH   9  10
ATOM     10  C   UNL     1     125.944 177.361 122.955  1.00  0.00     0.000 C 
BRANCH  10  11
ATOM     11  C   UNL     1     125.588 176.467 121.761  1.00  0.00     0.000 C 
BRANCH  11  12
ATOM     12  C   UNL     1     126.843 176.100 120.960  1.00  0.00     0.000 C 
BRANCH  12  13
ATOM     13  C   UNL     1     127.765 175.179 121.765  1.00  0.00     0.006 C 
BRANCH  13  14
ATOM     14  C   UNL     1     127.048 173.878 122.141  1.00  0.00     0.053 C 
BRANCH  14  15
ATOM     15  C   UNL     1     127.217 173.587 123.600  1.00  0.00     0.041 C 
ATOM     16  O   UNL     1     128.330 173.202 124.046  1.00  0.00    -0.550 OA
ATOM     17  O   UNL     1     126.157 173.794 124.476  1.00  0.00    -0.550 OA
ENDBRANCH  14  15
ENDBRANCH  13  14
ENDBRANCH  12  13
ENDBRANCH  11  12
ENDBRANCH  10  11
ENDBRANCH   9  10
ENDBRANCH   8   9
ENDBRANCH   7   8
ENDBRANCH   6   7
ENDBRANCH   5   6
ENDBRANCH   4   5
ENDBRANCH   3   4
ENDBRANCH   2   3
ENDBRANCH   1   2
BRANCH   1  18
ATOM     18  C   UNL     1     119.717 171.728 128.770  1.00  0.00     0.000 C 
BRANCH  18  19
ATOM     19  C   UNL     1     120.091 171.926 130.249  1.00  0.00     0.000 C 
BRANCH  19  20
ATOM     20  C   UNL     1     119.625 173.284 130.799  1.00  0.00     0.000 C 
BRANCH  20  21
ATOM     21  C   UNL     1     119.306 174.301 129.686  1.00  0.00     0.000 C 
BRANCH  21  22
ATOM     22  C   UNL     1     119.116 175.755 130.164  1.00  0.00     0.000 C 
BRANCH  22  23
ATOM     23  C   UNL     1     120.327 176.374 130.888  1.00  0.00     0.000 C 
BRANCH  23  24
ATOM     24  C   UNL     1     121.600 176.513 130.027  1.00  0.00    -0.000 C 
BRANCH  24  25
ATOM     25  C   UNL     1     122.804 177.146 130.750  1.00  0.00    -0.000 C 
BRANCH  25  26
ATOM     26  C   UNL     1     123.955 177.587 129.824  1.00  0.00    -0.000 C 
BRANCH  26  27
ATOM     27  C   UNL     1     123.663 178.888 129.046  1.00  0.00    -0.000 C 
BRANCH  27  28
ATOM     28  C   UNL     1     123.516 178.648 127.532  1.00  0.00    -0.000 C 
BRANCH  28  29
ATOM     29  C   UNL     1     122.353 179.444 126.910  1.00  0.00    -0.000 C 
BRANCH  29  30
ATOM     30  C   UNL     1     120.958 179.060 127.442  1.00  0.00    -0.000 C 
BRANCH  30  31
ATOM     31  C   UNL     1     119.870 179.143 126.360  1.00  0.00    -0.003 C 
ATOM     32  C   UNL     1     120.316 180.037 125.204  1.00  0.00     0.004 C 
ENDBRANCH  30  31
ENDBRANCH  29  30
ENDBRANCH  28  29
ENDBRANCH  27  28
ENDBRANCH  26  27
ENDBRANCH  25  26
ENDBRANCH  24  25
ENDBRANCH  23  24
ENDBRANCH  22  23
ENDBRANCH  21  22
ENDBRANCH  20  21
ENDBRANCH  19  20
ENDBRANCH  18  19
ENDBRANCH   1  18
TORSDOF 28
ENDMDL
MODEL 7
REMARK VINA RESULT:    -5.328      3.474      6.855
REMARK INTER + INTRA:         -19.123
REMARK INTER:                 -14.760
REMARK INTRA:                  -4.363
REMARK UNBOUND:                -5.072
REMARK SMILES CCCCCCCCCCCCCCCCCCCCCCCCCCCCCC(=O)[O-]
REMARK SMILES IDX 16 1 17 2 18 3 19 4 20 5 21 6 22 7 23 8 24 9 25 10 26 11
REMARK SMILES IDX 27 12 28 13 29 14 30 15 31 16 32 17 15 18 14 19 13 20 12 21
REMARK SMILES IDX 11 22 10 23 9 24 8 25 7 26 6 27 5 28 4 29 3 30 2 31 1 32
REMARK H PARENT
REMARK Flexibility Score: inf
ROOT
ATOM      1  C   UNL     1     119.332 171.615 127.510  1.00  0.00     0.000 C 
ENDROOT
BRANCH   1   2
ATOM      2  C   UNL     1     119.864 171.509 126.071  1.00  0.00     0.000 C 
BRANCH   2   3
ATOM      3  C   UNL     1     120.253 172.877 125.480  1.00  0.00     0.000 C 
BRANCH   3   4
ATOM      4  C   UNL     1     120.210 174.006 126.522  1.00  0.00     0.000 C 
BRANCH   4   5
ATOM      5  C   UNL     1     121.585 174.663 126.736  1.00  0.00     0.000 C 
BRANCH   5   6
ATOM      6  C   UNL     1     122.033 175.508 125.533  1.00  0.00     0.000 C 
BRANCH   6   7
ATOM      7  C   UNL     1     123.526 175.336 125.211  1.00  0.00     0.000 C 
BRANCH   7   8
ATOM      8  C   UNL     1     124.104 176.614 124.587  1.00  0.00     0.000 C 
BRANCH   8   9
ATOM      9  C   UNL     1     123.244 177.157 123.435  1.00  0.00     0.000 C 
BRANCH   9  10
ATOM     10  C   UNL     1     123.979 177.142 122.085  1.00  0.00     0.000 C 
BRANCH  10  11
ATOM     11  C   UNL     1     125.449 177.544 122.251  1.00  0.00     0.000 C 
BRANCH  11  12
ATOM     12  C   UNL     1     126.359 176.665 121.384  1.00  0.00     0.000 C 
BRANCH  12  13
ATOM     13  C   UNL     1     126.713 175.358 122.100  1.00  0.00     0.006 C 
BRANCH  13  14
ATOM     14  C   UNL     1     127.175 174.293 121.101  1.00  0.00     0.053 C 
BRANCH  14  15
ATOM     15  C   UNL     1     128.662 174.340 120.932  1.00  0.00     0.041 C 
ATOM     16  O   UNL     1     129.416 173.814 121.792  1.00  0.00    -0.550 OA
ATOM     17  O   UNL     1     129.213 174.921 119.795  1.00  0.00    -0.550 OA
ENDBRANCH  14  15
ENDBRANCH  13  14
ENDBRANCH  12  13
ENDBRANCH  11  12
ENDBRANCH  10  11
ENDBRANCH   9  10
ENDBRANCH   8   9
ENDBRANCH   7   8
ENDBRANCH   6   7
ENDBRANCH   5   6
ENDBRANCH   4   5
ENDBRANCH   3   4
ENDBRANCH   2   3
ENDBRANCH   1   2
BRANCH   1  18
ATOM     18  C   UNL     1     120.290 170.986 128.537  1.00  0.00     0.000 C 
BRANCH  18  19
ATOM     19  C   UNL     1     120.419 171.826 129.819  1.00  0.00     0.000 C 
BRANCH  19  20
ATOM     20  C   UNL     1     119.262 172.824 129.989  1.00  0.00     0.000 C 
BRANCH  20  21
ATOM     21  C   UNL     1     119.739 174.227 130.410  1.00  0.00     0.000 C 
BRANCH  21  22
ATOM     22  C   UNL     1     119.062 175.398 129.668  1.00  0.00     0.000 C 
BRANCH  22  23
ATOM     23  C   UNL     1     119.901 176.686 129.564  1.00  0.00     0.000 C 
BRANCH  23  24
ATOM     24  C   UNL     1     121.126 176.744 130.501  1.00  0.00    -0.000 C 
BRANCH  24  25
ATOM     25  C   UNL     1     122.142 177.852 130.170  1.00  0.00    -0.000 C 
BRANCH  25  26
ATOM     26  C   UNL     1     121.818 178.669 128.904  1.00  0.00    -0.000 C 
BRANCH  26  27
ATOM     27  C   UNL     1     122.708 178.316 127.692  1.00  0.00    -0.000 C 
BRANCH  27  28
ATOM     28  C   UNL     1     122.782 179.460 126.664  1.00  0.00    -0.000 C 
BRANCH  28  29
ATOM     29  C   UNL     1     121.425 179.750 125.995  1.00  0.00    -0.000 C 
BRANCH  29  30
ATOM     30  C   UNL     1     120.744 178.519 125.367  1.00  0.00    -0.000 C 
BRANCH  30  31
ATOM     31  C   UNL     1     119.380 178.210 126.002  1.00  0.00    -0.003 C 
ATOM     32  C   UNL     1     118.794 179.453 126.672  1.00  0.00     0.004 C 
ENDBRANCH  30  31
ENDBRANCH  29  30
ENDBRANCH  28  29
ENDBRANCH  27  28
ENDBRANCH  26  27
ENDBRANCH  25  26
ENDBRANCH  24  25
ENDBRANCH  23  24
ENDBRANCH  22  23
ENDBRANCH  21  22
ENDBRANCH  20  21
ENDBRANCH  19  20
ENDBRANCH  18  19
ENDBRANCH   1  18
TORSDOF 28
ENDMDL
MODEL 8
REMARK VINA RESULT:    -5.314      3.512      7.812
REMARK INTER + INTRA:         -19.086
REMARK INTER:                 -14.409
REMARK INTRA:                  -4.676
REMARK UNBOUND:                -5.072
REMARK SMILES CCCCCCCCCCCCCCCCCCCCCCCCCCCCCC(=O)[O-]
REMARK SMILES IDX 16 1 17 2 18 3 19 4 20 5 21 6 22 7 23 8 24 9 25 10 26 11
REMARK SMILES IDX 27 12 28 13 29 14 30 15 31 16 32 17 15 18 14 19 13 20 12 21
REMARK SMILES IDX 11 22 10 23 9 24 8 25 7 26 6 27 5 28 4 29 3 30 2 31 1 32
REMARK H PARENT
REMARK Flexibility Score: inf
ROOT
ATOM      1  C   UNL     1     121.461 179.374 126.735  1.00  0.00     0.000 C 
ENDROOT
BRANCH   1   2
ATOM      2  C   UNL     1     120.685 180.100 125.623  1.00  0.00     0.000 C 
BRANCH   2   3
ATOM      3  C   UNL     1     120.140 179.137 124.554  1.00  0.00     0.000 C 
BRANCH   3   4
ATOM      4  C   UNL     1     121.155 178.859 123.433  1.00  0.00     0.000 C 
BRANCH   4   5
ATOM      5  C   UNL     1     121.838 177.489 123.584  1.00  0.00     0.000 C 
BRANCH   5   6
ATOM      6  C   UNL     1     123.360 177.559 123.381  1.00  0.00     0.000 C 
BRANCH   6   7
ATOM      7  C   UNL     1     124.131 176.674 124.373  1.00  0.00     0.000 C 
BRANCH   7   8
ATOM      8  C   UNL     1     125.515 176.306 123.819  1.00  0.00     0.000 C 
BRANCH   8   9
ATOM      9  C   UNL     1     125.987 177.260 122.712  1.00  0.00     0.000 C 
BRANCH   9  10
ATOM     10  C   UNL     1     126.368 176.527 121.416  1.00  0.00     0.000 C 
BRANCH  10  11
ATOM     11  C   UNL     1     127.420 175.444 121.682  1.00  0.00     0.000 C 
BRANCH  11  12
ATOM     12  C   UNL     1     127.048 174.134 120.976  1.00  0.00     0.000 C 
BRANCH  12  13
ATOM     13  C   UNL     1     127.152 172.941 121.931  1.00  0.00     0.006 C 
BRANCH  13  14
ATOM     14  C   UNL     1     126.498 171.695 121.326  1.00  0.00     0.053 C 
BRANCH  14  15
ATOM     15  C   UNL     1     126.505 170.567 122.310  1.00  0.00     0.041 C 
ATOM     16  O   UNL     1     125.605 170.482 123.186  1.00  0.00    -0.550 OA
ATOM     17  O   UNL     1     127.479 169.577 122.225  1.00  0.00    -0.550 OA
ENDBRANCH  14  15
ENDBRANCH  13  14
ENDBRANCH  12  13
ENDBRANCH  11  12
ENDBRANCH  10  11
ENDBRANCH   9  10
ENDBRANCH   8   9
ENDBRANCH   7   8
ENDBRANCH   6   7
ENDBRANCH   5   6
ENDBRANCH   4   5
ENDBRANCH   3   4
ENDBRANCH   2   3
ENDBRANCH   1   2
BRANCH   1  18
ATOM     18  C   UNL     1     122.982 179.572 126.613  1.00  0.00     0.000 C 
BRANCH  18  19
ATOM     19  C   UNL     1     123.781 178.583 127.480  1.00  0.00     0.000 C 
BRANCH  19  20
ATOM     20  C   UNL     1     123.601 178.842 128.985  1.00  0.00     0.000 C 
BRANCH  20  21
ATOM     21  C   UNL     1     123.136 177.591 129.755  1.00  0.00     0.000 C 
BRANCH  21  22
ATOM     22  C   UNL     1     121.639 177.571 130.128  1.00  0.00     0.000 C 
BRANCH  22  23
ATOM     23  C   UNL     1     121.137 176.263 130.769  1.00  0.00     0.000 C 
BRANCH  23  24
ATOM     24  C   UNL     1     119.630 175.986 130.590  1.00  0.00    -0.000 C 
BRANCH  24  25
ATOM     25  C   UNL     1     119.020 176.538 129.289  1.00  0.00    -0.000 C 
BRANCH  25  26
ATOM     26  C   UNL     1     119.165 175.613 128.064  1.00  0.00    -0.000 C 
BRANCH  26  27
ATOM     27  C   UNL     1     119.941 176.250 126.892  1.00  0.00    -0.000 C 
BRANCH  27  28
ATOM     28  C   UNL     1     121.405 175.777 126.830  1.00  0.00    -0.000 C 
BRANCH  28  29
ATOM     29  C   UNL     1     121.598 174.549 125.921  1.00  0.00    -0.000 C 
BRANCH  29  30
ATOM     30  C   UNL     1     122.086 173.282 126.651  1.00  0.00    -0.000 C 
BRANCH  30  31
ATOM     31  C   UNL     1     122.190 173.480 128.171  1.00  0.00    -0.003 C 
ATOM     32  C   UNL     1     121.176 172.604 128.907  1.00  0.00     0.004 C 
ENDBRANCH  30  31
ENDBRANCH  29  30
ENDBRANCH  28  29
ENDBRANCH  27  28
ENDBRANCH  26  27
ENDBRANCH  25  26
ENDBRANCH  24  25
ENDBRANCH  23  24
ENDBRANCH  22  23
ENDBRANCH  21  22
ENDBRANCH  20  21
ENDBRANCH  19  20
ENDBRANCH  18  19
ENDBRANCH   1  18
TORSDOF 28
ENDMDL
MODEL 9
REMARK VINA RESULT:    -5.303      1.971      5.369
REMARK INTER + INTRA:         -19.056
REMARK INTER:                 -14.397
REMARK INTRA:                  -4.659
REMARK UNBOUND:                -5.072
REMARK SMILES CCCCCCCCCCCCCCCCCCCCCCCCCCCCCC(=O)[O-]
REMARK SMILES IDX 16 1 17 2 18 3 19 4 20 5 21 6 22 7 23 8 24 9 25 10 26 11
REMARK SMILES IDX 27 12 28 13 29 14 30 15 31 16 32 17 15 18 14 19 13 20 12 21
REMARK SMILES IDX 11 22 10 23 9 24 8 25 7 26 6 27 5 28 4 29 3 30 2 31 1 32
REMARK H PARENT
REMARK Flexibility Score: inf
ROOT
ATOM      1  C   UNL     1     123.605 178.339 126.636  1.00  0.00     0.000 C 
ENDROOT
BRANCH   1   2
ATOM      2  C   UNL     1     123.694 179.027 128.009  1.00  0.00     0.000 C 
BRANCH   2   3
ATOM      3  C   UNL     1     122.361 178.992 128.778  1.00  0.00     0.000 C 
BRANCH   3   4
ATOM      4  C   UNL     1     122.541 178.621 130.259  1.00  0.00     0.000 C 
BRANCH   4   5
ATOM      5  C   UNL     1     122.992 177.162 130.450  1.00  0.00     0.000 C 
BRANCH   5   6
ATOM      6  C   UNL     1     121.870 176.151 130.161  1.00  0.00     0.000 C 
BRANCH   6   7
ATOM      7  C   UNL     1     120.585 176.451 130.949  1.00  0.00     0.000 C 
BRANCH   7   8
ATOM      8  C   UNL     1     119.358 175.860 130.241  1.00  0.00     0.000 C 
BRANCH   8   9
ATOM      9  C   UNL     1     118.858 176.737 129.083  1.00  0.00     0.000 C 
BRANCH   9  10
ATOM     10  C   UNL     1     119.240 176.178 127.704  1.00  0.00     0.000 C 
BRANCH  10  11
ATOM     11  C   UNL     1     118.830 177.141 126.583  1.00  0.00     0.000 C 
BRANCH  11  12
ATOM     12  C   UNL     1     119.139 178.592 126.968  1.00  0.00     0.000 C 
BRANCH  12  13
ATOM     13  C   UNL     1     119.155 179.501 125.735  1.00  0.00     0.006 C 
BRANCH  13  14
ATOM     14  C   UNL     1     117.770 179.569 125.085  1.00  0.00     0.053 C 
BRANCH  14  15
ATOM     15  C   UNL     1     117.819 179.042 123.685  1.00  0.00     0.041 C 
ATOM     16  O   UNL     1     116.763 178.670 123.109  1.00  0.00    -0.550 OA
ATOM     17  O   UNL     1     119.027 179.012 122.997  1.00  0.00    -0.550 OA
ENDBRANCH  14  15
ENDBRANCH  13  14
ENDBRANCH  12  13
ENDBRANCH  11  12
ENDBRANCH  10  11
ENDBRANCH   9  10
ENDBRANCH   8   9
ENDBRANCH   7   8
ENDBRANCH   6   7
ENDBRANCH   5   6
ENDBRANCH   4   5
ENDBRANCH   3   4
ENDBRANCH   2   3
ENDBRANCH   1   2
BRANCH   1  18
ATOM     18  C   UNL     1     122.608 177.166 126.632  1.00  0.00     0.000 C 
BRANCH  18  19
ATOM     19  C   UNL     1     122.612 176.388 125.305  1.00  0.00     0.000 C 
BRANCH  19  20
ATOM     20  C   UNL     1     122.648 174.865 125.516  1.00  0.00     0.000 C 
BRANCH  20  21
ATOM     21  C   UNL     1     122.136 174.442 126.905  1.00  0.00     0.000 C 
BRANCH  21  22
ATOM     22  C   UNL     1     122.939 173.312 127.582  1.00  0.00     0.000 C 
BRANCH  22  23
ATOM     23  C   UNL     1     122.722 171.905 126.993  1.00  0.00     0.000 C 
BRANCH  23  24
ATOM     24  C   UNL     1     123.730 171.492 125.900  1.00  0.00    -0.000 C 
BRANCH  24  25
ATOM     25  C   UNL     1     125.201 171.470 126.352  1.00  0.00    -0.000 C 
BRANCH  25  26
ATOM     26  C   UNL     1     126.207 171.992 125.306  1.00  0.00    -0.000 C 
BRANCH  26  27
ATOM     27  C   UNL     1     125.898 173.420 124.806  1.00  0.00    -0.000 C 
BRANCH  27  28
ATOM     28  C   UNL     1     126.702 173.788 123.545  1.00  0.00    -0.000 C 
BRANCH  28  29
ATOM     29  C   UNL     1     127.144 175.263 123.528  1.00  0.00    -0.000 C 
BRANCH  29  30
ATOM     30  C   UNL     1     126.259 176.207 124.365  1.00  0.00    -0.000 C 
BRANCH  30  31
ATOM     31  C   UNL     1     125.677 177.362 123.535  1.00  0.00    -0.003 C 
ATOM     32  C   UNL     1     125.127 176.855 122.202  1.00  0.00     0.004 C 
ENDBRANCH  30  31
ENDBRANCH  29  30
ENDBRANCH  28  29
ENDBRANCH  27  28
ENDBRANCH  26  27
ENDBRANCH  25  26
ENDBRANCH  24  25
ENDBRANCH  23  24
ENDBRANCH  22  23
ENDBRANCH  21  22
ENDBRANCH  20  21
ENDBRANCH  19  20
ENDBRANCH  18  19
ENDBRANCH   1  18
TORSDOF 28
ENDMDL
