MODEL 1
REMARK VINA RESULT:    -4.149      0.000      0.000
REMARK INTER + INTRA:          -4.825
REMARK INTER:                  -4.755
REMARK INTRA:                  -0.070
REMARK UNBOUND:                -0.070
REMARK SMILES COc1cc(C=O)ccc1O
REMARK SMILES IDX 3 1 10 2 9 3 8 4 5 5 4 6 2 7 1 8 11 9 6 11 7 12
REMARK H PARENT 11 10
REMARK Flexibility Score: inf
ROOT
ATOM      1  C   UNL     1      47.776 -27.152   6.992  1.00  0.00     0.161 A 
ATOM      2  C   UNL     1      47.132 -27.376   5.768  1.00  0.00     0.157 A 
ATOM      3  C   UNL     1      45.840 -27.917   5.741  1.00  0.00     0.051 A 
ATOM      4  C   UNL     1      45.186 -28.235   6.932  1.00  0.00     0.015 A 
ATOM      5  C   UNL     1      45.814 -28.018   8.166  1.00  0.00     0.018 A 
ATOM      6  C   UNL     1      47.111 -27.474   8.193  1.00  0.00     0.062 A 
ENDROOT
BRANCH   1   7
ATOM      7  O   UNL     1      49.071 -26.608   6.977  1.00  0.00    -0.493 OA
ATOM      8  C   UNL     1      50.236 -27.284   7.440  1.00  0.00     0.278 C 
ENDBRANCH   1   7
BRANCH   2   9
ATOM      9  O   UNL     1      47.785 -27.059   4.577  1.00  0.00    -0.504 OA
ATOM     10  H   UNL     1      48.135 -27.778   3.957  1.00  0.00     0.293 HD
ENDBRANCH   2   9
BRANCH   5  11
ATOM     11  C   UNL     1      45.104 -28.361   9.413  1.00  0.00     0.260 C 
ATOM     12  O   UNL     1      44.530 -27.476  10.099  1.00  0.00    -0.298 OA
ENDBRANCH   5  11
TORSDOF 3
ENDMDL
MODEL 2
REMARK VINA RESULT:    -4.131      1.425      3.773
REMARK INTER + INTRA:          -4.805
REMARK INTER:                  -4.745
REMARK INTRA:                  -0.060
REMARK UNBOUND:                -0.070
REMARK SMILES COc1cc(C=O)ccc1O
REMARK SMILES IDX 3 1 10 2 9 3 8 4 5 5 4 6 2 7 1 8 11 9 6 11 7 12
REMARK H PARENT 11 10
REMARK Flexibility Score: inf
ROOT
ATOM      1  C   UNL     1      46.994 -27.508   8.638  1.00  0.00     0.161 A 
ATOM      2  C   UNL     1      45.798 -28.240   8.661  1.00  0.00     0.157 A 
ATOM      3  C   UNL     1      45.168 -28.594   7.461  1.00  0.00     0.051 A 
ATOM      4  C   UNL     1      45.725 -28.222   6.237  1.00  0.00     0.015 A 
ATOM      5  C   UNL     1      46.920 -27.490   6.195  1.00  0.00     0.018 A 
ATOM      6  C   UNL     1      47.553 -27.135   7.399  1.00  0.00     0.062 A 
ENDROOT
BRANCH   1   7
ATOM      7  O   UNL     1      47.596 -27.173   9.863  1.00  0.00    -0.493 OA
ATOM      8  C   UNL     1      48.993 -27.258  10.125  1.00  0.00     0.278 C 
ENDBRANCH   1   7
BRANCH   2   9
ATOM      9  O   UNL     1      45.240 -28.612   9.883  1.00  0.00    -0.504 OA
ATOM     10  H   UNL     1      44.240 -28.594  10.037  1.00  0.00     0.293 HD
ENDBRANCH   2   9
BRANCH   5  11
ATOM     11  C   UNL     1      47.492 -27.107   4.890  1.00  0.00     0.260 C 
ATOM     12  O   UNL     1      48.737 -27.099   4.702  1.00  0.00    -0.298 OA
ENDBRANCH   5  11
TORSDOF 3
ENDMDL
MODEL 3
REMARK VINA RESULT:    -4.035     15.090     16.996
REMARK INTER + INTRA:          -4.694
REMARK INTER:                  -4.636
REMARK INTRA:                  -0.059
REMARK UNBOUND:                -0.070
REMARK SMILES COc1cc(C=O)ccc1O
REMARK SMILES IDX 3 1 10 2 9 3 8 4 5 5 4 6 2 7 1 8 11 9 6 11 7 12
REMARK H PARENT 11 10
REMARK Flexibility Score: inf
ROOT
ATOM      1  C   UNL     1      38.636 -24.233  -7.165  1.00  0.00     0.161 A 
ATOM      2  C   UNL     1      38.727 -24.899  -5.935  1.00  0.00     0.157 A 
ATOM      3  C   UNL     1      39.950 -25.440  -5.516  1.00  0.00     0.051 A 
ATOM      4  C   UNL     1      41.085 -25.317  -6.319  1.00  0.00     0.015 A 
ATOM      5  C   UNL     1      41.012 -24.654  -7.553  1.00  0.00     0.018 A 
ATOM      6  C   UNL     1      39.785 -24.112  -7.972  1.00  0.00     0.062 A 
ENDROOT
BRANCH   1   7
ATOM      7  O   UNL     1      37.392 -23.705  -7.549  1.00  0.00    -0.493 OA
ATOM      8  C   UNL     1      36.918 -23.651  -8.890  1.00  0.00     0.278 C 
ENDBRANCH   1   7
BRANCH   2   9
ATOM      9  O   UNL     1      37.594 -25.022  -5.132  1.00  0.00    -0.504 OA
ATOM     10  H   UNL     1      36.695 -24.659  -5.423  1.00  0.00     0.293 HD
ENDBRANCH   2   9
BRANCH   5  11
ATOM     11  C   UNL     1      42.224 -24.536  -8.386  1.00  0.00     0.260 C 
ATOM     12  O   UNL     1      43.256 -23.956  -7.956  1.00  0.00    -0.298 OA
ENDBRANCH   5  11
TORSDOF 3
ENDMDL
MODEL 4
REMARK VINA RESULT:    -4.029     14.829     16.700
REMARK INTER + INTRA:          -4.687
REMARK INTER:                  -4.633
REMARK INTRA:                  -0.054
REMARK UNBOUND:                -0.070
REMARK SMILES COc1cc(C=O)ccc1O
REMARK SMILES IDX 3 1 10 2 9 3 8 4 5 5 4 6 2 7 1 8 11 9 6 11 7 12
REMARK H PARENT 11 10
REMARK Flexibility Score: inf
ROOT
ATOM      1  C   UNL     1      39.434 -24.145  -8.179  1.00  0.00     0.161 A 
ATOM      2  C   UNL     1      40.743 -24.416  -8.600  1.00  0.00     0.157 A 
ATOM      3  C   UNL     1      41.656 -25.011  -7.720  1.00  0.00     0.051 A 
ATOM      4  C   UNL     1      41.268 -25.340  -6.421  1.00  0.00     0.015 A 
ATOM      5  C   UNL     1      39.963 -25.077  -5.982  1.00  0.00     0.018 A 
ATOM      6  C   UNL     1      39.047 -24.480  -6.866  1.00  0.00     0.062 A 
ENDROOT
BRANCH   1   7
ATOM      7  O   UNL     1      38.548 -23.548  -9.091  1.00  0.00    -0.493 OA
ATOM      8  C   UNL     1      37.129 -23.614  -8.999  1.00  0.00     0.278 C 
ENDBRANCH   1   7
BRANCH   2   9
ATOM      9  O   UNL     1      41.132 -24.088  -9.898  1.00  0.00    -0.504 OA
ATOM     10  H   UNL     1      41.476 -23.165 -10.132  1.00  0.00     0.293 HD
ENDBRANCH   2   9
BRANCH   5  11
ATOM     11  C   UNL     1      39.574 -25.433  -4.604  1.00  0.00     0.260 C 
ATOM     12  O   UNL     1      39.889 -24.700  -3.630  1.00  0.00    -0.298 OA
ENDBRANCH   5  11
TORSDOF 3
ENDMDL
MODEL 5
REMARK VINA RESULT:    -3.974     14.019     16.112
REMARK INTER + INTRA:          -4.624
REMARK INTER:                  -4.566
REMARK INTRA:                  -0.058
REMARK UNBOUND:                -0.070
REMARK SMILES COc1cc(C=O)ccc1O
REMARK SMILES IDX 3 1 10 2 9 3 8 4 5 5 4 6 2 7 1 8 11 9 6 11 7 12
REMARK H PARENT 11 10
REMARK Flexibility Score: inf
ROOT
ATOM      1  C   UNL     1      39.553 -25.149  -5.620  1.00  0.00     0.161 A 
ATOM      2  C   UNL     1      38.576 -24.554  -6.429  1.00  0.00     0.157 A 
ATOM      3  C   UNL     1      38.903 -24.110  -7.717  1.00  0.00     0.051 A 
ATOM      4  C   UNL     1      40.202 -24.260  -8.204  1.00  0.00     0.015 A 
ATOM      5  C   UNL     1      41.193 -24.854  -7.409  1.00  0.00     0.018 A 
ATOM      6  C   UNL     1      40.864 -25.299  -6.117  1.00  0.00     0.062 A 
ENDROOT
BRANCH   1   7
ATOM      7  O   UNL     1      39.186 -25.581  -4.335  1.00  0.00    -0.493 OA
ATOM      8  C   UNL     1      39.308 -24.794  -3.154  1.00  0.00     0.278 C 
ENDBRANCH   1   7
BRANCH   2   9
ATOM      9  O   UNL     1      37.277 -24.403  -5.943  1.00  0.00    -0.504 OA
ATOM     10  H   UNL     1      36.526 -25.012  -6.242  1.00  0.00     0.293 HD
ENDBRANCH   2   9
BRANCH   5  11
ATOM     11  C   UNL     1      42.560 -25.002  -7.944  1.00  0.00     0.260 C 
ATOM     12  O   UNL     1      43.284 -23.997  -8.166  1.00  0.00    -0.298 OA
ENDBRANCH   5  11
TORSDOF 3
ENDMDL
MODEL 6
REMARK VINA RESULT:    -3.967     14.092     15.797
REMARK INTER + INTRA:          -4.616
REMARK INTER:                  -4.543
REMARK INTRA:                  -0.073
REMARK UNBOUND:                -0.070
REMARK SMILES COc1cc(C=O)ccc1O
REMARK SMILES IDX 3 1 10 2 9 3 8 4 5 5 4 6 2 7 1 8 11 9 6 11 7 12
REMARK H PARENT 11 10
REMARK Flexibility Score: inf
ROOT
ATOM      1  C   UNL     1      41.160 -25.007  -7.435  1.00  0.00     0.161 A 
ATOM      2  C   UNL     1      40.238 -24.236  -8.156  1.00  0.00     0.157 A 
ATOM      3  C   UNL     1      39.037 -23.833  -7.558  1.00  0.00     0.051 A 
ATOM      4  C   UNL     1      38.752 -24.194  -6.240  1.00  0.00     0.015 A 
ATOM      5  C   UNL     1      39.663 -24.964  -5.503  1.00  0.00     0.018 A 
ATOM      6  C   UNL     1      40.868 -25.368  -6.104  1.00  0.00     0.062 A 
ENDROOT
BRANCH   1   7
ATOM      7  O   UNL     1      42.352 -25.391  -8.070  1.00  0.00    -0.493 OA
ATOM      8  C   UNL     1      42.588 -26.678  -8.634  1.00  0.00     0.278 C 
ENDBRANCH   1   7
BRANCH   2   9
ATOM      9  O   UNL     1      40.522 -23.875  -9.473  1.00  0.00    -0.504 OA
ATOM     10  H   UNL     1      41.238 -24.348 -10.010  1.00  0.00     0.293 HD
ENDBRANCH   2   9
BRANCH   5  11
ATOM     11  C   UNL     1      39.341 -25.334  -4.112  1.00  0.00     0.260 C 
ATOM     12  O   UNL     1      39.610 -24.563  -3.154  1.00  0.00    -0.298 OA
ENDBRANCH   5  11
TORSDOF 3
ENDMDL
MODEL 7
REMARK VINA RESULT:    -3.949      1.818      2.560
REMARK INTER + INTRA:          -4.596
REMARK INTER:                  -4.544
REMARK INTRA:                  -0.052
REMARK UNBOUND:                -0.070
REMARK SMILES COc1cc(C=O)ccc1O
REMARK SMILES IDX 3 1 10 2 9 3 8 4 5 5 4 6 2 7 1 8 11 9 6 11 7 12
REMARK H PARENT 11 10
REMARK Flexibility Score: inf
ROOT
ATOM      1  C   UNL     1      47.037 -27.517   5.960  1.00  0.00     0.161 A 
ATOM      2  C   UNL     1      45.919 -28.357   6.057  1.00  0.00     0.157 A 
ATOM      3  C   UNL     1      45.412 -28.711   7.314  1.00  0.00     0.051 A 
ATOM      4  C   UNL     1      46.014 -28.227   8.476  1.00  0.00     0.015 A 
ATOM      5  C   UNL     1      47.132 -27.386   8.399  1.00  0.00     0.018 A 
ATOM      6  C   UNL     1      47.641 -27.031   7.137  1.00  0.00     0.062 A 
ENDROOT
BRANCH   1   7
ATOM      7  O   UNL     1      47.516 -27.185   4.681  1.00  0.00    -0.493 OA
ATOM      8  C   UNL     1      48.631 -26.336   4.433  1.00  0.00     0.278 C 
ENDBRANCH   1   7
BRANCH   2   9
ATOM      9  O   UNL     1      45.318 -28.840   4.896  1.00  0.00    -0.504 OA
ATOM     10  H   UNL     1      45.833 -28.931   4.029  1.00  0.00     0.293 HD
ENDBRANCH   2   9
BRANCH   5  11
ATOM     11  C   UNL     1      47.753 -26.886   9.641  1.00  0.00     0.260 C 
ATOM     12  O   UNL     1      48.833 -27.371  10.069  1.00  0.00    -0.298 OA
ENDBRANCH   5  11
TORSDOF 3
ENDMDL
MODEL 8
REMARK VINA RESULT:    -3.827      1.231      2.491
REMARK INTER + INTRA:          -4.456
REMARK INTER:                  -4.381
REMARK INTRA:                  -0.076
REMARK UNBOUND:                -0.070
REMARK SMILES COc1cc(C=O)ccc1O
REMARK SMILES IDX 3 1 10 2 9 3 8 4 5 5 4 6 2 7 1 8 11 9 6 11 7 12
REMARK H PARENT 11 10
REMARK Flexibility Score: inf
ROOT
ATOM      1  C   UNL     1      47.862 -27.567   6.661  1.00  0.00     0.161 A 
ATOM      2  C   UNL     1      48.565 -27.118   7.788  1.00  0.00     0.157 A 
ATOM      3  C   UNL     1      47.936 -27.076   9.039  1.00  0.00     0.051 A 
ATOM      4  C   UNL     1      46.607 -27.482   9.172  1.00  0.00     0.015 A 
ATOM      5  C   UNL     1      45.888 -27.933   8.057  1.00  0.00     0.018 A 
ATOM      6  C   UNL     1      46.520 -27.975   6.801  1.00  0.00     0.062 A 
ENDROOT
BRANCH   1   7
ATOM      7  O   UNL     1      48.527 -27.594   5.425  1.00  0.00    -0.493 OA
ATOM      8  C   UNL     1      48.286 -26.682   4.358  1.00  0.00     0.278 C 
ENDBRANCH   1   7
BRANCH   2   9
ATOM      9  O   UNL     1      49.892 -26.713   7.656  1.00  0.00    -0.504 OA
ATOM     10  H   UNL     1      50.641 -27.180   8.152  1.00  0.00     0.293 HD
ENDBRANCH   2   9
BRANCH   5  11
ATOM     11  C   UNL     1      44.484 -28.356   8.220  1.00  0.00     0.260 C 
ATOM     12  O   UNL     1      43.652 -27.630   8.823  1.00  0.00    -0.298 OA
ENDBRANCH   5  11
TORSDOF 3
ENDMDL
MODEL 9
REMARK VINA RESULT:    -3.799     16.178     17.510
REMARK INTER + INTRA:          -4.424
REMARK INTER:                  -4.352
REMARK INTRA:                  -0.072
REMARK UNBOUND:                -0.070
REMARK SMILES COc1cc(C=O)ccc1O
REMARK SMILES IDX 3 1 10 2 9 3 8 4 5 5 4 6 2 7 1 8 11 9 6 11 7 12
REMARK H PARENT 11 10
REMARK Flexibility Score: inf
ROOT
ATOM      1  C   UNL     1      50.495 -36.393  -7.042  1.00  0.00     0.161 A 
ATOM      2  C   UNL     1      51.445 -36.686  -8.031  1.00  0.00     0.157 A 
ATOM      3  C   UNL     1      51.949 -35.665  -8.846  1.00  0.00     0.051 A 
ATOM      4  C   UNL     1      51.512 -34.350  -8.679  1.00  0.00     0.015 A 
ATOM      5  C   UNL     1      50.563 -34.038  -7.696  1.00  0.00     0.018 A 
ATOM      6  C   UNL     1      50.057 -35.063  -6.877  1.00  0.00     0.062 A 
ENDROOT
BRANCH   1   7
ATOM      7  O   UNL     1      50.014 -37.444  -6.244  1.00  0.00    -0.493 OA
ATOM      8  C   UNL     1      50.481 -37.740  -4.932  1.00  0.00     0.278 C 
ENDBRANCH   1   7
BRANCH   2   9
ATOM      9  O   UNL     1      51.883 -37.999  -8.198  1.00  0.00    -0.504 OA
ATOM     10  H   UNL     1      51.328 -38.787  -7.886  1.00  0.00     0.293 HD
ENDBRANCH   2   9
BRANCH   5  11
ATOM     11  C   UNL     1      50.114 -32.642  -7.537  1.00  0.00     0.260 C 
ATOM     12  O   UNL     1      48.958 -32.286  -7.886  1.00  0.00    -0.298 OA
ENDBRANCH   5  11
TORSDOF 3
ENDMDL
