MODEL 1
REMARK VINA RESULT:     2.322      0.000      0.000
REMARK INTER + INTRA:           3.331
REMARK INTER:                   3.680
REMARK INTRA:                  -0.348
REMARK UNBOUND:                -0.348
REMARK SMILES CCCCCCCCCCCC(=O)[O-]
REMARK SMILES IDX 7 1 8 2 9 3 10 4 11 5 12 6 13 7 14 8 6 9 5 10 4 11 3 12 2 13
REMARK SMILES IDX 1 14
REMARK H PARENT
REMARK Flexibility Score: inf
ROOT
ATOM      1  C   UNL     1      10.771  -2.355 -16.651  1.00  0.00     0.000 C 
ENDROOT
BRANCH   1   2
ATOM      2  C   UNL     1      11.122  -3.843 -16.499  1.00  0.00     0.000 C 
BRANCH   2   3
ATOM      3  C   UNL     1      11.340  -4.541 -17.850  1.00  0.00     0.000 C 
BRANCH   3   4
ATOM      4  C   UNL     1      12.213  -5.794 -17.686  1.00  0.00     0.006 C 
BRANCH   4   5
ATOM      5  C   UNL     1      12.953  -6.160 -18.979  1.00  0.00     0.053 C 
BRANCH   5   6
ATOM      6  C   UNL     1      14.380  -6.532 -18.716  1.00  0.00     0.041 C 
ATOM      7  O   UNL     1      15.305  -6.017 -19.396  1.00  0.00    -0.550 OA
ATOM      8  O   UNL     1      14.689  -7.424 -17.697  1.00  0.00    -0.550 OA
ENDBRANCH   5   6
ENDBRANCH   4   5
ENDBRANCH   3   4
ENDBRANCH   2   3
ENDBRANCH   1   2
BRANCH   1   9
ATOM      9  C   UNL     1      11.857  -1.428 -16.084  1.00  0.00     0.000 C 
BRANCH   9  10
ATOM     10  C   UNL     1      12.288  -0.385 -17.127  1.00  0.00    -0.000 C 
BRANCH  10  11
ATOM     11  C   UNL     1      12.518   1.005 -16.515  1.00  0.00    -0.000 C 
BRANCH  11  12
ATOM     12  C   UNL     1      13.660   1.771 -17.204  1.00  0.00    -0.000 C 
BRANCH  12  13
ATOM     13  C   UNL     1      13.990   1.209 -18.596  1.00  0.00    -0.003 C 
ATOM     14  C   UNL     1      15.335   0.484 -18.636  1.00  0.00     0.004 C 
ENDBRANCH  12  13
ENDBRANCH  11  12
ENDBRANCH  10  11
ENDBRANCH   9  10
ENDBRANCH   1   9
TORSDOF 10
ENDMDL
MODEL 2
REMARK VINA RESULT:     2.886      2.778      6.405
REMARK INTER + INTRA:           4.225
REMARK INTER:                   4.642
REMARK INTRA:                  -0.417
REMARK UNBOUND:                -0.348
REMARK SMILES CCCCCCCCCCCC(=O)[O-]
REMARK SMILES IDX 7 1 8 2 9 3 10 4 11 5 12 6 13 7 14 8 6 9 5 10 4 11 3 12 2 13
REMARK SMILES IDX 1 14
REMARK H PARENT
REMARK Flexibility Score: inf
ROOT
ATOM      1  C   UNL     1      10.759  -2.729 -16.449  1.00  0.00     0.000 C 
ENDROOT
BRANCH   1   2
ATOM      2  C   UNL     1      11.882  -1.830 -16.988  1.00  0.00     0.000 C 
BRANCH   2   3
ATOM      3  C   UNL     1      12.103  -0.578 -16.125  1.00  0.00     0.000 C 
BRANCH   3   4
ATOM      4  C   UNL     1      12.204   0.681 -17.000  1.00  0.00     0.006 C 
BRANCH   4   5
ATOM      5  C   UNL     1      13.632   1.238 -17.053  1.00  0.00     0.053 C 
BRANCH   5   6
ATOM      6  C   UNL     1      14.232   1.097 -18.419  1.00  0.00     0.041 C 
ATOM      7  O   UNL     1      13.806   1.799 -19.374  1.00  0.00    -0.550 OA
ATOM      8  O   UNL     1      15.283   0.214 -18.629  1.00  0.00    -0.550 OA
ENDBRANCH   5   6
ENDBRANCH   4   5
ENDBRANCH   3   4
ENDBRANCH   2   3
ENDBRANCH   1   2
BRANCH   1   9
ATOM      9  C   UNL     1      11.134  -4.219 -16.463  1.00  0.00     0.000 C 
BRANCH   9  10
ATOM     10  C   UNL     1      11.496  -4.680 -17.883  1.00  0.00    -0.000 C 
BRANCH  10  11
ATOM     11  C   UNL     1      12.351  -5.957 -17.891  1.00  0.00    -0.000 C 
BRANCH  11  12
ATOM     12  C   UNL     1      13.205  -6.088 -19.164  1.00  0.00    -0.000 C 
BRANCH  12  13
ATOM     13  C   UNL     1      14.685  -6.364 -18.853  1.00  0.00    -0.003 C 
ATOM     14  C   UNL     1      14.878  -7.553 -17.913  1.00  0.00     0.004 C 
ENDBRANCH  12  13
ENDBRANCH  11  12
ENDBRANCH  10  11
ENDBRANCH   9  10
ENDBRANCH   1   9
TORSDOF 10
ENDMDL
MODEL 3
REMARK VINA RESULT:     3.148      2.816      6.293
REMARK INTER + INTRA:           4.640
REMARK INTER:                   4.974
REMARK INTRA:                  -0.334
REMARK UNBOUND:                -0.348
REMARK SMILES CCCCCCCCCCCC(=O)[O-]
REMARK SMILES IDX 7 1 8 2 9 3 10 4 11 5 12 6 13 7 14 8 6 9 5 10 4 11 3 12 2 13
REMARK SMILES IDX 1 14
REMARK H PARENT
REMARK Flexibility Score: inf
ROOT
ATOM      1  C   UNL     1      11.299  -2.169 -16.168  1.00  0.00     0.000 C 
ENDROOT
BRANCH   1   2
ATOM      2  C   UNL     1      11.877  -0.975 -16.942  1.00  0.00     0.000 C 
BRANCH   2   3
ATOM      3  C   UNL     1      12.174   0.230 -16.037  1.00  0.00     0.000 C 
BRANCH   3   4
ATOM      4  C   UNL     1      12.819   1.373 -16.836  1.00  0.00     0.006 C 
BRANCH   4   5
ATOM      5  C   UNL     1      13.394   0.892 -18.175  1.00  0.00     0.053 C 
BRANCH   5   6
ATOM      6  C   UNL     1      14.849   0.553 -18.064  1.00  0.00     0.041 C 
ATOM      7  O   UNL     1      15.388   0.436 -16.933  1.00  0.00    -0.550 OA
ATOM      8  O   UNL     1      15.601   0.334 -19.211  1.00  0.00    -0.550 OA
ENDBRANCH   5   6
ENDBRANCH   4   5
ENDBRANCH   3   4
ENDBRANCH   2   3
ENDBRANCH   1   2
BRANCH   1   9
ATOM      9  C   UNL     1      10.652  -3.215 -17.089  1.00  0.00     0.000 C 
BRANCH   9  10
ATOM     10  C   UNL     1      11.405  -4.552 -17.016  1.00  0.00    -0.000 C 
BRANCH  10  11
ATOM     11  C   UNL     1      11.901  -5.028 -18.390  1.00  0.00    -0.000 C 
BRANCH  11  12
ATOM     12  C   UNL     1      12.572  -6.412 -18.328  1.00  0.00    -0.000 C 
BRANCH  12  13
ATOM     13  C   UNL     1      14.044  -6.373 -18.768  1.00  0.00    -0.003 C 
ATOM     14  C   UNL     1      14.915  -7.367 -18.001  1.00  0.00     0.004 C 
ENDBRANCH  12  13
ENDBRANCH  11  12
ENDBRANCH  10  11
ENDBRANCH   9  10
ENDBRANCH   1   9
TORSDOF 10
ENDMDL
MODEL 4
REMARK VINA RESULT:     4.249      1.280      2.343
REMARK INTER + INTRA:           6.385
REMARK INTER:                   6.859
REMARK INTRA:                  -0.474
REMARK UNBOUND:                -0.348
REMARK SMILES CCCCCCCCCCCC(=O)[O-]
REMARK SMILES IDX 7 1 8 2 9 3 10 4 11 5 12 6 13 7 14 8 6 9 5 10 4 11 3 12 2 13
REMARK SMILES IDX 1 14
REMARK H PARENT
REMARK Flexibility Score: inf
ROOT
ATOM      1  C   UNL     1      11.005  -2.321 -16.968  1.00  0.00     0.000 C 
ENDROOT
BRANCH   1   2
ATOM      2  C   UNL     1      11.090  -3.739 -16.382  1.00  0.00     0.000 C 
BRANCH   2   3
ATOM      3  C   UNL     1      11.136  -4.826 -17.467  1.00  0.00     0.000 C 
BRANCH   3   4
ATOM      4  C   UNL     1      12.571  -5.039 -17.971  1.00  0.00     0.006 C 
BRANCH   4   5
ATOM      5  C   UNL     1      12.824  -6.488 -18.408  1.00  0.00     0.053 C 
BRANCH   5   6
ATOM      6  C   UNL     1      14.283  -6.757 -18.618  1.00  0.00     0.041 C 
ATOM      7  O   UNL     1      14.975  -5.981 -19.328  1.00  0.00    -0.550 OA
ATOM      8  O   UNL     1      14.884  -7.847 -18.004  1.00  0.00    -0.550 OA
ENDBRANCH   5   6
ENDBRANCH   4   5
ENDBRANCH   3   4
ENDBRANCH   2   3
ENDBRANCH   1   2
BRANCH   1   9
ATOM      9  C   UNL     1      11.871  -1.310 -16.201  1.00  0.00     0.000 C 
BRANCH   9  10
ATOM     10  C   UNL     1      12.330  -0.170 -17.124  1.00  0.00    -0.000 C 
BRANCH  10  11
ATOM     11  C   UNL     1      12.684   1.110 -16.352  1.00  0.00    -0.000 C 
BRANCH  11  12
ATOM     12  C   UNL     1      11.508   2.100 -16.280  1.00  0.00    -0.000 C 
BRANCH  12  13
ATOM     13  C   UNL     1      11.120   2.448 -14.834  1.00  0.00    -0.003 C 
ATOM     14  C   UNL     1      10.454   1.281 -14.105  1.00  0.00     0.004 C 
ENDBRANCH  12  13
ENDBRANCH  11  12
ENDBRANCH  10  11
ENDBRANCH   9  10
ENDBRANCH   1   9
TORSDOF 10
ENDMDL
