MODEL 1
REMARK VINA RESULT:    -2.584      0.000      0.000
REMARK INTER + INTRA:          -4.167
REMARK INTER:                  -3.642
REMARK INTRA:                  -0.525
REMARK UNBOUND:                -0.525
REMARK SMILES CCCCCCCCC(=O)[O-]
REMARK SMILES IDX 6 1 7 2 8 3 9 4 10 5 11 6 5 7 4 8 3 9 2 10 1 11
REMARK H PARENT
REMARK Flexibility Score: inf
ROOT
ATOM      1  C   UNL     1      54.954 -34.915  22.727  1.00  0.00     0.000 C 
ENDROOT
BRANCH   1   2
ATOM      2  C   UNL     1      55.708 -36.022  21.969  1.00  0.00     0.006 C 
BRANCH   2   3
ATOM      3  C   UNL     1      56.748 -36.724  22.854  1.00  0.00     0.053 C 
BRANCH   3   4
ATOM      4  C   UNL     1      58.126 -36.183  22.628  1.00  0.00     0.041 C 
ATOM      5  O   UNL     1      58.927 -36.785  21.866  1.00  0.00    -0.550 OA
ATOM      6  O   UNL     1      58.535 -35.028  23.282  1.00  0.00    -0.550 OA
ENDBRANCH   3   4
ENDBRANCH   2   3
ENDBRANCH   1   2
BRANCH   1   7
ATOM      7  C   UNL     1      54.653 -35.296  24.186  1.00  0.00     0.000 C 
BRANCH   7   8
ATOM      8  C   UNL     1      53.144 -35.349  24.484  1.00  0.00    -0.000 C 
BRANCH   8   9
ATOM      9  C   UNL     1      52.287 -35.073  23.238  1.00  0.00    -0.000 C 
BRANCH   9  10
ATOM     10  C   UNL     1      51.330 -33.887  23.428  1.00  0.00    -0.003 C 
ATOM     11  C   UNL     1      52.101 -32.593  23.677  1.00  0.00     0.004 C 
ENDBRANCH   9  10
ENDBRANCH   8   9
ENDBRANCH   7   8
ENDBRANCH   1   7
TORSDOF 7
ENDMDL
MODEL 2
REMARK VINA RESULT:    -2.540      4.035      6.127
REMARK INTER + INTRA:          -4.104
REMARK INTER:                  -3.693
REMARK INTRA:                  -0.411
REMARK UNBOUND:                -0.525
REMARK SMILES CCCCCCCCC(=O)[O-]
REMARK SMILES IDX 6 1 7 2 8 3 9 4 10 5 11 6 5 7 4 8 3 9 2 10 1 11
REMARK H PARENT
REMARK Flexibility Score: inf
ROOT
ATOM      1  C   UNL     1      51.798 -34.990  23.117  1.00  0.00     0.000 C 
ENDROOT
BRANCH   1   2
ATOM      2  C   UNL     1      50.901 -33.779  23.428  1.00  0.00     0.006 C 
BRANCH   2   3
ATOM      3  C   UNL     1      51.709 -32.480  23.560  1.00  0.00     0.053 C 
BRANCH   3   4
ATOM      4  C   UNL     1      51.000 -31.318  22.936  1.00  0.00     0.041 C 
ATOM      5  O   UNL     1      49.917 -31.493  22.318  1.00  0.00    -0.550 OA
ATOM      6  O   UNL     1      51.550 -30.045  23.013  1.00  0.00    -0.550 OA
ENDBRANCH   3   4
ENDBRANCH   2   3
ENDBRANCH   1   2
BRANCH   1   7
ATOM      7  C   UNL     1      52.587 -35.474  24.344  1.00  0.00     0.000 C 
BRANCH   7   8
ATOM      8  C   UNL     1      54.099 -35.566  24.077  1.00  0.00    -0.000 C 
BRANCH   8   9
ATOM      9  C   UNL     1      54.463 -35.222  22.623  1.00  0.00    -0.000 C 
BRANCH   9  10
ATOM     10  C   UNL     1      55.496 -36.188  22.026  1.00  0.00    -0.003 C 
ATOM     11  C   UNL     1      56.653 -36.422  22.995  1.00  0.00     0.004 C 
ENDBRANCH   9  10
ENDBRANCH   8   9
ENDBRANCH   7   8
ENDBRANCH   1   7
TORSDOF 7
ENDMDL
MODEL 3
REMARK VINA RESULT:    -2.526      1.341      2.090
REMARK INTER + INTRA:          -4.084
REMARK INTER:                  -3.563
REMARK INTRA:                  -0.521
REMARK UNBOUND:                -0.525
REMARK SMILES CCCCCCCCC(=O)[O-]
REMARK SMILES IDX 6 1 7 2 8 3 9 4 10 5 11 6 5 7 4 8 3 9 2 10 1 11
REMARK H PARENT
REMARK Flexibility Score: inf
ROOT
ATOM      1  C   UNL     1      53.748 -34.159  23.959  1.00  0.00     0.000 C 
ENDROOT
BRANCH   1   2
ATOM      2  C   UNL     1      55.041 -34.126  23.126  1.00  0.00     0.006 C 
BRANCH   2   3
ATOM      3  C   UNL     1      55.311 -35.466  22.426  1.00  0.00     0.053 C 
BRANCH   3   4
ATOM      4  C   UNL     1      56.579 -36.100  22.910  1.00  0.00     0.041 C 
ATOM      5  O   UNL     1      56.624 -36.642  24.045  1.00  0.00    -0.550 OA
ATOM      6  O   UNL     1      57.718 -36.067  22.117  1.00  0.00    -0.550 OA
ENDBRANCH   3   4
ENDBRANCH   2   3
ENDBRANCH   1   2
BRANCH   1   7
ATOM      7  C   UNL     1      52.785 -35.273  23.517  1.00  0.00     0.000 C 
BRANCH   7   8
ATOM      8  C   UNL     1      51.409 -34.732  23.091  1.00  0.00    -0.000 C 
BRANCH   8   9
ATOM      9  C   UNL     1      50.985 -33.496  23.902  1.00  0.00    -0.000 C 
BRANCH   9  10
ATOM     10  C   UNL     1      50.568 -32.317  23.011  1.00  0.00    -0.003 C 
ATOM     11  C   UNL     1      51.624 -31.215  23.027  1.00  0.00     0.004 C 
ENDBRANCH   9  10
ENDBRANCH   8   9
ENDBRANCH   7   8
ENDBRANCH   1   7
TORSDOF 7
ENDMDL
MODEL 4
REMARK VINA RESULT:    -2.508      1.989      3.358
REMARK INTER + INTRA:          -4.060
REMARK INTER:                  -3.681
REMARK INTRA:                  -0.379
REMARK UNBOUND:                -0.525
REMARK SMILES CCCCCCCCC(=O)[O-]
REMARK SMILES IDX 6 1 7 2 8 3 9 4 10 5 11 6 5 7 4 8 3 9 2 10 1 11
REMARK H PARENT
REMARK Flexibility Score: inf
ROOT
ATOM      1  C   UNL     1      51.825 -34.953  23.188  1.00  0.00     0.000 C 
ENDROOT
BRANCH   1   2
ATOM      2  C   UNL     1      53.156 -35.419  23.805  1.00  0.00     0.006 C 
BRANCH   2   3
ATOM      3  C   UNL     1      54.360 -34.674  23.212  1.00  0.00     0.053 C 
BRANCH   3   4
ATOM      4  C   UNL     1      55.237 -35.584  22.408  1.00  0.00     0.041 C 
ATOM      5  O   UNL     1      54.827 -36.058  21.317  1.00  0.00    -0.550 OA
ATOM      6  O   UNL     1      56.496 -35.931  22.881  1.00  0.00    -0.550 OA
ENDBRANCH   3   4
ENDBRANCH   2   3
ENDBRANCH   1   2
BRANCH   1   7
ATOM      7  C   UNL     1      51.238 -33.725  23.904  1.00  0.00     0.000 C 
BRANCH   7   8
ATOM      8  C   UNL     1      50.003 -33.155  23.185  1.00  0.00    -0.000 C 
BRANCH   8   9
ATOM      9  C   UNL     1      50.221 -31.717  22.687  1.00  0.00    -0.000 C 
BRANCH   9  10
ATOM     10  C   UNL     1      51.631 -31.192  22.993  1.00  0.00    -0.003 C 
ATOM     11  C   UNL     1      51.579 -29.774  23.557  1.00  0.00     0.004 C 
ENDBRANCH   9  10
ENDBRANCH   8   9
ENDBRANCH   7   8
ENDBRANCH   1   7
TORSDOF 7
ENDMDL
MODEL 5
REMARK VINA RESULT:    -2.466      3.436      5.526
REMARK INTER + INTRA:          -4.000
REMARK INTER:                  -3.391
REMARK INTRA:                  -0.609
REMARK UNBOUND:                -0.525
REMARK SMILES CCCCCCCCC(=O)[O-]
REMARK SMILES IDX 6 1 7 2 8 3 9 4 10 5 11 6 5 7 4 8 3 9 2 10 1 11
REMARK H PARENT
REMARK Flexibility Score: inf
ROOT
ATOM      1  C   UNL     1      54.978 -34.020  24.793  1.00  0.00     0.000 C 
ENDROOT
BRANCH   1   2
ATOM      2  C   UNL     1      54.656 -32.933  23.753  1.00  0.00     0.006 C 
BRANCH   2   3
ATOM      3  C   UNL     1      53.586 -31.953  24.254  1.00  0.00     0.053 C 
BRANCH   3   4
ATOM      4  C   UNL     1      52.280 -32.145  23.546  1.00  0.00     0.041 C 
ATOM      5  O   UNL     1      51.695 -33.259  23.583  1.00  0.00    -0.550 OA
ATOM      6  O   UNL     1      51.723 -31.100  22.820  1.00  0.00    -0.550 OA
ENDBRANCH   3   4
ENDBRANCH   2   3
ENDBRANCH   1   2
BRANCH   1   7
ATOM      7  C   UNL     1      54.704 -35.440  24.271  1.00  0.00     0.000 C 
BRANCH   7   8
ATOM      8  C   UNL     1      54.350 -35.461  22.774  1.00  0.00    -0.000 C 
BRANCH   8   9
ATOM      9  C   UNL     1      55.459 -36.091  21.915  1.00  0.00    -0.000 C 
BRANCH   9  10
ATOM     10  C   UNL     1      56.569 -36.734  22.759  1.00  0.00    -0.003 C 
ATOM     11  C   UNL     1      57.930 -36.122  22.434  1.00  0.00     0.004 C 
ENDBRANCH   9  10
ENDBRANCH   8   9
ENDBRANCH   7   8
ENDBRANCH   1   7
TORSDOF 7
ENDMDL
MODEL 6
REMARK VINA RESULT:    -2.428      2.563      4.607
REMARK INTER + INTRA:          -3.947
REMARK INTER:                  -3.164
REMARK INTRA:                  -0.783
REMARK UNBOUND:                -0.525
REMARK SMILES CCCCCCCCC(=O)[O-]
REMARK SMILES IDX 6 1 7 2 8 3 9 4 10 5 11 6 5 7 4 8 3 9 2 10 1 11
REMARK H PARENT
REMARK Flexibility Score: inf
ROOT
ATOM      1  C   UNL     1      54.040 -35.402  23.098  1.00  0.00     0.000 C 
ENDROOT
BRANCH   1   2
ATOM      2  C   UNL     1      54.078 -34.089  23.899  1.00  0.00     0.006 C 
BRANCH   2   3
ATOM      3  C   UNL     1      54.926 -33.013  23.205  1.00  0.00     0.053 C 
BRANCH   3   4
ATOM      4  C   UNL     1      55.926 -32.405  24.139  1.00  0.00     0.041 C 
ATOM      5  O   UNL     1      56.527 -31.345  23.822  1.00  0.00    -0.550 OA
ATOM      6  O   UNL     1      56.216 -33.025  25.347  1.00  0.00    -0.550 OA
ENDBRANCH   3   4
ENDBRANCH   2   3
ENDBRANCH   1   2
BRANCH   1   7
ATOM      7  C   UNL     1      55.171 -35.497  22.061  1.00  0.00     0.000 C 
BRANCH   7   8
ATOM      8  C   UNL     1      56.235 -36.541  22.439  1.00  0.00    -0.000 C 
BRANCH   8   9
ATOM      9  C   UNL     1      57.217 -36.024  23.504  1.00  0.00    -0.000 C 
BRANCH   9  10
ATOM     10  C   UNL     1      57.329 -36.964  24.713  1.00  0.00    -0.003 C 
ATOM     11  C   UNL     1      56.353 -36.559  25.815  1.00  0.00     0.004 C 
ENDBRANCH   9  10
ENDBRANCH   8   9
ENDBRANCH   7   8
ENDBRANCH   1   7
TORSDOF 7
ENDMDL
MODEL 7
REMARK VINA RESULT:    -2.420      1.243      2.152
REMARK INTER + INTRA:          -3.935
REMARK INTER:                  -3.508
REMARK INTRA:                  -0.427
REMARK UNBOUND:                -0.525
REMARK SMILES CCCCCCCCC(=O)[O-]
REMARK SMILES IDX 6 1 7 2 8 3 9 4 10 5 11 6 5 7 4 8 3 9 2 10 1 11
REMARK H PARENT
REMARK Flexibility Score: inf
ROOT
ATOM      1  C   UNL     1      56.200 -36.514  22.283  1.00  0.00     0.000 C 
ENDROOT
BRANCH   1   2
ATOM      2  C   UNL     1      56.885 -36.370  23.653  1.00  0.00     0.006 C 
BRANCH   2   3
ATOM      3  C   UNL     1      58.220 -37.125  23.714  1.00  0.00     0.053 C 
BRANCH   3   4
ATOM      4  C   UNL     1      59.368 -36.261  23.290  1.00  0.00     0.041 C 
ATOM      5  O   UNL     1      59.258 -35.007  23.308  1.00  0.00    -0.550 OA
ATOM      6  O   UNL     1      60.549 -36.842  22.849  1.00  0.00    -0.550 OA
ENDBRANCH   3   4
ENDBRANCH   2   3
ENDBRANCH   1   2
BRANCH   1   7
ATOM      7  C   UNL     1      54.982 -35.588  22.129  1.00  0.00     0.000 C 
BRANCH   7   8
ATOM      8  C   UNL     1      55.056 -34.355  23.046  1.00  0.00    -0.000 C 
BRANCH   8   9
ATOM      9  C   UNL     1      53.837 -34.236  23.974  1.00  0.00    -0.000 C 
BRANCH   9  10
ATOM     10  C   UNL     1      52.789 -35.329  23.719  1.00  0.00    -0.003 C 
ATOM     11  C   UNL     1      51.515 -34.739  23.119  1.00  0.00     0.004 C 
ENDBRANCH   9  10
ENDBRANCH   8   9
ENDBRANCH   7   8
ENDBRANCH   1   7
TORSDOF 7
ENDMDL
MODEL 8
REMARK VINA RESULT:    -2.419      1.901      3.102
REMARK INTER + INTRA:          -3.933
REMARK INTER:                  -3.341
REMARK INTRA:                  -0.593
REMARK UNBOUND:                -0.525
REMARK SMILES CCCCCCCCC(=O)[O-]
REMARK SMILES IDX 6 1 7 2 8 3 9 4 10 5 11 6 5 7 4 8 3 9 2 10 1 11
REMARK H PARENT
REMARK Flexibility Score: inf
ROOT
ATOM      1  C   UNL     1      53.818 -33.031  24.449  1.00  0.00     0.000 C 
ENDROOT
BRANCH   1   2
ATOM      2  C   UNL     1      54.767 -33.719  23.453  1.00  0.00     0.006 C 
BRANCH   2   3
ATOM      3  C   UNL     1      54.530 -35.234  23.380  1.00  0.00     0.053 C 
BRANCH   3   4
ATOM      4  C   UNL     1      55.254 -35.855  22.225  1.00  0.00     0.041 C 
ATOM      5  O   UNL     1      54.658 -36.049  21.133  1.00  0.00    -0.550 OA
ATOM      6  O   UNL     1      56.579 -36.247  22.366  1.00  0.00    -0.550 OA
ENDBRANCH   3   4
ENDBRANCH   2   3
ENDBRANCH   1   2
BRANCH   1   7
ATOM      7  C   UNL     1      53.338 -31.655  23.957  1.00  0.00     0.000 C 
BRANCH   7   8
ATOM      8  C   UNL     1      51.950 -31.715  23.296  1.00  0.00    -0.000 C 
BRANCH   8   9
ATOM      9  C   UNL     1      50.991 -32.673  24.023  1.00  0.00    -0.000 C 
BRANCH   9  10
ATOM     10  C   UNL     1      50.286 -33.644  23.066  1.00  0.00    -0.003 C 
ATOM     11  C   UNL     1      50.853 -35.056  23.200  1.00  0.00     0.004 C 
ENDBRANCH   9  10
ENDBRANCH   8   9
ENDBRANCH   7   8
ENDBRANCH   1   7
TORSDOF 7
ENDMDL
MODEL 9
REMARK VINA RESULT:    -2.397      2.546      4.606
REMARK INTER + INTRA:          -3.903
REMARK INTER:                  -2.981
REMARK INTRA:                  -0.922
REMARK UNBOUND:                -0.525
REMARK SMILES CCCCCCCCC(=O)[O-]
REMARK SMILES IDX 6 1 7 2 8 3 9 4 10 5 11 6 5 7 4 8 3 9 2 10 1 11
REMARK H PARENT
REMARK Flexibility Score: inf
ROOT
ATOM      1  C   UNL     1      56.494 -36.652  22.369  1.00  0.00     0.000 C 
ENDROOT
BRANCH   1   2
ATOM      2  C   UNL     1      55.430 -35.645  21.898  1.00  0.00     0.006 C 
BRANCH   2   3
ATOM      3  C   UNL     1      54.323 -35.443  22.943  1.00  0.00     0.053 C 
BRANCH   3   4
ATOM      4  C   UNL     1      54.412 -34.097  23.594  1.00  0.00     0.041 C 
ATOM      5  O   UNL     1      55.180 -33.216  23.127  1.00  0.00    -0.550 OA
ATOM      6  O   UNL     1      53.668 -33.826  24.735  1.00  0.00    -0.550 OA
ENDBRANCH   3   4
ENDBRANCH   2   3
ENDBRANCH   1   2
BRANCH   1   7
ATOM      7  C   UNL     1      57.877 -36.007  22.559  1.00  0.00     0.000 C 
BRANCH   7   8
ATOM      8  C   UNL     1      58.030 -35.329  23.932  1.00  0.00    -0.000 C 
BRANCH   8   9
ATOM      9  C   UNL     1      57.701 -36.276  25.097  1.00  0.00    -0.000 C 
BRANCH   9  10
ATOM     10  C   UNL     1      56.635 -35.705  26.042  1.00  0.00    -0.003 C 
ATOM     11  C   UNL     1      55.505 -36.708  26.266  1.00  0.00     0.004 C 
ENDBRANCH   9  10
ENDBRANCH   8   9
ENDBRANCH   7   8
ENDBRANCH   1   7
TORSDOF 7
ENDMDL
