MODEL 1
REMARK VINA RESULT:    -4.829      0.000      0.000
REMARK INTER + INTRA:          -5.205
REMARK INTER:                  -5.111
REMARK INTRA:                  -0.094
REMARK UNBOUND:                -0.094
REMARK SMILES C=C(C)[C@H]1CC=C(C)C(=O)C1
REMARK SMILES IDX 8 1 7 2 6 3 5 4 4 5 11 6 9 7 10 8 2 9 1 10 3 11
REMARK H PARENT
REMARK Flexibility Score: inf
ROOT
ATOM      1  C   UNL     1      46.788  58.398  27.832  1.00  0.00     0.048 C 
ATOM      2  C   UNL     1      45.597  57.481  27.843  1.00  0.00    -0.012 C 
ATOM      3  C   UNL     1      44.641  57.636  28.775  1.00  0.00    -0.019 C 
ATOM      4  C   UNL     1      43.436  56.734  28.843  1.00  0.00     0.036 C 
ATOM      5  C   UNL     1      43.020  56.259  27.438  1.00  0.00     0.025 C 
ATOM      6  C   UNL     1      44.211  55.590  26.726  1.00  0.00     0.089 C 
ATOM      7  C   UNL     1      45.417  56.489  26.753  1.00  0.00     0.158 C 
ATOM      8  O   UNL     1      46.294  56.365  25.857  1.00  0.00    -0.295 OA
ENDROOT
BRANCH   5   9
ATOM      9  C   UNL     1      41.809  55.338  27.491  1.00  0.00    -0.077 C 
ATOM     10  C   UNL     1      41.929  54.043  27.830  1.00  0.00     0.008 C 
ATOM     11  C   UNL     1      40.438  55.872  27.163  1.00  0.00     0.039 C 
ENDBRANCH   5   9
TORSDOF 1
ENDMDL
MODEL 2
REMARK VINA RESULT:    -4.808      0.102      1.049
REMARK INTER + INTRA:          -5.183
REMARK INTER:                  -5.095
REMARK INTRA:                  -0.088
REMARK UNBOUND:                -0.094
REMARK SMILES C=C(C)[C@H]1CC=C(C)C(=O)C1
REMARK SMILES IDX 8 1 7 2 6 3 5 4 4 5 11 6 9 7 10 8 2 9 1 10 3 11
REMARK H PARENT
REMARK Flexibility Score: inf
ROOT
ATOM      1  C   UNL     1      46.782  58.282  27.808  1.00  0.00     0.048 C 
ATOM      2  C   UNL     1      45.561  57.405  27.821  1.00  0.00    -0.012 C 
ATOM      3  C   UNL     1      44.613  57.591  28.756  1.00  0.00    -0.019 C 
ATOM      4  C   UNL     1      43.380  56.730  28.827  1.00  0.00     0.036 C 
ATOM      5  C   UNL     1      42.944  56.269  27.423  1.00  0.00     0.025 C 
ATOM      6  C   UNL     1      44.111  55.561  26.708  1.00  0.00     0.089 C 
ATOM      7  C   UNL     1      45.345  56.420  26.732  1.00  0.00     0.158 C 
ATOM      8  O   UNL     1      46.216  56.267  25.833  1.00  0.00    -0.295 OA
ENDROOT
BRANCH   5   9
ATOM      9  C   UNL     1      41.703  55.389  27.480  1.00  0.00    -0.077 C 
ATOM     10  C   UNL     1      40.482  55.883  27.208  1.00  0.00     0.008 C 
ATOM     11  C   UNL     1      41.825  53.931  27.842  1.00  0.00     0.039 C 
ENDBRANCH   5   9
TORSDOF 1
ENDMDL
MODEL 3
REMARK VINA RESULT:    -4.763      1.579      4.411
REMARK INTER + INTRA:          -5.135
REMARK INTER:                  -5.041
REMARK INTRA:                  -0.094
REMARK UNBOUND:                -0.094
REMARK SMILES C=C(C)[C@H]1CC=C(C)C(=O)C1
REMARK SMILES IDX 8 1 7 2 6 3 5 4 4 5 11 6 9 7 10 8 2 9 1 10 3 11
REMARK H PARENT
REMARK Flexibility Score: inf
ROOT
ATOM      1  C   UNL     1      41.017  55.837  27.462  1.00  0.00     0.048 C 
ATOM      2  C   UNL     1      42.413  56.394  27.456  1.00  0.00    -0.012 C 
ATOM      3  C   UNL     1      43.082  56.537  28.613  1.00  0.00    -0.019 C 
ATOM      4  C   UNL     1      44.475  57.105  28.666  1.00  0.00     0.036 C 
ATOM      5  C   UNL     1      45.272  56.739  27.399  1.00  0.00     0.025 C 
ATOM      6  C   UNL     1      44.506  57.185  26.139  1.00  0.00     0.089 C 
ATOM      7  C   UNL     1      43.095  56.666  26.165  1.00  0.00     0.158 C 
ATOM      8  O   UNL     1      42.483  56.498  25.077  1.00  0.00    -0.295 OA
ENDROOT
BRANCH   5   9
ATOM      9  C   UNL     1      46.681  57.315  27.433  1.00  0.00    -0.077 C 
ATOM     10  C   UNL     1      46.911  58.577  27.836  1.00  0.00     0.008 C 
ATOM     11  C   UNL     1      47.855  56.468  27.014  1.00  0.00     0.039 C 
ENDBRANCH   5   9
TORSDOF 1
ENDMDL
MODEL 4
REMARK VINA RESULT:    -4.592      2.073      3.189
REMARK INTER + INTRA:          -4.954
REMARK INTER:                  -4.860
REMARK INTRA:                  -0.095
REMARK UNBOUND:                -0.094
REMARK SMILES C=C(C)[C@H]1CC=C(C)C(=O)C1
REMARK SMILES IDX 8 1 7 2 6 3 5 4 4 5 11 6 9 7 10 8 2 9 1 10 3 11
REMARK H PARENT
REMARK Flexibility Score: inf
ROOT
ATOM      1  C   UNL     1      47.633  59.737  24.624  1.00  0.00     0.048 C 
ATOM      2  C   UNL     1      46.684  59.127  25.618  1.00  0.00    -0.012 C 
ATOM      3  C   UNL     1      45.376  59.035  25.324  1.00  0.00    -0.019 C 
ATOM      4  C   UNL     1      44.379  58.451  26.289  1.00  0.00     0.036 C 
ATOM      5  C   UNL     1      45.019  57.338  27.141  1.00  0.00     0.025 C 
ATOM      6  C   UNL     1      46.279  57.868  27.852  1.00  0.00     0.089 C 
ATOM      7  C   UNL     1      47.210  58.517  26.864  1.00  0.00     0.158 C 
ATOM      8  O   UNL     1      48.442  58.570  27.126  1.00  0.00    -0.295 OA
ENDROOT
BRANCH   5   9
ATOM      9  C   UNL     1      44.025  56.743  28.130  1.00  0.00    -0.077 C 
ATOM     10  C   UNL     1      43.960  57.175  29.401  1.00  0.00     0.008 C 
ATOM     11  C   UNL     1      43.086  55.649  27.692  1.00  0.00     0.039 C 
ENDBRANCH   5   9
TORSDOF 1
ENDMDL
MODEL 5
REMARK VINA RESULT:    -4.569     17.245     18.368
REMARK INTER + INTRA:          -4.930
REMARK INTER:                  -4.835
REMARK INTRA:                  -0.095
REMARK UNBOUND:                -0.094
REMARK SMILES C=C(C)[C@H]1CC=C(C)C(=O)C1
REMARK SMILES IDX 8 1 7 2 6 3 5 4 4 5 11 6 9 7 10 8 2 9 1 10 3 11
REMARK H PARENT
REMARK Flexibility Score: inf
ROOT
ATOM      1  C   UNL     1      38.045  61.405  41.772  1.00  0.00     0.048 C 
ATOM      2  C   UNL     1      36.928  62.408  41.858  1.00  0.00    -0.012 C 
ATOM      3  C   UNL     1      37.189  63.715  41.691  1.00  0.00    -0.019 C 
ATOM      4  C   UNL     1      36.112  64.764  41.786  1.00  0.00     0.036 C 
ATOM      5  C   UNL     1      34.760  64.216  41.288  1.00  0.00     0.025 C 
ATOM      6  C   UNL     1      34.392  62.929  42.052  1.00  0.00     0.089 C 
ATOM      7  C   UNL     1      35.526  61.942  42.003  1.00  0.00     0.158 C 
ATOM      8  O   UNL     1      35.275  60.713  42.124  1.00  0.00    -0.295 OA
ENDROOT
BRANCH   5   9
ATOM      9  C   UNL     1      33.658  65.262  41.387  1.00  0.00    -0.077 C 
ATOM     10  C   UNL     1      33.898  66.558  41.121  1.00  0.00     0.008 C 
ATOM     11  C   UNL     1      32.263  64.855  41.785  1.00  0.00     0.039 C 
ENDBRANCH   5   9
TORSDOF 1
ENDMDL
MODEL 6
REMARK VINA RESULT:    -4.384      1.908      4.697
REMARK INTER + INTRA:          -4.734
REMARK INTER:                  -4.643
REMARK INTRA:                  -0.090
REMARK UNBOUND:                -0.094
REMARK SMILES C=C(C)[C@H]1CC=C(C)C(=O)C1
REMARK SMILES IDX 8 1 7 2 6 3 5 4 4 5 11 6 9 7 10 8 2 9 1 10 3 11
REMARK H PARENT
REMARK Flexibility Score: inf
ROOT
ATOM      1  C   UNL     1      42.578  56.001  28.294  1.00  0.00     0.048 C 
ATOM      2  C   UNL     1      43.676  56.868  27.744  1.00  0.00    -0.012 C 
ATOM      3  C   UNL     1      44.630  57.341  28.564  1.00  0.00    -0.019 C 
ATOM      4  C   UNL     1      45.742  58.229  28.070  1.00  0.00     0.036 C 
ATOM      5  C   UNL     1      46.130  57.876  26.621  1.00  0.00     0.025 C 
ATOM      6  C   UNL     1      44.890  57.930  25.708  1.00  0.00     0.089 C 
ATOM      7  C   UNL     1      43.775  57.097  26.281  1.00  0.00     0.158 C 
ATOM      8  O   UNL     1      42.902  56.624  25.504  1.00  0.00    -0.295 OA
ENDROOT
BRANCH   5   9
ATOM      9  C   UNL     1      47.247  58.771  26.103  1.00  0.00    -0.077 C 
ATOM     10  C   UNL     1      48.521  58.599  26.497  1.00  0.00     0.008 C 
ATOM     11  C   UNL     1      46.939  59.877  25.126  1.00  0.00     0.039 C 
ENDBRANCH   5   9
TORSDOF 1
ENDMDL
MODEL 7
REMARK VINA RESULT:    -4.293      2.094      3.190
REMARK INTER + INTRA:          -4.637
REMARK INTER:                  -4.546
REMARK INTRA:                  -0.092
REMARK UNBOUND:                -0.094
REMARK SMILES C=C(C)[C@H]1CC=C(C)C(=O)C1
REMARK SMILES IDX 8 1 7 2 6 3 5 4 4 5 11 6 9 7 10 8 2 9 1 10 3 11
REMARK H PARENT
REMARK Flexibility Score: inf
ROOT
ATOM      1  C   UNL     1      48.118  59.706  24.852  1.00  0.00     0.048 C 
ATOM      2  C   UNL     1      47.092  58.894  25.591  1.00  0.00    -0.012 C 
ATOM      3  C   UNL     1      47.405  58.334  26.772  1.00  0.00    -0.019 C 
ATOM      4  C   UNL     1      46.422  57.496  27.546  1.00  0.00     0.036 C 
ATOM      5  C   UNL     1      44.980  57.994  27.331  1.00  0.00     0.025 C 
ATOM      6  C   UNL     1      44.651  58.042  25.827  1.00  0.00     0.089 C 
ATOM      7  C   UNL     1      45.701  58.817  25.079  1.00  0.00     0.158 C 
ATOM      8  O   UNL     1      45.394  59.372  23.990  1.00  0.00    -0.295 OA
ENDROOT
BRANCH   5   9
ATOM      9  C   UNL     1      43.972  57.151  28.100  1.00  0.00    -0.077 C 
ATOM     10  C   UNL     1      43.931  57.163  29.444  1.00  0.00     0.008 C 
ATOM     11  C   UNL     1      42.991  56.281  27.358  1.00  0.00     0.039 C 
ENDBRANCH   5   9
TORSDOF 1
ENDMDL
MODEL 8
REMARK VINA RESULT:    -4.284      2.293      3.034
REMARK INTER + INTRA:          -4.628
REMARK INTER:                  -4.532
REMARK INTRA:                  -0.096
REMARK UNBOUND:                -0.094
REMARK SMILES C=C(C)[C@H]1CC=C(C)C(=O)C1
REMARK SMILES IDX 8 1 7 2 6 3 5 4 4 5 11 6 9 7 10 8 2 9 1 10 3 11
REMARK H PARENT
REMARK Flexibility Score: inf
ROOT
ATOM      1  C   UNL     1      45.879  59.340  23.297  1.00  0.00     0.048 C 
ATOM      2  C   UNL     1      45.481  58.674  24.584  1.00  0.00    -0.012 C 
ATOM      3  C   UNL     1      45.103  59.421  25.635  1.00  0.00    -0.019 C 
ATOM      4  C   UNL     1      44.712  58.807  26.954  1.00  0.00     0.036 C 
ATOM      5  C   UNL     1      44.039  57.436  26.749  1.00  0.00     0.025 C 
ATOM      6  C   UNL     1      44.953  56.512  25.921  1.00  0.00     0.089 C 
ATOM      7  C   UNL     1      45.387  57.194  24.653  1.00  0.00     0.158 C 
ATOM      8  O   UNL     1      45.707  56.491  23.657  1.00  0.00    -0.295 OA
ENDROOT
BRANCH   5   9
ATOM      9  C   UNL     1      43.647  56.798  28.074  1.00  0.00    -0.077 C 
ATOM     10  C   UNL     1      44.123  57.262  29.242  1.00  0.00     0.008 C 
ATOM     11  C   UNL     1      42.703  55.622  28.097  1.00  0.00     0.039 C 
ENDBRANCH   5   9
TORSDOF 1
ENDMDL
MODEL 9
REMARK VINA RESULT:    -4.164      2.075      4.585
REMARK INTER + INTRA:          -4.501
REMARK INTER:                  -4.404
REMARK INTRA:                  -0.096
REMARK UNBOUND:                -0.094
REMARK SMILES C=C(C)[C@H]1CC=C(C)C(=O)C1
REMARK SMILES IDX 8 1 7 2 6 3 5 4 4 5 11 6 9 7 10 8 2 9 1 10 3 11
REMARK H PARENT
REMARK Flexibility Score: inf
ROOT
ATOM      1  C   UNL     1      39.228  55.555  25.110  1.00  0.00     0.048 C 
ATOM      2  C   UNL     1      40.463  56.022  25.829  1.00  0.00    -0.012 C 
ATOM      3  C   UNL     1      40.533  55.930  27.168  1.00  0.00    -0.019 C 
ATOM      4  C   UNL     1      41.737  56.400  27.940  1.00  0.00     0.036 C 
ATOM      5  C   UNL     1      43.029  56.206  27.124  1.00  0.00     0.025 C 
ATOM      6  C   UNL     1      42.905  56.901  25.755  1.00  0.00     0.089 C 
ATOM      7  C   UNL     1      41.647  56.467  25.053  1.00  0.00     0.158 C 
ATOM      8  O   UNL     1      41.598  56.520  23.794  1.00  0.00    -0.295 OA
ENDROOT
BRANCH   5   9
ATOM      9  C   UNL     1      44.256  56.686  27.888  1.00  0.00    -0.077 C 
ATOM     10  C   UNL     1      44.152  57.196  29.128  1.00  0.00     0.008 C 
ATOM     11  C   UNL     1      45.623  56.592  27.260  1.00  0.00     0.039 C 
ENDBRANCH   5   9
TORSDOF 1
ENDMDL
