MODEL 1
REMARK VINA RESULT:    -4.715      0.000      0.000
REMARK INTER + INTRA:          -4.856
REMARK INTER:                  -5.542
REMARK INTRA:                   0.686
REMARK UNBOUND:                 0.686
REMARK SMILES O=C([O-])C=Cc1ccc(O)c(O)c1
REMARK SMILES IDX 6 1 13 2 7 3 11 4 8 5 9 6 5 7 4 8 2 9 1 10 3 11 12 12 10 14
REMARK H PARENT 12 13 10 15
REMARK Flexibility Score: inf
ROOT
ATOM      1  C   UNL     1      49.584  21.511  15.553  1.00  0.00    -0.022 A 
ATOM      2  C   UNL     1      48.273  21.011  15.626  1.00  0.00     0.058 A 
ATOM      3  C   UNL     1      50.044  22.374  16.553  1.00  0.00     0.012 A 
ATOM      4  C   UNL     1      47.411  21.408  16.656  1.00  0.00     0.157 A 
ATOM      5  C   UNL     1      49.192  22.778  17.583  1.00  0.00     0.051 A 
ATOM      6  C   UNL     1      47.875  22.308  17.645  1.00  0.00     0.157 A 
ENDROOT
BRANCH   1   7
ATOM      7  C   UNL     1      50.519  21.058  14.501  1.00  0.00     0.010 C 
ATOM      8  C   UNL     1      51.857  21.159  14.553  1.00  0.00     0.025 C 
BRANCH   8   9
ATOM      9  C   UNL     1      52.645  21.573  15.730  1.00  0.00     0.064 C 
ATOM     10  O   UNL     1      52.946  20.757  16.641  1.00  0.00    -0.545 OA
ATOM     11  O   UNL     1      53.125  22.874  15.800  1.00  0.00    -0.545 OA
ENDBRANCH   8   9
ENDBRANCH   1   7
BRANCH   4  12
ATOM     12  O   UNL     1      46.117  20.882  16.662  1.00  0.00    -0.504 OA
ATOM     13  H   UNL     1      45.476  20.954  15.885  1.00  0.00     0.293 HD
ENDBRANCH   4  12
BRANCH   6  14
ATOM     14  O   UNL     1      47.071  22.757  18.695  1.00  0.00    -0.504 OA
ATOM     15  H   UNL     1      46.676  23.685  18.745  1.00  0.00     0.293 HD
ENDBRANCH   6  14
TORSDOF 4
ENDMDL
MODEL 2
REMARK VINA RESULT:    -4.289     12.137     14.388
REMARK INTER + INTRA:          -4.355
REMARK INTER:                  -4.336
REMARK INTRA:                  -0.019
REMARK UNBOUND:                 0.686
REMARK SMILES O=C([O-])C=Cc1ccc(O)c(O)c1
REMARK SMILES IDX 6 1 13 2 7 3 11 4 8 5 9 6 5 7 4 8 2 9 1 10 3 11 12 12 10 14
REMARK H PARENT 12 13 10 15
REMARK Flexibility Score: inf
ROOT
ATOM      1  C   UNL     1      35.506  22.203  12.742  1.00  0.00    -0.022 A 
ATOM      2  C   UNL     1      35.505  21.203  13.729  1.00  0.00     0.058 A 
ATOM      3  C   UNL     1      36.610  23.054  12.632  1.00  0.00     0.012 A 
ATOM      4  C   UNL     1      36.570  21.086  14.632  1.00  0.00     0.157 A 
ATOM      5  C   UNL     1      37.675  22.948  13.528  1.00  0.00     0.051 A 
ATOM      6  C   UNL     1      37.667  21.974  14.534  1.00  0.00     0.157 A 
ENDROOT
BRANCH   1   7
ATOM      7  C   UNL     1      34.413  22.302  11.751  1.00  0.00     0.010 C 
ATOM      8  C   UNL     1      34.550  22.149  10.425  1.00  0.00     0.025 C 
BRANCH   8   9
ATOM      9  C   UNL     1      35.767  21.682   9.731  1.00  0.00     0.064 C 
ATOM     10  O   UNL     1      36.272  20.556   9.974  1.00  0.00    -0.545 OA
ATOM     11  O   UNL     1      36.325  22.476   8.737  1.00  0.00    -0.545 OA
ENDBRANCH   8   9
ENDBRANCH   1   7
BRANCH   4  12
ATOM     12  O   UNL     1      36.498  20.077  15.595  1.00  0.00    -0.504 OA
ATOM     13  H   UNL     1      35.658  19.842  16.104  1.00  0.00     0.293 HD
ENDBRANCH   4  12
BRANCH   6  14
ATOM     14  O   UNL     1      38.758  21.925  15.403  1.00  0.00    -0.504 OA
ATOM     15  H   UNL     1      39.137  22.732  15.879  1.00  0.00     0.293 HD
ENDBRANCH   6  14
TORSDOF 4
ENDMDL
MODEL 3
REMARK VINA RESULT:    -4.236     14.156     15.755
REMARK INTER + INTRA:          -4.294
REMARK INTER:                  -4.044
REMARK INTRA:                  -0.249
REMARK UNBOUND:                 0.686
REMARK SMILES O=C([O-])C=Cc1ccc(O)c(O)c1
REMARK SMILES IDX 6 1 13 2 7 3 11 4 8 5 9 6 5 7 4 8 2 9 1 10 3 11 12 12 10 14
REMARK H PARENT 12 13 10 15
REMARK Flexibility Score: inf
ROOT
ATOM      1  C   UNL     1      34.164  21.666  13.122  1.00  0.00    -0.022 A 
ATOM      2  C   UNL     1      34.514  20.905  11.994  1.00  0.00     0.058 A 
ATOM      3  C   UNL     1      34.925  22.792  13.450  1.00  0.00     0.012 A 
ATOM      4  C   UNL     1      35.643  21.231  11.231  1.00  0.00     0.157 A 
ATOM      5  C   UNL     1      36.054  23.125  12.698  1.00  0.00     0.051 A 
ATOM      6  C   UNL     1      36.427  22.353  11.592  1.00  0.00     0.157 A 
ENDROOT
BRANCH   1   7
ATOM      7  C   UNL     1      32.946  21.362  13.902  1.00  0.00     0.010 C 
ATOM      8  C   UNL     1      32.875  20.504  14.932  1.00  0.00     0.025 C 
BRANCH   8   9
ATOM      9  C   UNL     1      34.023  19.846  15.586  1.00  0.00     0.064 C 
ATOM     10  O   UNL     1      34.216  18.606  15.484  1.00  0.00    -0.545 OA
ATOM     11  O   UNL     1      34.948  20.622  16.272  1.00  0.00    -0.545 OA
ENDBRANCH   8   9
ENDBRANCH   1   7
BRANCH   4  12
ATOM     12  O   UNL     1      35.940  20.425  10.130  1.00  0.00    -0.504 OA
ATOM     13  H   UNL     1      35.948  20.754   9.176  1.00  0.00     0.293 HD
ENDBRANCH   4  12
BRANCH   6  14
ATOM     14  O   UNL     1      37.570  22.734  10.887  1.00  0.00    -0.504 OA
ATOM     15  H   UNL     1      37.578  23.441  10.166  1.00  0.00     0.293 HD
ENDBRANCH   6  14
TORSDOF 4
ENDMDL
MODEL 4
REMARK VINA RESULT:    -4.223     13.482     14.733
REMARK INTER + INTRA:          -4.278
REMARK INTER:                  -4.090
REMARK INTRA:                  -0.187
REMARK UNBOUND:                 0.686
REMARK SMILES O=C([O-])C=Cc1ccc(O)c(O)c1
REMARK SMILES IDX 6 1 13 2 7 3 11 4 8 5 9 6 5 7 4 8 2 9 1 10 3 11 12 12 10 14
REMARK H PARENT 12 13 10 15
REMARK Flexibility Score: inf
ROOT
ATOM      1  C   UNL     1      34.965  21.650  12.592  1.00  0.00    -0.022 A 
ATOM      2  C   UNL     1      35.840  22.406  13.390  1.00  0.00     0.058 A 
ATOM      3  C   UNL     1      34.563  20.383  13.028  1.00  0.00     0.012 A 
ATOM      4  C   UNL     1      36.351  21.884  14.586  1.00  0.00     0.157 A 
ATOM      5  C   UNL     1      35.069  19.853  14.216  1.00  0.00     0.051 A 
ATOM      6  C   UNL     1      35.965  20.587  15.001  1.00  0.00     0.157 A 
ENDROOT
BRANCH   1   7
ATOM      7  C   UNL     1      34.379  22.211  11.357  1.00  0.00     0.010 C 
ATOM      8  C   UNL     1      35.050  22.465  10.222  1.00  0.00     0.025 C 
BRANCH   8   9
ATOM      9  C   UNL     1      36.444  22.072   9.938  1.00  0.00     0.064 C 
ATOM     10  O   UNL     1      37.416  22.783  10.303  1.00  0.00    -0.545 OA
ATOM     11  O   UNL     1      36.690  20.855   9.316  1.00  0.00    -0.545 OA
ENDBRANCH   8   9
ENDBRANCH   1   7
BRANCH   4  12
ATOM     12  O   UNL     1      37.226  22.684  15.324  1.00  0.00    -0.504 OA
ATOM     13  H   UNL     1      37.284  22.675  16.332  1.00  0.00     0.293 HD
ENDBRANCH   4  12
BRANCH   6  14
ATOM     14  O   UNL     1      36.441  19.997  16.174  1.00  0.00    -0.504 OA
ATOM     15  H   UNL     1      36.980  19.143  16.197  1.00  0.00     0.293 HD
ENDBRANCH   6  14
TORSDOF 4
ENDMDL
MODEL 5
REMARK VINA RESULT:    -4.207      3.579      4.766
REMARK INTER + INTRA:          -4.259
REMARK INTER:                  -4.070
REMARK INTRA:                  -0.189
REMARK UNBOUND:                 0.686
REMARK SMILES O=C([O-])C=Cc1ccc(O)c(O)c1
REMARK SMILES IDX 6 1 13 2 7 3 11 4 8 5 9 6 5 7 4 8 2 9 1 10 3 11 12 12 10 14
REMARK H PARENT 12 13 10 15
REMARK Flexibility Score: inf
ROOT
ATOM      1  C   UNL     1      52.054  22.380  19.122  1.00  0.00    -0.022 A 
ATOM      2  C   UNL     1      52.838  21.559  19.950  1.00  0.00     0.058 A 
ATOM      3  C   UNL     1      50.704  22.576  19.434  1.00  0.00     0.012 A 
ATOM      4  C   UNL     1      52.271  20.897  21.047  1.00  0.00     0.157 A 
ATOM      5  C   UNL     1      50.129  21.919  20.524  1.00  0.00     0.051 A 
ATOM      6  C   UNL     1      50.897  21.074  21.334  1.00  0.00     0.157 A 
ENDROOT
BRANCH   1   7
ATOM      7  C   UNL     1      52.652  23.125  17.995  1.00  0.00     0.010 C 
ATOM      8  C   UNL     1      52.547  22.790  16.699  1.00  0.00     0.025 C 
BRANCH   8   9
ATOM      9  C   UNL     1      51.678  21.732  16.148  1.00  0.00     0.064 C 
ATOM     10  O   UNL     1      50.435  21.895  16.031  1.00  0.00    -0.545 OA
ATOM     11  O   UNL     1      52.253  20.556  15.685  1.00  0.00    -0.545 OA
ENDBRANCH   8   9
ENDBRANCH   1   7
BRANCH   4  12
ATOM     12  O   UNL     1      53.106  20.087  21.820  1.00  0.00    -0.504 OA
ATOM     13  H   UNL     1      52.837  19.683  22.706  1.00  0.00     0.293 HD
ENDBRANCH   4  12
BRANCH   6  14
ATOM     14  O   UNL     1      50.261  20.440  22.403  1.00  0.00    -0.504 OA
ATOM     15  H   UNL     1      50.640  20.395  23.338  1.00  0.00     0.293 HD
ENDBRANCH   6  14
TORSDOF 4
ENDMDL
MODEL 6
REMARK VINA RESULT:    -4.186     14.103     15.326
REMARK INTER + INTRA:          -4.235
REMARK INTER:                  -4.171
REMARK INTRA:                  -0.064
REMARK UNBOUND:                 0.686
REMARK SMILES O=C([O-])C=Cc1ccc(O)c(O)c1
REMARK SMILES IDX 6 1 13 2 7 3 11 4 8 5 9 6 5 7 4 8 2 9 1 10 3 11 12 12 10 14
REMARK H PARENT 12 13 10 15
REMARK Flexibility Score: inf
ROOT
ATOM      1  C   UNL     1      35.495  21.861  12.287  1.00  0.00    -0.022 A 
ATOM      2  C   UNL     1      36.109  21.352  13.443  1.00  0.00     0.058 A 
ATOM      3  C   UNL     1      34.257  21.347  11.886  1.00  0.00     0.012 A 
ATOM      4  C   UNL     1      35.521  20.304  14.164  1.00  0.00     0.157 A 
ATOM      5  C   UNL     1      33.665  20.301  12.597  1.00  0.00     0.051 A 
ATOM      6  C   UNL     1      34.286  19.768  13.732  1.00  0.00     0.157 A 
ENDROOT
BRANCH   1   7
ATOM      7  C   UNL     1      36.078  23.001  11.549  1.00  0.00     0.010 C 
ATOM      8  C   UNL     1      36.479  22.975  10.268  1.00  0.00     0.025 C 
BRANCH   8   9
ATOM      9  C   UNL     1      36.251  21.872   9.314  1.00  0.00     0.064 C 
ATOM     10  O   UNL     1      37.007  20.866   9.279  1.00  0.00    -0.545 OA
ATOM     11  O   UNL     1      35.137  21.912   8.487  1.00  0.00    -0.545 OA
ENDBRANCH   8   9
ENDBRANCH   1   7
BRANCH   4  12
ATOM     12  O   UNL     1      36.192  19.838  15.297  1.00  0.00    -0.504 OA
ATOM     13  H   UNL     1      36.419  20.414  16.095  1.00  0.00     0.293 HD
ENDBRANCH   4  12
BRANCH   6  14
ATOM     14  O   UNL     1      33.646  18.717  14.393  1.00  0.00    -0.504 OA
ATOM     15  H   UNL     1      33.068  18.029  13.931  1.00  0.00     0.293 HD
ENDBRANCH   6  14
TORSDOF 4
ENDMDL
MODEL 7
REMARK VINA RESULT:    -4.139     15.024     16.259
REMARK INTER + INTRA:          -4.179
REMARK INTER:                  -3.933
REMARK INTRA:                  -0.246
REMARK UNBOUND:                 0.686
REMARK SMILES O=C([O-])C=Cc1ccc(O)c(O)c1
REMARK SMILES IDX 6 1 13 2 7 3 11 4 8 5 9 6 5 7 4 8 2 9 1 10 3 11 12 12 10 14
REMARK H PARENT 12 13 10 15
REMARK Flexibility Score: inf
ROOT
ATOM      1  C   UNL     1      33.605  20.139  13.256  1.00  0.00    -0.022 A 
ATOM      2  C   UNL     1      34.576  19.871  12.276  1.00  0.00     0.058 A 
ATOM      3  C   UNL     1      32.948  21.374  13.249  1.00  0.00     0.012 A 
ATOM      4  C   UNL     1      34.928  20.844  11.332  1.00  0.00     0.157 A 
ATOM      5  C   UNL     1      33.294  22.351  12.313  1.00  0.00     0.051 A 
ATOM      6  C   UNL     1      34.283  22.103  11.355  1.00  0.00     0.157 A 
ENDROOT
BRANCH   1   7
ATOM      7  C   UNL     1      33.187  19.102  14.223  1.00  0.00     0.010 C 
ATOM      8  C   UNL     1      33.720  18.915  15.441  1.00  0.00     0.025 C 
BRANCH   8   9
ATOM      9  C   UNL     1      34.687  19.810  16.106  1.00  0.00     0.064 C 
ATOM     10  O   UNL     1      34.358  20.518  17.094  1.00  0.00    -0.545 OA
ATOM     11  O   UNL     1      36.007  19.819  15.676  1.00  0.00    -0.545 OA
ENDBRANCH   8   9
ENDBRANCH   1   7
BRANCH   4  12
ATOM     12  O   UNL     1      35.910  20.516  10.395  1.00  0.00    -0.504 OA
ATOM     13  H   UNL     1      36.507  19.704  10.464  1.00  0.00     0.293 HD
ENDBRANCH   4  12
BRANCH   6  14
ATOM     14  O   UNL     1      34.588  23.125  10.453  1.00  0.00    -0.504 OA
ATOM     15  H   UNL     1      34.061  23.310   9.612  1.00  0.00     0.293 HD
ENDBRANCH   6  14
TORSDOF 4
ENDMDL
MODEL 8
REMARK VINA RESULT:    -3.974     14.309     15.889
REMARK INTER + INTRA:          -3.986
REMARK INTER:                  -3.733
REMARK INTRA:                  -0.253
REMARK UNBOUND:                 0.686
REMARK SMILES O=C([O-])C=Cc1ccc(O)c(O)c1
REMARK SMILES IDX 6 1 13 2 7 3 11 4 8 5 9 6 5 7 4 8 2 9 1 10 3 11 12 12 10 14
REMARK H PARENT 12 13 10 15
REMARK Flexibility Score: inf
ROOT
ATOM      1  C   UNL     1      35.470  22.738  11.920  1.00  0.00    -0.022 A 
ATOM      2  C   UNL     1      36.219  21.940  11.039  1.00  0.00     0.058 A 
ATOM      3  C   UNL     1      34.159  23.088  11.579  1.00  0.00     0.012 A 
ATOM      4  C   UNL     1      35.687  21.538   9.807  1.00  0.00     0.157 A 
ATOM      5  C   UNL     1      33.620  22.694  10.353  1.00  0.00     0.051 A 
ATOM      6  C   UNL     1      34.372  21.925   9.457  1.00  0.00     0.157 A 
ENDROOT
BRANCH   1   7
ATOM      7  C   UNL     1      36.001  23.124  13.244  1.00  0.00     0.010 C 
ATOM      8  C   UNL     1      35.811  22.445  14.386  1.00  0.00     0.025 C 
BRANCH   8   9
ATOM      9  C   UNL     1      35.196  21.108  14.503  1.00  0.00     0.064 C 
ATOM     10  O   UNL     1      35.886  20.084  14.742  1.00  0.00    -0.545 OA
ATOM     11  O   UNL     1      33.815  20.990  14.416  1.00  0.00    -0.545 OA
ENDBRANCH   8   9
ENDBRANCH   1   7
BRANCH   4  12
ATOM     12  O   UNL     1      36.491  20.756   8.975  1.00  0.00    -0.504 OA
ATOM     13  H   UNL     1      37.484  20.630   9.106  1.00  0.00     0.293 HD
ENDBRANCH   4  12
BRANCH   6  14
ATOM     14  O   UNL     1      33.778  21.571   8.243  1.00  0.00    -0.504 OA
ATOM     15  H   UNL     1      32.780  21.538   8.093  1.00  0.00     0.293 HD
ENDBRANCH   6  14
TORSDOF 4
ENDMDL
MODEL 9
REMARK VINA RESULT:    -3.945     14.794     16.611
REMARK INTER + INTRA:          -3.951
REMARK INTER:                  -3.698
REMARK INTRA:                  -0.253
REMARK UNBOUND:                 0.686
REMARK SMILES O=C([O-])C=Cc1ccc(O)c(O)c1
REMARK SMILES IDX 6 1 13 2 7 3 11 4 8 5 9 6 5 7 4 8 2 9 1 10 3 11 12 12 10 14
REMARK H PARENT 12 13 10 15
REMARK Flexibility Score: inf
ROOT
ATOM      1  C   UNL     1      33.601  21.667  12.690  1.00  0.00    -0.022 A 
ATOM      2  C   UNL     1      34.969  21.980  12.616  1.00  0.00     0.058 A 
ATOM      3  C   UNL     1      32.930  21.252  11.535  1.00  0.00     0.012 A 
ATOM      4  C   UNL     1      35.649  21.931  11.392  1.00  0.00     0.157 A 
ATOM      5  C   UNL     1      33.599  21.203  10.310  1.00  0.00     0.051 A 
ATOM      6  C   UNL     1      34.953  21.543  10.223  1.00  0.00     0.157 A 
ENDROOT
BRANCH   1   7
ATOM      7  C   UNL     1      32.886  21.664  13.984  1.00  0.00     0.010 C 
ATOM      8  C   UNL     1      32.876  20.651  14.865  1.00  0.00     0.025 C 
BRANCH   8   9
ATOM      9  C   UNL     1      33.711  19.436  14.792  1.00  0.00     0.064 C 
ATOM     10  O   UNL     1      34.854  19.391  15.317  1.00  0.00    -0.545 OA
ATOM     11  O   UNL     1      33.196  18.296  14.190  1.00  0.00    -0.545 OA
ENDBRANCH   8   9
ENDBRANCH   1   7
BRANCH   4  12
ATOM     12  O   UNL     1      37.005  22.266  11.388  1.00  0.00    -0.504 OA
ATOM     13  H   UNL     1      37.753  21.589  11.373  1.00  0.00     0.293 HD
ENDBRANCH   4  12
BRANCH   6  14
ATOM     14  O   UNL     1      35.562  21.481   8.967  1.00  0.00    -0.504 OA
ATOM     15  H   UNL     1      36.243  22.150   8.637  1.00  0.00     0.293 HD
ENDBRANCH   6  14
TORSDOF 4
ENDMDL
