MODEL 1
REMARK VINA RESULT:    -3.331      0.000      0.000
REMARK INTER + INTRA:          -5.548
REMARK INTER:                  -4.791
REMARK INTRA:                  -0.756
REMARK UNBOUND:                -0.756
REMARK SMILES CCCCCCCCCO
REMARK SMILES IDX 6 1 5 2 4 3 3 4 2 5 1 6 7 7 8 8 9 9 10 10
REMARK H PARENT 10 11
REMARK Flexibility Score: inf
ROOT
ATOM      1  C   UNL     1     160.088 176.873 152.122  1.00  0.00     0.000 C 
ENDROOT
BRANCH   1   2
ATOM      2  C   UNL     1     160.581 177.287 150.727  1.00  0.00     0.000 C 
BRANCH   2   3
ATOM      3  C   UNL     1     162.115 177.345 150.683  1.00  0.00    -0.000 C 
BRANCH   3   4
ATOM      4  C   UNL     1     162.770 176.003 151.046  1.00  0.00    -0.000 C 
BRANCH   4   5
ATOM      5  C   UNL     1     163.958 176.164 152.006  1.00  0.00    -0.003 C 
ATOM      6  C   UNL     1     164.302 177.636 152.211  1.00  0.00     0.004 C 
ENDBRANCH   4   5
ENDBRANCH   3   4
ENDBRANCH   2   3
ENDBRANCH   1   2
BRANCH   1   7
ATOM      7  C   UNL     1     160.314 177.962 153.186  1.00  0.00     0.002 C 
BRANCH   7   8
ATOM      8  C   UNL     1     161.220 177.545 154.361  1.00  0.00     0.028 C 
BRANCH   8   9
ATOM      9  C   UNL     1     161.077 176.073 154.764  1.00  0.00     0.156 C 
BRANCH   9  10
ATOM     10  O   UNL     1     159.828 175.850 155.357  1.00  0.00    -0.396 OA
ATOM     11  H   UNL     1     160.009 175.378 156.210  1.00  0.00     0.210 HD
ENDBRANCH   9  10
ENDBRANCH   8   9
ENDBRANCH   7   8
ENDBRANCH   1   7
TORSDOF 8
ENDMDL
MODEL 2
REMARK VINA RESULT:    -3.330      1.799      2.466
REMARK INTER + INTRA:          -5.547
REMARK INTER:                  -4.906
REMARK INTRA:                  -0.641
REMARK UNBOUND:                -0.756
REMARK SMILES CCCCCCCCCO
REMARK SMILES IDX 6 1 5 2 4 3 3 4 2 5 1 6 7 7 8 8 9 9 10 10
REMARK H PARENT 10 11
REMARK Flexibility Score: inf
ROOT
ATOM      1  C   UNL     1     160.140 176.283 152.597  1.00  0.00     0.000 C 
ENDROOT
BRANCH   1   2
ATOM      2  C   UNL     1     160.386 177.509 151.703  1.00  0.00     0.000 C 
BRANCH   2   3
ATOM      3  C   UNL     1     161.463 177.211 150.650  1.00  0.00    -0.000 C 
BRANCH   3   4
ATOM      4  C   UNL     1     162.866 177.651 151.096  1.00  0.00    -0.000 C 
BRANCH   4   5
ATOM      5  C   UNL     1     163.804 176.464 151.356  1.00  0.00    -0.003 C 
ATOM      6  C   UNL     1     163.236 175.176 150.768  1.00  0.00     0.004 C 
ENDBRANCH   4   5
ENDBRANCH   3   4
ENDBRANCH   2   3
ENDBRANCH   1   2
BRANCH   1   7
ATOM      7  C   UNL     1     159.428 175.135 151.860  1.00  0.00     0.002 C 
BRANCH   7   8
ATOM      8  C   UNL     1     159.930 173.722 152.219  1.00  0.00     0.028 C 
BRANCH   8   9
ATOM      9  C   UNL     1     160.904 173.691 153.402  1.00  0.00     0.156 C 
BRANCH   9  10
ATOM     10  O   UNL     1     160.236 173.302 154.570  1.00  0.00    -0.396 OA
ATOM     11  H   UNL     1     159.705 172.499 154.330  1.00  0.00     0.210 HD
ENDBRANCH   9  10
ENDBRANCH   8   9
ENDBRANCH   7   8
ENDBRANCH   1   7
TORSDOF 8
ENDMDL
MODEL 3
REMARK VINA RESULT:    -3.227      1.170      1.853
REMARK INTER + INTRA:          -5.398
REMARK INTER:                  -5.035
REMARK INTRA:                  -0.363
REMARK UNBOUND:                -0.756
REMARK SMILES CCCCCCCCCO
REMARK SMILES IDX 6 1 5 2 4 3 3 4 2 5 1 6 7 7 8 8 9 9 10 10
REMARK H PARENT 10 11
REMARK Flexibility Score: inf
ROOT
ATOM      1  C   UNL     1     160.950 177.180 150.661  1.00  0.00     0.000 C 
ENDROOT
BRANCH   1   2
ATOM      2  C   UNL     1     162.376 176.635 150.834  1.00  0.00     0.000 C 
BRANCH   2   3
ATOM      3  C   UNL     1     163.358 177.768 151.168  1.00  0.00    -0.000 C 
BRANCH   3   4
ATOM      4  C   UNL     1     164.388 177.365 152.235  1.00  0.00    -0.000 C 
BRANCH   4   5
ATOM      5  C   UNL     1     165.811 177.827 151.889  1.00  0.00    -0.003 C 
ATOM      6  C   UNL     1     166.057 177.767 150.385  1.00  0.00     0.004 C 
ENDBRANCH   4   5
ENDBRANCH   3   4
ENDBRANCH   2   3
ENDBRANCH   1   2
BRANCH   1   7
ATOM      7  C   UNL     1     160.190 177.308 151.993  1.00  0.00     0.002 C 
BRANCH   7   8
ATOM      8  C   UNL     1     160.339 176.105 152.946  1.00  0.00     0.028 C 
BRANCH   8   9
ATOM      9  C   UNL     1     160.665 176.494 154.391  1.00  0.00     0.156 C 
BRANCH   9  10
ATOM     10  O   UNL     1     159.871 175.761 155.283  1.00  0.00    -0.396 OA
ATOM     11  H   UNL     1     158.972 176.180 155.260  1.00  0.00     0.210 HD
ENDBRANCH   9  10
ENDBRANCH   8   9
ENDBRANCH   7   8
ENDBRANCH   1   7
TORSDOF 8
ENDMDL
MODEL 4
REMARK VINA RESULT:    -3.210      1.296      2.705
REMARK INTER + INTRA:          -5.373
REMARK INTER:                  -4.666
REMARK INTRA:                  -0.707
REMARK UNBOUND:                -0.756
REMARK SMILES CCCCCCCCCO
REMARK SMILES IDX 6 1 5 2 4 3 3 4 2 5 1 6 7 7 8 8 9 9 10 10
REMARK H PARENT 10 11
REMARK Flexibility Score: inf
ROOT
ATOM      1  C   UNL     1     163.166 177.526 152.567  1.00  0.00     0.000 C 
ENDROOT
BRANCH   1   2
ATOM      2  C   UNL     1     162.578 177.707 151.159  1.00  0.00     0.000 C 
BRANCH   2   3
ATOM      3  C   UNL     1     161.043 177.686 151.200  1.00  0.00    -0.000 C 
BRANCH   3   4
ATOM      4  C   UNL     1     160.454 176.364 150.682  1.00  0.00    -0.000 C 
BRANCH   4   5
ATOM      5  C   UNL     1     159.774 175.546 151.789  1.00  0.00    -0.003 C 
ATOM      6  C   UNL     1     160.425 174.174 151.938  1.00  0.00     0.004 C 
ENDBRANCH   4   5
ENDBRANCH   3   4
ENDBRANCH   2   3
ENDBRANCH   1   2
BRANCH   1   7
ATOM      7  C   UNL     1     162.143 177.793 153.684  1.00  0.00     0.002 C 
BRANCH   7   8
ATOM      8  C   UNL     1     161.971 176.644 154.697  1.00  0.00     0.028 C 
BRANCH   8   9
ATOM      9  C   UNL     1     160.783 176.827 155.648  1.00  0.00     0.156 C 
BRANCH   9  10
ATOM     10  O   UNL     1     159.784 175.887 155.363  1.00  0.00    -0.396 OA
ATOM     11  H   UNL     1     160.187 174.996 155.537  1.00  0.00     0.210 HD
ENDBRANCH   9  10
ENDBRANCH   8   9
ENDBRANCH   7   8
ENDBRANCH   1   7
TORSDOF 8
ENDMDL
MODEL 5
REMARK VINA RESULT:    -3.208     12.217     13.524
REMARK INTER + INTRA:          -5.370
REMARK INTER:                  -5.016
REMARK INTRA:                  -0.354
REMARK UNBOUND:                -0.756
REMARK SMILES CCCCCCCCCO
REMARK SMILES IDX 6 1 5 2 4 3 3 4 2 5 1 6 7 7 8 8 9 9 10 10
REMARK H PARENT 10 11
REMARK Flexibility Score: inf
ROOT
ATOM      1  C   UNL     1     174.280 177.522 150.852  1.00  0.00     0.000 C 
ENDROOT
BRANCH   1   2
ATOM      2  C   UNL     1     175.290 176.398 151.131  1.00  0.00     0.000 C 
BRANCH   2   3
ATOM      3  C   UNL     1     174.590 175.031 151.175  1.00  0.00    -0.000 C 
BRANCH   3   4
ATOM      4  C   UNL     1     175.582 173.860 151.256  1.00  0.00    -0.000 C 
BRANCH   4   5
ATOM      5  C   UNL     1     177.028 174.288 150.965  1.00  0.00    -0.003 C 
ATOM      6  C   UNL     1     177.542 173.648 149.679  1.00  0.00     0.004 C 
ENDBRANCH   4   5
ENDBRANCH   3   4
ENDBRANCH   2   3
ENDBRANCH   1   2
BRANCH   1   7
ATOM      7  C   UNL     1     173.682 178.124 152.136  1.00  0.00     0.002 C 
BRANCH   7   8
ATOM      8  C   UNL     1     174.625 178.125 153.355  1.00  0.00     0.028 C 
BRANCH   8   9
ATOM      9  C   UNL     1     174.076 177.365 154.566  1.00  0.00     0.156 C 
BRANCH   9  10
ATOM     10  O   UNL     1     172.841 177.899 154.957  1.00  0.00    -0.396 OA
ATOM     11  H   UNL     1     172.441 177.240 155.581  1.00  0.00     0.210 HD
ENDBRANCH   9  10
ENDBRANCH   8   9
ENDBRANCH   7   8
ENDBRANCH   1   7
TORSDOF 8
ENDMDL
MODEL 6
REMARK VINA RESULT:    -3.138     19.630     20.437
REMARK INTER + INTRA:          -5.271
REMARK INTER:                  -4.757
REMARK INTRA:                  -0.514
REMARK UNBOUND:                -0.756
REMARK SMILES CCCCCCCCCO
REMARK SMILES IDX 6 1 5 2 4 3 3 4 2 5 1 6 7 7 8 8 9 9 10 10
REMARK H PARENT 10 11
REMARK Flexibility Score: inf
ROOT
ATOM      1  C   UNL     1     174.290 161.873 150.312  1.00  0.00     0.000 C 
ENDROOT
BRANCH   1   2
ATOM      2  C   UNL     1     175.406 160.884 149.944  1.00  0.00     0.000 C 
BRANCH   2   3
ATOM      3  C   UNL     1     176.638 161.091 150.837  1.00  0.00    -0.000 C 
BRANCH   3   4
ATOM      4  C   UNL     1     176.640 162.459 151.537  1.00  0.00    -0.000 C 
BRANCH   4   5
ATOM      5  C   UNL     1     177.846 163.324 151.143  1.00  0.00    -0.003 C 
ATOM      6  C   UNL     1     177.424 164.764 150.869  1.00  0.00     0.004 C 
ENDBRANCH   4   5
ENDBRANCH   3   4
ENDBRANCH   2   3
ENDBRANCH   1   2
BRANCH   1   7
ATOM      7  C   UNL     1     172.888 161.238 150.278  1.00  0.00     0.002 C 
BRANCH   7   8
ATOM      8  C   UNL     1     172.573 160.294 151.455  1.00  0.00     0.028 C 
BRANCH   8   9
ATOM      9  C   UNL     1     172.938 160.869 152.827  1.00  0.00     0.156 C 
BRANCH   9  10
ATOM     10  O   UNL     1     173.945 160.100 153.425  1.00  0.00    -0.396 OA
ATOM     11  H   UNL     1     173.967 160.370 154.379  1.00  0.00     0.210 HD
ENDBRANCH   9  10
ENDBRANCH   8   9
ENDBRANCH   7   8
ENDBRANCH   1   7
TORSDOF 8
ENDMDL
MODEL 7
REMARK VINA RESULT:    -3.137      9.830     11.913
REMARK INTER + INTRA:          -5.269
REMARK INTER:                  -4.853
REMARK INTRA:                  -0.416
REMARK UNBOUND:                -0.756
REMARK SMILES CCCCCCCCCO
REMARK SMILES IDX 6 1 5 2 4 3 3 4 2 5 1 6 7 7 8 8 9 9 10 10
REMARK H PARENT 10 11
REMARK Flexibility Score: inf
ROOT
ATOM      1  C   UNL     1     173.621 177.833 152.575  1.00  0.00     0.000 C 
ENDROOT
BRANCH   1   2
ATOM      2  C   UNL     1     173.736 178.095 151.066  1.00  0.00     0.000 C 
BRANCH   2   3
ATOM      3  C   UNL     1     174.739 177.129 150.417  1.00  0.00    -0.000 C 
BRANCH   3   4
ATOM      4  C   UNL     1     175.506 176.289 151.450  1.00  0.00    -0.000 C 
BRANCH   4   5
ATOM      5  C   UNL     1     175.417 174.781 151.172  1.00  0.00    -0.003 C 
ATOM      6  C   UNL     1     176.797 174.189 150.906  1.00  0.00     0.004 C 
ENDBRANCH   4   5
ENDBRANCH   3   4
ENDBRANCH   2   3
ENDBRANCH   1   2
BRANCH   1   7
ATOM      7  C   UNL     1     172.181 177.529 153.024  1.00  0.00     0.002 C 
BRANCH   7   8
ATOM      8  C   UNL     1     171.329 176.758 151.996  1.00  0.00     0.028 C 
BRANCH   8   9
ATOM      9  C   UNL     1     169.820 176.978 152.150  1.00  0.00     0.156 C 
BRANCH   9  10
ATOM     10  O   UNL     1     169.550 177.683 153.330  1.00  0.00    -0.396 OA
ATOM     11  H   UNL     1     170.029 177.203 154.054  1.00  0.00     0.210 HD
ENDBRANCH   9  10
ENDBRANCH   8   9
ENDBRANCH   7   8
ENDBRANCH   1   7
TORSDOF 8
ENDMDL
