MODEL 1
REMARK VINA RESULT:    -5.728      0.000      0.000
REMARK INTER + INTRA:          -7.846
REMARK INTER:                  -8.072
REMARK INTRA:                   0.226
REMARK UNBOUND:                 0.226
REMARK SMILES CC1=CCC(=C(C)C)C(=O)CC(C)=CCC1
REMARK SMILES IDX 12 1 14 2 13 3 15 4 16 5 2 6 1 7 3 8 11 10 9 11 10 12 5 13
REMARK SMILES IDX 6 14 7 15 8 16 4 17
REMARK H PARENT
REMARK Flexibility Score: 60.00
ROOT
ATOM      1  C   UNL     1       2.639  13.566  22.059  1.00  0.00    -0.070 C 
ATOM      2  C   UNL     1       3.539  12.559  22.127  1.00  0.00    -0.027 C 
ATOM      3  C   UNL     1       2.969  14.856  22.768  1.00  0.00     0.039 C 
ENDROOT
BRANCH   2   4
ATOM      4  C   UNL     1       3.349  11.167  21.568  1.00  0.00     0.032 C 
BRANCH   4   5
ATOM      5  C   UNL     1       2.724  10.154  22.549  1.00  0.00     0.034 C 
BRANCH   5   6
ATOM      6  C   UNL     1       1.510   9.442  21.980  1.00  0.00    -0.077 C 
ATOM      7  C   UNL     1       1.752   8.310  21.012  1.00  0.00     0.039 C 
ATOM      8  C   UNL     1       0.227   9.799  22.229  1.00  0.00    -0.023 CG0
ATOM      9  G   UNL     1      -0.253  10.883  23.174  1.00  0.00     0.000 G0
ENDBRANCH   5   6
ENDBRANCH   4   5
ENDBRANCH   2   4
BRANCH   1  10
ATOM     10  C   UNL     1       1.287  13.430  21.391  1.00  0.00     0.111 C 
BRANCH  10  11
ATOM     11  C   UNL     1       0.177  13.301  22.401  1.00  0.00     0.163 C 
ATOM     12  O   UNL     1       0.062  14.202  23.274  1.00  0.00    -0.294 OA
BRANCH  11  13
ATOM     13  C   UNL     1      -0.740  12.123  22.438  1.00  0.00    -0.002 C 
ATOM     14  C   UNL     1      -1.996  12.196  21.904  1.00  0.00    -0.069 C 
ATOM     15  C   UNL     1      -2.445  13.412  21.123  1.00  0.00     0.039 C 
ATOM     16  C   UNL     1      -3.002  11.078  22.065  1.00  0.00     0.039 C 
BRANCH  13  17
ATOM     17  C   UNL     1      -0.252  10.884  23.174  1.00  0.00     0.066 CG0
ATOM     18  G   UNL     1       0.231   9.804  22.226  1.00  0.00     0.000 G0
ENDBRANCH  13  17
ENDBRANCH  11  13
ENDBRANCH  10  11
ENDBRANCH   1  10
TORSDOF 0
ENDMDL
MODEL 2
REMARK VINA RESULT:    -5.722      2.220      5.521
REMARK INTER + INTRA:          -7.838
REMARK INTER:                  -8.217
REMARK INTRA:                   0.379
REMARK UNBOUND:                 0.226
REMARK SMILES CC1=CCC(=C(C)C)C(=O)CC(C)=CCC1
REMARK SMILES IDX 12 1 14 2 13 3 15 4 16 5 2 6 1 7 3 8 11 10 9 11 10 12 5 13
REMARK SMILES IDX 6 14 7 15 8 16 4 17
REMARK H PARENT
REMARK Flexibility Score: 60.00
ROOT
ATOM      1  C   UNL     1      -2.613  11.793  21.847  1.00  0.00    -0.070 C 
ATOM      2  C   UNL     1      -3.247  12.904  22.286  1.00  0.00    -0.027 C 
ATOM      3  C   UNL     1      -2.999  10.471  22.462  1.00  0.00     0.039 C 
ENDROOT
BRANCH   2   4
ATOM      4  C   UNL     1      -2.934  14.323  21.864  1.00  0.00     0.032 C 
BRANCH   4   5
ATOM      5  C   UNL     1      -2.071  15.119  22.863  1.00  0.00     0.034 C 
BRANCH   5   6
ATOM      6  C   UNL     1      -0.770  15.620  22.261  1.00  0.00    -0.077 C 
ATOM      7  C   UNL     1      -0.777  16.982  21.613  1.00  0.00     0.039 C 
ATOM      8  C   UNL     1       0.375  14.898  22.207  1.00  0.00    -0.023 CG0
ATOM      9  G   UNL     1       0.621  13.527  22.803  1.00  0.00     0.000 G0
ENDBRANCH   5   6
ENDBRANCH   4   5
ENDBRANCH   2   4
BRANCH   1  10
ATOM     10  C   UNL     1      -1.479  11.824  20.844  1.00  0.00     0.111 C 
BRANCH  10  11
ATOM     11  C   UNL     1      -0.163  11.459  21.480  1.00  0.00     0.163 C 
ATOM     12  O   UNL     1       0.009  10.265  21.844  1.00  0.00    -0.294 OA
BRANCH  11  13
ATOM     13  C   UNL     1       0.905  12.467  21.748  1.00  0.00    -0.002 C 
ATOM     14  C   UNL     1       2.118  12.384  21.123  1.00  0.00    -0.069 C 
ATOM     15  C   UNL     1       2.369  11.369  20.030  1.00  0.00     0.039 C 
ATOM     16  C   UNL     1       3.271  13.293  21.488  1.00  0.00     0.039 C 
BRANCH  13  17
ATOM     17  C   UNL     1       0.618  13.522  22.805  1.00  0.00     0.066 CG0
ATOM     18  G   UNL     1       0.382  14.893  22.203  1.00  0.00     0.000 G0
ENDBRANCH  13  17
ENDBRANCH  11  13
ENDBRANCH  10  11
ENDBRANCH   1  10
TORSDOF 0
ENDMDL
MODEL 3
REMARK VINA RESULT:    -5.690      1.711      4.172
REMARK INTER + INTRA:          -7.793
REMARK INTER:                  -8.079
REMARK INTRA:                   0.287
REMARK UNBOUND:                 0.226
REMARK SMILES CC1=CCC(=C(C)C)C(=O)CC(C)=CCC1
REMARK SMILES IDX 12 1 14 2 13 3 15 4 16 5 2 6 1 7 3 8 11 10 9 11 10 12 5 13
REMARK SMILES IDX 6 14 7 15 8 16 4 17
REMARK H PARENT
REMARK Flexibility Score: 60.00
ROOT
ATOM      1  C   UNL     1      -2.561  12.814  22.086  1.00  0.00    -0.070 C 
ATOM      2  C   UNL     1      -2.324  11.485  22.151  1.00  0.00    -0.027 C 
ATOM      3  C   UNL     1      -3.806  13.275  21.371  1.00  0.00     0.039 C 
ENDROOT
BRANCH   2   4
ATOM      4  C   UNL     1      -1.089  10.836  22.736  1.00  0.00     0.032 C 
BRANCH   4   5
ATOM      5  C   UNL     1      -0.046  10.374  21.697  1.00  0.00     0.034 C 
BRANCH   5   6
ATOM      6  C   UNL     1       1.385  10.649  22.125  1.00  0.00    -0.077 C 
ATOM      7  C   UNL     1       2.068   9.617  22.987  1.00  0.00     0.039 C 
ATOM      8  C   UNL     1       2.062  11.788  21.842  1.00  0.00    -0.023 CG0
ATOM      9  G   UNL     1       1.587  12.944  20.984  1.00  0.00     0.000 G0
ENDBRANCH   5   6
ENDBRANCH   4   5
ENDBRANCH   2   4
BRANCH   1  10
ATOM     10  C   UNL     1      -1.596  13.858  22.610  1.00  0.00     0.111 C 
BRANCH  10  11
ATOM     11  C   UNL     1      -0.570  14.237  21.574  1.00  0.00     0.163 C 
ATOM     12  O   UNL     1      -0.980  14.681  20.468  1.00  0.00    -0.294 OA
BRANCH  11  13
ATOM     13  C   UNL     1       0.895  14.048  21.789  1.00  0.00    -0.002 C 
ATOM     14  C   UNL     1       1.595  14.884  22.615  1.00  0.00    -0.069 C 
ATOM     15  C   UNL     1       0.890  15.926  23.455  1.00  0.00     0.039 C 
ATOM     16  C   UNL     1       3.102  14.818  22.731  1.00  0.00     0.039 C 
BRANCH  13  17
ATOM     17  C   UNL     1       1.582  12.955  20.984  1.00  0.00     0.066 CG0
ATOM     18  G   UNL     1       2.042  11.802  21.854  1.00  0.00     0.000 G0
ENDBRANCH  13  17
ENDBRANCH  11  13
ENDBRANCH  10  11
ENDBRANCH   1  10
TORSDOF 0
ENDMDL
MODEL 4
REMARK VINA RESULT:    -5.576      2.352      3.558
REMARK INTER + INTRA:          -7.632
REMARK INTER:                  -7.846
REMARK INTRA:                   0.214
REMARK UNBOUND:                 0.226
REMARK SMILES CC1=CCC(=C(C)C)C(=O)CC(C)=CCC1
REMARK SMILES IDX 12 1 14 2 13 3 15 4 16 5 2 6 1 7 3 8 11 10 9 11 10 12 5 13
REMARK SMILES IDX 6 14 7 15 8 16 4 17
REMARK H PARENT
REMARK Flexibility Score: 60.00
ROOT
ATOM      1  C   UNL     1       1.671  10.138  21.911  1.00  0.00    -0.070 C 
ATOM      2  C   UNL     1       2.533  10.390  20.900  1.00  0.00    -0.027 C 
ATOM      3  C   UNL     1       2.239   9.638  23.215  1.00  0.00     0.039 C 
ENDROOT
BRANCH   2   4
ATOM      4  C   UNL     1       2.150  10.802  19.496  1.00  0.00     0.032 C 
BRANCH   4   5
ATOM      5  C   UNL     1       1.760  12.285  19.340  1.00  0.00     0.034 C 
BRANCH   5   6
ATOM      6  C   UNL     1       0.461  12.485  18.580  1.00  0.00    -0.077 C 
ATOM      7  C   UNL     1       0.440  12.113  17.118  1.00  0.00     0.039 C 
ATOM      8  C   UNL     1      -0.656  13.040  19.109  1.00  0.00    -0.023 CG0
ATOM      9  G   UNL     1      -0.871  13.469  20.547  1.00  0.00     0.000 G0
ENDBRANCH   5   6
ENDBRANCH   4   5
ENDBRANCH   2   4
BRANCH   1  10
ATOM     10  C   UNL     1       0.167  10.244  21.767  1.00  0.00     0.111 C 
BRANCH  10  11
ATOM     11  C   UNL     1      -0.341  11.592  22.207  1.00  0.00     0.163 C 
ATOM     12  O   UNL     1       0.091  12.063  23.292  1.00  0.00    -0.294 OA
BRANCH  11  13
ATOM     13  C   UNL     1      -1.372  12.350  21.438  1.00  0.00    -0.002 C 
ATOM     14  C   UNL     1      -2.687  11.979  21.476  1.00  0.00    -0.069 C 
ATOM     15  C   UNL     1      -3.168  10.892  22.412  1.00  0.00     0.039 C 
ATOM     16  C   UNL     1      -3.729  12.625  20.589  1.00  0.00     0.039 C 
BRANCH  13  17
ATOM     17  C   UNL     1      -0.884  13.482  20.548  1.00  0.00     0.066 CG0
ATOM     18  G   UNL     1      -0.670  13.037  19.114  1.00  0.00     0.000 G0
ENDBRANCH  13  17
ENDBRANCH  11  13
ENDBRANCH  10  11
ENDBRANCH   1  10
TORSDOF 0
ENDMDL
MODEL 5
REMARK VINA RESULT:    -5.548      2.009      3.951
REMARK INTER + INTRA:          -7.593
REMARK INTER:                  -7.969
REMARK INTRA:                   0.376
REMARK UNBOUND:                 0.226
REMARK SMILES CC1=CCC(=C(C)C)C(=O)CC(C)=CCC1
REMARK SMILES IDX 12 1 14 2 13 3 15 4 16 5 2 6 1 7 3 8 11 10 9 11 10 12 5 13
REMARK SMILES IDX 6 14 7 15 8 16 4 17
REMARK H PARENT
REMARK Flexibility Score: 60.00
ROOT
ATOM      1  C   UNL     1       2.748  12.290  21.882  1.00  0.00    -0.070 C 
ATOM      2  C   UNL     1       2.438  13.602  21.971  1.00  0.00    -0.027 C 
ATOM      3  C   UNL     1       3.907  11.897  21.000  1.00  0.00     0.039 C 
ENDROOT
BRANCH   2   4
ATOM      4  C   UNL     1       1.259  14.182  22.722  1.00  0.00     0.032 C 
BRANCH   4   5
ATOM      5  C   UNL     1       0.154  14.781  21.829  1.00  0.00     0.034 C 
BRANCH   5   6
ATOM      6  C   UNL     1      -1.245  14.368  22.252  1.00  0.00    -0.077 C 
ATOM      7  C   UNL     1      -2.020  15.318  23.130  1.00  0.00     0.039 C 
ATOM      8  C   UNL     1      -1.814  13.175  21.951  1.00  0.00    -0.023 CG0
ATOM      9  G   UNL     1      -1.235  12.081  21.076  1.00  0.00     0.000 G0
ENDBRANCH   5   6
ENDBRANCH   4   5
ENDBRANCH   2   4
BRANCH   1  10
ATOM     10  C   UNL     1       1.936  11.196  22.545  1.00  0.00     0.111 C 
BRANCH  10  11
ATOM     11  C   UNL     1       0.852  10.679  21.636  1.00  0.00     0.163 C 
ATOM     12  O   UNL     1       1.196  10.036  20.608  1.00  0.00    -0.294 OA
BRANCH  11  13
ATOM     13  C   UNL     1      -0.595  10.953  21.878  1.00  0.00    -0.002 C 
ATOM     14  C   UNL     1      -1.325  10.168  22.726  1.00  0.00    -0.069 C 
ATOM     15  C   UNL     1      -0.663   9.097  23.566  1.00  0.00     0.039 C 
ATOM     16  C   UNL     1      -2.823  10.321  22.871  1.00  0.00     0.039 C 
BRANCH  13  17
ATOM     17  C   UNL     1      -1.235  12.075  21.073  1.00  0.00     0.066 CG0
ATOM     18  G   UNL     1      -1.813  13.161  21.957  1.00  0.00     0.000 G0
ENDBRANCH  13  17
ENDBRANCH  11  13
ENDBRANCH  10  11
ENDBRANCH   1  10
TORSDOF 0
ENDMDL
MODEL 6
REMARK VINA RESULT:    -5.504      2.181      4.614
REMARK INTER + INTRA:          -7.531
REMARK INTER:                  -7.898
REMARK INTRA:                   0.367
REMARK UNBOUND:                 0.226
REMARK SMILES CC1=CCC(=C(C)C)C(=O)CC(C)=CCC1
REMARK SMILES IDX 12 1 14 2 13 3 15 4 16 5 2 6 1 7 3 8 11 10 9 11 10 12 5 13
REMARK SMILES IDX 6 14 7 15 8 16 4 17
REMARK H PARENT
REMARK Flexibility Score: 60.00
ROOT
ATOM      1  C   UNL     1      -0.206  15.552  22.940  1.00  0.00    -0.070 C 
ATOM      2  C   UNL     1      -1.446  15.873  22.510  1.00  0.00    -0.027 C 
ATOM      3  C   UNL     1       0.768  16.676  23.190  1.00  0.00     0.039 C 
ENDROOT
BRANCH   2   4
ATOM      4  C   UNL     1      -2.526  14.891  22.114  1.00  0.00     0.032 C 
BRANCH   4   5
ATOM      5  C   UNL     1      -2.505  14.469  20.630  1.00  0.00     0.034 C 
BRANCH   5   6
ATOM      6  C   UNL     1      -2.335  12.973  20.436  1.00  0.00    -0.077 C 
ATOM      7  C   UNL     1      -3.552  12.100  20.614  1.00  0.00     0.039 C 
ATOM      8  C   UNL     1      -1.150  12.365  20.184  1.00  0.00    -0.023 CG0
ATOM      9  G   UNL     1       0.189  13.035  19.950  1.00  0.00     0.000 G0
ENDBRANCH   5   6
ENDBRANCH   4   5
ENDBRANCH   2   4
BRANCH   1  10
ATOM     10  C   UNL     1       0.278  14.124  23.091  1.00  0.00     0.111 C 
BRANCH  10  11
ATOM     11  C   UNL     1       1.363  13.797  22.100  1.00  0.00     0.163 C 
ATOM     12  O   UNL     1       2.426  14.473  22.137  1.00  0.00    -0.294 OA
BRANCH  11  13
ATOM     13  C   UNL     1       1.198  12.751  21.047  1.00  0.00    -0.002 C 
ATOM     14  C   UNL     1       1.977  11.627  21.048  1.00  0.00    -0.069 C 
ATOM     15  C   UNL     1       2.920  11.329  22.193  1.00  0.00     0.039 C 
ATOM     16  C   UNL     1       1.945  10.629  19.912  1.00  0.00     0.039 C 
BRANCH  13  17
ATOM     17  C   UNL     1       0.201  13.035  19.934  1.00  0.00     0.066 CG0
ATOM     18  G   UNL     1      -1.142  12.377  20.182  1.00  0.00     0.000 G0
ENDBRANCH  13  17
ENDBRANCH  11  13
ENDBRANCH  10  11
ENDBRANCH   1  10
TORSDOF 0
ENDMDL
MODEL 7
REMARK VINA RESULT:    -5.502      1.879      3.716
REMARK INTER + INTRA:          -7.528
REMARK INTER:                  -8.062
REMARK INTRA:                   0.535
REMARK UNBOUND:                 0.226
REMARK SMILES CC1=CCC(=C(C)C)C(=O)CC(C)=CCC1
REMARK SMILES IDX 12 1 14 2 13 3 15 4 16 5 2 6 1 7 3 8 11 10 9 11 10 12 5 13
REMARK SMILES IDX 6 14 7 15 8 16 4 17
REMARK H PARENT
REMARK Flexibility Score: 60.00
ROOT
ATOM      1  C   UNL     1       0.362   9.369  22.830  1.00  0.00    -0.070 C 
ATOM      2  C   UNL     1       1.674   9.251  22.526  1.00  0.00    -0.027 C 
ATOM      3  C   UNL     1      -0.500   8.134  22.731  1.00  0.00     0.039 C 
ENDROOT
BRANCH   2   4
ATOM      4  C   UNL     1       2.673  10.385  22.473  1.00  0.00     0.032 C 
BRANCH   4   5
ATOM      5  C   UNL     1       2.834  11.041  21.086  1.00  0.00     0.034 C 
BRANCH   5   6
ATOM      6  C   UNL     1       2.380  12.489  21.053  1.00  0.00    -0.077 C 
ATOM      7  C   UNL     1       3.370  13.544  21.481  1.00  0.00     0.039 C 
ATOM      8  C   UNL     1       1.126  12.890  20.733  1.00  0.00    -0.023 CG0
ATOM      9  G   UNL     1      -0.020  12.017  20.259  1.00  0.00     0.000 G0
ENDBRANCH   5   6
ENDBRANCH   4   5
ENDBRANCH   2   4
BRANCH   1  10
ATOM     10  C   UNL     1      -0.298  10.689  23.172  1.00  0.00     0.111 C 
BRANCH  10  11
ATOM     11  C   UNL     1      -1.394  11.032  22.198  1.00  0.00     0.163 C 
ATOM     12  O   UNL     1      -2.454  10.352  22.234  1.00  0.00    -0.294 OA
BRANCH  11  13
ATOM     13  C   UNL     1      -1.243  12.097  21.162  1.00  0.00    -0.002 C 
ATOM     14  C   UNL     1      -2.208  13.050  20.992  1.00  0.00    -0.069 C 
ATOM     15  C   UNL     1      -3.382  13.154  21.941  1.00  0.00     0.039 C 
ATOM     16  C   UNL     1      -2.160  14.044  19.853  1.00  0.00     0.039 C 
BRANCH  13  17
ATOM     17  C   UNL     1      -0.025  12.017  20.254  1.00  0.00     0.066 CG0
ATOM     18  G   UNL     1       1.113  12.893  20.739  1.00  0.00     0.000 G0
ENDBRANCH  13  17
ENDBRANCH  11  13
ENDBRANCH  10  11
ENDBRANCH   1  10
TORSDOF 0
ENDMDL
MODEL 8
REMARK VINA RESULT:    -5.501      2.613      4.855
REMARK INTER + INTRA:          -7.527
REMARK INTER:                  -8.207
REMARK INTRA:                   0.681
REMARK UNBOUND:                 0.226
REMARK SMILES CC1=CCC(=C(C)C)C(=O)CC(C)=CCC1
REMARK SMILES IDX 12 1 14 2 13 3 15 4 16 5 2 6 1 7 3 8 11 10 9 11 10 12 5 13
REMARK SMILES IDX 6 14 7 15 8 16 4 17
REMARK H PARENT
REMARK Flexibility Score: 60.00
ROOT
ATOM      1  C   UNL     1       0.679  13.812  22.547  1.00  0.00    -0.070 C 
ATOM      2  C   UNL     1       0.132  15.005  22.871  1.00  0.00    -0.027 C 
ATOM      3  C   UNL     1       2.007  13.815  21.833  1.00  0.00     0.039 C 
ENDROOT
BRANCH   2   4
ATOM      4  C   UNL     1      -1.230  15.211  23.498  1.00  0.00     0.032 C 
BRANCH   4   5
ATOM      5  C   UNL     1      -2.412  14.659  22.676  1.00  0.00     0.034 C 
BRANCH   5   6
ATOM      6  C   UNL     1      -2.347  15.038  21.207  1.00  0.00    -0.077 C 
ATOM      7  C   UNL     1      -2.469  16.500  20.855  1.00  0.00     0.039 C 
ATOM      8  C   UNL     1      -2.258  14.147  20.190  1.00  0.00    -0.023 CG0
ATOM      9  G   UNL     1      -2.108  12.643  20.304  1.00  0.00     0.000 G0
ENDBRANCH   5   6
ENDBRANCH   4   5
ENDBRANCH   2   4
BRANCH   1  10
ATOM     10  C   UNL     1      -0.017  12.487  22.781  1.00  0.00     0.111 C 
BRANCH  10  11
ATOM     11  C   UNL     1      -0.077  11.661  21.524  1.00  0.00     0.163 C 
ATOM     12  O   UNL     1       0.449  10.515  21.540  1.00  0.00    -0.294 OA
BRANCH  11  13
ATOM     13  C   UNL     1      -0.677  12.172  20.255  1.00  0.00    -0.002 C 
ATOM     14  C   UNL     1       0.077  12.287  19.121  1.00  0.00    -0.069 C 
ATOM     15  C   UNL     1       1.493  11.758  19.064  1.00  0.00     0.039 C 
ATOM     16  C   UNL     1      -0.456  12.946  17.868  1.00  0.00     0.039 C 
BRANCH  13  17
ATOM     17  C   UNL     1      -2.122  12.643  20.310  1.00  0.00     0.066 CG0
ATOM     18  G   UNL     1      -2.243  14.148  20.173  1.00  0.00     0.000 G0
ENDBRANCH  13  17
ENDBRANCH  11  13
ENDBRANCH  10  11
ENDBRANCH   1  10
TORSDOF 0
ENDMDL
MODEL 9
REMARK VINA RESULT:    -5.439      1.870      4.151
REMARK INTER + INTRA:          -7.439
REMARK INTER:                  -8.110
REMARK INTRA:                   0.671
REMARK UNBOUND:                 0.226
REMARK SMILES CC1=CCC(=C(C)C)C(=O)CC(C)=CCC1
REMARK SMILES IDX 12 1 14 2 13 3 15 4 16 5 2 6 1 7 3 8 11 10 9 11 10 12 5 13
REMARK SMILES IDX 6 14 7 15 8 16 4 17
REMARK H PARENT
REMARK Flexibility Score: 60.00
ROOT
ATOM      1  C   UNL     1       1.611   8.987  21.874  1.00  0.00    -0.070 C 
ATOM      2  C   UNL     1       0.422   8.375  22.072  1.00  0.00    -0.027 C 
ATOM      3  C   UNL     1       2.474   8.502  20.736  1.00  0.00     0.039 C 
ENDROOT
BRANCH   2   4
ATOM      4  C   UNL     1      -0.534   8.652  23.211  1.00  0.00     0.032 C 
BRANCH   4   5
ATOM      5  C   UNL     1      -0.661  10.138  23.604  1.00  0.00     0.034 C 
BRANCH   5   6
ATOM      6  C   UNL     1      -1.554  10.930  22.667  1.00  0.00    -0.077 C 
ATOM      7  C   UNL     1      -2.949  10.410  22.422  1.00  0.00     0.039 C 
ATOM      8  C   UNL     1      -1.160  12.032  21.983  1.00  0.00    -0.023 CG0
ATOM      9  G   UNL     1       0.177  12.739  22.083  1.00  0.00     0.000 G0
ENDBRANCH   5   6
ENDBRANCH   4   5
ENDBRANCH   2   4
BRANCH   1  10
ATOM     10  C   UNL     1       2.155  10.065  22.789  1.00  0.00     0.111 C 
BRANCH  10  11
ATOM     11  C   UNL     1       2.363  11.364  22.057  1.00  0.00     0.163 C 
ATOM     12  O   UNL     1       3.489  11.923  22.148  1.00  0.00    -0.294 OA
BRANCH  11  13
ATOM     13  C   UNL     1       1.273  12.034  21.287  1.00  0.00    -0.002 C 
ATOM     14  C   UNL     1       1.306  12.078  19.921  1.00  0.00    -0.069 C 
ATOM     15  C   UNL     1       2.356  11.322  19.138  1.00  0.00     0.039 C 
ATOM     16  C   UNL     1       0.305  12.882  19.121  1.00  0.00     0.039 C 
BRANCH  13  17
ATOM     17  C   UNL     1       0.188  12.738  22.087  1.00  0.00     0.066 CG0
ATOM     18  G   UNL     1      -1.153  12.040  21.977  1.00  0.00     0.000 G0
ENDBRANCH  13  17
ENDBRANCH  11  13
ENDBRANCH  10  11
ENDBRANCH   1  10
TORSDOF 0
ENDMDL
