MODEL 1
REMARK VINA RESULT:    -3.094      0.000      0.000
REMARK INTER + INTRA:          -4.950
REMARK INTER:                  -4.179
REMARK INTRA:                  -0.772
REMARK UNBOUND:                -0.772
REMARK SMILES CC(=O)CCC=C(C)CCC=C(C)C
REMARK SMILES IDX 7 1 6 2 8 3 9 4 10 5 11 6 13 7 12 8 14 9 5 10 4 11 2 12 3 13
REMARK SMILES IDX 1 14
REMARK H PARENT
REMARK Flexibility Score: inf
ROOT
ATOM      1  C   UNL     1     153.714 153.583 148.016  1.00  0.00    -0.077 C 
ATOM      2  C   UNL     1     154.499 152.515 147.739  1.00  0.00    -0.028 C 
ATOM      3  C   UNL     1     153.904 154.913 147.326  1.00  0.00     0.039 C 
ENDROOT
BRANCH   1   4
ATOM      4  C   UNL     1     152.624 153.441 149.057  1.00  0.00     0.034 C 
BRANCH   4   5
ATOM      5  C   UNL     1     153.019 152.417 150.127  1.00  0.00     0.032 C 
BRANCH   5   6
ATOM      6  C   UNL     1     153.248 153.082 151.463  1.00  0.00    -0.028 C 
ATOM      7  C   UNL     1     155.728 152.977 151.189  1.00  0.00     0.039 C 
ATOM      8  C   UNL     1     154.479 153.341 151.955  1.00  0.00    -0.080 C 
ATOM      9  C   UNL     1     154.633 154.006 153.297  1.00  0.00     0.039 C 
ENDBRANCH   5   6
ENDBRANCH   4   5
ENDBRANCH   1   4
BRANCH   2  10
ATOM     10  C   UNL     1     155.593 152.506 146.701  1.00  0.00     0.035 C 
BRANCH  10  11
ATOM     11  C   UNL     1     155.050 152.027 145.346  1.00  0.00     0.079 C 
BRANCH  11  12
ATOM     12  C   UNL     1     156.083 151.974 144.242  1.00  0.00     0.130 C 
ATOM     13  O   UNL     1     157.265 151.969 144.554  1.00  0.00    -0.300 OA
ATOM     14  C   UNL     1     155.722 151.920 142.783  1.00  0.00     0.087 C 
ENDBRANCH  11  12
ENDBRANCH  10  11
ENDBRANCH   2  10
TORSDOF 6
ENDMDL
MODEL 2
REMARK VINA RESULT:    -3.086     22.561     23.518
REMARK INTER + INTRA:          -4.941
REMARK INTER:                  -4.119
REMARK INTRA:                  -0.821
REMARK UNBOUND:                -0.772
REMARK SMILES CC(=O)CCC=C(C)CCC=C(C)C
REMARK SMILES IDX 7 1 6 2 8 3 9 4 10 5 11 6 13 7 12 8 14 9 5 10 4 11 2 12 3 13
REMARK SMILES IDX 1 14
REMARK H PARENT
REMARK Flexibility Score: inf
ROOT
ATOM      1  C   UNL     1     170.219 170.455 148.044  1.00  0.00    -0.077 C 
ATOM      2  C   UNL     1     169.566 171.556 147.603  1.00  0.00    -0.028 C 
ATOM      3  C   UNL     1     169.831 169.065 147.596  1.00  0.00     0.039 C 
ENDROOT
BRANCH   1   4
ATOM      4  C   UNL     1     171.361 170.623 149.022  1.00  0.00     0.034 C 
BRANCH   4   5
ATOM      5  C   UNL     1     170.991 171.615 150.131  1.00  0.00     0.032 C 
BRANCH   5   6
ATOM      6  C   UNL     1     170.700 170.903 151.429  1.00  0.00    -0.028 C 
ATOM      7  C   UNL     1     168.234 171.086 151.077  1.00  0.00     0.039 C 
ATOM      8  C   UNL     1     169.446 170.657 151.868  1.00  0.00    -0.080 C 
ATOM      9  C   UNL     1     169.229 169.942 153.175  1.00  0.00     0.039 C 
ENDBRANCH   5   6
ENDBRANCH   4   5
ENDBRANCH   1   4
BRANCH   2  10
ATOM     10  C   UNL     1     168.439 171.537 146.601  1.00  0.00     0.035 C 
BRANCH  10  11
ATOM     11  C   UNL     1     168.956 171.887 145.197  1.00  0.00     0.079 C 
BRANCH  11  12
ATOM     12  C   UNL     1     167.877 171.994 144.142  1.00  0.00     0.130 C 
ATOM     13  O   UNL     1     166.713 172.057 144.508  1.00  0.00    -0.300 OA
ATOM     14  C   UNL     1     168.173 172.033 142.669  1.00  0.00     0.087 C 
ENDBRANCH  11  12
ENDBRANCH  10  11
ENDBRANCH   2  10
TORSDOF 6
ENDMDL
MODEL 3
REMARK VINA RESULT:    -3.050      1.725      2.748
REMARK INTER + INTRA:          -4.892
REMARK INTER:                  -3.376
REMARK INTRA:                  -1.516
REMARK UNBOUND:                -0.772
REMARK SMILES CC(=O)CCC=C(C)CCC=C(C)C
REMARK SMILES IDX 7 1 6 2 8 3 9 4 10 5 11 6 13 7 12 8 14 9 5 10 4 11 2 12 3 13
REMARK SMILES IDX 1 14
REMARK H PARENT
REMARK Flexibility Score: inf
ROOT
ATOM      1  C   UNL     1     153.827 155.192 147.456  1.00  0.00    -0.077 C 
ATOM      2  C   UNL     1     153.692 154.051 146.742  1.00  0.00    -0.028 C 
ATOM      3  C   UNL     1     155.170 155.858 147.649  1.00  0.00     0.039 C 
ENDROOT
BRANCH   1   4
ATOM      4  C   UNL     1     152.600 155.811 148.089  1.00  0.00     0.034 C 
BRANCH   4   5
ATOM      5  C   UNL     1     151.933 154.831 149.061  1.00  0.00     0.032 C 
BRANCH   5   6
ATOM      6  C   UNL     1     152.757 154.654 150.314  1.00  0.00    -0.028 C 
ATOM      7  C   UNL     1     153.031 152.208 149.892  1.00  0.00     0.039 C 
ATOM      8  C   UNL     1     153.262 153.462 150.699  1.00  0.00    -0.080 C 
ATOM      9  C   UNL     1     154.076 153.358 151.962  1.00  0.00     0.039 C 
ENDBRANCH   5   6
ENDBRANCH   4   5
ENDBRANCH   1   4
BRANCH   2  10
ATOM     10  C   UNL     1     154.821 153.350 146.027  1.00  0.00     0.035 C 
BRANCH  10  11
ATOM     11  C   UNL     1     155.279 152.116 146.817  1.00  0.00     0.079 C 
BRANCH  11  12
ATOM     12  C   UNL     1     156.562 152.311 147.594  1.00  0.00     0.130 C 
ATOM     13  O   UNL     1     157.624 152.155 147.009  1.00  0.00    -0.300 OA
ATOM     14  C   UNL     1     156.590 152.693 149.049  1.00  0.00     0.087 C 
ENDBRANCH  11  12
ENDBRANCH  10  11
ENDBRANCH   2  10
TORSDOF 6
ENDMDL
MODEL 4
REMARK VINA RESULT:    -3.034      1.241      1.876
REMARK INTER + INTRA:          -4.870
REMARK INTER:                  -3.876
REMARK INTRA:                  -0.994
REMARK UNBOUND:                -0.772
REMARK SMILES CC(=O)CCC=C(C)CCC=C(C)C
REMARK SMILES IDX 7 1 6 2 8 3 9 4 10 5 11 6 13 7 12 8 14 9 5 10 4 11 2 12 3 13
REMARK SMILES IDX 1 14
REMARK H PARENT
REMARK Flexibility Score: inf
ROOT
ATOM      1  C   UNL     1     154.577 154.073 147.332  1.00  0.00    -0.077 C 
ATOM      2  C   UNL     1     154.102 153.113 146.505  1.00  0.00    -0.028 C 
ATOM      3  C   UNL     1     155.987 154.034 147.874  1.00  0.00     0.039 C 
ENDROOT
BRANCH   1   4
ATOM      4  C   UNL     1     153.663 155.211 147.735  1.00  0.00     0.034 C 
BRANCH   4   5
ATOM      5  C   UNL     1     152.506 154.703 148.602  1.00  0.00     0.032 C 
BRANCH   5   6
ATOM      6  C   UNL     1     152.916 154.581 150.049  1.00  0.00    -0.028 C 
ATOM      7  C   UNL     1     153.021 152.090 149.900  1.00  0.00     0.039 C 
ATOM      8  C   UNL     1     153.154 153.394 150.648  1.00  0.00    -0.080 C 
ATOM      9  C   UNL     1     153.560 153.347 152.098  1.00  0.00     0.039 C 
ENDBRANCH   5   6
ENDBRANCH   4   5
ENDBRANCH   1   4
BRANCH   2  10
ATOM     10  C   UNL     1     154.913 151.948 145.994  1.00  0.00     0.035 C 
BRANCH  10  11
ATOM     11  C   UNL     1     155.317 152.170 144.529  1.00  0.00     0.079 C 
BRANCH  11  12
ATOM     12  C   UNL     1     156.806 152.088 144.272  1.00  0.00     0.130 C 
ATOM     13  O   UNL     1     157.565 152.196 145.223  1.00  0.00    -0.300 OA
ATOM     14  C   UNL     1     157.391 151.875 142.903  1.00  0.00     0.087 C 
ENDBRANCH  11  12
ENDBRANCH  10  11
ENDBRANCH   2  10
TORSDOF 6
ENDMDL
MODEL 5
REMARK VINA RESULT:    -2.996     22.272     23.288
REMARK INTER + INTRA:          -4.818
REMARK INTER:                  -3.714
REMARK INTRA:                  -1.104
REMARK UNBOUND:                -0.772
REMARK SMILES CC(=O)CCC=C(C)CCC=C(C)C
REMARK SMILES IDX 7 1 6 2 8 3 9 4 10 5 11 6 13 7 12 8 14 9 5 10 4 11 2 12 3 13
REMARK SMILES IDX 1 14
REMARK H PARENT
REMARK Flexibility Score: inf
ROOT
ATOM      1  C   UNL     1     169.410 169.842 147.443  1.00  0.00    -0.077 C 
ATOM      2  C   UNL     1     169.832 170.921 146.743  1.00  0.00    -0.028 C 
ATOM      3  C   UNL     1     167.976 169.697 147.898  1.00  0.00     0.039 C 
ENDROOT
BRANCH   1   4
ATOM      4  C   UNL     1     170.407 168.758 147.791  1.00  0.00     0.034 C 
BRANCH   4   5
ATOM      5  C   UNL     1     171.541 169.314 148.658  1.00  0.00     0.032 C 
BRANCH   5   6
ATOM      6  C   UNL     1     171.141 169.373 150.113  1.00  0.00    -0.028 C 
ATOM      7  C   UNL     1     170.994 171.865 150.062  1.00  0.00     0.039 C 
ATOM      8  C   UNL     1     170.890 170.532 150.760  1.00  0.00    -0.080 C 
ATOM      9  C   UNL     1     170.496 170.515 152.214  1.00  0.00     0.039 C 
ENDBRANCH   5   6
ENDBRANCH   4   5
ENDBRANCH   1   4
BRANCH   2  10
ATOM     10  C   UNL     1     168.940 172.053 146.298  1.00  0.00     0.035 C 
BRANCH  10  11
ATOM     11  C   UNL     1     168.675 171.971 144.787  1.00  0.00     0.079 C 
BRANCH  11  12
ATOM     12  C   UNL     1     167.238 171.674 144.419  1.00  0.00     0.130 C 
ATOM     13  O   UNL     1     166.991 171.344 143.269  1.00  0.00    -0.300 OA
ATOM     14  C   UNL     1     166.105 171.759 145.404  1.00  0.00     0.087 C 
ENDBRANCH  11  12
ENDBRANCH  10  11
ENDBRANCH   2  10
TORSDOF 6
ENDMDL
MODEL 6
REMARK VINA RESULT:    -2.975      2.682      6.040
REMARK INTER + INTRA:          -4.790
REMARK INTER:                  -3.747
REMARK INTRA:                  -1.043
REMARK UNBOUND:                -0.772
REMARK SMILES CC(=O)CCC=C(C)CCC=C(C)C
REMARK SMILES IDX 7 1 6 2 8 3 9 4 10 5 11 6 13 7 12 8 14 9 5 10 4 11 2 12 3 13
REMARK SMILES IDX 1 14
REMARK H PARENT
REMARK Flexibility Score: inf
ROOT
ATOM      1  C   UNL     1     152.918 153.495 149.843  1.00  0.00    -0.077 C 
ATOM      2  C   UNL     1     153.090 154.128 151.026  1.00  0.00    -0.028 C 
ATOM      3  C   UNL     1     153.068 151.997 149.711  1.00  0.00     0.039 C 
ENDROOT
BRANCH   1   4
ATOM      4  C   UNL     1     152.577 154.313 148.616  1.00  0.00     0.034 C 
BRANCH   4   5
ATOM      5  C   UNL     1     153.837 154.630 147.803  1.00  0.00     0.032 C 
BRANCH   5   6
ATOM      6  C   UNL     1     153.974 153.704 146.618  1.00  0.00    -0.028 C 
ATOM      7  C   UNL     1     156.001 152.618 147.591  1.00  0.00     0.039 C 
ATOM      8  C   UNL     1     154.957 152.784 146.514  1.00  0.00    -0.080 C 
ATOM      9  C   UNL     1     155.033 151.893 145.302  1.00  0.00     0.039 C 
ENDBRANCH   5   6
ENDBRANCH   4   5
ENDBRANCH   1   4
BRANCH   2  10
ATOM     10  C   UNL     1     153.393 153.434 152.331  1.00  0.00     0.035 C 
BRANCH  10  11
ATOM     11  C   UNL     1     154.723 153.934 152.914  1.00  0.00     0.079 C 
BRANCH  11  12
ATOM     12  C   UNL     1     155.896 153.007 152.682  1.00  0.00     0.130 C 
ATOM     13  O   UNL     1     156.457 152.527 153.656  1.00  0.00    -0.300 OA
ATOM     14  C   UNL     1     156.396 152.645 151.311  1.00  0.00     0.087 C 
ENDBRANCH  11  12
ENDBRANCH  10  11
ENDBRANCH   2  10
TORSDOF 6
ENDMDL
MODEL 7
REMARK VINA RESULT:    -2.934     21.412     23.011
REMARK INTER + INTRA:          -4.735
REMARK INTER:                  -3.290
REMARK INTRA:                  -1.446
REMARK UNBOUND:                -0.772
REMARK SMILES CC(=O)CCC=C(C)CCC=C(C)C
REMARK SMILES IDX 7 1 6 2 8 3 9 4 10 5 11 6 13 7 12 8 14 9 5 10 4 11 2 12 3 13
REMARK SMILES IDX 1 14
REMARK H PARENT
REMARK Flexibility Score: inf
ROOT
ATOM      1  C   UNL     1     166.131 170.321 144.874  1.00  0.00    -0.077 C 
ATOM      2  C   UNL     1     166.569 171.445 145.488  1.00  0.00    -0.028 C 
ATOM      3  C   UNL     1     166.598 168.948 145.297  1.00  0.00     0.039 C 
ENDROOT
BRANCH   1   4
ATOM      4  C   UNL     1     165.155 170.446 143.724  1.00  0.00     0.034 C 
BRANCH   4   5
ATOM      5  C   UNL     1     165.779 171.224 142.560  1.00  0.00     0.032 C 
BRANCH   5   6
ATOM      6  C   UNL     1     166.758 170.371 141.791  1.00  0.00    -0.028 C 
ATOM      7  C   UNL     1     168.680 171.816 142.464  1.00  0.00     0.039 C 
ATOM      8  C   UNL     1     168.082 170.633 141.743  1.00  0.00    -0.080 C 
ATOM      9  C   UNL     1     169.002 169.738 140.954  1.00  0.00     0.039 C 
ENDBRANCH   5   6
ENDBRANCH   4   5
ENDBRANCH   1   4
BRANCH   2  10
ATOM     10  C   UNL     1     167.509 171.464 146.668  1.00  0.00     0.035 C 
BRANCH  10  11
ATOM     11  C   UNL     1     168.942 171.779 146.214  1.00  0.00     0.079 C 
BRANCH  11  12
ATOM     12  C   UNL     1     169.897 170.609 146.304  1.00  0.00     0.130 C 
ATOM     13  O   UNL     1     170.376 170.334 147.394  1.00  0.00    -0.300 OA
ATOM     14  C   UNL     1     170.279 169.769 145.117  1.00  0.00     0.087 C 
ENDBRANCH  11  12
ENDBRANCH  10  11
ENDBRANCH   2  10
TORSDOF 6
ENDMDL
MODEL 8
REMARK VINA RESULT:    -2.918     21.454     23.249
REMARK INTER + INTRA:          -4.713
REMARK INTER:                  -3.207
REMARK INTRA:                  -1.506
REMARK UNBOUND:                -0.772
REMARK SMILES CC(=O)CCC=C(C)CCC=C(C)C
REMARK SMILES IDX 7 1 6 2 8 3 9 4 10 5 11 6 13 7 12 8 14 9 5 10 4 11 2 12 3 13
REMARK SMILES IDX 1 14
REMARK H PARENT
REMARK Flexibility Score: inf
ROOT
ATOM      1  C   UNL     1     169.608 169.797 141.973  1.00  0.00    -0.077 C 
ATOM      2  C   UNL     1     169.122 171.058 141.891  1.00  0.00    -0.028 C 
ATOM      3  C   UNL     1     169.359 168.922 143.179  1.00  0.00     0.039 C 
ENDROOT
BRANCH   1   4
ATOM      4  C   UNL     1     170.435 169.255 140.827  1.00  0.00     0.034 C 
BRANCH   4   5
ATOM      5  C   UNL     1     169.654 169.320 139.510  1.00  0.00     0.032 C 
BRANCH   5   6
ATOM      6  C   UNL     1     168.476 168.376 139.524  1.00  0.00    -0.028 C 
ATOM      7  C   UNL     1     166.872 170.234 139.061  1.00  0.00     0.039 C 
ATOM      8  C   UNL     1     167.204 168.785 139.320  1.00  0.00    -0.080 C 
ATOM      9  C   UNL     1     166.076 167.787 139.348  1.00  0.00     0.039 C 
ENDBRANCH   5   6
ENDBRANCH   4   5
ENDBRANCH   1   4
BRANCH   2  10
ATOM     10  C   UNL     1     168.253 171.708 142.939  1.00  0.00     0.035 C 
BRANCH  10  11
ATOM     11  C   UNL     1     166.855 172.004 142.376  1.00  0.00     0.079 C 
BRANCH  11  12
ATOM     12  C   UNL     1     165.767 171.086 142.889  1.00  0.00     0.130 C 
ATOM     13  O   UNL     1     164.842 171.579 143.517  1.00  0.00    -0.300 OA
ATOM     14  C   UNL     1     165.770 169.601 142.655  1.00  0.00     0.087 C 
ENDBRANCH  11  12
ENDBRANCH  10  11
ENDBRANCH   2  10
TORSDOF 6
ENDMDL
MODEL 9
REMARK VINA RESULT:    -2.860     22.149     23.260
REMARK INTER + INTRA:          -4.635
REMARK INTER:                  -3.122
REMARK INTRA:                  -1.513
REMARK UNBOUND:                -0.772
REMARK SMILES CC(=O)CCC=C(C)CCC=C(C)C
REMARK SMILES IDX 7 1 6 2 8 3 9 4 10 5 11 6 13 7 12 8 14 9 5 10 4 11 2 12 3 13
REMARK SMILES IDX 1 14
REMARK H PARENT
REMARK Flexibility Score: inf
ROOT
ATOM      1  C   UNL     1     171.000 170.120 151.335  1.00  0.00    -0.077 C 
ATOM      2  C   UNL     1     170.898 171.393 150.886  1.00  0.00    -0.028 C 
ATOM      3  C   UNL     1     171.218 168.958 150.395  1.00  0.00     0.039 C 
ENDROOT
BRANCH   1   4
ATOM      4  C   UNL     1     170.881 169.855 152.820  1.00  0.00     0.034 C 
BRANCH   4   5
ATOM      5  C   UNL     1     169.526 170.335 153.355  1.00  0.00     0.032 C 
BRANCH   5   6
ATOM      6  C   UNL     1     168.390 169.531 152.770  1.00  0.00    -0.028 C 
ATOM      7  C   UNL     1     167.359 171.566 151.753  1.00  0.00     0.039 C 
ATOM      8  C   UNL     1     167.398 170.085 152.039  1.00  0.00    -0.080 C 
ATOM      9  C   UNL     1     166.294 169.221 151.487  1.00  0.00     0.039 C 
ENDBRANCH   5   6
ENDBRANCH   4   5
ENDBRANCH   1   4
BRANCH   2  10
ATOM     10  C   UNL     1     171.036 171.803 149.441  1.00  0.00     0.035 C 
BRANCH  10  11
ATOM     11  C   UNL     1     169.662 172.125 148.835  1.00  0.00     0.079 C 
BRANCH  11  12
ATOM     12  C   UNL     1     169.126 171.062 147.901  1.00  0.00     0.130 C 
ATOM     13  O   UNL     1     169.455 171.106 146.725  1.00  0.00    -0.300 OA
ATOM     14  C   UNL     1     168.214 169.956 148.354  1.00  0.00     0.087 C 
ENDBRANCH  11  12
ENDBRANCH  10  11
ENDBRANCH   2  10
TORSDOF 6
ENDMDL
