MODEL 1
REMARK VINA RESULT:    -5.697      0.000      0.000
REMARK INTER + INTRA:          -7.282
REMARK INTER:                  -7.029
REMARK INTRA:                  -0.254
REMARK UNBOUND:                -0.254
REMARK SMILES C=CC(=C)CCC=C(C)C
REMARK SMILES IDX 5 1 6 2 7 3 9 4 8 5 10 6 3 7 4 8 2 9 1 10
REMARK H PARENT
REMARK Flexibility Score: inf
ROOT
ATOM      1  C   UNL     1      18.078  30.111  24.749  1.00  0.00     0.039 C 
ENDROOT
BRANCH   1   2
ATOM      2  C   UNL     1      16.677  29.544  24.472  1.00  0.00     0.032 C 
BRANCH   2   3
ATOM      3  C   UNL     1      15.792  30.549  23.775  1.00  0.00    -0.028 C 
ATOM      4  C   UNL     1      14.039  31.352  22.254  1.00  0.00     0.039 C 
ATOM      5  C   UNL     1      14.884  30.242  22.824  1.00  0.00    -0.080 C 
ATOM      6  C   UNL     1      14.709  28.833  22.307  1.00  0.00     0.039 C 
ENDBRANCH   2   3
ENDBRANCH   1   2
BRANCH   1   7
ATOM      7  C   UNL     1      18.617  29.655  26.091  1.00  0.00    -0.055 C 
ATOM      8  C   UNL     1      19.053  30.572  26.962  1.00  0.00     0.012 C 
BRANCH   7   9
ATOM      9  C   UNL     1      18.718  28.219  26.460  1.00  0.00    -0.005 C 
ATOM     10  C   UNL     1      19.648  27.390  25.983  1.00  0.00     0.009 C 
ENDBRANCH   7   9
ENDBRANCH   1   7
TORSDOF 4
ENDMDL
MODEL 2
REMARK VINA RESULT:    -5.620      1.081      5.350
REMARK INTER + INTRA:          -7.188
REMARK INTER:                  -6.835
REMARK INTRA:                  -0.353
REMARK UNBOUND:                -0.254
REMARK SMILES C=CC(=C)CCC=C(C)C
REMARK SMILES IDX 5 1 6 2 7 3 9 4 8 5 10 6 3 7 4 8 2 9 1 10
REMARK H PARENT
REMARK Flexibility Score: inf
ROOT
ATOM      1  C   UNL     1      17.150  31.343  23.980  1.00  0.00     0.039 C 
ENDROOT
BRANCH   1   2
ATOM      2  C   UNL     1      18.240  30.335  24.376  1.00  0.00     0.032 C 
BRANCH   2   3
ATOM      3  C   UNL     1      18.593  30.437  25.841  1.00  0.00    -0.028 C 
ATOM      4  C   UNL     1      19.352  29.666  28.046  1.00  0.00     0.039 C 
ATOM      5  C   UNL     1      18.985  29.398  26.609  1.00  0.00    -0.080 C 
ATOM      6  C   UNL     1      19.048  27.986  26.077  1.00  0.00     0.039 C 
ENDBRANCH   2   3
ENDBRANCH   1   2
BRANCH   1   7
ATOM      7  C   UNL     1      15.899  30.653  23.471  1.00  0.00    -0.055 C 
ATOM      8  C   UNL     1      15.588  29.440  23.941  1.00  0.00     0.012 C 
BRANCH   7   9
ATOM      9  C   UNL     1      15.024  31.261  22.435  1.00  0.00    -0.005 C 
ATOM     10  C   UNL     1      15.360  32.327  21.707  1.00  0.00     0.009 C 
ENDBRANCH   7   9
ENDBRANCH   1   7
TORSDOF 4
ENDMDL
MODEL 3
REMARK VINA RESULT:    -5.416      0.993      2.062
REMARK INTER + INTRA:          -6.936
REMARK INTER:                  -6.708
REMARK INTRA:                  -0.227
REMARK UNBOUND:                -0.254
REMARK SMILES C=CC(=C)CCC=C(C)C
REMARK SMILES IDX 5 1 6 2 7 3 9 4 8 5 10 6 3 7 4 8 2 9 1 10
REMARK H PARENT
REMARK Flexibility Score: inf
ROOT
ATOM      1  C   UNL     1      17.162  28.994  24.725  1.00  0.00     0.039 C 
ENDROOT
BRANCH   1   2
ATOM      2  C   UNL     1      16.599  30.335  24.229  1.00  0.00     0.032 C 
BRANCH   2   3
ATOM      3  C   UNL     1      15.309  30.154  23.464  1.00  0.00    -0.028 C 
ATOM      4  C   UNL     1      13.612  30.607  21.747  1.00  0.00     0.039 C 
ATOM      5  C   UNL     1      14.904  30.945  22.447  1.00  0.00    -0.080 C 
ATOM      6  C   UNL     1      15.692  32.157  22.010  1.00  0.00     0.039 C 
ENDBRANCH   2   3
ENDBRANCH   1   2
BRANCH   1   7
ATOM      7  C   UNL     1      18.290  29.187  25.719  1.00  0.00    -0.055 C 
ATOM      8  C   UNL     1      18.956  28.115  26.164  1.00  0.00     0.012 C 
BRANCH   7   9
ATOM      9  C   UNL     1      18.661  30.525  26.250  1.00  0.00    -0.005 C 
ATOM     10  C   UNL     1      19.378  30.714  27.358  1.00  0.00     0.009 C 
ENDBRANCH   7   9
ENDBRANCH   1   7
TORSDOF 4
ENDMDL
MODEL 4
REMARK VINA RESULT:    -5.273      1.098      5.536
REMARK INTER + INTRA:          -6.759
REMARK INTER:                  -6.552
REMARK INTRA:                  -0.207
REMARK UNBOUND:                -0.254
REMARK SMILES C=CC(=C)CCC=C(C)C
REMARK SMILES IDX 5 1 6 2 7 3 9 4 8 5 10 6 3 7 4 8 2 9 1 10
REMARK H PARENT
REMARK Flexibility Score: inf
ROOT
ATOM      1  C   UNL     1      15.644  29.893  23.915  1.00  0.00     0.039 C 
ENDROOT
BRANCH   1   2
ATOM      2  C   UNL     1      17.005  30.377  24.437  1.00  0.00     0.032 C 
BRANCH   2   3
ATOM      3  C   UNL     1      17.818  29.245  25.020  1.00  0.00    -0.028 C 
ATOM      4  C   UNL     1      19.355  28.130  26.577  1.00  0.00     0.039 C 
ATOM      5  C   UNL     1      18.648  29.364  26.078  1.00  0.00    -0.080 C 
ATOM      6  C   UNL     1      18.897  30.690  26.757  1.00  0.00     0.039 C 
ENDBRANCH   2   3
ENDBRANCH   1   2
BRANCH   1   7
ATOM      7  C   UNL     1      15.194  30.675  22.696  1.00  0.00    -0.055 C 
ATOM      8  C   UNL     1      15.767  31.855  22.432  1.00  0.00     0.012 C 
BRANCH   7   9
ATOM      9  C   UNL     1      14.106  30.197  21.803  1.00  0.00    -0.005 C 
ATOM     10  C   UNL     1      14.298  29.790  20.548  1.00  0.00     0.009 C 
ENDBRANCH   7   9
ENDBRANCH   1   7
TORSDOF 4
ENDMDL
MODEL 5
REMARK VINA RESULT:    -5.042      7.336      8.921
REMARK INTER + INTRA:          -6.474
REMARK INTER:                  -5.738
REMARK INTRA:                  -0.736
REMARK UNBOUND:                -0.254
REMARK SMILES C=CC(=C)CCC=C(C)C
REMARK SMILES IDX 5 1 6 2 7 3 9 4 8 5 10 6 3 7 4 8 2 9 1 10
REMARK H PARENT
REMARK Flexibility Score: inf
ROOT
ATOM      1  C   UNL     1       9.288  34.379  23.304  1.00  0.00     0.039 C 
ENDROOT
BRANCH   1   2
ATOM      2  C   UNL     1       8.155  33.490  22.769  1.00  0.00     0.032 C 
BRANCH   2   3
ATOM      3  C   UNL     1       7.620  32.561  23.833  1.00  0.00    -0.028 C 
ATOM      4  C   UNL     1       7.014  30.421  24.874  1.00  0.00     0.039 C 
ATOM      5  C   UNL     1       7.525  31.221  23.704  1.00  0.00    -0.080 C 
ATOM      6  C   UNL     1       7.897  30.510  22.423  1.00  0.00     0.039 C 
ENDBRANCH   2   3
ENDBRANCH   1   2
BRANCH   1   7
ATOM      7  C   UNL     1      10.422  33.560  23.890  1.00  0.00    -0.055 C 
ATOM      8  C   UNL     1      11.181  32.821  23.074  1.00  0.00     0.012 C 
BRANCH   7   9
ATOM      9  C   UNL     1      10.697  33.517  25.351  1.00  0.00    -0.005 C 
ATOM     10  C   UNL     1      10.413  32.475  26.132  1.00  0.00     0.009 C 
ENDBRANCH   7   9
ENDBRANCH   1   7
TORSDOF 4
ENDMDL
MODEL 6
REMARK VINA RESULT:    -5.009      6.078      8.385
REMARK INTER + INTRA:          -6.434
REMARK INTER:                  -6.077
REMARK INTRA:                  -0.357
REMARK UNBOUND:                -0.254
REMARK SMILES C=CC(=C)CCC=C(C)C
REMARK SMILES IDX 5 1 6 2 7 3 9 4 8 5 10 6 3 7 4 8 2 9 1 10
REMARK H PARENT
REMARK Flexibility Score: inf
ROOT
ATOM      1  C   UNL     1       9.607  34.262  23.191  1.00  0.00     0.039 C 
ENDROOT
BRANCH   1   2
ATOM      2  C   UNL     1      10.230  33.197  22.276  1.00  0.00     0.032 C 
BRANCH   2   3
ATOM      3  C   UNL     1      11.726  33.102  22.463  1.00  0.00    -0.028 C 
ATOM      4  C   UNL     1      14.098  33.253  21.847  1.00  0.00     0.039 C 
ATOM      5  C   UNL     1      12.636  33.341  21.494  1.00  0.00    -0.080 C 
ATOM      6  C   UNL     1      12.231  33.673  20.077  1.00  0.00     0.039 C 
ENDBRANCH   2   3
ENDBRANCH   1   2
BRANCH   1   7
ATOM      7  C   UNL     1       9.093  33.664  24.487  1.00  0.00    -0.055 C 
ATOM      8  C   UNL     1       7.808  33.302  24.572  1.00  0.00     0.012 C 
BRANCH   7   9
ATOM      9  C   UNL     1       9.959  33.502  25.685  1.00  0.00    -0.005 C 
ATOM     10  C   UNL     1      10.010  32.393  26.422  1.00  0.00     0.009 C 
ENDBRANCH   7   9
ENDBRANCH   1   7
TORSDOF 4
ENDMDL
MODEL 7
REMARK VINA RESULT:    -4.973      7.209      8.919
REMARK INTER + INTRA:          -6.389
REMARK INTER:                  -5.691
REMARK INTRA:                  -0.698
REMARK UNBOUND:                -0.254
REMARK SMILES C=CC(=C)CCC=C(C)C
REMARK SMILES IDX 5 1 6 2 7 3 9 4 8 5 10 6 3 7 4 8 2 9 1 10
REMARK H PARENT
REMARK Flexibility Score: inf
ROOT
ATOM      1  C   UNL     1       9.179  34.088  24.664  1.00  0.00     0.039 C 
ENDROOT
BRANCH   1   2
ATOM      2  C   UNL     1       7.803  33.404  24.666  1.00  0.00     0.032 C 
BRANCH   2   3
ATOM      3  C   UNL     1       7.678  32.393  23.551  1.00  0.00    -0.028 C 
ATOM      4  C   UNL     1       7.217  30.218  22.508  1.00  0.00     0.039 C 
ATOM      5  C   UNL     1       7.351  31.095  23.726  1.00  0.00    -0.080 C 
ATOM      6  C   UNL     1       7.138  30.500  25.098  1.00  0.00     0.039 C 
ENDBRANCH   2   3
ENDBRANCH   1   2
BRANCH   1   7
ATOM      7  C   UNL     1      10.309  33.090  24.821  1.00  0.00    -0.055 C 
ATOM      8  C   UNL     1      10.535  32.546  26.023  1.00  0.00     0.012 C 
BRANCH   7   9
ATOM      9  C   UNL     1      11.204  32.721  23.693  1.00  0.00    -0.005 C 
ATOM     10  C   UNL     1      11.140  33.270  22.480  1.00  0.00     0.009 C 
ENDBRANCH   7   9
ENDBRANCH   1   7
TORSDOF 4
ENDMDL
MODEL 8
REMARK VINA RESULT:    -4.880      6.359      8.603
REMARK INTER + INTRA:          -6.275
REMARK INTER:                  -5.406
REMARK INTRA:                  -0.869
REMARK UNBOUND:                -0.254
REMARK SMILES C=CC(=C)CCC=C(C)C
REMARK SMILES IDX 5 1 6 2 7 3 9 4 8 5 10 6 3 7 4 8 2 9 1 10
REMARK H PARENT
REMARK Flexibility Score: inf
ROOT
ATOM      1  C   UNL     1       9.317  34.591  24.123  1.00  0.00     0.039 C 
ENDROOT
BRANCH   1   2
ATOM      2  C   UNL     1       9.604  34.266  22.649  1.00  0.00     0.032 C 
BRANCH   2   3
ATOM      3  C   UNL     1      10.898  33.505  22.485  1.00  0.00    -0.028 C 
ATOM      4  C   UNL     1      12.351  31.597  21.954  1.00  0.00     0.039 C 
ATOM      5  C   UNL     1      10.983  32.206  22.125  1.00  0.00    -0.080 C 
ATOM      6  C   UNL     1       9.756  31.351  21.910  1.00  0.00     0.039 C 
ENDBRANCH   2   3
ENDBRANCH   1   2
BRANCH   1   7
ATOM      7  C   UNL     1       8.657  33.430  24.841  1.00  0.00    -0.055 C 
ATOM      8  C   UNL     1       7.378  33.143  24.575  1.00  0.00     0.012 C 
BRANCH   7   9
ATOM      9  C   UNL     1       9.370  32.621  25.864  1.00  0.00    -0.005 C 
ATOM     10  C   UNL     1      10.682  32.697  26.093  1.00  0.00     0.009 C 
ENDBRANCH   7   9
ENDBRANCH   1   7
TORSDOF 4
ENDMDL
MODEL 9
REMARK VINA RESULT:    -4.780      7.087      9.161
REMARK INTER + INTRA:          -6.151
REMARK INTER:                  -5.602
REMARK INTRA:                  -0.549
REMARK UNBOUND:                -0.254
REMARK SMILES C=CC(=C)CCC=C(C)C
REMARK SMILES IDX 5 1 6 2 7 3 9 4 8 5 10 6 3 7 4 8 2 9 1 10
REMARK H PARENT
REMARK Flexibility Score: inf
ROOT
ATOM      1  C   UNL     1       7.959  33.492  24.469  1.00  0.00     0.039 C 
ENDROOT
BRANCH   1   2
ATOM      2  C   UNL     1       9.215  34.305  24.120  1.00  0.00     0.032 C 
BRANCH   2   3
ATOM      3  C   UNL     1       9.548  34.221  22.649  1.00  0.00    -0.028 C 
ATOM      4  C   UNL     1      10.720  33.451  20.633  1.00  0.00     0.039 C 
ATOM      5  C   UNL     1      10.541  33.469  22.129  1.00  0.00    -0.080 C 
ATOM      6  C   UNL     1      11.481  32.668  23.000  1.00  0.00     0.039 C 
ENDBRANCH   2   3
ENDBRANCH   1   2
BRANCH   1   7
ATOM      7  C   UNL     1       8.286  32.286  25.328  1.00  0.00    -0.055 C 
ATOM      8  C   UNL     1       9.399  32.297  26.070  1.00  0.00     0.012 C 
BRANCH   7   9
ATOM      9  C   UNL     1       7.432  31.069  25.346  1.00  0.00    -0.005 C 
ATOM     10  C   UNL     1       7.017  30.434  24.249  1.00  0.00     0.009 C 
ENDBRANCH   7   9
ENDBRANCH   1   7
TORSDOF 4
ENDMDL
