MODEL 1
REMARK VINA RESULT:    -4.879      0.000      0.000
REMARK INTER + INTRA:          -6.292
REMARK INTER:                  -5.735
REMARK INTRA:                  -0.558
REMARK UNBOUND:                -0.558
REMARK SMILES CCCC[C@@H]1OC(=O)C2=C1CCC=C2
REMARK SMILES IDX 3 1 2 2 1 3 4 4 5 5 10 6 6 7 9 8 11 9 7 10 14 11 12 12 8 13
REMARK SMILES IDX 13 14
REMARK H PARENT
REMARK Flexibility Score: inf
ROOT
ATOM      1  C   UNL     1     -40.110  70.927  -9.834  1.00  0.00     0.004 C 
ENDROOT
BRANCH   1   2
ATOM      2  C   UNL     1     -39.178  70.674 -11.025  1.00  0.00    -0.003 C 
ATOM      3  C   UNL     1     -37.755  71.131 -10.718  1.00  0.00     0.004 C 
ENDBRANCH   1   2
BRANCH   1   4
ATOM      4  C   UNL     1     -39.519  71.981  -8.889  1.00  0.00     0.050 C 
BRANCH   4   5
ATOM      5  C   UNL     1     -40.262  73.319  -9.013  1.00  0.00     0.204 C 
ATOM      6  C   UNL     1     -39.701  74.160 -10.136  1.00  0.00    -0.015 C 
ATOM      7  O   UNL     1     -41.619  73.109  -9.412  1.00  0.00    -0.454 OA
ATOM      8  C   UNL     1     -40.637  74.422 -11.034  1.00  0.00     0.062 C 
ATOM      9  C   UNL     1     -38.382  74.884 -10.151  1.00  0.00     0.040 C 
ATOM     10  C   UNL     1     -41.847  73.768 -10.609  1.00  0.00     0.338 C 
ATOM     11  C   UNL     1     -40.421  75.333 -12.164  1.00  0.00     0.011 C 
ATOM     12  C   UNL     1     -38.001  75.308 -11.589  1.00  0.00     0.032 C 
ATOM     13  O   UNL     1     -42.953  73.791 -11.207  1.00  0.00    -0.246 OA
ATOM     14  C   UNL     1     -39.189  75.810 -12.386  1.00  0.00    -0.026 C 
ENDBRANCH   4   5
ENDBRANCH   1   4
TORSDOF 3
ENDMDL
MODEL 2
REMARK VINA RESULT:    -4.794      2.228      3.176
REMARK INTER + INTRA:          -6.192
REMARK INTER:                  -5.729
REMARK INTRA:                  -0.463
REMARK UNBOUND:                -0.558
REMARK SMILES CCCC[C@@H]1OC(=O)C2=C1CCC=C2
REMARK SMILES IDX 3 1 2 2 1 3 4 4 5 5 10 6 6 7 9 8 11 9 7 10 14 11 12 12 8 13
REMARK SMILES IDX 13 14
REMARK H PARENT
REMARK Flexibility Score: inf
ROOT
ATOM      1  C   UNL     1     -38.893  71.545  -8.910  1.00  0.00     0.004 C 
ENDROOT
BRANCH   1   2
ATOM      2  C   UNL     1     -39.537  70.742 -10.046  1.00  0.00    -0.003 C 
ATOM      3  C   UNL     1     -41.057  70.870 -10.018  1.00  0.00     0.004 C 
ENDBRANCH   1   2
BRANCH   1   4
ATOM      4  C   UNL     1     -39.173  73.045  -9.071  1.00  0.00     0.050 C 
BRANCH   4   5
ATOM      5  C   UNL     1     -38.532  73.597 -10.352  1.00  0.00     0.204 C 
ATOM      6  C   UNL     1     -39.490  74.488 -11.108  1.00  0.00    -0.015 C 
ATOM      7  O   UNL     1     -37.450  74.478 -10.036  1.00  0.00    -0.454 OA
ATOM      8  C   UNL     1     -38.990  75.707 -11.235  1.00  0.00     0.062 C 
ATOM      9  C   UNL     1     -40.699  74.056 -11.892  1.00  0.00     0.040 C 
ATOM     10  C   UNL     1     -37.716  75.730 -10.565  1.00  0.00     0.338 C 
ATOM     11  C   UNL     1     -39.633  76.750 -12.042  1.00  0.00     0.011 C 
ATOM     12  C   UNL     1     -41.620  75.261 -12.194  1.00  0.00     0.032 C 
ATOM     13  O   UNL     1     -36.942  76.718 -10.475  1.00  0.00    -0.246 OA
ATOM     14  C   UNL     1     -40.848  76.514 -12.557  1.00  0.00    -0.026 C 
ENDBRANCH   4   5
ENDBRANCH   1   4
TORSDOF 3
ENDMDL
MODEL 3
REMARK VINA RESULT:    -4.778      2.206      4.571
REMARK INTER + INTRA:          -6.174
REMARK INTER:                  -5.581
REMARK INTRA:                  -0.593
REMARK UNBOUND:                -0.558
REMARK SMILES CCCC[C@@H]1OC(=O)C2=C1CCC=C2
REMARK SMILES IDX 3 1 2 2 1 3 4 4 5 5 10 6 6 7 9 8 11 9 7 10 14 11 12 12 8 13
REMARK SMILES IDX 13 14
REMARK H PARENT
REMARK Flexibility Score: inf
ROOT
ATOM      1  C   UNL     1     -39.355  75.089 -11.367  1.00  0.00     0.004 C 
ENDROOT
BRANCH   1   2
ATOM      2  C   UNL     1     -40.680  75.815 -11.627  1.00  0.00    -0.003 C 
ATOM      3  C   UNL     1     -41.762  74.842 -12.084  1.00  0.00     0.004 C 
ENDBRANCH   1   2
BRANCH   1   4
ATOM      4  C   UNL     1     -38.851  75.360  -9.944  1.00  0.00     0.050 C 
BRANCH   4   5
ATOM      5  C   UNL     1     -38.553  74.051  -9.200  1.00  0.00     0.204 C 
ATOM      6  C   UNL     1     -39.635  73.023  -9.438  1.00  0.00    -0.015 C 
ATOM      7  O   UNL     1     -37.385  73.420  -9.732  1.00  0.00    -0.454 OA
ATOM      8  C   UNL     1     -39.130  71.936  -9.998  1.00  0.00     0.062 C 
ATOM      9  C   UNL     1     -41.031  73.032  -8.875  1.00  0.00     0.040 C 
ATOM     10  C   UNL     1     -37.722  72.162 -10.201  1.00  0.00     0.338 C 
ATOM     11  C   UNL     1     -39.915  70.716 -10.219  1.00  0.00     0.011 C 
ATOM     12  C   UNL     1     -41.940  72.040  -9.637  1.00  0.00     0.032 C 
ATOM     13  O   UNL     1     -36.906  71.351 -10.709  1.00  0.00    -0.246 OA
ATOM     14  C   UNL     1     -41.233  70.743  -9.980  1.00  0.00    -0.026 C 
ENDBRANCH   4   5
ENDBRANCH   1   4
TORSDOF 3
ENDMDL
MODEL 4
REMARK VINA RESULT:    -4.777      2.224      4.484
REMARK INTER + INTRA:          -6.172
REMARK INTER:                  -5.627
REMARK INTRA:                  -0.546
REMARK UNBOUND:                -0.558
REMARK SMILES CCCC[C@@H]1OC(=O)C2=C1CCC=C2
REMARK SMILES IDX 3 1 2 2 1 3 4 4 5 5 10 6 6 7 9 8 11 9 7 10 14 11 12 12 8 13
REMARK SMILES IDX 13 14
REMARK H PARENT
REMARK Flexibility Score: inf
ROOT
ATOM      1  C   UNL     1     -43.315  74.573 -11.850  1.00  0.00     0.004 C 
ENDROOT
BRANCH   1   2
ATOM      2  C   UNL     1     -44.002  73.388 -12.538  1.00  0.00    -0.003 C 
ATOM      3  C   UNL     1     -43.003  72.561 -13.340  1.00  0.00     0.004 C 
ENDBRANCH   1   2
BRANCH   1   4
ATOM      4  C   UNL     1     -41.816  74.603 -12.177  1.00  0.00     0.050 C 
BRANCH   4   5
ATOM      5  C   UNL     1     -40.966  74.604 -10.900  1.00  0.00     0.204 C 
ATOM      6  C   UNL     1     -40.496  73.212 -10.548  1.00  0.00    -0.015 C 
ATOM      7  O   UNL     1     -39.743  75.316 -11.107  1.00  0.00    -0.454 OA
ATOM      8  C   UNL     1     -39.174  73.159 -10.523  1.00  0.00     0.062 C 
ATOM      9  C   UNL     1     -41.331  72.088  -9.998  1.00  0.00     0.040 C 
ATOM     10  C   UNL     1     -38.677  74.463 -10.877  1.00  0.00     0.338 C 
ATOM     11  C   UNL     1     -38.434  71.973 -10.076  1.00  0.00     0.011 C 
ATOM     12  C   UNL     1     -40.591  70.736 -10.127  1.00  0.00     0.032 C 
ATOM     13  O   UNL     1     -37.468  74.800 -10.957  1.00  0.00    -0.246 OA
ATOM     14  C   UNL     1     -39.111  70.846  -9.819  1.00  0.00    -0.026 C 
ENDBRANCH   4   5
ENDBRANCH   1   4
TORSDOF 3
ENDMDL
MODEL 5
REMARK VINA RESULT:    -4.716      1.605      4.085
REMARK INTER + INTRA:          -6.101
REMARK INTER:                  -5.801
REMARK INTRA:                  -0.299
REMARK UNBOUND:                -0.558
REMARK SMILES CCCC[C@@H]1OC(=O)C2=C1CCC=C2
REMARK SMILES IDX 3 1 2 2 1 3 4 4 5 5 10 6 6 7 9 8 11 9 7 10 14 11 12 12 8 13
REMARK SMILES IDX 13 14
REMARK H PARENT
REMARK Flexibility Score: inf
ROOT
ATOM      1  C   UNL     1     -38.481  77.074  -9.692  1.00  0.00     0.004 C 
ENDROOT
BRANCH   1   2
ATOM      2  C   UNL     1     -37.498  77.122 -10.868  1.00  0.00    -0.003 C 
ATOM      3  C   UNL     1     -36.058  76.969 -10.388  1.00  0.00     0.004 C 
ENDBRANCH   1   2
BRANCH   1   4
ATOM      4  C   UNL     1     -38.849  75.626  -9.343  1.00  0.00     0.050 C 
BRANCH   4   5
ATOM      5  C   UNL     1     -39.279  74.844 -10.591  1.00  0.00     0.204 C 
ATOM      6  C   UNL     1     -39.410  73.367 -10.300  1.00  0.00    -0.015 C 
ATOM      7  O   UNL     1     -40.603  75.213 -10.989  1.00  0.00    -0.454 OA
ATOM      8  C   UNL     1     -40.643  72.951 -10.540  1.00  0.00     0.062 C 
ATOM      9  C   UNL     1     -38.290  72.390 -10.066  1.00  0.00     0.040 C 
ATOM     10  C   UNL     1     -41.413  74.091 -10.966  1.00  0.00     0.338 C 
ATOM     11  C   UNL     1     -41.032  71.538 -10.480  1.00  0.00     0.011 C 
ATOM     12  C   UNL     1     -38.822  71.082  -9.434  1.00  0.00     0.032 C 
ATOM     13  O   UNL     1     -42.630  74.086 -11.286  1.00  0.00    -0.246 OA
ATOM     14  C   UNL     1     -40.147  70.641 -10.024  1.00  0.00    -0.026 C 
ENDBRANCH   4   5
ENDBRANCH   1   4
TORSDOF 3
ENDMDL
MODEL 6
REMARK VINA RESULT:    -4.620     15.508     17.039
REMARK INTER + INTRA:          -5.988
REMARK INTER:                  -5.517
REMARK INTRA:                  -0.471
REMARK UNBOUND:                -0.558
REMARK SMILES CCCC[C@@H]1OC(=O)C2=C1CCC=C2
REMARK SMILES IDX 3 1 2 2 1 3 4 4 5 5 10 6 6 7 9 8 11 9 7 10 14 11 12 12 8 13
REMARK SMILES IDX 13 14
REMARK H PARENT
REMARK Flexibility Score: inf
ROOT
ATOM      1  C   UNL     1     -39.634  75.513 -27.550  1.00  0.00     0.004 C 
ENDROOT
BRANCH   1   2
ATOM      2  C   UNL     1     -40.547  75.801 -26.353  1.00  0.00    -0.003 C 
ATOM      3  C   UNL     1     -39.734  76.022 -25.081  1.00  0.00     0.004 C 
ENDBRANCH   1   2
BRANCH   1   4
ATOM      4  C   UNL     1     -38.499  74.558 -27.158  1.00  0.00     0.050 C 
BRANCH   4   5
ATOM      5  C   UNL     1     -37.180  74.953 -27.834  1.00  0.00     0.204 C 
ATOM      6  C   UNL     1     -36.224  75.587 -26.851  1.00  0.00    -0.015 C 
ATOM      7  O   UNL     1     -36.469  73.791 -28.273  1.00  0.00    -0.454 OA
ATOM      8  C   UNL     1     -35.101  74.891 -26.777  1.00  0.00     0.062 C 
ATOM      9  C   UNL     1     -36.330  76.961 -26.245  1.00  0.00     0.040 C 
ATOM     10  C   UNL     1     -35.232  73.755 -27.652  1.00  0.00     0.338 C 
ATOM     11  C   UNL     1     -33.935  75.342 -26.009  1.00  0.00     0.011 C 
ATOM     12  C   UNL     1     -35.394  77.098 -25.022  1.00  0.00     0.032 C 
ATOM     13  O   UNL     1     -34.364  72.866 -27.848  1.00  0.00    -0.246 OA
ATOM     14  C   UNL     1     -34.050  76.428 -25.233  1.00  0.00    -0.026 C 
ENDBRANCH   4   5
ENDBRANCH   1   4
TORSDOF 3
ENDMDL
MODEL 7
REMARK VINA RESULT:    -4.464     15.812     16.988
REMARK INTER + INTRA:          -5.805
REMARK INTER:                  -5.335
REMARK INTRA:                  -0.469
REMARK UNBOUND:                -0.558
REMARK SMILES CCCC[C@@H]1OC(=O)C2=C1CCC=C2
REMARK SMILES IDX 3 1 2 2 1 3 4 4 5 5 10 6 6 7 9 8 11 9 7 10 14 11 12 12 8 13
REMARK SMILES IDX 13 14
REMARK H PARENT
REMARK Flexibility Score: inf
ROOT
ATOM      1  C   UNL     1     -39.414  77.105 -26.557  1.00  0.00     0.004 C 
ENDROOT
BRANCH   1   2
ATOM      2  C   UNL     1     -39.930  75.739 -26.092  1.00  0.00    -0.003 C 
ATOM      3  C   UNL     1     -40.479  74.930 -27.263  1.00  0.00     0.004 C 
ENDBRANCH   1   2
BRANCH   1   4
ATOM      4  C   UNL     1     -37.911  77.050 -26.860  1.00  0.00     0.050 C 
BRANCH   4   5
ATOM      5  C   UNL     1     -37.192  76.059 -25.936  1.00  0.00     0.204 C 
ATOM      6  C   UNL     1     -36.388  75.052 -26.725  1.00  0.00    -0.015 C 
ATOM      7  O   UNL     1     -36.197  76.726 -25.154  1.00  0.00    -0.454 OA
ATOM      8  C   UNL     1     -35.107  75.119 -26.398  1.00  0.00     0.062 C 
ATOM      9  C   UNL     1     -36.924  73.909 -27.544  1.00  0.00     0.040 C 
ATOM     10  C   UNL     1     -34.959  76.167 -25.421  1.00  0.00     0.338 C 
ATOM     11  C   UNL     1     -34.107  74.169 -26.899  1.00  0.00     0.011 C 
ATOM     12  C   UNL     1     -35.836  73.350 -28.489  1.00  0.00     0.032 C 
ATOM     13  O   UNL     1     -33.885  76.523 -24.872  1.00  0.00    -0.246 OA
ATOM     14  C   UNL     1     -34.469  73.283 -27.837  1.00  0.00    -0.026 C 
ENDBRANCH   4   5
ENDBRANCH   1   4
TORSDOF 3
ENDMDL
MODEL 8
REMARK VINA RESULT:    -4.339      2.441      4.118
REMARK INTER + INTRA:          -5.658
REMARK INTER:                  -5.466
REMARK INTRA:                  -0.191
REMARK UNBOUND:                -0.558
REMARK SMILES CCCC[C@@H]1OC(=O)C2=C1CCC=C2
REMARK SMILES IDX 3 1 2 2 1 3 4 4 5 5 10 6 6 7 9 8 11 9 7 10 14 11 12 12 8 13
REMARK SMILES IDX 13 14
REMARK H PARENT
REMARK Flexibility Score: inf
ROOT
ATOM      1  C   UNL     1     -43.651  72.692 -12.657  1.00  0.00     0.004 C 
ENDROOT
BRANCH   1   2
ATOM      2  C   UNL     1     -43.738  73.173 -14.109  1.00  0.00    -0.003 C 
ATOM      3  C   UNL     1     -43.779  71.996 -15.078  1.00  0.00     0.004 C 
ENDBRANCH   1   2
BRANCH   1   4
ATOM      4  C   UNL     1     -42.192  72.639 -12.183  1.00  0.00     0.050 C 
BRANCH   4   5
ATOM      5  C   UNL     1     -41.941  73.634 -11.042  1.00  0.00     0.204 C 
ATOM      6  C   UNL     1     -40.688  73.286 -10.272  1.00  0.00    -0.015 C 
ATOM      7  O   UNL     1     -41.651  74.936 -11.561  1.00  0.00    -0.454 OA
ATOM      8  C   UNL     1     -39.819  74.283 -10.320  1.00  0.00     0.062 C 
ATOM      9  C   UNL     1     -40.503  72.137  -9.318  1.00  0.00     0.040 C 
ATOM     10  C   UNL     1     -40.395  75.327 -11.128  1.00  0.00     0.338 C 
ATOM     11  C   UNL     1     -38.571  74.288  -9.549  1.00  0.00     0.011 C 
ATOM     12  C   UNL     1     -39.003  71.894  -9.031  1.00  0.00     0.032 C 
ATOM     13  O   UNL     1     -39.863  76.434 -11.399  1.00  0.00    -0.246 OA
ATOM     14  C   UNL     1     -38.218  73.182  -8.880  1.00  0.00    -0.026 C 
ENDBRANCH   4   5
ENDBRANCH   1   4
TORSDOF 3
ENDMDL
MODEL 9
REMARK VINA RESULT:    -4.313      2.002      4.200
REMARK INTER + INTRA:          -5.627
REMARK INTER:                  -5.156
REMARK INTRA:                  -0.471
REMARK UNBOUND:                -0.558
REMARK SMILES CCCC[C@@H]1OC(=O)C2=C1CCC=C2
REMARK SMILES IDX 3 1 2 2 1 3 4 4 5 5 10 6 6 7 9 8 11 9 7 10 14 11 12 12 8 13
REMARK SMILES IDX 13 14
REMARK H PARENT
REMARK Flexibility Score: inf
ROOT
ATOM      1  C   UNL     1     -37.220  75.958 -10.385  1.00  0.00     0.004 C 
ENDROOT
BRANCH   1   2
ATOM      2  C   UNL     1     -37.852  77.122 -11.157  1.00  0.00    -0.003 C 
ATOM      3  C   UNL     1     -38.177  76.718 -12.592  1.00  0.00     0.004 C 
ENDBRANCH   1   2
BRANCH   1   4
ATOM      4  C   UNL     1     -37.739  74.610 -10.902  1.00  0.00     0.050 C 
BRANCH   4   5
ATOM      5  C   UNL     1     -38.763  74.000  -9.936  1.00  0.00     0.204 C 
ATOM      6  C   UNL     1     -40.072  73.709 -10.632  1.00  0.00    -0.015 C 
ATOM      7  O   UNL     1     -38.336  72.707  -9.496  1.00  0.00    -0.454 OA
ATOM      8  C   UNL     1     -40.363  72.420 -10.558  1.00  0.00     0.062 C 
ATOM      9  C   UNL     1     -41.095  74.713 -11.091  1.00  0.00     0.040 C 
ATOM     10  C   UNL     1     -39.287  71.768  -9.858  1.00  0.00     0.338 C 
ATOM     11  C   UNL     1     -41.640  71.864 -11.022  1.00  0.00     0.011 C 
ATOM     12  C   UNL     1     -42.095  74.069 -12.079  1.00  0.00     0.032 C 
ATOM     13  O   UNL     1     -39.210  70.541  -9.592  1.00  0.00    -0.246 OA
ATOM     14  C   UNL     1     -42.492  72.662 -11.680  1.00  0.00    -0.026 C 
ENDBRANCH   4   5
ENDBRANCH   1   4
TORSDOF 3
ENDMDL
