MODEL 1
REMARK VINA RESULT:    14.975      0.000      0.000
REMARK INTER + INTRA:          17.320
REMARK INTER:                  17.601
REMARK INTRA:                  -0.282
REMARK UNBOUND:                -0.282
REMARK SMILES O=c1cc(-c2ccc(O)c(O)c2)oc2cc(O)cc(O)c12
REMARK SMILES IDX 4 1 3 2 2 3 1 4 21 5 19 6 18 7 16 8 15 9 14 10 13 11 5 12
REMARK SMILES IDX 6 13 7 14 8 15 12 16 10 17 9 18 11 20 20 22 17 24
REMARK H PARENT 9 19 11 21 20 23 17 25
REMARK Flexibility Score: inf
ROOT
ATOM      1  C   UNL     1      24.154  31.762   1.163  1.00  0.00     0.138 A 
ATOM      2  C   UNL     1      25.222  32.311   0.439  1.00  0.00     0.100 A 
ATOM      3  C   UNL     1      26.475  31.699   0.486  1.00  0.00     0.197 A 
ATOM      4  O   UNL     1      27.428  32.250  -0.123  1.00  0.00    -0.289 OA
ATOM      5  C   UNL     1      26.650  30.512   1.236  1.00  0.00     0.107 A 
ATOM      6  C   UNL     1      27.871  29.780   1.324  1.00  0.00     0.134 A 
ATOM      7  C   UNL     1      27.958  28.683   2.191  1.00  0.00     0.093 A 
ATOM      8  C   UNL     1      26.849  28.258   2.928  1.00  0.00     0.123 A 
ATOM      9  C   UNL     1      25.638  28.934   2.808  1.00  0.00     0.094 A 
ATOM     10  C   UNL     1      25.529  30.052   1.978  1.00  0.00     0.146 A 
ATOM     11  O   UNL     1      24.359  30.678   1.904  1.00  0.00    -0.456 OA
ENDROOT
BRANCH   1  12
ATOM     12  C   UNL     1      22.800  32.372   1.148  1.00  0.00     0.021 A 
ATOM     13  C   UNL     1      22.149  32.579  -0.080  1.00  0.00     0.016 A 
ATOM     14  C   UNL     1      20.878  33.158  -0.122  1.00  0.00     0.051 A 
ATOM     15  C   UNL     1      20.241  33.550   1.059  1.00  0.00     0.157 A 
ATOM     16  C   UNL     1      22.160  32.781   2.333  1.00  0.00     0.062 A 
ATOM     17  C   UNL     1      20.885  33.365   2.292  1.00  0.00     0.158 A 
BRANCH  15  18
ATOM     18  O   UNL     1      18.972  34.125   0.986  1.00  0.00    -0.504 OA
ATOM     19  H   UNL     1      18.479  34.229   0.108  1.00  0.00     0.293 HD
ENDBRANCH  15  18
BRANCH  17  20
ATOM     20  O   UNL     1      20.259  33.765   3.472  1.00  0.00    -0.504 OA
ATOM     21  H   UNL     1      19.978  33.094   4.178  1.00  0.00     0.293 HD
ENDBRANCH  17  20
ENDBRANCH   1  12
BRANCH   6  22
ATOM     22  O   UNL     1      29.011  30.069   0.569  1.00  0.00    -0.507 OA
ATOM     23  H   UNL     1      29.824  30.555   0.915  1.00  0.00     0.293 HD
ENDBRANCH   6  22
BRANCH   8  24
ATOM     24  O   UNL     1      26.941  27.157   3.777  1.00  0.00    -0.508 OA
ATOM     25  H   UNL     1      27.549  27.161   4.588  1.00  0.00     0.293 HD
ENDBRANCH   8  24
TORSDOF 5
ENDMDL
MODEL 2
REMARK VINA RESULT:    16.810      2.758      6.715
REMARK INTER + INTRA:          19.477
REMARK INTER:                  19.747
REMARK INTRA:                  -0.271
REMARK UNBOUND:                -0.282
REMARK SMILES O=c1cc(-c2ccc(O)c(O)c2)oc2cc(O)cc(O)c12
REMARK SMILES IDX 4 1 3 2 2 3 1 4 21 5 19 6 18 7 16 8 15 9 14 10 13 11 5 12
REMARK SMILES IDX 6 13 7 14 8 15 12 16 10 17 9 18 11 20 20 22 17 24
REMARK H PARENT 9 19 11 21 20 23 17 25
REMARK Flexibility Score: inf
ROOT
ATOM      1  C   UNL     1      27.045  29.231   0.851  1.00  0.00     0.138 A 
ATOM      2  C   UNL     1      28.311  29.782   0.610  1.00  0.00     0.100 A 
ATOM      3  C   UNL     1      28.427  31.138   0.301  1.00  0.00     0.197 A 
ATOM      4  O   UNL     1      29.569  31.589   0.029  1.00  0.00    -0.289 OA
ATOM      5  C   UNL     1      27.270  31.952   0.265  1.00  0.00     0.107 A 
ATOM      6  C   UNL     1      27.272  33.354   0.001  1.00  0.00     0.134 A 
ATOM      7  C   UNL     1      26.054  34.034  -0.125  1.00  0.00     0.093 A 
ATOM      8  C   UNL     1      24.837  33.374   0.064  1.00  0.00     0.123 A 
ATOM      9  C   UNL     1      24.827  32.016   0.375  1.00  0.00     0.094 A 
ATOM     10  C   UNL     1      26.024  31.303   0.473  1.00  0.00     0.146 A 
ATOM     11  O   UNL     1      25.969  30.005   0.756  1.00  0.00    -0.456 OA
ENDROOT
BRANCH   1  12
ATOM     12  C   UNL     1      26.865  27.795   1.184  1.00  0.00     0.021 A 
ATOM     13  C   UNL     1      27.012  26.828   0.176  1.00  0.00     0.016 A 
ATOM     14  C   UNL     1      26.841  25.471   0.461  1.00  0.00     0.051 A 
ATOM     15  C   UNL     1      26.509  25.058   1.754  1.00  0.00     0.157 A 
ATOM     16  C   UNL     1      26.516  27.375   2.482  1.00  0.00     0.062 A 
ATOM     17  C   UNL     1      26.341  26.013   2.770  1.00  0.00     0.158 A 
BRANCH  15  18
ATOM     18  O   UNL     1      26.344  23.696   2.010  1.00  0.00    -0.504 OA
ATOM     19  H   UNL     1      26.546  23.291   2.915  1.00  0.00     0.293 HD
ENDBRANCH  15  18
BRANCH  17  20
ATOM     20  O   UNL     1      25.999  25.607   4.059  1.00  0.00    -0.504 OA
ATOM     21  H   UNL     1      25.099  25.188   4.262  1.00  0.00     0.293 HD
ENDBRANCH  17  20
ENDBRANCH   1  12
BRANCH   6  22
ATOM     22  O   UNL     1      28.432  34.125  -0.120  1.00  0.00    -0.507 OA
ATOM     23  H   UNL     1      28.690  34.653  -0.940  1.00  0.00     0.293 HD
ENDBRANCH   6  22
BRANCH   8  24
ATOM     24  O   UNL     1      23.631  34.062  -0.048  1.00  0.00    -0.508 OA
ATOM     25  H   UNL     1      22.746  33.573  -0.135  1.00  0.00     0.293 HD
ENDBRANCH   8  24
TORSDOF 5
ENDMDL
MODEL 3
REMARK VINA RESULT:    17.049      2.204      3.177
REMARK INTER + INTRA:          19.757
REMARK INTER:                  20.027
REMARK INTRA:                  -0.270
REMARK UNBOUND:                -0.282
REMARK SMILES O=c1cc(-c2ccc(O)c(O)c2)oc2cc(O)cc(O)c12
REMARK SMILES IDX 4 1 3 2 2 3 1 4 21 5 19 6 18 7 16 8 15 9 14 10 13 11 5 12
REMARK SMILES IDX 6 13 7 14 8 15 12 16 10 17 9 18 11 20 20 22 17 24
REMARK H PARENT 9 19 11 21 20 23 17 25
REMARK Flexibility Score: inf
ROOT
ATOM      1  C   UNL     1      26.212  30.329   1.309  1.00  0.00     0.138 A 
ATOM      2  C   UNL     1      26.377  29.221   0.467  1.00  0.00     0.100 A 
ATOM      3  C   UNL     1      27.438  28.341   0.684  1.00  0.00     0.197 A 
ATOM      4  O   UNL     1      27.596  27.390  -0.125  1.00  0.00    -0.289 OA
ATOM      5  C   UNL     1      28.319  28.556   1.770  1.00  0.00     0.107 A 
ATOM      6  C   UNL     1      29.410  27.704   2.112  1.00  0.00     0.134 A 
ATOM      7  C   UNL     1      30.286  28.081   3.138  1.00  0.00     0.093 A 
ATOM      8  C   UNL     1      30.073  29.250   3.873  1.00  0.00     0.123 A 
ATOM      9  C   UNL     1      28.980  30.062   3.582  1.00  0.00     0.094 A 
ATOM     10  C   UNL     1      28.108  29.731   2.542  1.00  0.00     0.146 A 
ATOM     11  O   UNL     1      27.086  30.540   2.287  1.00  0.00    -0.456 OA
ENDROOT
BRANCH   1  12
ATOM     12  C   UNL     1      25.100  31.297   1.123  1.00  0.00     0.021 A 
ATOM     13  C   UNL     1      25.159  32.222   0.067  1.00  0.00     0.016 A 
ATOM     14  C   UNL     1      24.130  33.148  -0.125  1.00  0.00     0.051 A 
ATOM     15  C   UNL     1      23.031  33.172   0.738  1.00  0.00     0.157 A 
ATOM     16  C   UNL     1      23.998  31.334   1.998  1.00  0.00     0.062 A 
ATOM     17  C   UNL     1      22.965  32.265   1.807  1.00  0.00     0.158 A 
BRANCH  15  18
ATOM     18  O   UNL     1      22.019  34.107   0.521  1.00  0.00    -0.504 OA
ATOM     19  H   UNL     1      21.362  34.020  -0.244  1.00  0.00     0.293 HD
ENDBRANCH  15  18
BRANCH  17  20
ATOM     20  O   UNL     1      21.877  32.292   2.678  1.00  0.00    -0.504 OA
ATOM     21  H   UNL     1      21.300  31.473   2.833  1.00  0.00     0.293 HD
ENDBRANCH  17  20
ENDBRANCH   1  12
BRANCH   6  22
ATOM     22  O   UNL     1      29.663  26.473   1.499  1.00  0.00    -0.507 OA
ATOM     23  H   UNL     1      30.405  25.842   1.757  1.00  0.00     0.293 HD
ENDBRANCH   6  22
BRANCH   8  24
ATOM     24  O   UNL     1      30.942  29.610   4.902  1.00  0.00    -0.508 OA
ATOM     25  H   UNL     1      30.967  30.554   5.270  1.00  0.00     0.293 HD
ENDBRANCH   8  24
TORSDOF 5
ENDMDL
MODEL 4
REMARK VINA RESULT:    17.462      1.860      2.698
REMARK INTER + INTRA:          20.243
REMARK INTER:                  20.523
REMARK INTRA:                  -0.279
REMARK UNBOUND:                -0.282
REMARK SMILES O=c1cc(-c2ccc(O)c(O)c2)oc2cc(O)cc(O)c12
REMARK SMILES IDX 4 1 3 2 2 3 1 4 21 5 19 6 18 7 16 8 15 9 14 10 13 11 5 12
REMARK SMILES IDX 6 13 7 14 8 15 12 16 10 17 9 18 11 20 20 22 17 24
REMARK H PARENT 9 19 11 21 20 23 17 25
REMARK Flexibility Score: inf
ROOT
ATOM      1  C   UNL     1      25.944  30.259   1.371  1.00  0.00     0.138 A 
ATOM      2  C   UNL     1      27.290  30.644   1.446  1.00  0.00     0.100 A 
ATOM      3  C   UNL     1      28.277  29.672   1.617  1.00  0.00     0.197 A 
ATOM      4  O   UNL     1      29.469  30.053   1.743  1.00  0.00    -0.289 OA
ATOM      5  C   UNL     1      27.915  28.306   1.681  1.00  0.00     0.107 A 
ATOM      6  C   UNL     1      28.838  27.226   1.813  1.00  0.00     0.134 A 
ATOM      7  C   UNL     1      28.356  25.922   1.984  1.00  0.00     0.093 A 
ATOM      8  C   UNL     1      26.985  25.653   1.967  1.00  0.00     0.123 A 
ATOM      9  C   UNL     1      26.077  26.694   1.785  1.00  0.00     0.094 A 
ATOM     10  C   UNL     1      26.526  28.009   1.647  1.00  0.00     0.146 A 
ATOM     11  O   UNL     1      25.626  28.975   1.490  1.00  0.00    -0.456 OA
ENDROOT
BRANCH   1  12
ATOM     12  C   UNL     1      24.854  31.252   1.190  1.00  0.00     0.021 A 
ATOM     13  C   UNL     1      24.868  32.095   0.065  1.00  0.00     0.016 A 
ATOM     14  C   UNL     1      23.859  33.042  -0.125  1.00  0.00     0.051 A 
ATOM     15  C   UNL     1      22.825  33.171   0.808  1.00  0.00     0.157 A 
ATOM     16  C   UNL     1      23.819  31.395   2.133  1.00  0.00     0.062 A 
ATOM     17  C   UNL     1      22.806  32.347   1.944  1.00  0.00     0.158 A 
BRANCH  15  18
ATOM     18  O   UNL     1      21.831  34.125   0.590  1.00  0.00    -0.504 OA
ATOM     19  H   UNL     1      20.871  33.867   0.398  1.00  0.00     0.293 HD
ENDBRANCH  15  18
BRANCH  17  20
ATOM     20  O   UNL     1      21.784  32.479   2.884  1.00  0.00    -0.504 OA
ATOM     21  H   UNL     1      21.114  33.238   2.836  1.00  0.00     0.293 HD
ENDBRANCH  17  20
ENDBRANCH   1  12
BRANCH   6  22
ATOM     22  O   UNL     1      30.227  27.375   1.758  1.00  0.00    -0.507 OA
ATOM     23  H   UNL     1      30.758  27.524   0.913  1.00  0.00     0.293 HD
ENDBRANCH   6  22
BRANCH   8  24
ATOM     24  O   UNL     1      26.515  24.351   2.123  1.00  0.00    -0.508 OA
ATOM     25  H   UNL     1      25.889  24.099   2.880  1.00  0.00     0.293 HD
ENDBRANCH   8  24
TORSDOF 5
ENDMDL
