MODEL 1
REMARK VINA RESULT:    -2.731      0.000      0.000
REMARK INTER + INTRA:          -2.731
REMARK INTER:                  -2.731
REMARK INTRA:                   0.000
REMARK UNBOUND:                 0.000
REMARK SMILES CC(=O)[O-]
REMARK SMILES IDX 1 1 2 2 3 3 4 4
REMARK H PARENT
REMARK Flexibility Score: inf
ROOT
ATOM      1  C   UNL     1       9.911   0.621  -6.390  1.00  0.00     0.063 C 
ATOM      2  C   UNL     1       9.344   0.240  -5.064  1.00  0.00     0.038 C 
ATOM      3  O   UNL     1       9.372  -0.960  -4.688  1.00  0.00    -0.550 OA
ATOM      4  O   UNL     1       8.832   1.216  -4.220  1.00  0.00    -0.550 OA
ENDROOT
TORSDOF 0
ENDMDL
MODEL 2
REMARK VINA RESULT:    -2.724      0.128      1.625
REMARK INTER + INTRA:          -2.724
REMARK INTER:                  -2.724
REMARK INTRA:                   0.000
REMARK UNBOUND:                 0.000
REMARK SMILES CC(=O)[O-]
REMARK SMILES IDX 1 1 2 2 3 3 4 4
REMARK H PARENT
REMARK Flexibility Score: inf
ROOT
ATOM      1  C   UNL     1       9.724   0.741  -6.436  1.00  0.00     0.063 C 
ATOM      2  C   UNL     1       9.313   0.331  -5.062  1.00  0.00     0.038 C 
ATOM      3  O   UNL     1       8.850   1.185  -4.261  1.00  0.00    -0.550 OA
ATOM      4  O   UNL     1       9.390  -1.001  -4.681  1.00  0.00    -0.550 OA
ENDROOT
TORSDOF 0
ENDMDL
MODEL 3
REMARK VINA RESULT:    -2.681      1.186      1.190
REMARK INTER + INTRA:          -2.681
REMARK INTER:                  -2.681
REMARK INTRA:                   0.000
REMARK UNBOUND:                 0.000
REMARK SMILES CC(=O)[O-]
REMARK SMILES IDX 1 1 2 2 3 3 4 4
REMARK H PARENT
REMARK Flexibility Score: inf
ROOT
ATOM      1  C   UNL     1      10.123   1.362  -4.967  1.00  0.00     0.063 C 
ATOM      2  C   UNL     1       9.120   0.261  -5.039  1.00  0.00     0.038 C 
ATOM      3  O   UNL     1       9.437  -0.905  -4.689  1.00  0.00    -0.550 OA
ATOM      4  O   UNL     1       7.819   0.530  -5.442  1.00  0.00    -0.550 OA
ENDROOT
TORSDOF 0
ENDMDL
MODEL 4
REMARK VINA RESULT:    -2.492     15.392     15.875
REMARK INTER + INTRA:          -2.492
REMARK INTER:                  -2.492
REMARK INTRA:                   0.000
REMARK UNBOUND:                 0.000
REMARK SMILES CC(=O)[O-]
REMARK SMILES IDX 1 1 2 2 3 3 4 4
REMARK H PARENT
REMARK Flexibility Score: inf
ROOT
ATOM      1  C   UNL     1      -2.885  11.473  -9.258  1.00  0.00     0.063 C 
ATOM      2  C   UNL     1      -1.542  10.963  -8.858  1.00  0.00     0.038 C 
ATOM      3  O   UNL     1      -0.549  11.735  -8.858  1.00  0.00    -0.550 OA
ATOM      4  O   UNL     1      -1.395   9.649  -8.433  1.00  0.00    -0.550 OA
ENDROOT
TORSDOF 0
ENDMDL
MODEL 5
REMARK VINA RESULT:    -2.442      1.570      1.856
REMARK INTER + INTRA:          -2.442
REMARK INTER:                  -2.442
REMARK INTRA:                   0.000
REMARK UNBOUND:                 0.000
REMARK SMILES CC(=O)[O-]
REMARK SMILES IDX 1 1 2 2 3 3 4 4
REMARK H PARENT
REMARK Flexibility Score: inf
ROOT
ATOM      1  C   UNL     1       8.996   1.668  -6.651  1.00  0.00     0.063 C 
ATOM      2  C   UNL     1       8.287   1.047  -5.495  1.00  0.00     0.038 C 
ATOM      3  O   UNL     1       8.862   0.953  -4.380  1.00  0.00    -0.550 OA
ATOM      4  O   UNL     1       6.973   0.621  -5.633  1.00  0.00    -0.550 OA
ENDROOT
TORSDOF 0
ENDMDL
MODEL 6
REMARK VINA RESULT:    -2.410      1.729      1.956
REMARK INTER + INTRA:          -2.410
REMARK INTER:                  -2.410
REMARK INTRA:                   0.000
REMARK UNBOUND:                 0.000
REMARK SMILES CC(=O)[O-]
REMARK SMILES IDX 1 1 2 2 3 3 4 4
REMARK H PARENT
REMARK Flexibility Score: inf
ROOT
ATOM      1  C   UNL     1       8.664   1.949  -6.674  1.00  0.00     0.063 C 
ATOM      2  C   UNL     1       8.104   1.154  -5.543  1.00  0.00     0.038 C 
ATOM      3  O   UNL     1       6.968   0.623  -5.647  1.00  0.00    -0.550 OA
ATOM      4  O   UNL     1       8.857   0.953  -4.394  1.00  0.00    -0.550 OA
ENDROOT
TORSDOF 0
ENDMDL
MODEL 7
REMARK VINA RESULT:    -2.408      2.726      3.196
REMARK INTER + INTRA:          -2.408
REMARK INTER:                  -2.408
REMARK INTRA:                   0.000
REMARK UNBOUND:                 0.000
REMARK SMILES CC(=O)[O-]
REMARK SMILES IDX 1 1 2 2 3 3 4 4
REMARK H PARENT
REMARK Flexibility Score: inf
ROOT
ATOM      1  C   UNL     1       7.556   3.801  -4.324  1.00  0.00     0.063 C 
ATOM      2  C   UNL     1       8.572   2.772  -4.690  1.00  0.00     0.038 C 
ATOM      3  O   UNL     1       8.613   1.678  -4.068  1.00  0.00    -0.550 OA
ATOM      4  O   UNL     1       9.439   2.996  -5.750  1.00  0.00    -0.550 OA
ENDROOT
TORSDOF 0
ENDMDL
MODEL 8
REMARK VINA RESULT:    -2.396      2.536      3.218
REMARK INTER + INTRA:          -2.396
REMARK INTER:                  -2.396
REMARK INTRA:                   0.000
REMARK UNBOUND:                 0.000
REMARK SMILES CC(=O)[O-]
REMARK SMILES IDX 1 1 2 2 3 3 4 4
REMARK H PARENT
REMARK Flexibility Score: inf
ROOT
ATOM      1  C   UNL     1       7.513   3.444  -4.650  1.00  0.00     0.063 C 
ATOM      2  C   UNL     1       8.769   2.666  -4.449  1.00  0.00     0.038 C 
ATOM      3  O   UNL     1       9.883   3.251  -4.470  1.00  0.00    -0.550 OA
ATOM      4  O   UNL     1       8.709   1.305  -4.186  1.00  0.00    -0.550 OA
ENDROOT
TORSDOF 0
ENDMDL
MODEL 9
REMARK VINA RESULT:    -2.182      4.524      5.206
REMARK INTER + INTRA:          -2.182
REMARK INTER:                  -2.182
REMARK INTRA:                   0.000
REMARK UNBOUND:                 0.000
REMARK SMILES CC(=O)[O-]
REMARK SMILES IDX 1 1 2 2 3 3 4 4
REMARK H PARENT
REMARK Flexibility Score: inf
ROOT
ATOM      1  C   UNL     1       5.812   3.561  -5.579  1.00  0.00     0.063 C 
ATOM      2  C   UNL     1       6.978   4.450  -5.304  1.00  0.00     0.038 C 
ATOM      3  O   UNL     1       6.939   5.663  -5.639  1.00  0.00    -0.550 OA
ATOM      4  O   UNL     1       8.087   3.955  -4.632  1.00  0.00    -0.550 OA
ENDROOT
TORSDOF 0
ENDMDL
