MODEL 1
REMARK VINA RESULT:    -4.991      0.000      0.000
REMARK INTER + INTRA:          -6.846
REMARK INTER:                  -6.304
REMARK INTRA:                  -0.541
REMARK UNBOUND:                -0.541
REMARK SMILES Oc1ccc(CCc2cc(O)cc(O)c2)cc1
REMARK SMILES IDX 6 1 5 2 4 3 3 4 2 5 16 6 17 7 1 8 7 10 8 11 15 12 9 13 13 14
REMARK SMILES IDX 10 15 12 16 14 17 11 19
REMARK H PARENT 1 9 14 18 11 20
REMARK Flexibility Score: inf
ROOT
ATOM      1  C   UNL     1     111.917   7.369 -23.856  1.00  0.00     0.040 C 
ENDROOT
BRANCH   1   2
ATOM      2  C   UNL     1     112.831   8.492 -24.265  1.00  0.00    -0.047 A 
ATOM      3  C   UNL     1     113.064   9.570 -23.395  1.00  0.00     0.007 A 
ATOM      4  C   UNL     1     113.939  10.597 -23.764  1.00  0.00     0.046 A 
ATOM      5  C   UNL     1     114.597  10.551 -25.000  1.00  0.00     0.115 A 
ATOM      6  C   UNL     1     113.504   8.444 -25.497  1.00  0.00     0.007 A 
ATOM      7  C   UNL     1     114.378   9.473 -25.863  1.00  0.00     0.046 A 
BRANCH   5   8
ATOM      8  O   UNL     1     115.472  11.568 -25.378  1.00  0.00    -0.508 OA
ATOM      9  H   UNL     1     115.139  12.503 -25.581  1.00  0.00     0.293 HD
ENDBRANCH   5   8
ENDBRANCH   1   2
BRANCH   1  10
ATOM     10  C   UNL     1     110.486   7.642 -24.329  1.00  0.00     0.040 C 
BRANCH  10  11
ATOM     11  C   UNL     1     110.108   6.698 -25.440  1.00  0.00    -0.040 A 
ATOM     12  C   UNL     1     110.384   7.029 -26.775  1.00  0.00     0.050 A 
ATOM     13  C   UNL     1     109.426   5.505 -25.151  1.00  0.00     0.050 A 
ATOM     14  C   UNL     1     110.002   6.165 -27.812  1.00  0.00     0.119 A 
ATOM     15  C   UNL     1     109.044   4.641 -26.187  1.00  0.00     0.119 A 
ATOM     16  C   UNL     1     109.336   4.973 -27.514  1.00  0.00     0.092 A 
BRANCH  14  17
ATOM     17  O   UNL     1     110.279   6.484 -29.139  1.00  0.00    -0.508 OA
ATOM     18  H   UNL     1     110.350   5.769 -29.854  1.00  0.00     0.293 HD
ENDBRANCH  14  17
BRANCH  15  19
ATOM     19  O   UNL     1     108.372   3.452 -25.909  1.00  0.00    -0.508 OA
ATOM     20  H   UNL     1     107.819   2.979 -26.614  1.00  0.00     0.293 HD
ENDBRANCH  15  19
ENDBRANCH  10  11
ENDBRANCH   1  10
TORSDOF 6
ENDMDL
MODEL 2
REMARK VINA RESULT:    -4.936     14.313     16.695
REMARK INTER + INTRA:          -6.776
REMARK INTER:                  -6.306
REMARK INTRA:                  -0.470
REMARK UNBOUND:                -0.541
REMARK SMILES Oc1ccc(CCc2cc(O)cc(O)c2)cc1
REMARK SMILES IDX 6 1 5 2 4 3 3 4 2 5 16 6 17 7 1 8 7 10 8 11 15 12 9 13 13 14
REMARK SMILES IDX 10 15 12 16 14 17 11 19
REMARK H PARENT 1 9 14 18 11 20
REMARK Flexibility Score: inf
ROOT
ATOM      1  C   UNL     1     112.288   8.855 -42.092  1.00  0.00     0.040 C 
ENDROOT
BRANCH   1   2
ATOM      2  C   UNL     1     111.438   7.655 -41.770  1.00  0.00    -0.047 A 
ATOM      3  C   UNL     1     111.444   7.108 -40.476  1.00  0.00     0.007 A 
ATOM      4  C   UNL     1     110.630   6.012 -40.170  1.00  0.00     0.046 A 
ATOM      5  C   UNL     1     109.796   5.460 -41.152  1.00  0.00     0.115 A 
ATOM      6  C   UNL     1     110.591   7.105 -42.746  1.00  0.00     0.007 A 
ATOM      7  C   UNL     1     109.777   6.010 -42.437  1.00  0.00     0.046 A 
BRANCH   5   8
ATOM      8  O   UNL     1     108.979   4.369 -40.858  1.00  0.00    -0.508 OA
ATOM      9  H   UNL     1     108.037   4.493 -40.508  1.00  0.00     0.293 HD
ENDBRANCH   5   8
ENDBRANCH   1   2
BRANCH   1  10
ATOM     10  C   UNL     1     111.882  10.048 -41.222  1.00  0.00     0.040 C 
BRANCH  10  11
ATOM     11  C   UNL     1     113.102  10.754 -40.691  1.00  0.00    -0.040 A 
ATOM     12  C   UNL     1     114.361  10.524 -41.269  1.00  0.00     0.050 A 
ATOM     13  C   UNL     1     112.998  11.603 -39.579  1.00  0.00     0.050 A 
ATOM     14  C   UNL     1     115.502  11.156 -40.754  1.00  0.00     0.119 A 
ATOM     15  C   UNL     1     114.139  12.235 -39.063  1.00  0.00     0.119 A 
ATOM     16  C   UNL     1     115.387  12.011 -39.655  1.00  0.00     0.092 A 
BRANCH  14  17
ATOM     17  O   UNL     1     116.753  10.937 -41.326  1.00  0.00    -0.508 OA
ATOM     18  H   UNL     1     117.527  10.571 -40.785  1.00  0.00     0.293 HD
ENDBRANCH  14  17
BRANCH  15  19
ATOM     19  O   UNL     1     114.044  13.085 -37.963  1.00  0.00    -0.508 OA
ATOM     20  H   UNL     1     114.118  14.091 -38.063  1.00  0.00     0.293 HD
ENDBRANCH  15  19
ENDBRANCH  10  11
ENDBRANCH   1  10
TORSDOF 6
ENDMDL
MODEL 3
REMARK VINA RESULT:    -4.934     14.008     15.286
REMARK INTER + INTRA:          -6.774
REMARK INTER:                  -6.241
REMARK INTRA:                  -0.533
REMARK UNBOUND:                -0.541
REMARK SMILES Oc1ccc(CCc2cc(O)cc(O)c2)cc1
REMARK SMILES IDX 6 1 5 2 4 3 3 4 2 5 16 6 17 7 1 8 7 10 8 11 15 12 9 13 13 14
REMARK SMILES IDX 10 15 12 16 14 17 11 19
REMARK H PARENT 1 9 14 18 11 20
REMARK Flexibility Score: inf
ROOT
ATOM      1  C   UNL     1     112.281  10.458 -41.639  1.00  0.00     0.040 C 
ENDROOT
BRANCH   1   2
ATOM      2  C   UNL     1     113.369  10.982 -40.741  1.00  0.00    -0.047 A 
ATOM      3  C   UNL     1     113.045  11.742 -39.604  1.00  0.00     0.007 A 
ATOM      4  C   UNL     1     114.055  12.201 -38.753  1.00  0.00     0.046 A 
ATOM      5  C   UNL     1     115.396  11.897 -39.023  1.00  0.00     0.115 A 
ATOM      6  C   UNL     1     114.713  10.669 -41.000  1.00  0.00     0.007 A 
ATOM      7  C   UNL     1     115.722  11.130 -40.146  1.00  0.00     0.046 A 
BRANCH   5   8
ATOM      8  O   UNL     1     116.411  12.348 -38.181  1.00  0.00    -0.508 OA
ATOM      9  H   UNL     1     116.441  13.307 -37.856  1.00  0.00     0.293 HD
ENDBRANCH   5   8
ENDBRANCH   1   2
BRANCH   1  10
ATOM     10  C   UNL     1     112.561   9.004 -42.030  1.00  0.00     0.040 C 
BRANCH  10  11
ATOM     11  C   UNL     1     111.407   8.120 -41.638  1.00  0.00    -0.040 A 
ATOM     12  C   UNL     1     110.682   8.381 -40.464  1.00  0.00     0.050 A 
ATOM     13  C   UNL     1     111.083   6.996 -42.413  1.00  0.00     0.050 A 
ATOM     14  C   UNL     1     109.628   7.539 -40.082  1.00  0.00     0.119 A 
ATOM     15  C   UNL     1     110.029   6.154 -42.031  1.00  0.00     0.119 A 
ATOM     16  C   UNL     1     109.303   6.430 -40.867  1.00  0.00     0.092 A 
BRANCH  14  17
ATOM     17  O   UNL     1     108.900   7.796 -38.922  1.00  0.00    -0.508 OA
ATOM     18  H   UNL     1     108.355   7.073 -38.466  1.00  0.00     0.293 HD
ENDBRANCH  14  17
BRANCH  15  19
ATOM     19  O   UNL     1     109.697   5.039 -42.799  1.00  0.00    -0.508 OA
ATOM     20  H   UNL     1     110.368   4.301 -42.979  1.00  0.00     0.293 HD
ENDBRANCH  15  19
ENDBRANCH  10  11
ENDBRANCH   1  10
TORSDOF 6
ENDMDL
MODEL 4
REMARK VINA RESULT:    -4.933     14.036     15.286
REMARK INTER + INTRA:          -6.772
REMARK INTER:                  -6.241
REMARK INTRA:                  -0.531
REMARK UNBOUND:                -0.541
REMARK SMILES Oc1ccc(CCc2cc(O)cc(O)c2)cc1
REMARK SMILES IDX 6 1 5 2 4 3 3 4 2 5 16 6 17 7 1 8 7 10 8 11 15 12 9 13 13 14
REMARK SMILES IDX 10 15 12 16 14 17 11 19
REMARK H PARENT 1 9 14 18 11 20
REMARK Flexibility Score: inf
ROOT
ATOM      1  C   UNL     1     112.235  10.438 -41.629  1.00  0.00     0.040 C 
ENDROOT
BRANCH   1   2
ATOM      2  C   UNL     1     113.339  10.964 -40.752  1.00  0.00    -0.047 A 
ATOM      3  C   UNL     1     113.038  11.742 -39.622  1.00  0.00     0.007 A 
ATOM      4  C   UNL     1     114.063  12.204 -38.790  1.00  0.00     0.046 A 
ATOM      5  C   UNL     1     115.398  11.885 -39.075  1.00  0.00     0.115 A 
ATOM      6  C   UNL     1     114.677  10.637 -41.026  1.00  0.00     0.007 A 
ATOM      7  C   UNL     1     115.701  11.100 -40.193  1.00  0.00     0.046 A 
BRANCH   5   8
ATOM      8  O   UNL     1     116.428  12.339 -38.254  1.00  0.00    -0.508 OA
ATOM      9  H   UNL     1     116.963  13.167 -38.486  1.00  0.00     0.293 HD
ENDBRANCH   5   8
ENDBRANCH   1   2
BRANCH   1  10
ATOM     10  C   UNL     1     112.539   9.004 -42.073  1.00  0.00     0.040 C 
BRANCH  10  11
ATOM     11  C   UNL     1     111.428   8.075 -41.658  1.00  0.00    -0.040 A 
ATOM     12  C   UNL     1     111.066   6.994 -42.477  1.00  0.00     0.050 A 
ATOM     13  C   UNL     1     110.709   8.317 -40.477  1.00  0.00     0.050 A 
ATOM     14  C   UNL     1     110.010   6.149 -42.108  1.00  0.00     0.119 A 
ATOM     15  C   UNL     1     109.653   7.473 -40.108  1.00  0.00     0.119 A 
ATOM     16  C   UNL     1     109.309   6.389 -40.923  1.00  0.00     0.092 A 
BRANCH  14  17
ATOM     17  O   UNL     1     109.650   5.071 -42.913  1.00  0.00    -0.508 OA
ATOM     18  H   UNL     1     108.804   4.540 -42.742  1.00  0.00     0.293 HD
ENDBRANCH  14  17
BRANCH  15  19
ATOM     19  O   UNL     1     108.938   7.702 -38.933  1.00  0.00    -0.508 OA
ATOM     20  H   UNL     1     108.469   6.949 -38.444  1.00  0.00     0.293 HD
ENDBRANCH  15  19
ENDBRANCH  10  11
ENDBRANCH   1  10
TORSDOF 6
ENDMDL
MODEL 5
REMARK VINA RESULT:    -4.914     13.979     16.387
REMARK INTER + INTRA:          -6.748
REMARK INTER:                  -6.027
REMARK INTRA:                  -0.721
REMARK UNBOUND:                -0.541
REMARK SMILES Oc1ccc(CCc2cc(O)cc(O)c2)cc1
REMARK SMILES IDX 6 1 5 2 4 3 3 4 2 5 16 6 17 7 1 8 7 10 8 11 15 12 9 13 13 14
REMARK SMILES IDX 10 15 12 16 14 17 11 19
REMARK H PARENT 1 9 14 18 11 20
REMARK Flexibility Score: inf
ROOT
ATOM      1  C   UNL     1     112.317  10.720 -41.301  1.00  0.00     0.040 C 
ENDROOT
BRANCH   1   2
ATOM      2  C   UNL     1     112.028   9.260 -41.079  1.00  0.00    -0.047 A 
ATOM      3  C   UNL     1     111.552   8.813 -39.835  1.00  0.00     0.007 A 
ATOM      4  C   UNL     1     111.253   7.460 -39.640  1.00  0.00     0.046 A 
ATOM      5  C   UNL     1     111.418   6.545 -40.687  1.00  0.00     0.115 A 
ATOM      6  C   UNL     1     112.179   8.340 -42.129  1.00  0.00     0.007 A 
ATOM      7  C   UNL     1     111.880   6.988 -41.931  1.00  0.00     0.046 A 
BRANCH   5   8
ATOM      8  O   UNL     1     111.124   5.195 -40.505  1.00  0.00    -0.508 OA
ATOM      9  H   UNL     1     111.450   4.490 -41.155  1.00  0.00     0.293 HD
ENDBRANCH   5   8
ENDBRANCH   1   2
BRANCH   1  10
ATOM     10  C   UNL     1     112.943  11.340 -40.048  1.00  0.00     0.040 C 
BRANCH  10  11
ATOM     11  C   UNL     1     114.427  11.084 -40.018  1.00  0.00    -0.040 A 
ATOM     12  C   UNL     1     115.019  10.479 -38.898  1.00  0.00     0.050 A 
ATOM     13  C   UNL     1     115.238  11.500 -41.086  1.00  0.00     0.050 A 
ATOM     14  C   UNL     1     116.404  10.271 -38.855  1.00  0.00     0.119 A 
ATOM     15  C   UNL     1     116.623  11.293 -41.044  1.00  0.00     0.119 A 
ATOM     16  C   UNL     1     117.202  10.676 -39.929  1.00  0.00     0.092 A 
BRANCH  14  17
ATOM     17  O   UNL     1     116.997   9.665 -37.749  1.00  0.00    -0.508 OA
ATOM     18  H   UNL     1     117.755  10.110 -37.244  1.00  0.00     0.293 HD
ENDBRANCH  14  17
BRANCH  15  19
ATOM     19  O   UNL     1     117.434  11.697 -42.103  1.00  0.00    -0.508 OA
ATOM     20  H   UNL     1     117.054  11.865 -43.027  1.00  0.00     0.293 HD
ENDBRANCH  15  19
ENDBRANCH  10  11
ENDBRANCH   1  10
TORSDOF 6
ENDMDL
MODEL 6
REMARK VINA RESULT:    -4.912     14.308     16.735
REMARK INTER + INTRA:          -6.746
REMARK INTER:                  -6.271
REMARK INTRA:                  -0.475
REMARK UNBOUND:                -0.541
REMARK SMILES Oc1ccc(CCc2cc(O)cc(O)c2)cc1
REMARK SMILES IDX 6 1 5 2 4 3 3 4 2 5 16 6 17 7 1 8 7 10 8 11 15 12 9 13 13 14
REMARK SMILES IDX 10 15 12 16 14 17 11 19
REMARK H PARENT 1 9 14 18 11 20
REMARK Flexibility Score: inf
ROOT
ATOM      1  C   UNL     1     112.261   8.876 -42.117  1.00  0.00     0.040 C 
ENDROOT
BRANCH   1   2
ATOM      2  C   UNL     1     111.388   7.698 -41.777  1.00  0.00    -0.047 A 
ATOM      3  C   UNL     1     111.362   7.189 -40.468  1.00  0.00     0.007 A 
ATOM      4  C   UNL     1     110.527   6.114 -40.146  1.00  0.00     0.046 A 
ATOM      5  C   UNL     1     109.702   5.546 -41.127  1.00  0.00     0.115 A 
ATOM      6  C   UNL     1     110.550   7.133 -42.752  1.00  0.00     0.007 A 
ATOM      7  C   UNL     1     109.715   6.058 -42.428  1.00  0.00     0.046 A 
BRANCH   5   8
ATOM      8  O   UNL     1     108.865   4.475 -40.818  1.00  0.00    -0.508 OA
ATOM      9  H   UNL     1     108.067   4.244 -41.397  1.00  0.00     0.293 HD
ENDBRANCH   5   8
ENDBRANCH   1   2
BRANCH   1  10
ATOM     10  C   UNL     1     111.875  10.092 -41.269  1.00  0.00     0.040 C 
BRANCH  10  11
ATOM     11  C   UNL     1     113.102  10.735 -40.679  1.00  0.00    -0.040 A 
ATOM     12  C   UNL     1     112.986  11.623 -39.598  1.00  0.00     0.050 A 
ATOM     13  C   UNL     1     114.366  10.495 -41.241  1.00  0.00     0.050 A 
ATOM     14  C   UNL     1     114.125  12.247 -39.069  1.00  0.00     0.119 A 
ATOM     15  C   UNL     1     115.505  11.118 -40.713  1.00  0.00     0.119 A 
ATOM     16  C   UNL     1     115.380  11.991 -39.626  1.00  0.00     0.092 A 
BRANCH  14  17
ATOM     17  O   UNL     1     114.017  13.124 -37.992  1.00  0.00    -0.508 OA
ATOM     18  H   UNL     1     114.722  13.160 -37.264  1.00  0.00     0.293 HD
ENDBRANCH  14  17
BRANCH  15  19
ATOM     19  O   UNL     1     116.764  10.880 -41.261  1.00  0.00    -0.508 OA
ATOM     20  H   UNL     1     117.144   9.943 -41.327  1.00  0.00     0.293 HD
ENDBRANCH  15  19
ENDBRANCH  10  11
ENDBRANCH   1  10
TORSDOF 6
ENDMDL
MODEL 7
REMARK VINA RESULT:    -4.884     13.964     16.235
REMARK INTER + INTRA:          -6.710
REMARK INTER:                  -5.975
REMARK INTRA:                  -0.736
REMARK UNBOUND:                -0.541
REMARK SMILES Oc1ccc(CCc2cc(O)cc(O)c2)cc1
REMARK SMILES IDX 6 1 5 2 4 3 3 4 2 5 16 6 17 7 1 8 7 10 8 11 15 12 9 13 13 14
REMARK SMILES IDX 10 15 12 16 14 17 11 19
REMARK H PARENT 1 9 14 18 11 20
REMARK Flexibility Score: inf
ROOT
ATOM      1  C   UNL     1     112.334  10.857 -41.158  1.00  0.00     0.040 C 
ENDROOT
BRANCH   1   2
ATOM      2  C   UNL     1     112.060   9.387 -40.987  1.00  0.00    -0.047 A 
ATOM      3  C   UNL     1     111.626   8.886 -39.748  1.00  0.00     0.007 A 
ATOM      4  C   UNL     1     111.341   7.524 -39.600  1.00  0.00     0.046 A 
ATOM      5  C   UNL     1     111.478   6.654 -40.690  1.00  0.00     0.115 A 
ATOM      6  C   UNL     1     112.182   8.512 -42.079  1.00  0.00     0.007 A 
ATOM      7  C   UNL     1     111.897   7.151 -41.928  1.00  0.00     0.046 A 
BRANCH   5   8
ATOM      8  O   UNL     1     111.196   5.296 -40.554  1.00  0.00    -0.508 OA
ATOM      9  H   UNL     1     110.564   4.821 -41.188  1.00  0.00     0.293 HD
ENDBRANCH   5   8
ENDBRANCH   1   2
BRANCH   1  10
ATOM     10  C   UNL     1     112.991  11.430 -39.898  1.00  0.00     0.040 C 
BRANCH  10  11
ATOM     11  C   UNL     1     114.474  11.173 -39.912  1.00  0.00    -0.040 A 
ATOM     12  C   UNL     1     115.250  11.558 -41.016  1.00  0.00     0.050 A 
ATOM     13  C   UNL     1     115.083  10.494 -38.845  1.00  0.00     0.050 A 
ATOM     14  C   UNL     1     116.626  11.289 -41.044  1.00  0.00     0.119 A 
ATOM     15  C   UNL     1     116.459  10.224 -38.872  1.00  0.00     0.119 A 
ATOM     16  C   UNL     1     117.226  10.625 -39.971  1.00  0.00     0.092 A 
BRANCH  14  17
ATOM     17  O   UNL     1     117.402  11.675 -42.134  1.00  0.00    -0.508 OA
ATOM     18  H   UNL     1     117.973  11.009 -42.641  1.00  0.00     0.293 HD
ENDBRANCH  14  17
BRANCH  15  19
ATOM     19  O   UNL     1     117.072   9.556 -37.813  1.00  0.00    -0.508 OA
ATOM     20  H   UNL     1     117.853   9.963 -37.312  1.00  0.00     0.293 HD
ENDBRANCH  15  19
ENDBRANCH  10  11
ENDBRANCH   1  10
TORSDOF 6
ENDMDL
MODEL 8
REMARK VINA RESULT:    -4.863      3.544      5.753
REMARK INTER + INTRA:          -6.683
REMARK INTER:                  -5.872
REMARK INTRA:                  -0.812
REMARK UNBOUND:                -0.541
REMARK SMILES Oc1ccc(CCc2cc(O)cc(O)c2)cc1
REMARK SMILES IDX 6 1 5 2 4 3 3 4 2 5 16 6 17 7 1 8 7 10 8 11 15 12 9 13 13 14
REMARK SMILES IDX 10 15 12 16 14 17 11 19
REMARK H PARENT 1 9 14 18 11 20
REMARK Flexibility Score: inf
ROOT
ATOM      1  C   UNL     1     114.789  10.126 -26.358  1.00  0.00     0.040 C 
ENDROOT
BRANCH   1   2
ATOM      2  C   UNL     1     113.765   9.405 -25.523  1.00  0.00    -0.047 A 
ATOM      3  C   UNL     1     113.600   9.731 -24.166  1.00  0.00     0.007 A 
ATOM      4  C   UNL     1     112.626   9.083 -23.399  1.00  0.00     0.046 A 
ATOM      5  C   UNL     1     111.803   8.111 -23.983  1.00  0.00     0.115 A 
ATOM      6  C   UNL     1     112.928   8.440 -26.106  1.00  0.00     0.007 A 
ATOM      7  C   UNL     1     111.955   7.794 -25.337  1.00  0.00     0.046 A 
BRANCH   5   8
ATOM      8  O   UNL     1     110.829   7.459 -23.230  1.00  0.00    -0.508 OA
ATOM      9  H   UNL     1     110.714   7.644 -22.240  1.00  0.00     0.293 HD
ENDBRANCH   5   8
ENDBRANCH   1   2
BRANCH   1  10
ATOM     10  C   UNL     1     114.404  11.599 -26.527  1.00  0.00     0.040 C 
BRANCH  10  11
ATOM     11  C   UNL     1     113.219  11.732 -27.447  1.00  0.00    -0.040 A 
ATOM     12  C   UNL     1     112.035  12.336 -26.994  1.00  0.00     0.050 A 
ATOM     13  C   UNL     1     113.270  11.203 -28.746  1.00  0.00     0.050 A 
ATOM     14  C   UNL     1     110.921  12.431 -27.839  1.00  0.00     0.119 A 
ATOM     15  C   UNL     1     112.156  11.298 -29.592  1.00  0.00     0.119 A 
ATOM     16  C   UNL     1     110.986  11.914 -29.136  1.00  0.00     0.092 A 
BRANCH  14  17
ATOM     17  O   UNL     1     109.746  13.035 -27.399  1.00  0.00    -0.508 OA
ATOM     18  H   UNL     1     109.663  14.043 -27.321  1.00  0.00     0.293 HD
ENDBRANCH  14  17
BRANCH  15  19
ATOM     19  O   UNL     1     112.201  10.781 -30.885  1.00  0.00    -0.508 OA
ATOM     20  H   UNL     1     112.161   9.783 -31.058  1.00  0.00     0.293 HD
ENDBRANCH  15  19
ENDBRANCH  10  11
ENDBRANCH   1  10
TORSDOF 6
ENDMDL
MODEL 9
REMARK VINA RESULT:    -4.815      3.572      5.780
REMARK INTER + INTRA:          -6.624
REMARK INTER:                  -6.010
REMARK INTRA:                  -0.614
REMARK UNBOUND:                -0.541
REMARK SMILES Oc1ccc(CCc2cc(O)cc(O)c2)cc1
REMARK SMILES IDX 6 1 5 2 4 3 3 4 2 5 16 6 17 7 1 8 7 10 8 11 15 12 9 13 13 14
REMARK SMILES IDX 10 15 12 16 14 17 11 19
REMARK H PARENT 1 9 14 18 11 20
REMARK Flexibility Score: inf
ROOT
ATOM      1  C   UNL     1     113.893   8.808 -27.563  1.00  0.00     0.040 C 
ENDROOT
BRANCH   1   2
ATOM      2  C   UNL     1     112.976   8.484 -26.414  1.00  0.00    -0.047 A 
ATOM      3  C   UNL     1     111.652   8.080 -26.655  1.00  0.00     0.007 A 
ATOM      4  C   UNL     1     110.810   7.749 -25.588  1.00  0.00     0.046 A 
ATOM      5  C   UNL     1     111.287   7.809 -24.272  1.00  0.00     0.115 A 
ATOM      6  C   UNL     1     113.452   8.529 -25.093  1.00  0.00     0.007 A 
ATOM      7  C   UNL     1     112.608   8.197 -24.028  1.00  0.00     0.046 A 
BRANCH   5   8
ATOM      8  O   UNL     1     110.458   7.480 -23.200  1.00  0.00    -0.508 OA
ATOM      9  H   UNL     1     110.783   7.541 -22.243  1.00  0.00     0.293 HD
ENDBRANCH   5   8
ENDBRANCH   1   2
BRANCH   1  10
ATOM     10  C   UNL     1     114.169  10.313 -27.622  1.00  0.00     0.040 C 
BRANCH  10  11
ATOM     11  C   UNL     1     112.888  11.076 -27.837  1.00  0.00    -0.040 A 
ATOM     12  C   UNL     1     112.335  11.182 -29.123  1.00  0.00     0.050 A 
ATOM     13  C   UNL     1     112.269  11.735 -26.764  1.00  0.00     0.050 A 
ATOM     14  C   UNL     1     111.161  11.920 -29.330  1.00  0.00     0.119 A 
ATOM     15  C   UNL     1     111.095  12.473 -26.970  1.00  0.00     0.119 A 
ATOM     16  C   UNL     1     110.544  12.561 -28.253  1.00  0.00     0.092 A 
BRANCH  14  17
ATOM     17  O   UNL     1     110.604  12.024 -30.603  1.00  0.00    -0.508 OA
ATOM     18  H   UNL     1     110.191  12.890 -30.932  1.00  0.00     0.293 HD
ENDBRANCH  14  17
BRANCH  15  19
ATOM     19  O   UNL     1     110.471  13.125 -25.908  1.00  0.00    -0.508 OA
ATOM     20  H   UNL     1     109.557  13.551 -26.012  1.00  0.00     0.293 HD
ENDBRANCH  15  19
ENDBRANCH  10  11
ENDBRANCH   1  10
TORSDOF 6
ENDMDL
