MODEL 1
REMARK VINA RESULT:    -5.212      0.000      0.000
REMARK INTER + INTRA:          -7.209
REMARK INTER:                  -6.735
REMARK INTRA:                  -0.474
REMARK UNBOUND:                -0.474
REMARK SMILES CCO[C@H]1O[C@@H](CO)[C@H](O)[C@@H](O)[C@H]1O
REMARK SMILES IDX 4 1 13 2 11 3 9 4 6 5 5 6 3 7 2 8 1 9 14 10 12 12 7 14 8 15
REMARK SMILES IDX 10 17
REMARK H PARENT 14 11 12 13 8 16 10 18
REMARK Flexibility Score: inf
ROOT
ATOM      1  C   UNL     1      40.369  39.290  22.777  1.00  0.00     0.281 C 
ATOM      2  C   UNL     1      41.866  39.565  22.546  1.00  0.00     0.202 C 
ATOM      3  C   UNL     1      42.705  38.311  22.803  1.00  0.00     0.179 C 
ATOM      4  C   UNL     1      42.347  37.680  24.167  1.00  0.00     0.177 C 
ATOM      5  C   UNL     1      40.815  37.639  24.453  1.00  0.00     0.178 C 
ATOM      6  O   UNL     1      40.109  38.821  24.093  1.00  0.00    -0.341 OA
ENDROOT
BRANCH   1   7
ATOM      7  O   UNL     1      39.866  38.402  21.795  1.00  0.00    -0.350 OA
BRANCH   7   8
ATOM      8  C   UNL     1      38.554  38.762  21.400  1.00  0.00     0.160 C 
ATOM      9  C   UNL     1      38.605  39.870  20.355  1.00  0.00     0.035 C 
ENDBRANCH   7   8
ENDBRANCH   1   7
BRANCH   2  10
ATOM     10  O   UNL     1      42.083  40.016  21.234  1.00  0.00    -0.385 OA
ATOM     11  H   UNL     1      41.837  40.978  21.214  1.00  0.00     0.211 HD
ENDBRANCH   2  10
BRANCH   3  12
ATOM     12  O   UNL     1      42.519  37.387  21.759  1.00  0.00    -0.387 OA
ATOM     13  H   UNL     1      43.325  36.807  21.740  1.00  0.00     0.211 HD
ENDBRANCH   3  12
BRANCH   5  14
ATOM     14  C   UNL     1      40.096  36.347  23.999  1.00  0.00     0.191 C 
BRANCH  14  15
ATOM     15  O   UNL     1      38.703  36.478  24.031  1.00  0.00    -0.394 OA
ATOM     16  H   UNL     1      38.479  37.203  23.392  1.00  0.00     0.210 HD
ENDBRANCH  14  15
ENDBRANCH   5  14
BRANCH   4  17
ATOM     17  O   UNL     1      43.021  38.360  25.198  1.00  0.00    -0.387 OA
ATOM     18  H   UNL     1      42.380  38.987  25.623  1.00  0.00     0.211 HD
ENDBRANCH   4  17
TORSDOF 7
ENDMDL
MODEL 2
REMARK VINA RESULT:    -5.141      1.673      3.500
REMARK INTER + INTRA:          -7.118
REMARK INTER:                  -6.503
REMARK INTRA:                  -0.615
REMARK UNBOUND:                -0.474
REMARK SMILES CCO[C@H]1O[C@@H](CO)[C@H](O)[C@@H](O)[C@H]1O
REMARK SMILES IDX 4 1 13 2 11 3 9 4 6 5 5 6 3 7 2 8 1 9 14 10 12 12 7 14 8 15
REMARK SMILES IDX 10 17
REMARK H PARENT 14 11 12 13 8 16 10 18
REMARK Flexibility Score: inf
ROOT
ATOM      1  C   UNL     1      39.417  37.920  23.288  1.00  0.00     0.281 C 
ATOM      2  C   UNL     1      40.422  36.756  23.352  1.00  0.00     0.202 C 
ATOM      3  C   UNL     1      41.846  37.268  23.583  1.00  0.00     0.179 C 
ATOM      4  C   UNL     1      42.194  38.393  22.583  1.00  0.00     0.177 C 
ATOM      5  C   UNL     1      41.042  39.424  22.377  1.00  0.00     0.178 C 
ATOM      6  O   UNL     1      39.744  38.852  22.267  1.00  0.00    -0.341 OA
ENDROOT
BRANCH   1   7
ATOM      7  O   UNL     1      39.295  38.548  24.552  1.00  0.00    -0.350 OA
BRANCH   7   8
ATOM      8  C   UNL     1      37.981  39.033  24.761  1.00  0.00     0.160 C 
ATOM      9  C   UNL     1      36.961  38.037  24.221  1.00  0.00     0.035 C 
ENDBRANCH   7   8
ENDBRANCH   1   7
BRANCH   2  10
ATOM     10  O   UNL     1      40.071  35.863  24.379  1.00  0.00    -0.385 OA
ATOM     11  H   UNL     1      40.319  36.298  25.237  1.00  0.00     0.211 HD
ENDBRANCH   2  10
BRANCH   3  12
ATOM     12  O   UNL     1      41.988  37.714  24.909  1.00  0.00    -0.387 OA
ATOM     13  H   UNL     1      42.854  37.360  25.241  1.00  0.00     0.211 HD
ENDBRANCH   3  12
BRANCH   5  14
ATOM     14  C   UNL     1      41.081  40.650  23.318  1.00  0.00     0.191 C 
BRANCH  14  15
ATOM     15  O   UNL     1      41.650  40.346  24.560  1.00  0.00    -0.394 OA
ATOM     16  H   UNL     1      42.607  40.152  24.386  1.00  0.00     0.210 HD
ENDBRANCH  14  15
ENDBRANCH   5  14
BRANCH   4  17
ATOM     17  O   UNL     1      42.579  37.834  21.350  1.00  0.00    -0.387 OA
ATOM     18  H   UNL     1      43.308  38.392  20.974  1.00  0.00     0.211 HD
ENDBRANCH   4  17
TORSDOF 7
ENDMDL
MODEL 3
REMARK VINA RESULT:    -5.129      1.576      2.812
REMARK INTER + INTRA:          -7.102
REMARK INTER:                  -6.587
REMARK INTRA:                  -0.515
REMARK UNBOUND:                -0.474
REMARK SMILES CCO[C@H]1O[C@@H](CO)[C@H](O)[C@@H](O)[C@H]1O
REMARK SMILES IDX 4 1 13 2 11 3 9 4 6 5 5 6 3 7 2 8 1 9 14 10 12 12 7 14 8 15
REMARK SMILES IDX 10 17
REMARK H PARENT 14 11 12 13 8 16 10 18
REMARK Flexibility Score: inf
ROOT
ATOM      1  C   UNL     1      41.135  39.217  24.407  1.00  0.00     0.281 C 
ATOM      2  C   UNL     1      42.013  37.969  24.214  1.00  0.00     0.202 C 
ATOM      3  C   UNL     1      41.398  37.012  23.189  1.00  0.00     0.179 C 
ATOM      4  C   UNL     1      39.913  36.737  23.517  1.00  0.00     0.177 C 
ATOM      5  C   UNL     1      39.119  38.012  23.936  1.00  0.00     0.178 C 
ATOM      6  O   UNL     1      39.817  38.884  24.819  1.00  0.00    -0.341 OA
ENDROOT
BRANCH   1   7
ATOM      7  O   UNL     1      41.133  40.015  23.236  1.00  0.00    -0.350 OA
BRANCH   7   8
ATOM      8  C   UNL     1      41.242  41.391  23.551  1.00  0.00     0.160 C 
ATOM      9  C   UNL     1      40.045  42.154  22.995  1.00  0.00     0.035 C 
ENDBRANCH   7   8
ENDBRANCH   1   7
BRANCH   2  10
ATOM     10  O   UNL     1      43.303  38.338  23.797  1.00  0.00    -0.385 OA
ATOM     11  H   UNL     1      43.205  39.162  23.252  1.00  0.00     0.211 HD
ENDBRANCH   2  10
BRANCH   3  12
ATOM     12  O   UNL     1      41.535  37.542  21.894  1.00  0.00    -0.387 OA
ATOM     13  H   UNL     1      42.423  37.987  21.857  1.00  0.00     0.211 HD
ENDBRANCH   3  12
BRANCH   5  14
ATOM     14  C   UNL     1      38.420  38.762  22.779  1.00  0.00     0.191 C 
BRANCH  14  15
ATOM     15  O   UNL     1      38.484  38.054  21.575  1.00  0.00    -0.394 OA
ATOM     16  H   UNL     1      39.448  37.901  21.394  1.00  0.00     0.210 HD
ENDBRANCH  14  15
ENDBRANCH   5  14
BRANCH   4  17
ATOM     17  O   UNL     1      39.821  35.750  24.516  1.00  0.00    -0.387 OA
ATOM     18  H   UNL     1      38.859  35.581  24.693  1.00  0.00     0.211 HD
ENDBRANCH   4  17
TORSDOF 7
ENDMDL
MODEL 4
REMARK VINA RESULT:    -4.875      1.365      3.394
REMARK INTER + INTRA:          -6.774
REMARK INTER:                  -6.506
REMARK INTRA:                  -0.268
REMARK UNBOUND:                -0.474
REMARK SMILES CCO[C@H]1O[C@@H](CO)[C@H](O)[C@@H](O)[C@H]1O
REMARK SMILES IDX 4 1 13 2 11 3 9 4 6 5 5 6 3 7 2 8 1 9 14 10 12 12 7 14 8 15
REMARK SMILES IDX 10 17
REMARK H PARENT 14 11 12 13 8 16 10 18
REMARK Flexibility Score: inf
ROOT
ATOM      1  C   UNL     1      39.893  37.962  22.526  1.00  0.00     0.281 C 
ATOM      2  C   UNL     1      40.786  36.951  23.266  1.00  0.00     0.202 C 
ATOM      3  C   UNL     1      42.000  37.640  23.894  1.00  0.00     0.179 C 
ATOM      4  C   UNL     1      42.721  38.531  22.859  1.00  0.00     0.177 C 
ATOM      5  C   UNL     1      41.751  39.367  21.969  1.00  0.00     0.178 C 
ATOM      6  O   UNL     1      40.604  38.659  21.512  1.00  0.00    -0.341 OA
ENDROOT
BRANCH   1   7
ATOM      7  O   UNL     1      39.277  38.850  23.440  1.00  0.00    -0.350 OA
BRANCH   7   8
ATOM      8  C   UNL     1      37.885  38.952  23.200  1.00  0.00     0.160 C 
ATOM      9  C   UNL     1      37.579  40.221  22.411  1.00  0.00     0.035 C 
ENDBRANCH   7   8
ENDBRANCH   1   7
BRANCH   2  10
ATOM     10  O   UNL     1      40.051  36.290  24.266  1.00  0.00    -0.385 OA
ATOM     11  H   UNL     1      40.539  35.450  24.474  1.00  0.00     0.211 HD
ENDBRANCH   2  10
BRANCH   3  12
ATOM     12  O   UNL     1      41.599  38.394  25.012  1.00  0.00    -0.387 OA
ATOM     13  H   UNL     1      42.333  38.333  25.679  1.00  0.00     0.211 HD
ENDBRANCH   3  12
BRANCH   5  14
ATOM     14  C   UNL     1      41.412  40.776  22.509  1.00  0.00     0.191 C 
BRANCH  14  15
ATOM     15  O   UNL     1      42.546  41.587  22.618  1.00  0.00    -0.394 OA
ATOM     16  H   UNL     1      43.298  40.982  22.850  1.00  0.00     0.210 HD
ENDBRANCH  14  15
ENDBRANCH   5  14
BRANCH   4  17
ATOM     17  O   UNL     1      43.566  37.742  22.057  1.00  0.00    -0.387 OA
ATOM     18  H   UNL     1      44.168  38.350  21.553  1.00  0.00     0.211 HD
ENDBRANCH   4  17
TORSDOF 7
ENDMDL
MODEL 5
REMARK VINA RESULT:    -4.862      1.754      4.210
REMARK INTER + INTRA:          -6.757
REMARK INTER:                  -6.120
REMARK INTRA:                  -0.637
REMARK UNBOUND:                -0.474
REMARK SMILES CCO[C@H]1O[C@@H](CO)[C@H](O)[C@@H](O)[C@H]1O
REMARK SMILES IDX 4 1 13 2 11 3 9 4 6 5 5 6 3 7 2 8 1 9 14 10 12 12 7 14 8 15
REMARK SMILES IDX 10 17
REMARK H PARENT 14 11 12 13 8 16 10 18
REMARK Flexibility Score: inf
ROOT
ATOM      1  C   UNL     1      40.297  38.093  23.595  1.00  0.00     0.281 C 
ATOM      2  C   UNL     1      39.348  37.117  24.312  1.00  0.00     0.202 C 
ATOM      3  C   UNL     1      37.932  37.198  23.735  1.00  0.00     0.179 C 
ATOM      4  C   UNL     1      37.451  38.664  23.667  1.00  0.00     0.177 C 
ATOM      5  C   UNL     1      38.538  39.655  23.149  1.00  0.00     0.178 C 
ATOM      6  O   UNL     1      39.842  39.437  23.676  1.00  0.00    -0.341 OA
ENDROOT
BRANCH   1   7
ATOM      7  O   UNL     1      40.510  37.691  22.253  1.00  0.00    -0.350 OA
BRANCH   7   8
ATOM      8  C   UNL     1      41.806  38.049  21.809  1.00  0.00     0.160 C 
ATOM      9  C   UNL     1      42.842  37.697  22.870  1.00  0.00     0.035 C 
ENDBRANCH   7   8
ENDBRANCH   1   7
BRANCH   2  10
ATOM     10  O   UNL     1      39.825  35.800  24.201  1.00  0.00    -0.385 OA
ATOM     11  H   UNL     1      39.600  35.339  25.052  1.00  0.00     0.211 HD
ENDBRANCH   2  10
BRANCH   3  12
ATOM     12  O   UNL     1      37.896  36.598  22.465  1.00  0.00    -0.387 OA
ATOM     13  H   UNL     1      36.990  36.764  22.093  1.00  0.00     0.211 HD
ENDBRANCH   3  12
BRANCH   5  14
ATOM     14  C   UNL     1      38.538  39.892  21.622  1.00  0.00     0.191 C 
BRANCH  14  15
ATOM     15  O   UNL     1      38.019  38.801  20.917  1.00  0.00    -0.394 OA
ATOM     16  H   UNL     1      37.960  38.054  21.567  1.00  0.00     0.210 HD
ENDBRANCH  14  15
ENDBRANCH   5  14
BRANCH   4  17
ATOM     17  O   UNL     1      36.976  39.070  24.928  1.00  0.00    -0.387 OA
ATOM     18  H   UNL     1      36.071  38.683  25.055  1.00  0.00     0.211 HD
ENDBRANCH   4  17
TORSDOF 7
ENDMDL
MODEL 6
REMARK VINA RESULT:    -4.814      1.877      2.656
REMARK INTER + INTRA:          -6.695
REMARK INTER:                  -6.205
REMARK INTRA:                  -0.489
REMARK UNBOUND:                -0.474
REMARK SMILES CCO[C@H]1O[C@@H](CO)[C@H](O)[C@@H](O)[C@H]1O
REMARK SMILES IDX 4 1 13 2 11 3 9 4 6 5 5 6 3 7 2 8 1 9 14 10 12 12 7 14 8 15
REMARK SMILES IDX 10 17
REMARK H PARENT 14 11 12 13 8 16 10 18
REMARK Flexibility Score: inf
ROOT
ATOM      1  C   UNL     1      40.737  40.383  23.133  1.00  0.00     0.281 C 
ATOM      2  C   UNL     1      42.171  40.022  22.708  1.00  0.00     0.202 C 
ATOM      3  C   UNL     1      42.170  38.967  21.599  1.00  0.00     0.179 C 
ATOM      4  C   UNL     1      41.268  37.772  21.978  1.00  0.00     0.177 C 
ATOM      5  C   UNL     1      39.913  38.193  22.625  1.00  0.00     0.178 C 
ATOM      6  O   UNL     1      40.009  39.246  23.577  1.00  0.00    -0.341 OA
ENDROOT
BRANCH   1   7
ATOM      7  O   UNL     1      40.062  41.064  22.090  1.00  0.00    -0.350 OA
BRANCH   7   8
ATOM      8  C   UNL     1      39.275  42.127  22.596  1.00  0.00     0.160 C 
ATOM      9  C   UNL     1      39.977  42.786  23.778  1.00  0.00     0.035 C 
ENDBRANCH   7   8
ENDBRANCH   1   7
BRANCH   2  10
ATOM     10  O   UNL     1      42.854  41.168  22.267  1.00  0.00    -0.385 OA
ATOM     11  H   UNL     1      42.209  41.922  22.307  1.00  0.00     0.211 HD
ENDBRANCH   2  10
BRANCH   3  12
ATOM     12  O   UNL     1      41.754  39.545  20.387  1.00  0.00    -0.387 OA
ATOM     13  H   UNL     1      41.897  40.524  20.470  1.00  0.00     0.211 HD
ENDBRANCH   3  12
BRANCH   5  14
ATOM     14  C   UNL     1      38.742  38.384  21.633  1.00  0.00     0.191 C 
BRANCH  14  15
ATOM     15  O   UNL     1      37.639  39.003  22.230  1.00  0.00    -0.394 OA
ATOM     16  H   UNL     1      37.905  39.945  22.393  1.00  0.00     0.210 HD
ENDBRANCH  14  15
ENDBRANCH   5  14
BRANCH   4  17
ATOM     17  O   UNL     1      41.968  36.897  22.830  1.00  0.00    -0.387 OA
ATOM     18  H   UNL     1      42.520  37.444  23.445  1.00  0.00     0.211 HD
ENDBRANCH   4  17
TORSDOF 7
ENDMDL
MODEL 7
REMARK VINA RESULT:    -4.745      1.896      4.082
REMARK INTER + INTRA:          -6.605
REMARK INTER:                  -6.504
REMARK INTRA:                  -0.101
REMARK UNBOUND:                -0.474
REMARK SMILES CCO[C@H]1O[C@@H](CO)[C@H](O)[C@@H](O)[C@H]1O
REMARK SMILES IDX 4 1 13 2 11 3 9 4 6 5 5 6 3 7 2 8 1 9 14 10 12 12 7 14 8 15
REMARK SMILES IDX 10 17
REMARK H PARENT 14 11 12 13 8 16 10 18
REMARK Flexibility Score: inf
ROOT
ATOM      1  C   UNL     1      40.433  38.699  23.961  1.00  0.00     0.281 C 
ATOM      2  C   UNL     1      40.027  39.924  24.799  1.00  0.00     0.202 C 
ATOM      3  C   UNL     1      39.790  41.148  23.911  1.00  0.00     0.179 C 
ATOM      4  C   UNL     1      40.977  41.366  22.947  1.00  0.00     0.177 C 
ATOM      5  C   UNL     1      41.505  40.050  22.298  1.00  0.00     0.178 C 
ATOM      6  O   UNL     1      41.601  38.944  23.189  1.00  0.00    -0.341 OA
ENDROOT
BRANCH   1   7
ATOM      7  O   UNL     1      39.353  38.263  23.155  1.00  0.00    -0.350 OA
BRANCH   7   8
ATOM      8  C   UNL     1      38.868  37.003  23.583  1.00  0.00     0.160 C 
ATOM      9  C   UNL     1      40.023  36.128  24.056  1.00  0.00     0.035 C 
ENDBRANCH   7   8
ENDBRANCH   1   7
BRANCH   2  10
ATOM     10  O   UNL     1      38.865  39.647  25.539  1.00  0.00    -0.385 OA
ATOM     11  H   UNL     1      38.266  39.119  24.948  1.00  0.00     0.211 HD
ENDBRANCH   2  10
BRANCH   3  12
ATOM     12  O   UNL     1      38.586  40.999  23.199  1.00  0.00    -0.387 OA
ATOM     13  H   UNL     1      38.730  41.399  22.302  1.00  0.00     0.211 HD
ENDBRANCH   3  12
BRANCH   5  14
ATOM     14  C   UNL     1      40.855  39.677  20.946  1.00  0.00     0.191 C 
BRANCH  14  15
ATOM     15  O   UNL     1      41.780  39.678  19.897  1.00  0.00    -0.394 OA
ATOM     16  H   UNL     1      42.178  40.587  19.878  1.00  0.00     0.210 HD
ENDBRANCH  14  15
ENDBRANCH   5  14
BRANCH   4  17
ATOM     17  O   UNL     1      42.018  42.036  23.616  1.00  0.00    -0.387 OA
ATOM     18  H   UNL     1      41.641  42.449  24.435  1.00  0.00     0.211 HD
ENDBRANCH   4  17
TORSDOF 7
ENDMDL
MODEL 8
REMARK VINA RESULT:    -4.695      2.169      3.753
REMARK INTER + INTRA:          -6.541
REMARK INTER:                  -6.063
REMARK INTRA:                  -0.478
REMARK UNBOUND:                -0.474
REMARK SMILES CCO[C@H]1O[C@@H](CO)[C@H](O)[C@@H](O)[C@H]1O
REMARK SMILES IDX 4 1 13 2 11 3 9 4 6 5 5 6 3 7 2 8 1 9 14 10 12 12 7 14 8 15
REMARK SMILES IDX 10 17
REMARK H PARENT 14 11 12 13 8 16 10 18
REMARK Flexibility Score: inf
ROOT
ATOM      1  C   UNL     1      40.794  39.228  22.707  1.00  0.00     0.281 C 
ATOM      2  C   UNL     1      41.498  40.503  22.212  1.00  0.00     0.202 C 
ATOM      3  C   UNL     1      41.131  41.710  23.080  1.00  0.00     0.179 C 
ATOM      4  C   UNL     1      39.600  41.819  23.249  1.00  0.00     0.177 C 
ATOM      5  C   UNL     1      38.902  40.451  23.519  1.00  0.00     0.178 C 
ATOM      6  O   UNL     1      39.380  39.371  22.725  1.00  0.00    -0.341 OA
ENDROOT
BRANCH   1   7
ATOM      7  O   UNL     1      41.297  38.836  23.972  1.00  0.00    -0.350 OA
BRANCH   7   8
ATOM      8  C   UNL     1      41.402  37.427  24.069  1.00  0.00     0.160 C 
ATOM      9  C   UNL     1      41.789  36.834  22.719  1.00  0.00     0.035 C 
ENDBRANCH   7   8
ENDBRANCH   1   7
BRANCH   2  10
ATOM     10  O   UNL     1      42.892  40.326  22.218  1.00  0.00    -0.385 OA
ATOM     11  H   UNL     1      43.100  39.651  21.520  1.00  0.00     0.211 HD
ENDBRANCH   2  10
BRANCH   3  12
ATOM     12  O   UNL     1      41.769  41.615  24.329  1.00  0.00    -0.387 OA
ATOM     13  H   UNL     1      41.236  40.980  24.877  1.00  0.00     0.211 HD
ENDBRANCH   3  12
BRANCH   5  14
ATOM     14  C   UNL     1      38.745  40.077  25.011  1.00  0.00     0.191 C 
BRANCH  14  15
ATOM     15  O   UNL     1      38.345  38.747  25.184  1.00  0.00    -0.394 OA
ATOM     16  H   UNL     1      37.899  38.705  26.068  1.00  0.00     0.210 HD
ENDBRANCH  14  15
ENDBRANCH   5  14
BRANCH   4  17
ATOM     17  O   UNL     1      39.038  42.442  22.119  1.00  0.00    -0.387 OA
ATOM     18  H   UNL     1      38.597  41.743  21.570  1.00  0.00     0.211 HD
ENDBRANCH   4  17
TORSDOF 7
ENDMDL
MODEL 9
REMARK VINA RESULT:    -4.661      1.532      2.859
REMARK INTER + INTRA:          -6.497
REMARK INTER:                  -5.890
REMARK INTRA:                  -0.607
REMARK UNBOUND:                -0.474
REMARK SMILES CCO[C@H]1O[C@@H](CO)[C@H](O)[C@@H](O)[C@H]1O
REMARK SMILES IDX 4 1 13 2 11 3 9 4 6 5 5 6 3 7 2 8 1 9 14 10 12 12 7 14 8 15
REMARK SMILES IDX 10 17
REMARK H PARENT 14 11 12 13 8 16 10 18
REMARK Flexibility Score: inf
ROOT
ATOM      1  C   UNL     1      39.677  39.051  22.850  1.00  0.00     0.281 C 
ATOM      2  C   UNL     1      39.868  40.007  21.659  1.00  0.00     0.202 C 
ATOM      3  C   UNL     1      41.315  39.989  21.161  1.00  0.00     0.179 C 
ATOM      4  C   UNL     1      42.301  40.184  22.334  1.00  0.00     0.177 C 
ATOM      5  C   UNL     1      41.927  39.365  23.608  1.00  0.00     0.178 C 
ATOM      6  O   UNL     1      40.541  39.369  23.932  1.00  0.00    -0.341 OA
ENDROOT
BRANCH   1   7
ATOM      7  O   UNL     1      39.823  37.703  22.440  1.00  0.00    -0.350 OA
BRANCH   7   8
ATOM      8  C   UNL     1      39.050  36.834  23.247  1.00  0.00     0.160 C 
ATOM      9  C   UNL     1      37.696  37.465  23.552  1.00  0.00     0.035 C 
ENDBRANCH   7   8
ENDBRANCH   1   7
BRANCH   2  10
ATOM     10  O   UNL     1      39.005  39.655  20.607  1.00  0.00    -0.385 OA
ATOM     11  H   UNL     1      38.943  40.445  20.007  1.00  0.00     0.211 HD
ENDBRANCH   2  10
BRANCH   3  12
ATOM     12  O   UNL     1      41.575  38.786  20.482  1.00  0.00    -0.387 OA
ATOM     13  H   UNL     1      41.997  38.170  21.137  1.00  0.00     0.211 HD
ENDBRANCH   3  12
BRANCH   5  14
ATOM     14  C   UNL     1      42.561  37.957  23.694  1.00  0.00     0.191 C 
BRANCH  14  15
ATOM     15  O   UNL     1      42.888  37.446  22.434  1.00  0.00    -0.394 OA
ATOM     16  H   UNL     1      43.849  37.647  22.293  1.00  0.00     0.210 HD
ENDBRANCH  14  15
ENDBRANCH   5  14
BRANCH   4  17
ATOM     17  O   UNL     1      42.409  41.552  22.645  1.00  0.00    -0.387 OA
ATOM     18  H   UNL     1      41.494  41.937  22.661  1.00  0.00     0.211 HD
ENDBRANCH   4  17
TORSDOF 7
ENDMDL
