MODEL 1
REMARK VINA RESULT:    20.567      0.000      0.000
REMARK INTER + INTRA:          53.030
REMARK INTER:                  51.828
REMARK INTRA:                   1.202
REMARK UNBOUND:                 1.202
REMARK SMILES CCCCCCCCCCCCCCCCCCCCCCCCCCCC(=O)[O-]
REMARK SMILES IDX 15 1 16 2 17 3 18 4 19 5 20 6 21 7 22 8 23 9 24 10 25 11
REMARK SMILES IDX 26 12 27 13 28 14 29 15 30 16 14 17 13 18 12 19 11 20 10 21
REMARK SMILES IDX 9 22 8 23 7 24 6 25 5 26 4 27 3 28 2 29 1 30
REMARK H PARENT
REMARK Flexibility Score: inf
ROOT
ATOM      1  C   UNL     1     -13.185  31.203 -21.957  1.00  0.00     0.000 C 
ENDROOT
BRANCH   1   2
ATOM      2  C   UNL     1     -13.253  32.693 -21.590  1.00  0.00     0.000 C 
BRANCH   2   3
ATOM      3  C   UNL     1     -12.771  33.609 -22.731  1.00  0.00     0.000 C 
BRANCH   3   4
ATOM      4  C   UNL     1     -11.235  33.738 -22.791  1.00  0.00     0.000 C 
BRANCH   4   5
ATOM      5  C   UNL     1     -10.507  33.206 -21.540  1.00  0.00     0.000 C 
BRANCH   5   6
ATOM      6  C   UNL     1     -10.511  34.144 -20.318  1.00  0.00     0.000 C 
BRANCH   6   7
ATOM      7  C   UNL     1      -9.176  34.859 -20.039  1.00  0.00     0.000 C 
BRANCH   7   8
ATOM      8  C   UNL     1      -8.540  34.433 -18.704  1.00  0.00     0.000 C 
BRANCH   8   9
ATOM      9  C   UNL     1      -7.144  35.042 -18.492  1.00  0.00     0.000 C 
BRANCH   9  10
ATOM     10  C   UNL     1      -6.405  34.418 -17.297  1.00  0.00     0.000 C 
BRANCH  10  11
ATOM     11  C   UNL     1      -7.342  34.064 -16.127  1.00  0.00     0.000 C 
BRANCH  11  12
ATOM     12  C   UNL     1      -8.562  33.199 -16.501  1.00  0.00     0.006 C 
BRANCH  12  13
ATOM     13  C   UNL     1      -8.633  31.844 -15.778  1.00  0.00     0.053 C 
BRANCH  13  14
ATOM     14  C   UNL     1      -8.138  31.933 -14.367  1.00  0.00     0.041 C 
ATOM     15  O   UNL     1      -8.617  31.178 -13.480  1.00  0.00    -0.550 OA
ATOM     16  O   UNL     1      -7.182  32.880 -14.022  1.00  0.00    -0.550 OA
ENDBRANCH  13  14
ENDBRANCH  12  13
ENDBRANCH  11  12
ENDBRANCH  10  11
ENDBRANCH   9  10
ENDBRANCH   8   9
ENDBRANCH   7   8
ENDBRANCH   6   7
ENDBRANCH   5   6
ENDBRANCH   4   5
ENDBRANCH   3   4
ENDBRANCH   2   3
ENDBRANCH   1   2
BRANCH   1  17
ATOM     17  C   UNL     1     -13.270  30.280 -20.733  1.00  0.00     0.000 C 
BRANCH  17  18
ATOM     18  C   UNL     1     -14.715  30.191 -20.219  1.00  0.00     0.000 C 
BRANCH  18  19
ATOM     19  C   UNL     1     -14.806  29.637 -18.788  1.00  0.00     0.000 C 
BRANCH  19  20
ATOM     20  C   UNL     1     -15.969  28.643 -18.615  1.00  0.00     0.000 C 
BRANCH  20  21
ATOM     21  C   UNL     1     -16.672  28.317 -19.945  1.00  0.00     0.000 C 
BRANCH  21  22
ATOM     22  C   UNL     1     -17.707  27.189 -19.808  1.00  0.00    -0.000 C 
BRANCH  22  23
ATOM     23  C   UNL     1     -17.874  26.768 -18.340  1.00  0.00    -0.000 C 
BRANCH  23  24
ATOM     24  C   UNL     1     -16.879  25.672 -17.921  1.00  0.00    -0.000 C 
BRANCH  24  25
ATOM     25  C   UNL     1     -16.962  24.425 -18.820  1.00  0.00    -0.000 C 
BRANCH  25  26
ATOM     26  C   UNL     1     -15.650  23.624 -18.845  1.00  0.00    -0.000 C 
BRANCH  26  27
ATOM     27  C   UNL     1     -15.385  22.961 -20.205  1.00  0.00    -0.000 C 
BRANCH  27  28
ATOM     28  C   UNL     1     -15.366  24.007 -21.330  1.00  0.00    -0.000 C 
BRANCH  28  29
ATOM     29  C   UNL     1     -14.042  24.015 -22.109  1.00  0.00    -0.003 C 
ATOM     30  C   UNL     1     -13.945  22.875 -23.124  1.00  0.00     0.004 C 
ENDBRANCH  28  29
ENDBRANCH  27  28
ENDBRANCH  26  27
ENDBRANCH  25  26
ENDBRANCH  24  25
ENDBRANCH  23  24
ENDBRANCH  22  23
ENDBRANCH  21  22
ENDBRANCH  20  21
ENDBRANCH  19  20
ENDBRANCH  18  19
ENDBRANCH  17  18
ENDBRANCH   1  17
TORSDOF 26
ENDMDL
MODEL 2
REMARK VINA RESULT:    21.179      2.053      4.122
REMARK INTER + INTRA:          54.573
REMARK INTER:                  54.778
REMARK INTRA:                  -0.205
REMARK UNBOUND:                 1.202
REMARK SMILES CCCCCCCCCCCCCCCCCCCCCCCCCCCC(=O)[O-]
REMARK SMILES IDX 15 1 16 2 17 3 18 4 19 5 20 6 21 7 22 8 23 9 24 10 25 11
REMARK SMILES IDX 26 12 27 13 28 14 29 15 30 16 14 17 13 18 12 19 11 20 10 21
REMARK SMILES IDX 9 22 8 23 7 24 6 25 5 26 4 27 3 28 2 29 1 30
REMARK H PARENT
REMARK Flexibility Score: inf
ROOT
ATOM      1  C   UNL     1     -13.044  30.498 -20.865  1.00  0.00     0.000 C 
ENDROOT
BRANCH   1   2
ATOM      2  C   UNL     1     -13.363  31.864 -21.491  1.00  0.00     0.000 C 
BRANCH   2   3
ATOM      3  C   UNL     1     -12.417  32.977 -21.002  1.00  0.00     0.000 C 
BRANCH   3   4
ATOM      4  C   UNL     1     -11.540  33.561 -22.129  1.00  0.00     0.000 C 
BRANCH   4   5
ATOM      5  C   UNL     1     -10.411  34.487 -21.636  1.00  0.00     0.000 C 
BRANCH   5   6
ATOM      6  C   UNL     1      -9.893  34.204 -20.212  1.00  0.00     0.000 C 
BRANCH   6   7
ATOM      7  C   UNL     1     -10.102  32.761 -19.716  1.00  0.00     0.000 C 
BRANCH   7   8
ATOM      8  C   UNL     1      -8.956  32.269 -18.814  1.00  0.00     0.000 C 
BRANCH   8   9
ATOM      9  C   UNL     1      -8.823  33.093 -17.523  1.00  0.00     0.000 C 
BRANCH   9  10
ATOM     10  C   UNL     1      -8.129  32.311 -16.395  1.00  0.00     0.000 C 
BRANCH  10  11
ATOM     11  C   UNL     1      -7.930  33.147 -15.117  1.00  0.00     0.000 C 
BRANCH  11  12
ATOM     12  C   UNL     1      -7.083  34.423 -15.291  1.00  0.00     0.006 C 
BRANCH  12  13
ATOM     13  C   UNL     1      -6.287  34.490 -16.604  1.00  0.00     0.053 C 
BRANCH  13  14
ATOM     14  C   UNL     1      -6.260  35.874 -17.176  1.00  0.00     0.041 C 
ATOM     15  O   UNL     1      -6.620  36.855 -16.474  1.00  0.00    -0.550 OA
ATOM     16  O   UNL     1      -5.880  36.075 -18.497  1.00  0.00    -0.550 OA
ENDBRANCH  13  14
ENDBRANCH  12  13
ENDBRANCH  11  12
ENDBRANCH  10  11
ENDBRANCH   9  10
ENDBRANCH   8   9
ENDBRANCH   7   8
ENDBRANCH   6   7
ENDBRANCH   5   6
ENDBRANCH   4   5
ENDBRANCH   3   4
ENDBRANCH   2   3
ENDBRANCH   1   2
BRANCH   1  17
ATOM     17  C   UNL     1     -12.048  29.676 -21.696  1.00  0.00     0.000 C 
BRANCH  17  18
ATOM     18  C   UNL     1     -12.598  28.267 -21.965  1.00  0.00     0.000 C 
BRANCH  18  19
ATOM     19  C   UNL     1     -11.530  27.172 -21.813  1.00  0.00     0.000 C 
BRANCH  19  20
ATOM     20  C   UNL     1     -11.298  26.391 -23.120  1.00  0.00     0.000 C 
BRANCH  20  21
ATOM     21  C   UNL     1     -11.607  24.891 -22.976  1.00  0.00     0.000 C 
BRANCH  21  22
ATOM     22  C   UNL     1     -13.115  24.596 -22.941  1.00  0.00    -0.000 C 
BRANCH  22  23
ATOM     23  C   UNL     1     -13.380  23.110 -22.658  1.00  0.00    -0.000 C 
BRANCH  23  24
ATOM     24  C   UNL     1     -14.034  22.876 -21.285  1.00  0.00    -0.000 C 
BRANCH  24  25
ATOM     25  C   UNL     1     -15.337  23.675 -21.108  1.00  0.00    -0.000 C 
BRANCH  25  26
ATOM     26  C   UNL     1     -16.203  23.149 -19.953  1.00  0.00    -0.000 C 
BRANCH  26  27
ATOM     27  C   UNL     1     -16.402  24.187 -18.838  1.00  0.00    -0.000 C 
BRANCH  27  28
ATOM     28  C   UNL     1     -17.144  25.424 -19.368  1.00  0.00    -0.000 C 
BRANCH  28  29
ATOM     29  C   UNL     1     -16.971  26.651 -18.460  1.00  0.00    -0.003 C 
ATOM     30  C   UNL     1     -16.566  27.908 -19.233  1.00  0.00     0.004 C 
ENDBRANCH  28  29
ENDBRANCH  27  28
ENDBRANCH  26  27
ENDBRANCH  25  26
ENDBRANCH  24  25
ENDBRANCH  23  24
ENDBRANCH  22  23
ENDBRANCH  21  22
ENDBRANCH  20  21
ENDBRANCH  19  20
ENDBRANCH  18  19
ENDBRANCH  17  18
ENDBRANCH   1  17
TORSDOF 26
ENDMDL
MODEL 3
REMARK VINA RESULT:    21.691      1.234      2.897
REMARK INTER + INTRA:          55.863
REMARK INTER:                  57.667
REMARK INTRA:                  -1.804
REMARK UNBOUND:                 1.202
REMARK SMILES CCCCCCCCCCCCCCCCCCCCCCCCCCCC(=O)[O-]
REMARK SMILES IDX 15 1 16 2 17 3 18 4 19 5 20 6 21 7 22 8 23 9 24 10 25 11
REMARK SMILES IDX 26 12 27 13 28 14 29 15 30 16 14 17 13 18 12 19 11 20 10 21
REMARK SMILES IDX 9 22 8 23 7 24 6 25 5 26 4 27 3 28 2 29 1 30
REMARK H PARENT
REMARK Flexibility Score: inf
ROOT
ATOM      1  C   UNL     1     -15.455  28.919 -19.634  1.00  0.00     0.000 C 
ENDROOT
BRANCH   1   2
ATOM      2  C   UNL     1     -14.497  29.954 -20.242  1.00  0.00     0.000 C 
BRANCH   2   3
ATOM      3  C   UNL     1     -14.930  31.404 -19.957  1.00  0.00     0.000 C 
BRANCH   3   4
ATOM      4  C   UNL     1     -14.049  32.448 -20.674  1.00  0.00     0.000 C 
BRANCH   4   5
ATOM      5  C   UNL     1     -12.833  31.850 -21.409  1.00  0.00     0.000 C 
BRANCH   5   6
ATOM      6  C   UNL     1     -11.874  32.872 -22.051  1.00  0.00     0.000 C 
BRANCH   6   7
ATOM      7  C   UNL     1     -11.351  33.964 -21.098  1.00  0.00     0.000 C 
BRANCH   7   8
ATOM      8  C   UNL     1      -9.917  33.692 -20.611  1.00  0.00     0.000 C 
BRANCH   8   9
ATOM      9  C   UNL     1      -9.518  34.577 -19.419  1.00  0.00     0.000 C 
BRANCH   9  10
ATOM     10  C   UNL     1      -8.645  33.828 -18.397  1.00  0.00     0.000 C 
BRANCH  10  11
ATOM     11  C   UNL     1      -9.251  32.483 -17.958  1.00  0.00     0.000 C 
BRANCH  11  12
ATOM     12  C   UNL     1      -8.307  31.568 -17.153  1.00  0.00     0.006 C 
BRANCH  12  13
ATOM     13  C   UNL     1      -7.292  32.312 -16.270  1.00  0.00     0.053 C 
BRANCH  13  14
ATOM     14  C   UNL     1      -7.906  32.798 -14.994  1.00  0.00     0.041 C 
ATOM     15  O   UNL     1      -7.789  34.006 -14.655  1.00  0.00    -0.550 OA
ATOM     16  O   UNL     1      -8.569  31.910 -14.155  1.00  0.00    -0.550 OA
ENDBRANCH  13  14
ENDBRANCH  12  13
ENDBRANCH  11  12
ENDBRANCH  10  11
ENDBRANCH   9  10
ENDBRANCH   8   9
ENDBRANCH   7   8
ENDBRANCH   6   7
ENDBRANCH   5   6
ENDBRANCH   4   5
ENDBRANCH   3   4
ENDBRANCH   2   3
ENDBRANCH   1   2
BRANCH   1  17
ATOM     17  C   UNL     1     -15.421  27.569 -20.366  1.00  0.00     0.000 C 
BRANCH  17  18
ATOM     18  C   UNL     1     -16.840  27.009 -20.541  1.00  0.00     0.000 C 
BRANCH  18  19
ATOM     19  C   UNL     1     -17.783  27.404 -19.393  1.00  0.00     0.000 C 
BRANCH  19  20
ATOM     20  C   UNL     1     -18.313  26.182 -18.621  1.00  0.00     0.000 C 
BRANCH  20  21
ATOM     21  C   UNL     1     -17.409  25.791 -17.439  1.00  0.00     0.000 C 
BRANCH  21  22
ATOM     22  C   UNL     1     -16.021  25.306 -17.889  1.00  0.00    -0.000 C 
BRANCH  22  23
ATOM     23  C   UNL     1     -15.793  23.840 -17.492  1.00  0.00    -0.000 C 
BRANCH  23  24
ATOM     24  C   UNL     1     -15.938  22.875 -18.682  1.00  0.00    -0.000 C 
BRANCH  24  25
ATOM     25  C   UNL     1     -15.710  23.570 -20.036  1.00  0.00    -0.000 C 
BRANCH  25  26
ATOM     26  C   UNL     1     -16.548  22.953 -21.167  1.00  0.00    -0.000 C 
BRANCH  26  27
ATOM     27  C   UNL     1     -15.812  22.943 -22.516  1.00  0.00    -0.000 C 
BRANCH  27  28
ATOM     28  C   UNL     1     -14.525  23.780 -22.442  1.00  0.00    -0.000 C 
BRANCH  28  29
ATOM     29  C   UNL     1     -13.260  22.913 -22.353  1.00  0.00    -0.003 C 
ATOM     30  C   UNL     1     -12.662  22.881 -20.946  1.00  0.00     0.004 C 
ENDBRANCH  28  29
ENDBRANCH  27  28
ENDBRANCH  26  27
ENDBRANCH  25  26
ENDBRANCH  24  25
ENDBRANCH  23  24
ENDBRANCH  22  23
ENDBRANCH  21  22
ENDBRANCH  20  21
ENDBRANCH  19  20
ENDBRANCH  18  19
ENDBRANCH  17  18
ENDBRANCH   1  17
TORSDOF 26
ENDMDL
MODEL 4
REMARK VINA RESULT:    21.814      1.456      3.452
REMARK INTER + INTRA:          56.172
REMARK INTER:                  57.581
REMARK INTRA:                  -1.408
REMARK UNBOUND:                 1.202
REMARK SMILES CCCCCCCCCCCCCCCCCCCCCCCCCCCC(=O)[O-]
REMARK SMILES IDX 15 1 16 2 17 3 18 4 19 5 20 6 21 7 22 8 23 9 24 10 25 11
REMARK SMILES IDX 26 12 27 13 28 14 29 15 30 16 14 17 13 18 12 19 11 20 10 21
REMARK SMILES IDX 9 22 8 23 7 24 6 25 5 26 4 27 3 28 2 29 1 30
REMARK H PARENT
REMARK Flexibility Score: inf
ROOT
ATOM      1  C   UNL     1     -13.092  30.101 -20.744  1.00  0.00     0.000 C 
ENDROOT
BRANCH   1   2
ATOM      2  C   UNL     1     -12.788  31.587 -20.504  1.00  0.00     0.000 C 
BRANCH   2   3
ATOM      3  C   UNL     1     -13.342  32.494 -21.618  1.00  0.00     0.000 C 
BRANCH   3   4
ATOM      4  C   UNL     1     -12.477  33.749 -21.860  1.00  0.00     0.000 C 
BRANCH   4   5
ATOM      5  C   UNL     1     -11.207  33.489 -22.694  1.00  0.00     0.000 C 
BRANCH   5   6
ATOM      6  C   UNL     1      -9.871  33.681 -21.951  1.00  0.00     0.000 C 
BRANCH   6   7
ATOM      7  C   UNL     1      -9.858  33.182 -20.494  1.00  0.00     0.000 C 
BRANCH   7   8
ATOM      8  C   UNL     1      -9.372  34.253 -19.501  1.00  0.00     0.000 C 
BRANCH   8   9
ATOM      9  C   UNL     1      -8.118  33.816 -18.726  1.00  0.00     0.000 C 
BRANCH   9  10
ATOM     10  C   UNL     1      -7.277  35.011 -18.246  1.00  0.00     0.000 C 
BRANCH  10  11
ATOM     11  C   UNL     1      -6.749  34.837 -16.810  1.00  0.00     0.000 C 
BRANCH  11  12
ATOM     12  C   UNL     1      -7.809  34.438 -15.764  1.00  0.00     0.006 C 
BRANCH  12  13
ATOM     13  C   UNL     1      -7.439  33.213 -14.912  1.00  0.00     0.053 C 
BRANCH  13  14
ATOM     14  C   UNL     1      -8.279  32.019 -15.249  1.00  0.00     0.041 C 
ATOM     15  O   UNL     1      -8.725  31.281 -14.331  1.00  0.00    -0.550 OA
ATOM     16  O   UNL     1      -8.532  31.696 -16.576  1.00  0.00    -0.550 OA
ENDBRANCH  13  14
ENDBRANCH  12  13
ENDBRANCH  11  12
ENDBRANCH  10  11
ENDBRANCH   9  10
ENDBRANCH   8   9
ENDBRANCH   7   8
ENDBRANCH   6   7
ENDBRANCH   5   6
ENDBRANCH   4   5
ENDBRANCH   3   4
ENDBRANCH   2   3
ENDBRANCH   1   2
BRANCH   1  17
ATOM     17  C   UNL     1     -11.915  29.343 -21.374  1.00  0.00     0.000 C 
BRANCH  17  18
ATOM     18  C   UNL     1     -12.293  28.813 -22.766  1.00  0.00     0.000 C 
BRANCH  18  19
ATOM     19  C   UNL     1     -11.835  27.364 -22.997  1.00  0.00     0.000 C 
BRANCH  19  20
ATOM     20  C   UNL     1     -12.993  26.356 -22.876  1.00  0.00     0.000 C 
BRANCH  20  21
ATOM     21  C   UNL     1     -12.502  24.904 -22.744  1.00  0.00     0.000 C 
BRANCH  21  22
ATOM     22  C   UNL     1     -13.606  23.875 -23.037  1.00  0.00    -0.000 C 
BRANCH  22  23
ATOM     23  C   UNL     1     -14.161  23.277 -21.736  1.00  0.00    -0.000 C 
BRANCH  23  24
ATOM     24  C   UNL     1     -15.436  23.989 -21.252  1.00  0.00    -0.000 C 
BRANCH  24  25
ATOM     25  C   UNL     1     -15.834  23.582 -19.823  1.00  0.00    -0.000 C 
BRANCH  25  26
ATOM     26  C   UNL     1     -15.539  24.680 -18.789  1.00  0.00    -0.000 C 
BRANCH  26  27
ATOM     27  C   UNL     1     -16.785  25.099 -17.994  1.00  0.00    -0.000 C 
BRANCH  27  28
ATOM     28  C   UNL     1     -17.741  25.923 -18.870  1.00  0.00    -0.000 C 
BRANCH  28  29
ATOM     29  C   UNL     1     -17.022  27.041 -19.641  1.00  0.00    -0.003 C 
ATOM     30  C   UNL     1     -16.051  27.835 -18.765  1.00  0.00     0.004 C 
ENDBRANCH  28  29
ENDBRANCH  27  28
ENDBRANCH  26  27
ENDBRANCH  25  26
ENDBRANCH  24  25
ENDBRANCH  23  24
ENDBRANCH  22  23
ENDBRANCH  21  22
ENDBRANCH  20  21
ENDBRANCH  19  20
ENDBRANCH  18  19
ENDBRANCH  17  18
ENDBRANCH   1  17
TORSDOF 26
ENDMDL
MODEL 5
REMARK VINA RESULT:    22.110      1.563      2.192
REMARK INTER + INTRA:          56.919
REMARK INTER:                  58.350
REMARK INTRA:                  -1.431
REMARK UNBOUND:                 1.202
REMARK SMILES CCCCCCCCCCCCCCCCCCCCCCCCCCCC(=O)[O-]
REMARK SMILES IDX 15 1 16 2 17 3 18 4 19 5 20 6 21 7 22 8 23 9 24 10 25 11
REMARK SMILES IDX 26 12 27 13 28 14 29 15 30 16 14 17 13 18 12 19 11 20 10 21
REMARK SMILES IDX 9 22 8 23 7 24 6 25 5 26 4 27 3 28 2 29 1 30
REMARK H PARENT
REMARK Flexibility Score: inf
ROOT
ATOM      1  C   UNL     1     -13.919  31.731 -20.992  1.00  0.00     0.000 C 
ENDROOT
BRANCH   1   2
ATOM      2  C   UNL     1     -12.635  31.908 -21.816  1.00  0.00     0.000 C 
BRANCH   2   3
ATOM      3  C   UNL     1     -12.113  33.357 -21.799  1.00  0.00     0.000 C 
BRANCH   3   4
ATOM      4  C   UNL     1     -11.208  33.657 -20.587  1.00  0.00     0.000 C 
BRANCH   4   5
ATOM      5  C   UNL     1     -10.110  32.603 -20.342  1.00  0.00     0.000 C 
BRANCH   5   6
ATOM      6  C   UNL     1      -8.671  33.147 -20.259  1.00  0.00     0.000 C 
BRANCH   6   7
ATOM      7  C   UNL     1      -8.487  34.369 -19.339  1.00  0.00     0.000 C 
BRANCH   7   8
ATOM      8  C   UNL     1      -7.169  34.325 -18.546  1.00  0.00     0.000 C 
BRANCH   8   9
ATOM      9  C   UNL     1      -6.626  35.727 -18.223  1.00  0.00     0.000 C 
BRANCH   9  10
ATOM     10  C   UNL     1      -6.330  35.912 -16.725  1.00  0.00     0.000 C 
BRANCH  10  11
ATOM     11  C   UNL     1      -6.105  34.580 -15.987  1.00  0.00     0.000 C 
BRANCH  11  12
ATOM     12  C   UNL     1      -7.219  34.178 -15.001  1.00  0.00     0.006 C 
BRANCH  12  13
ATOM     13  C   UNL     1      -8.410  33.447 -15.642  1.00  0.00     0.053 C 
BRANCH  13  14
ATOM     14  C   UNL     1      -8.109  32.003 -15.904  1.00  0.00     0.041 C 
ATOM     15  O   UNL     1      -7.858  31.225 -14.947  1.00  0.00    -0.550 OA
ATOM     16  O   UNL     1      -8.061  31.526 -17.208  1.00  0.00    -0.550 OA
ENDBRANCH  13  14
ENDBRANCH  12  13
ENDBRANCH  11  12
ENDBRANCH  10  11
ENDBRANCH   9  10
ENDBRANCH   8   9
ENDBRANCH   7   8
ENDBRANCH   6   7
ENDBRANCH   5   6
ENDBRANCH   4   5
ENDBRANCH   3   4
ENDBRANCH   2   3
ENDBRANCH   1   2
BRANCH   1  17
ATOM     17  C   UNL     1     -15.195  31.845 -21.839  1.00  0.00     0.000 C 
BRANCH  17  18
ATOM     18  C   UNL     1     -15.987  30.528 -21.809  1.00  0.00     0.000 C 
BRANCH  18  19
ATOM     19  C   UNL     1     -17.492  30.732 -22.045  1.00  0.00     0.000 C 
BRANCH  19  20
ATOM     20  C   UNL     1     -18.301  29.440 -21.829  1.00  0.00     0.000 C 
BRANCH  20  21
ATOM     21  C   UNL     1     -17.591  28.447 -20.892  1.00  0.00     0.000 C 
BRANCH  21  22
ATOM     22  C   UNL     1     -18.492  27.969 -19.742  1.00  0.00    -0.000 C 
BRANCH  22  23
ATOM     23  C   UNL     1     -18.044  26.594 -19.226  1.00  0.00    -0.000 C 
BRANCH  23  24
ATOM     24  C   UNL     1     -16.900  26.690 -18.201  1.00  0.00    -0.000 C 
BRANCH  24  25
ATOM     25  C   UNL     1     -17.117  25.770 -16.987  1.00  0.00    -0.000 C 
BRANCH  25  26
ATOM     26  C   UNL     1     -17.091  24.279 -17.360  1.00  0.00    -0.000 C 
BRANCH  26  27
ATOM     27  C   UNL     1     -15.764  23.850 -18.004  1.00  0.00    -0.000 C 
BRANCH  27  28
ATOM     28  C   UNL     1     -16.012  22.895 -19.182  1.00  0.00    -0.000 C 
BRANCH  28  29
ATOM     29  C   UNL     1     -16.406  23.635 -20.470  1.00  0.00    -0.003 C 
ATOM     30  C   UNL     1     -15.573  24.895 -20.708  1.00  0.00     0.004 C 
ENDBRANCH  28  29
ENDBRANCH  27  28
ENDBRANCH  26  27
ENDBRANCH  25  26
ENDBRANCH  24  25
ENDBRANCH  23  24
ENDBRANCH  22  23
ENDBRANCH  21  22
ENDBRANCH  20  21
ENDBRANCH  19  20
ENDBRANCH  18  19
ENDBRANCH  17  18
ENDBRANCH   1  17
TORSDOF 26
ENDMDL
MODEL 6
REMARK VINA RESULT:    22.120      1.432      4.024
REMARK INTER + INTRA:          56.942
REMARK INTER:                  53.702
REMARK INTRA:                   3.240
REMARK UNBOUND:                 1.202
REMARK SMILES CCCCCCCCCCCCCCCCCCCCCCCCCCCC(=O)[O-]
REMARK SMILES IDX 15 1 16 2 17 3 18 4 19 5 20 6 21 7 22 8 23 9 24 10 25 11
REMARK SMILES IDX 26 12 27 13 28 14 29 15 30 16 14 17 13 18 12 19 11 20 10 21
REMARK SMILES IDX 9 22 8 23 7 24 6 25 5 26 4 27 3 28 2 29 1 30
REMARK H PARENT
REMARK Flexibility Score: inf
ROOT
ATOM      1  C   UNL     1     -10.307  34.443 -20.187  1.00  0.00     0.000 C 
ENDROOT
BRANCH   1   2
ATOM      2  C   UNL     1      -8.996  33.890 -19.607  1.00  0.00     0.000 C 
BRANCH   2   3
ATOM      3  C   UNL     1      -8.251  34.920 -18.738  1.00  0.00     0.000 C 
BRANCH   3   4
ATOM      4  C   UNL     1      -6.737  34.974 -19.032  1.00  0.00     0.000 C 
BRANCH   4   5
ATOM      5  C   UNL     1      -6.013  36.177 -18.397  1.00  0.00     0.000 C 
BRANCH   5   6
ATOM      6  C   UNL     1      -5.996  36.207 -16.856  1.00  0.00     0.000 C 
BRANCH   6   7
ATOM      7  C   UNL     1      -6.423  34.894 -16.174  1.00  0.00     0.000 C 
BRANCH   7   8
ATOM      8  C   UNL     1      -7.951  34.751 -16.060  1.00  0.00     0.000 C 
BRANCH   8   9
ATOM      9  C   UNL     1      -8.395  34.223 -14.686  1.00  0.00     0.000 C 
BRANCH   9  10
ATOM     10  C   UNL     1      -7.407  33.200 -14.101  1.00  0.00     0.000 C 
BRANCH  10  11
ATOM     11  C   UNL     1      -7.893  31.746 -14.241  1.00  0.00     0.000 C 
BRANCH  11  12
ATOM     12  C   UNL     1      -9.241  31.571 -14.969  1.00  0.00     0.006 C 
BRANCH  12  13
ATOM     13  C   UNL     1      -9.343  32.305 -16.315  1.00  0.00     0.053 C 
BRANCH  13  14
ATOM     14  C   UNL     1      -8.328  31.815 -17.301  1.00  0.00     0.041 C 
ATOM     15  O   UNL     1      -8.666  31.012 -18.211  1.00  0.00    -0.550 OA
ATOM     16  O   UNL     1      -7.000  32.208 -17.190  1.00  0.00    -0.550 OA
ENDBRANCH  13  14
ENDBRANCH  12  13
ENDBRANCH  11  12
ENDBRANCH  10  11
ENDBRANCH   9  10
ENDBRANCH   8   9
ENDBRANCH   7   8
ENDBRANCH   6   7
ENDBRANCH   5   6
ENDBRANCH   4   5
ENDBRANCH   3   4
ENDBRANCH   2   3
ENDBRANCH   1   2
BRANCH   1  17
ATOM     17  C   UNL     1     -10.914  33.534 -21.266  1.00  0.00     0.000 C 
BRANCH  17  18
ATOM     18  C   UNL     1     -12.368  33.176 -20.920  1.00  0.00     0.000 C 
BRANCH  18  19
ATOM     19  C   UNL     1     -12.856  31.907 -21.639  1.00  0.00     0.000 C 
BRANCH  19  20
ATOM     20  C   UNL     1     -13.231  30.783 -20.656  1.00  0.00     0.000 C 
BRANCH  20  21
ATOM     21  C   UNL     1     -14.752  30.584 -20.536  1.00  0.00     0.000 C 
BRANCH  21  22
ATOM     22  C   UNL     1     -15.213  30.399 -19.081  1.00  0.00    -0.000 C 
BRANCH  22  23
ATOM     23  C   UNL     1     -15.525  28.925 -18.784  1.00  0.00    -0.000 C 
BRANCH  23  24
ATOM     24  C   UNL     1     -16.291  28.240 -19.928  1.00  0.00    -0.000 C 
BRANCH  24  25
ATOM     25  C   UNL     1     -17.460  27.376 -19.421  1.00  0.00    -0.000 C 
BRANCH  25  26
ATOM     26  C   UNL     1     -17.236  26.857 -17.991  1.00  0.00    -0.000 C 
BRANCH  26  27
ATOM     27  C   UNL     1     -16.932  25.352 -17.946  1.00  0.00    -0.000 C 
BRANCH  27  28
ATOM     28  C   UNL     1     -15.983  24.951 -19.087  1.00  0.00    -0.000 C 
BRANCH  28  29
ATOM     29  C   UNL     1     -16.144  23.480 -19.501  1.00  0.00    -0.003 C 
ATOM     30  C   UNL     1     -15.636  23.205 -20.917  1.00  0.00     0.004 C 
ENDBRANCH  28  29
ENDBRANCH  27  28
ENDBRANCH  26  27
ENDBRANCH  25  26
ENDBRANCH  24  25
ENDBRANCH  23  24
ENDBRANCH  22  23
ENDBRANCH  21  22
ENDBRANCH  20  21
ENDBRANCH  19  20
ENDBRANCH  18  19
ENDBRANCH  17  18
ENDBRANCH   1  17
TORSDOF 26
ENDMDL
MODEL 7
REMARK VINA RESULT:    22.167      1.776      3.778
REMARK INTER + INTRA:          57.063
REMARK INTER:                  57.624
REMARK INTRA:                  -0.561
REMARK UNBOUND:                 1.202
REMARK SMILES CCCCCCCCCCCCCCCCCCCCCCCCCCCC(=O)[O-]
REMARK SMILES IDX 15 1 16 2 17 3 18 4 19 5 20 6 21 7 22 8 23 9 24 10 25 11
REMARK SMILES IDX 26 12 27 13 28 14 29 15 30 16 14 17 13 18 12 19 11 20 10 21
REMARK SMILES IDX 9 22 8 23 7 24 6 25 5 26 4 27 3 28 2 29 1 30
REMARK H PARENT
REMARK Flexibility Score: inf
ROOT
ATOM      1  C   UNL     1     -11.186  33.447 -20.873  1.00  0.00     0.000 C 
ENDROOT
BRANCH   1   2
ATOM      2  C   UNL     1     -10.257  34.593 -20.446  1.00  0.00     0.000 C 
BRANCH   2   3
ATOM      3  C   UNL     1      -8.941  34.091 -19.822  1.00  0.00     0.000 C 
BRANCH   3   4
ATOM      4  C   UNL     1      -8.361  35.064 -18.775  1.00  0.00     0.000 C 
BRANCH   4   5
ATOM      5  C   UNL     1      -6.833  35.247 -18.861  1.00  0.00     0.000 C 
BRANCH   5   6
ATOM      6  C   UNL     1      -6.127  35.591 -17.535  1.00  0.00     0.000 C 
BRANCH   6   7
ATOM      7  C   UNL     1      -6.496  34.684 -16.346  1.00  0.00     0.000 C 
BRANCH   7   8
ATOM      8  C   UNL     1      -6.670  33.210 -16.752  1.00  0.00     0.000 C 
BRANCH   8   9
ATOM      9  C   UNL     1      -8.113  32.711 -16.566  1.00  0.00     0.000 C 
BRANCH   9  10
ATOM     10  C   UNL     1      -8.250  31.733 -15.387  1.00  0.00     0.000 C 
BRANCH  10  11
ATOM     11  C   UNL     1      -8.282  32.439 -14.019  1.00  0.00     0.000 C 
BRANCH  11  12
ATOM     12  C   UNL     1      -9.072  33.762 -13.981  1.00  0.00     0.006 C 
BRANCH  12  13
ATOM     13  C   UNL     1      -8.644  34.733 -12.870  1.00  0.00     0.053 C 
BRANCH  13  14
ATOM     14  C   UNL     1      -9.782  35.090 -11.965  1.00  0.00     0.041 C 
ATOM     15  O   UNL     1      -9.838  34.615 -10.800  1.00  0.00    -0.550 OA
ATOM     16  O   UNL     1     -10.806  35.911 -12.421  1.00  0.00    -0.550 OA
ENDBRANCH  13  14
ENDBRANCH  12  13
ENDBRANCH  11  12
ENDBRANCH  10  11
ENDBRANCH   9  10
ENDBRANCH   8   9
ENDBRANCH   7   8
ENDBRANCH   6   7
ENDBRANCH   5   6
ENDBRANCH   4   5
ENDBRANCH   3   4
ENDBRANCH   2   3
ENDBRANCH   1   2
BRANCH   1  17
ATOM     17  C   UNL     1     -11.485  33.448 -22.379  1.00  0.00     0.000 C 
BRANCH  17  18
ATOM     18  C   UNL     1     -12.918  32.965 -22.649  1.00  0.00     0.000 C 
BRANCH  18  19
ATOM     19  C   UNL     1     -13.611  32.420 -21.390  1.00  0.00     0.000 C 
BRANCH  19  20
ATOM     20  C   UNL     1     -13.340  30.921 -21.172  1.00  0.00     0.000 C 
BRANCH  20  21
ATOM     21  C   UNL     1     -14.000  30.380 -19.892  1.00  0.00     0.000 C 
BRANCH  21  22
ATOM     22  C   UNL     1     -15.347  29.691 -20.165  1.00  0.00    -0.000 C 
BRANCH  22  23
ATOM     23  C   UNL     1     -15.652  28.632 -19.095  1.00  0.00    -0.000 C 
BRANCH  23  24
ATOM     24  C   UNL     1     -17.046  28.003 -19.263  1.00  0.00    -0.000 C 
BRANCH  24  25
ATOM     25  C   UNL     1     -17.000  26.465 -19.293  1.00  0.00    -0.000 C 
BRANCH  25  26
ATOM     26  C   UNL     1     -16.495  25.862 -17.973  1.00  0.00    -0.000 C 
BRANCH  26  27
ATOM     27  C   UNL     1     -16.908  24.393 -17.794  1.00  0.00    -0.000 C 
BRANCH  27  28
ATOM     28  C   UNL     1     -16.013  23.467 -18.632  1.00  0.00    -0.000 C 
BRANCH  28  29
ATOM     29  C   UNL     1     -16.250  23.623 -20.142  1.00  0.00    -0.003 C 
ATOM     30  C   UNL     1     -14.949  23.666 -20.944  1.00  0.00     0.004 C 
ENDBRANCH  28  29
ENDBRANCH  27  28
ENDBRANCH  26  27
ENDBRANCH  25  26
ENDBRANCH  24  25
ENDBRANCH  23  24
ENDBRANCH  22  23
ENDBRANCH  21  22
ENDBRANCH  20  21
ENDBRANCH  19  20
ENDBRANCH  18  19
ENDBRANCH  17  18
ENDBRANCH   1  17
TORSDOF 26
ENDMDL
MODEL 8
REMARK VINA RESULT:    22.337      4.137     10.871
REMARK INTER + INTRA:          57.490
REMARK INTER:                  58.445
REMARK INTRA:                  -0.955
REMARK UNBOUND:                 1.202
REMARK SMILES CCCCCCCCCCCCCCCCCCCCCCCCCCCC(=O)[O-]
REMARK SMILES IDX 15 1 16 2 17 3 18 4 19 5 20 6 21 7 22 8 23 9 24 10 25 11
REMARK SMILES IDX 26 12 27 13 28 14 29 15 30 16 14 17 13 18 12 19 11 20 10 21
REMARK SMILES IDX 9 22 8 23 7 24 6 25 5 26 4 27 3 28 2 29 1 30
REMARK H PARENT
REMARK Flexibility Score: inf
ROOT
ATOM      1  C   UNL     1     -10.724  32.979 -20.340  1.00  0.00     0.000 C 
ENDROOT
BRANCH   1   2
ATOM      2  C   UNL     1     -11.980  33.576 -20.993  1.00  0.00     0.000 C 
BRANCH   2   3
ATOM      3  C   UNL     1     -12.775  32.540 -21.809  1.00  0.00     0.000 C 
BRANCH   3   4
ATOM      4  C   UNL     1     -12.958  31.200 -21.067  1.00  0.00     0.000 C 
BRANCH   4   5
ATOM      5  C   UNL     1     -14.429  30.792 -20.854  1.00  0.00     0.000 C 
BRANCH   5   6
ATOM      6  C   UNL     1     -14.659  29.602 -19.903  1.00  0.00     0.000 C 
BRANCH   6   7
ATOM      7  C   UNL     1     -16.101  29.453 -19.380  1.00  0.00     0.000 C 
BRANCH   7   8
ATOM      8  C   UNL     1     -16.376  28.063 -18.780  1.00  0.00     0.000 C 
BRANCH   8   9
ATOM      9  C   UNL     1     -15.739  26.928 -19.599  1.00  0.00     0.000 C 
BRANCH   9  10
ATOM     10  C   UNL     1     -16.630  25.676 -19.661  1.00  0.00     0.000 C 
BRANCH  10  11
ATOM     11  C   UNL     1     -15.991  24.448 -18.989  1.00  0.00     0.000 C 
BRANCH  11  12
ATOM     12  C   UNL     1     -15.960  23.169 -19.849  1.00  0.00     0.006 C 
BRANCH  12  13
ATOM     13  C   UNL     1     -15.913  23.416 -21.365  1.00  0.00     0.053 C 
BRANCH  13  14
ATOM     14  C   UNL     1     -14.510  23.470 -21.884  1.00  0.00     0.041 C 
ATOM     15  O   UNL     1     -14.265  24.017 -22.992  1.00  0.00    -0.550 OA
ATOM     16  O   UNL     1     -13.478  22.877 -21.167  1.00  0.00    -0.550 OA
ENDBRANCH  13  14
ENDBRANCH  12  13
ENDBRANCH  11  12
ENDBRANCH  10  11
ENDBRANCH   9  10
ENDBRANCH   8   9
ENDBRANCH   7   8
ENDBRANCH   6   7
ENDBRANCH   5   6
ENDBRANCH   4   5
ENDBRANCH   3   4
ENDBRANCH   2   3
ENDBRANCH   1   2
BRANCH   1  17
ATOM     17  C   UNL     1      -9.684  34.042 -19.958  1.00  0.00     0.000 C 
BRANCH  17  18
ATOM     18  C   UNL     1      -8.860  33.586 -18.745  1.00  0.00     0.000 C 
BRANCH  18  19
ATOM     19  C   UNL     1      -7.674  34.518 -18.445  1.00  0.00     0.000 C 
BRANCH  19  20
ATOM     20  C   UNL     1      -7.073  34.272 -17.049  1.00  0.00     0.000 C 
BRANCH  20  21
ATOM     21  C   UNL     1      -8.117  33.778 -16.033  1.00  0.00     0.000 C 
BRANCH  21  22
ATOM     22  C   UNL     1      -8.113  32.249 -15.873  1.00  0.00    -0.000 C 
BRANCH  22  23
ATOM     23  C   UNL     1      -8.272  31.848 -14.399  1.00  0.00    -0.000 C 
BRANCH  23  24
ATOM     24  C   UNL     1      -7.137  30.933 -13.909  1.00  0.00    -0.000 C 
BRANCH  24  25
ATOM     25  C   UNL     1      -7.390  30.387 -12.492  1.00  0.00    -0.000 C 
BRANCH  25  26
ATOM     26  C   UNL     1      -6.649  29.067 -12.224  1.00  0.00    -0.000 C 
BRANCH  26  27
ATOM     27  C   UNL     1      -6.699  28.647 -10.748  1.00  0.00    -0.000 C 
BRANCH  27  28
ATOM     28  C   UNL     1      -8.105  28.861 -10.165  1.00  0.00    -0.000 C 
BRANCH  28  29
ATOM     29  C   UNL     1      -8.830  27.540  -9.867  1.00  0.00    -0.003 C 
ATOM     30  C   UNL     1      -7.897  26.328  -9.917  1.00  0.00     0.004 C 
ENDBRANCH  28  29
ENDBRANCH  27  28
ENDBRANCH  26  27
ENDBRANCH  25  26
ENDBRANCH  24  25
ENDBRANCH  23  24
ENDBRANCH  22  23
ENDBRANCH  21  22
ENDBRANCH  20  21
ENDBRANCH  19  20
ENDBRANCH  18  19
ENDBRANCH  17  18
ENDBRANCH   1  17
TORSDOF 26
ENDMDL
MODEL 9
REMARK VINA RESULT:    22.353      3.451     11.384
REMARK INTER + INTRA:          57.530
REMARK INTER:                  54.521
REMARK INTRA:                   3.009
REMARK UNBOUND:                 1.202
REMARK SMILES CCCCCCCCCCCCCCCCCCCCCCCCCCCC(=O)[O-]
REMARK SMILES IDX 15 1 16 2 17 3 18 4 19 5 20 6 21 7 22 8 23 9 24 10 25 11
REMARK SMILES IDX 26 12 27 13 28 14 29 15 30 16 14 17 13 18 12 19 11 20 10 21
REMARK SMILES IDX 9 22 8 23 7 24 6 25 5 26 4 27 3 28 2 29 1 30
REMARK H PARENT
REMARK Flexibility Score: inf
ROOT
ATOM      1  C   UNL     1     -13.728  32.224 -21.105  1.00  0.00     0.000 C 
ENDROOT
BRANCH   1   2
ATOM      2  C   UNL     1     -12.879  31.041 -20.618  1.00  0.00     0.000 C 
BRANCH   2   3
ATOM      3  C   UNL     1     -13.728  29.804 -20.267  1.00  0.00     0.000 C 
BRANCH   3   4
ATOM      4  C   UNL     1     -15.214  30.142 -20.029  1.00  0.00     0.000 C 
BRANCH   4   5
ATOM      5  C   UNL     1     -15.897  29.267 -18.959  1.00  0.00     0.000 C 
BRANCH   5   6
ATOM      6  C   UNL     1     -16.580  27.988 -19.481  1.00  0.00     0.000 C 
BRANCH   6   7
ATOM      7  C   UNL     1     -15.619  26.891 -19.976  1.00  0.00     0.000 C 
BRANCH   7   8
ATOM      8  C   UNL     1     -16.311  25.527 -20.150  1.00  0.00     0.000 C 
BRANCH   8   9
ATOM      9  C   UNL     1     -15.926  24.524 -19.050  1.00  0.00     0.000 C 
BRANCH   9  10
ATOM     10  C   UNL     1     -16.019  23.064 -19.527  1.00  0.00     0.000 C 
BRANCH  10  11
ATOM     11  C   UNL     1     -16.108  22.936 -21.059  1.00  0.00     0.000 C 
BRANCH  11  12
ATOM     12  C   UNL     1     -15.512  24.116 -21.853  1.00  0.00     0.006 C 
BRANCH  12  13
ATOM     13  C   UNL     1     -14.321  23.747 -22.751  1.00  0.00     0.053 C 
BRANCH  13  14
ATOM     14  C   UNL     1     -13.186  23.161 -21.970  1.00  0.00     0.041 C 
ATOM     15  O   UNL     1     -12.099  22.886 -22.543  1.00  0.00    -0.550 OA
ATOM     16  O   UNL     1     -13.342  22.878 -20.618  1.00  0.00    -0.550 OA
ENDBRANCH  13  14
ENDBRANCH  12  13
ENDBRANCH  11  12
ENDBRANCH  10  11
ENDBRANCH   9  10
ENDBRANCH   8   9
ENDBRANCH   7   8
ENDBRANCH   6   7
ENDBRANCH   5   6
ENDBRANCH   4   5
ENDBRANCH   3   4
ENDBRANCH   2   3
ENDBRANCH   1   2
BRANCH   1  17
ATOM     17  C   UNL     1     -12.977  33.562 -21.052  1.00  0.00     0.000 C 
BRANCH  17  18
ATOM     18  C   UNL     1     -11.470  33.348 -21.260  1.00  0.00     0.000 C 
BRANCH  18  19
ATOM     19  C   UNL     1     -10.609  34.286 -20.398  1.00  0.00     0.000 C 
BRANCH  19  20
ATOM     20  C   UNL     1      -9.387  33.572 -19.793  1.00  0.00     0.000 C 
BRANCH  20  21
ATOM     21  C   UNL     1      -8.054  34.192 -20.246  1.00  0.00     0.000 C 
BRANCH  21  22
ATOM     22  C   UNL     1      -7.154  34.591 -19.066  1.00  0.00    -0.000 C 
BRANCH  22  23
ATOM     23  C   UNL     1      -7.245  36.099 -18.787  1.00  0.00    -0.000 C 
BRANCH  23  24
ATOM     24  C   UNL     1      -6.089  36.610 -17.911  1.00  0.00    -0.000 C 
BRANCH  24  25
ATOM     25  C   UNL     1      -6.006  35.882 -16.558  1.00  0.00    -0.000 C 
BRANCH  25  26
ATOM     26  C   UNL     1      -6.270  34.373 -16.680  1.00  0.00    -0.000 C 
BRANCH  26  27
ATOM     27  C   UNL     1      -7.695  33.982 -16.263  1.00  0.00    -0.000 C 
BRANCH  27  28
ATOM     28  C   UNL     1      -7.879  32.457 -16.306  1.00  0.00    -0.000 C 
BRANCH  28  29
ATOM     29  C   UNL     1      -8.874  31.951 -15.249  1.00  0.00    -0.003 C 
ATOM     30  C   UNL     1      -8.209  31.652 -13.905  1.00  0.00     0.004 C 
ENDBRANCH  28  29
ENDBRANCH  27  28
ENDBRANCH  26  27
ENDBRANCH  25  26
ENDBRANCH  24  25
ENDBRANCH  23  24
ENDBRANCH  22  23
ENDBRANCH  21  22
ENDBRANCH  20  21
ENDBRANCH  19  20
ENDBRANCH  18  19
ENDBRANCH  17  18
ENDBRANCH   1  17
TORSDOF 26
ENDMDL
