MODEL 1
REMARK VINA RESULT:    -3.006      0.000      0.000
REMARK INTER + INTRA:          -3.889
REMARK INTER:                  -3.709
REMARK INTRA:                  -0.180
REMARK UNBOUND:                -0.180
REMARK SMILES CCCCC=CC(C)=O
REMARK SMILES IDX 4 1 3 2 2 3 1 4 5 5 6 6 7 7 9 8 8 9
REMARK H PARENT
REMARK Flexibility Score: inf
ROOT
ATOM      1  C   UNL     1     188.975 202.272 214.113  1.00  0.00     0.027 C 
ENDROOT
BRANCH   1   2
ATOM      2  C   UNL     1     190.261 202.759 213.428  1.00  0.00     0.004 C 
BRANCH   2   3
ATOM      3  C   UNL     1     190.319 204.290 213.328  1.00  0.00    -0.003 C 
ATOM      4  C   UNL     1     189.972 204.764 211.920  1.00  0.00     0.004 C 
ENDBRANCH   2   3
ENDBRANCH   1   2
BRANCH   1   5
ATOM      5  C   UNL     1     187.917 201.872 213.124  1.00  0.00    -0.023 C 
ATOM      6  C   UNL     1     186.663 201.609 213.510  1.00  0.00     0.042 C 
BRANCH   6   7
ATOM      7  C   UNL     1     185.591 201.216 212.572  1.00  0.00     0.152 C 
ATOM      8  O   UNL     1     185.327 199.991 212.438  1.00  0.00    -0.295 OA
ATOM      9  C   UNL     1     184.811 202.219 211.777  1.00  0.00     0.093 C 
ENDBRANCH   6   7
ENDBRANCH   1   5
TORSDOF 4
ENDMDL
MODEL 2
REMARK VINA RESULT:    -2.987      2.406      4.837
REMARK INTER + INTRA:          -3.866
REMARK INTER:                  -3.610
REMARK INTRA:                  -0.256
REMARK UNBOUND:                -0.180
REMARK SMILES CCCCC=CC(C)=O
REMARK SMILES IDX 4 1 3 2 2 3 1 4 5 5 6 6 7 7 9 8 8 9
REMARK H PARENT
REMARK Flexibility Score: inf
ROOT
ATOM      1  C   UNL     1     187.167 201.124 213.856  1.00  0.00     0.027 C 
ENDROOT
BRANCH   1   2
ATOM      2  C   UNL     1     185.909 202.001 213.753  1.00  0.00     0.004 C 
BRANCH   2   3
ATOM      3  C   UNL     1     185.321 202.005 212.335  1.00  0.00    -0.003 C 
ATOM      4  C   UNL     1     185.647 200.708 211.601  1.00  0.00     0.004 C 
ENDBRANCH   2   3
ENDBRANCH   1   2
BRANCH   1   5
ATOM      5  C   UNL     1     188.406 201.932 214.125  1.00  0.00    -0.023 C 
ATOM      6  C   UNL     1     189.053 202.568 213.141  1.00  0.00     0.042 C 
BRANCH   6   7
ATOM      7  C   UNL     1     190.271 203.374 213.360  1.00  0.00     0.152 C 
ATOM      8  O   UNL     1     191.367 202.777 213.532  1.00  0.00    -0.295 OA
ATOM      9  C   UNL     1     190.248 204.873 213.387  1.00  0.00     0.093 C 
ENDBRANCH   6   7
ENDBRANCH   1   5
TORSDOF 4
ENDMDL
MODEL 3
REMARK VINA RESULT:    -2.932      3.040      5.308
REMARK INTER + INTRA:          -3.798
REMARK INTER:                  -3.604
REMARK INTRA:                  -0.194
REMARK UNBOUND:                -0.180
REMARK SMILES CCCCC=CC(C)=O
REMARK SMILES IDX 4 1 3 2 2 3 1 4 5 5 6 6 7 7 9 8 8 9
REMARK H PARENT
REMARK Flexibility Score: inf
ROOT
ATOM      1  C   UNL     1     187.387 202.492 210.639  1.00  0.00     0.027 C 
ENDROOT
BRANCH   1   2
ATOM      2  C   UNL     1     186.603 201.452 211.455  1.00  0.00     0.004 C 
BRANCH   2   3
ATOM      3  C   UNL     1     185.462 202.090 212.260  1.00  0.00    -0.003 C 
ATOM      4  C   UNL     1     185.710 201.963 213.760  1.00  0.00     0.004 C 
ENDBRANCH   2   3
ENDBRANCH   1   2
BRANCH   1   5
ATOM      5  C   UNL     1     188.627 202.958 211.350  1.00  0.00    -0.023 C 
ATOM      6  C   UNL     1     189.118 204.189 211.164  1.00  0.00     0.042 C 
BRANCH   6   7
ATOM      7  C   UNL     1     190.330 204.690 211.844  1.00  0.00     0.152 C 
ATOM      8  O   UNL     1     191.370 204.882 211.159  1.00  0.00    -0.295 OA
ATOM      9  C   UNL     1     190.367 204.975 213.315  1.00  0.00     0.093 C 
ENDBRANCH   6   7
ENDBRANCH   1   5
TORSDOF 4
ENDMDL
MODEL 4
REMARK VINA RESULT:    -2.928      1.354      2.069
REMARK INTER + INTRA:          -3.792
REMARK INTER:                  -3.597
REMARK INTRA:                  -0.195
REMARK UNBOUND:                -0.180
REMARK SMILES CCCCC=CC(C)=O
REMARK SMILES IDX 4 1 3 2 2 3 1 4 5 5 6 6 7 7 9 8 8 9
REMARK H PARENT
REMARK Flexibility Score: inf
ROOT
ATOM      1  C   UNL     1     188.614 203.265 210.573  1.00  0.00     0.027 C 
ENDROOT
BRANCH   1   2
ATOM      2  C   UNL     1     189.485 204.368 211.194  1.00  0.00     0.004 C 
BRANCH   2   3
ATOM      3  C   UNL     1     190.042 203.962 212.566  1.00  0.00    -0.003 C 
ATOM      4  C   UNL     1     190.668 205.155 213.282  1.00  0.00     0.004 C 
ENDBRANCH   2   3
ENDBRANCH   1   2
BRANCH   1   5
ATOM      5  C   UNL     1     187.877 202.467 211.612  1.00  0.00    -0.023 C 
ATOM      6  C   UNL     1     186.567 202.216 211.501  1.00  0.00     0.042 C 
BRANCH   6   7
ATOM      7  C   UNL     1     185.803 201.435 212.495  1.00  0.00     0.152 C 
ATOM      8  O   UNL     1     185.130 200.447 212.097  1.00  0.00    -0.295 OA
ATOM      9  C   UNL     1     185.801 201.775 213.955  1.00  0.00     0.093 C 
ENDBRANCH   6   7
ENDBRANCH   1   5
TORSDOF 4
ENDMDL
MODEL 5
REMARK VINA RESULT:    -2.890      2.866      4.904
REMARK INTER + INTRA:          -3.746
REMARK INTER:                  -3.493
REMARK INTRA:                  -0.253
REMARK UNBOUND:                -0.180
REMARK SMILES CCCCC=CC(C)=O
REMARK SMILES IDX 4 1 3 2 2 3 1 4 5 5 6 6 7 7 9 8 8 9
REMARK H PARENT
REMARK Flexibility Score: inf
ROOT
ATOM      1  C   UNL     1     186.005 201.422 211.176  1.00  0.00     0.027 C 
ENDROOT
BRANCH   1   2
ATOM      2  C   UNL     1     185.042 202.098 212.164  1.00  0.00     0.004 C 
BRANCH   2   3
ATOM      3  C   UNL     1     185.601 202.118 213.594  1.00  0.00    -0.003 C 
ATOM      4  C   UNL     1     186.588 200.976 213.816  1.00  0.00     0.004 C 
ENDBRANCH   2   3
ENDBRANCH   1   2
BRANCH   1   5
ATOM      5  C   UNL     1     186.845 202.417 210.426  1.00  0.00    -0.023 C 
ATOM      6  C   UNL     1     188.098 202.698 210.802  1.00  0.00     0.042 C 
BRANCH   6   7
ATOM      7  C   UNL     1     188.960 203.666 210.093  1.00  0.00     0.152 C 
ATOM      8  O   UNL     1     189.327 203.400 208.918  1.00  0.00    -0.295 OA
ATOM      9  C   UNL     1     189.412 204.950 210.721  1.00  0.00     0.093 C 
ENDBRANCH   6   7
ENDBRANCH   1   5
TORSDOF 4
ENDMDL
MODEL 6
REMARK VINA RESULT:    -2.886      2.662      5.048
REMARK INTER + INTRA:          -3.741
REMARK INTER:                  -3.500
REMARK INTRA:                  -0.241
REMARK UNBOUND:                -0.180
REMARK SMILES CCCCC=CC(C)=O
REMARK SMILES IDX 4 1 3 2 2 3 1 4 5 5 6 6 7 7 9 8 8 9
REMARK H PARENT
REMARK Flexibility Score: inf
ROOT
ATOM      1  C   UNL     1     187.925 201.448 212.687  1.00  0.00     0.027 C 
ENDROOT
BRANCH   1   2
ATOM      2  C   UNL     1     187.230 201.566 214.053  1.00  0.00     0.004 C 
BRANCH   2   3
ATOM      3  C   UNL     1     185.750 201.950 213.918  1.00  0.00    -0.003 C 
ATOM      4  C   UNL     1     185.352 202.101 212.452  1.00  0.00     0.004 C 
ENDBRANCH   2   3
ENDBRANCH   1   2
BRANCH   1   5
ATOM      5  C   UNL     1     189.052 202.430 212.534  1.00  0.00    -0.023 C 
ATOM      6  C   UNL     1     189.525 203.120 213.579  1.00  0.00     0.042 C 
BRANCH   6   7
ATOM      7  C   UNL     1     190.632 204.092 213.475  1.00  0.00     0.152 C 
ATOM      8  O   UNL     1     190.355 205.320 213.421  1.00  0.00    -0.295 OA
ATOM      9  C   UNL     1     192.070 203.670 213.430  1.00  0.00     0.093 C 
ENDBRANCH   6   7
ENDBRANCH   1   5
TORSDOF 4
ENDMDL
MODEL 7
REMARK VINA RESULT:    -2.846      2.334      3.978
REMARK INTER + INTRA:          -3.691
REMARK INTER:                  -3.451
REMARK INTRA:                  -0.240
REMARK UNBOUND:                -0.180
REMARK SMILES CCCCC=CC(C)=O
REMARK SMILES IDX 4 1 3 2 2 3 1 4 5 5 6 6 7 7 9 8 8 9
REMARK H PARENT
REMARK Flexibility Score: inf
ROOT
ATOM      1  C   UNL     1     185.213 202.147 212.274  1.00  0.00     0.027 C 
ENDROOT
BRANCH   1   2
ATOM      2  C   UNL     1     185.735 201.998 213.711  1.00  0.00     0.004 C 
BRANCH   2   3
ATOM      3  C   UNL     1     187.004 201.136 213.779  1.00  0.00    -0.003 C 
ATOM      4  C   UNL     1     188.226 201.981 214.125  1.00  0.00     0.004 C 
ENDBRANCH   2   3
ENDBRANCH   1   2
BRANCH   1   5
ATOM      5  C   UNL     1     185.624 200.999 211.395  1.00  0.00    -0.023 C 
ATOM      6  C   UNL     1     184.721 200.161 210.872  1.00  0.00     0.042 C 
BRANCH   6   7
ATOM      7  C   UNL     1     185.079 199.023 210.001  1.00  0.00     0.152 C 
ATOM      8  O   UNL     1     184.165 198.453 209.347  1.00  0.00    -0.295 OA
ATOM      9  C   UNL     1     186.486 198.523 209.870  1.00  0.00     0.093 C 
ENDBRANCH   6   7
ENDBRANCH   1   5
TORSDOF 4
ENDMDL
MODEL 8
REMARK VINA RESULT:    -2.677      2.683      4.876
REMARK INTER + INTRA:          -3.482
REMARK INTER:                  -3.215
REMARK INTRA:                  -0.267
REMARK UNBOUND:                -0.180
REMARK SMILES CCCCC=CC(C)=O
REMARK SMILES IDX 4 1 3 2 2 3 1 4 5 5 6 6 7 7 9 8 8 9
REMARK H PARENT
REMARK Flexibility Score: inf
ROOT
ATOM      1  C   UNL     1     187.533 201.343 212.150  1.00  0.00     0.027 C 
ENDROOT
BRANCH   1   2
ATOM      2  C   UNL     1     186.817 201.399 213.509  1.00  0.00     0.004 C 
BRANCH   2   3
ATOM      3  C   UNL     1     185.456 202.103 213.417  1.00  0.00    -0.003 C 
ATOM      4  C   UNL     1     184.968 202.171 211.972  1.00  0.00     0.004 C 
ENDBRANCH   2   3
ENDBRANCH   1   2
BRANCH   1   5
ATOM      5  C   UNL     1     188.662 202.332 212.059  1.00  0.00    -0.023 C 
ATOM      6  C   UNL     1     188.586 203.408 211.266  1.00  0.00     0.042 C 
BRANCH   6   7
ATOM      7  C   UNL     1     189.669 204.406 211.148  1.00  0.00     0.152 C 
ATOM      8  O   UNL     1     189.888 204.928 210.022  1.00  0.00    -0.295 OA
ATOM      9  C   UNL     1     190.514 204.817 212.315  1.00  0.00     0.093 C 
ENDBRANCH   6   7
ENDBRANCH   1   5
TORSDOF 4
ENDMDL
MODEL 9
REMARK VINA RESULT:    -2.600      2.000      5.144
REMARK INTER + INTRA:          -3.388
REMARK INTER:                  -3.206
REMARK INTRA:                  -0.181
REMARK UNBOUND:                -0.180
REMARK SMILES CCCCC=CC(C)=O
REMARK SMILES IDX 4 1 3 2 2 3 1 4 5 5 6 6 7 7 9 8 8 9
REMARK H PARENT
REMARK Flexibility Score: inf
ROOT
ATOM      1  C   UNL     1     184.641 202.153 211.835  1.00  0.00     0.027 C 
ENDROOT
BRANCH   1   2
ATOM      2  C   UNL     1     184.178 201.156 210.762  1.00  0.00     0.004 C 
BRANCH   2   3
ATOM      3  C   UNL     1     184.642 199.724 211.063  1.00  0.00    -0.003 C 
ATOM      4  C   UNL     1     185.147 199.031 209.801  1.00  0.00     0.004 C 
ENDBRANCH   2   3
ENDBRANCH   1   2
BRANCH   1   5
ATOM      5  C   UNL     1     185.835 201.655 212.601  1.00  0.00    -0.023 C 
ATOM      6  C   UNL     1     187.080 202.001 212.255  1.00  0.00     0.042 C 
BRANCH   6   7
ATOM      7  C   UNL     1     188.281 201.538 212.979  1.00  0.00     0.152 C 
ATOM      8  O   UNL     1     188.825 200.460 212.619  1.00  0.00    -0.295 OA
ATOM      9  C   UNL     1     188.874 202.302 214.125  1.00  0.00     0.093 C 
ENDBRANCH   6   7
ENDBRANCH   1   5
TORSDOF 4
ENDMDL
