MODEL 1
REMARK VINA RESULT:    -3.373      0.000      0.000
REMARK INTER + INTRA:          -4.205
REMARK INTER:                  -4.161
REMARK INTRA:                  -0.044
REMARK UNBOUND:                -0.044
REMARK SMILES CCCCCC(=O)[O-]
REMARK SMILES IDX 4 1 5 2 6 3 7 4 8 5 3 6 2 7 1 8
REMARK H PARENT
REMARK Flexibility Score: inf
ROOT
ATOM      1  C   UNL     1      -0.975 -15.025 -26.778  1.00  0.00     0.006 C 
ENDROOT
BRANCH   1   2
ATOM      2  C   UNL     1      -2.074 -15.950 -26.236  1.00  0.00     0.053 C 
BRANCH   2   3
ATOM      3  C   UNL     1      -1.490 -17.249 -25.784  1.00  0.00     0.041 C 
ATOM      4  O   UNL     1      -0.446 -17.699 -26.328  1.00  0.00    -0.550 OA
ATOM      5  O   UNL     1      -2.125 -17.991 -24.795  1.00  0.00    -0.550 OA
ENDBRANCH   2   3
ENDBRANCH   1   2
BRANCH   1   6
ATOM      6  C   UNL     1      -1.443 -13.559 -26.881  1.00  0.00     0.000 C 
BRANCH   6   7
ATOM      7  C   UNL     1      -0.538 -12.683 -27.764  1.00  0.00    -0.003 C 
ATOM      8  C   UNL     1      -0.601 -11.202 -27.401  1.00  0.00     0.004 C 
ENDBRANCH   6   7
ENDBRANCH   1   6
TORSDOF 4
ENDMDL
MODEL 2
REMARK VINA RESULT:    -3.303      1.573      2.278
REMARK INTER + INTRA:          -4.119
REMARK INTER:                  -4.062
REMARK INTRA:                  -0.057
REMARK UNBOUND:                -0.044
REMARK SMILES CCCCCC(=O)[O-]
REMARK SMILES IDX 4 1 5 2 6 3 7 4 8 5 3 6 2 7 1 8
REMARK H PARENT
REMARK Flexibility Score: inf
ROOT
ATOM      1  C   UNL     1       0.133 -13.602 -27.897  1.00  0.00     0.006 C 
ENDROOT
BRANCH   1   2
ATOM      2  C   UNL     1      -0.652 -14.907 -28.090  1.00  0.00     0.053 C 
BRANCH   2   3
ATOM      3  C   UNL     1      -1.045 -15.482 -26.766  1.00  0.00     0.041 C 
ATOM      4  O   UNL     1      -1.156 -14.735 -25.758  1.00  0.00    -0.550 OA
ATOM      5  O   UNL     1      -1.242 -16.851 -26.633  1.00  0.00    -0.550 OA
ENDBRANCH   2   3
ENDBRANCH   1   2
BRANCH   1   6
ATOM      6  C   UNL     1      -0.744 -12.354 -28.125  1.00  0.00     0.000 C 
BRANCH   6   7
ATOM      7  C   UNL     1      -0.054 -11.036 -27.735  1.00  0.00    -0.003 C 
ATOM      8  C   UNL     1       1.422 -10.995 -28.125  1.00  0.00     0.004 C 
ENDBRANCH   6   7
ENDBRANCH   1   6
TORSDOF 4
ENDMDL
MODEL 3
REMARK VINA RESULT:    -3.112      1.658      2.031
REMARK INTER + INTRA:          -3.883
REMARK INTER:                  -3.806
REMARK INTRA:                  -0.077
REMARK UNBOUND:                -0.044
REMARK SMILES CCCCCC(=O)[O-]
REMARK SMILES IDX 4 1 5 2 6 3 7 4 8 5 3 6 2 7 1 8
REMARK H PARENT
REMARK Flexibility Score: inf
ROOT
ATOM      1  C   UNL     1      -1.168 -16.487 -26.602  1.00  0.00     0.006 C 
ENDROOT
BRANCH   1   2
ATOM      2  C   UNL     1      -1.553 -17.649 -25.676  1.00  0.00     0.053 C 
BRANCH   2   3
ATOM      3  C   UNL     1      -0.669 -18.830 -25.921  1.00  0.00     0.041 C 
ATOM      4  O   UNL     1       0.563 -18.667 -26.127  1.00  0.00    -0.550 OA
ATOM      5  O   UNL     1      -1.213 -20.107 -25.972  1.00  0.00    -0.550 OA
ENDBRANCH   2   3
ENDBRANCH   1   2
BRANCH   1   6
ATOM      6  C   UNL     1      -1.856 -15.166 -26.199  1.00  0.00     0.000 C 
BRANCH   6   7
ATOM      7  C   UNL     1      -1.546 -13.995 -27.147  1.00  0.00    -0.003 C 
ATOM      8  C   UNL     1      -0.216 -14.155 -27.880  1.00  0.00     0.004 C 
ENDBRANCH   6   7
ENDBRANCH   1   6
TORSDOF 4
ENDMDL
MODEL 4
REMARK VINA RESULT:    -3.085      1.658      2.273
REMARK INTER + INTRA:          -3.851
REMARK INTER:                  -3.773
REMARK INTRA:                  -0.078
REMARK UNBOUND:                -0.044
REMARK SMILES CCCCCC(=O)[O-]
REMARK SMILES IDX 4 1 5 2 6 3 7 4 8 5 3 6 2 7 1 8
REMARK H PARENT
REMARK Flexibility Score: inf
ROOT
ATOM      1  C   UNL     1      -1.185 -16.500 -26.570  1.00  0.00     0.006 C 
ENDROOT
BRANCH   1   2
ATOM      2  C   UNL     1      -1.578 -17.661 -25.646  1.00  0.00     0.053 C 
BRANCH   2   3
ATOM      3  C   UNL     1      -0.729 -18.861 -25.922  1.00  0.00     0.041 C 
ATOM      4  O   UNL     1      -1.240 -20.012 -25.927  1.00  0.00    -0.550 OA
ATOM      5  O   UNL     1       0.638 -18.714 -26.125  1.00  0.00    -0.550 OA
ENDBRANCH   2   3
ENDBRANCH   1   2
BRANCH   1   6
ATOM      6  C   UNL     1      -1.955 -15.205 -26.241  1.00  0.00     0.000 C 
BRANCH   6   7
ATOM      7  C   UNL     1      -1.506 -13.992 -27.073  1.00  0.00    -0.003 C 
ATOM      8  C   UNL     1      -0.261 -14.269 -27.911  1.00  0.00     0.004 C 
ENDBRANCH   6   7
ENDBRANCH   1   6
TORSDOF 4
ENDMDL
MODEL 5
REMARK VINA RESULT:    -3.014      2.433      3.614
REMARK INTER + INTRA:          -3.763
REMARK INTER:                  -3.709
REMARK INTRA:                  -0.053
REMARK UNBOUND:                -0.044
REMARK SMILES CCCCCC(=O)[O-]
REMARK SMILES IDX 4 1 5 2 6 3 7 4 8 5 3 6 2 7 1 8
REMARK H PARENT
REMARK Flexibility Score: inf
ROOT
ATOM      1  C   UNL     1      -1.242 -18.183 -25.699  1.00  0.00     0.006 C 
ENDROOT
BRANCH   1   2
ATOM      2  C   UNL     1      -0.006 -19.085 -25.817  1.00  0.00     0.053 C 
BRANCH   2   3
ATOM      3  C   UNL     1      -0.410 -20.524 -25.860  1.00  0.00     0.041 C 
ATOM      4  O   UNL     1       0.159 -21.365 -25.115  1.00  0.00    -0.550 OA
ATOM      5  O   UNL     1      -1.382 -20.947 -26.758  1.00  0.00    -0.550 OA
ENDBRANCH   2   3
ENDBRANCH   1   2
BRANCH   1   6
ATOM      6  C   UNL     1      -1.057 -16.839 -26.433  1.00  0.00     0.000 C 
BRANCH   6   7
ATOM      7  C   UNL     1      -2.125 -15.790 -26.080  1.00  0.00    -0.003 C 
ATOM      8  C   UNL     1      -1.595 -14.359 -26.124  1.00  0.00     0.004 C 
ENDBRANCH   6   7
ENDBRANCH   1   6
TORSDOF 4
ENDMDL
MODEL 6
REMARK VINA RESULT:    -2.920      2.781      4.672
REMARK INTER + INTRA:          -3.647
REMARK INTER:                  -3.577
REMARK INTRA:                  -0.070
REMARK UNBOUND:                -0.044
REMARK SMILES CCCCCC(=O)[O-]
REMARK SMILES IDX 4 1 5 2 6 3 7 4 8 5 3 6 2 7 1 8
REMARK H PARENT
REMARK Flexibility Score: inf
ROOT
ATOM      1  C   UNL     1      -1.119 -15.764 -26.931  1.00  0.00     0.006 C 
ENDROOT
BRANCH   1   2
ATOM      2  C   UNL     1      -1.659 -14.656 -27.846  1.00  0.00     0.053 C 
BRANCH   2   3
ATOM      3  C   UNL     1      -1.191 -13.316 -27.377  1.00  0.00     0.041 C 
ATOM      4  O   UNL     1      -0.363 -12.658 -28.061  1.00  0.00    -0.550 OA
ATOM      5  O   UNL     1      -1.633 -12.812 -26.160  1.00  0.00    -0.550 OA
ENDBRANCH   2   3
ENDBRANCH   1   2
BRANCH   1   6
ATOM      6  C   UNL     1      -2.125 -16.152 -25.827  1.00  0.00     0.000 C 
BRANCH   6   7
ATOM      7  C   UNL     1      -2.122 -17.652 -25.489  1.00  0.00    -0.003 C 
ATOM      8  C   UNL     1      -0.815 -18.347 -25.863  1.00  0.00     0.004 C 
ENDBRANCH   6   7
ENDBRANCH   1   6
TORSDOF 4
ENDMDL
MODEL 7
REMARK VINA RESULT:    -2.089      3.174      5.953
REMARK INTER + INTRA:          -2.621
REMARK INTER:                  -2.508
REMARK INTRA:                  -0.113
REMARK UNBOUND:                -0.044
REMARK SMILES CCCCCC(=O)[O-]
REMARK SMILES IDX 4 1 5 2 6 3 7 4 8 5 3 6 2 7 1 8
REMARK H PARENT
REMARK Flexibility Score: inf
ROOT
ATOM      1  C   UNL     1      -0.472 -19.216 -25.944  1.00  0.00     0.006 C 
ENDROOT
BRANCH   1   2
ATOM      2  C   UNL     1      -1.585 -18.260 -25.494  1.00  0.00     0.053 C 
BRANCH   2   3
ATOM      3  C   UNL     1      -1.389 -16.906 -26.098  1.00  0.00     0.041 C 
ATOM      4  O   UNL     1      -0.527 -16.733 -26.999  1.00  0.00    -0.550 OA
ATOM      5  O   UNL     1      -2.125 -15.824 -25.632  1.00  0.00    -0.550 OA
ENDBRANCH   2   3
ENDBRANCH   1   2
BRANCH   1   6
ATOM      6  C   UNL     1      -1.024 -20.581 -26.404  1.00  0.00     0.000 C 
BRANCH   6   7
ATOM      7  C   UNL     1      -0.611 -21.751 -25.497  1.00  0.00    -0.003 C 
ATOM      8  C   UNL     1       0.707 -21.505 -24.766  1.00  0.00     0.004 C 
ENDBRANCH   6   7
ENDBRANCH   1   6
TORSDOF 4
ENDMDL
MODEL 8
REMARK VINA RESULT:    -0.718      3.864      6.573
REMARK INTER + INTRA:          -0.929
REMARK INTER:                  -0.798
REMARK INTRA:                  -0.132
REMARK UNBOUND:                -0.044
REMARK SMILES CCCCCC(=O)[O-]
REMARK SMILES IDX 4 1 5 2 6 3 7 4 8 5 3 6 2 7 1 8
REMARK H PARENT
REMARK Flexibility Score: inf
ROOT
ATOM      1  C   UNL     1      -1.271 -20.475 -26.265  1.00  0.00     0.006 C 
ENDROOT
BRANCH   1   2
ATOM      2  C   UNL     1      -0.359 -19.249 -26.126  1.00  0.00     0.053 C 
BRANCH   2   3
ATOM      3  C   UNL     1      -1.169 -18.019 -25.870  1.00  0.00     0.041 C 
ATOM      4  O   UNL     1      -2.125 -18.049 -25.049  1.00  0.00    -0.550 OA
ATOM      5  O   UNL     1      -0.902 -16.851 -26.573  1.00  0.00    -0.550 OA
ENDBRANCH   2   3
ENDBRANCH   1   2
BRANCH   1   6
ATOM      6  C   UNL     1      -0.627 -21.752 -25.686  1.00  0.00     0.000 C 
BRANCH   6   7
ATOM      7  C   UNL     1       0.768 -21.519 -25.082  1.00  0.00    -0.003 C 
ATOM      8  C   UNL     1       0.905 -22.070 -23.664  1.00  0.00     0.004 C 
ENDBRANCH   6   7
ENDBRANCH   1   6
TORSDOF 4
ENDMDL
