MODEL 1
REMARK VINA RESULT:    -2.957      0.000      0.000
REMARK INTER + INTRA:          -3.774
REMARK INTER:                  -3.649
REMARK INTRA:                  -0.125
REMARK UNBOUND:                -0.125
REMARK SMILES CCCCCC(=O)[O-]
REMARK SMILES IDX 4 1 5 2 6 3 7 4 8 5 3 6 2 7 1 8
REMARK H PARENT
REMARK Flexibility Score: inf
ROOT
ATOM      1  C   UNL     1     -18.798 -12.733  -2.686  1.00  0.00     0.006 C 
ENDROOT
BRANCH   1   2
ATOM      2  C   UNL     1     -19.151 -11.591  -3.650  1.00  0.00     0.053 C 
BRANCH   2   3
ATOM      3  C   UNL     1     -20.175 -12.013  -4.657  1.00  0.00     0.041 C 
ATOM      4  O   UNL     1     -21.310 -12.411  -4.280  1.00  0.00    -0.550 OA
ATOM      5  O   UNL     1     -19.867 -11.997  -6.011  1.00  0.00    -0.550 OA
ENDBRANCH   2   3
ENDBRANCH   1   2
BRANCH   1   6
ATOM      6  C   UNL     1     -18.354 -14.002  -3.427  1.00  0.00     0.000 C 
BRANCH   6   7
ATOM      7  C   UNL     1     -17.110 -14.613  -2.772  1.00  0.00    -0.003 C 
ATOM      8  C   UNL     1     -17.249 -14.653  -1.252  1.00  0.00     0.004 C 
ENDBRANCH   6   7
ENDBRANCH   1   6
TORSDOF 4
ENDMDL
MODEL 2
REMARK VINA RESULT:    -2.914     10.600     12.294
REMARK INTER + INTRA:          -3.721
REMARK INTER:                  -3.607
REMARK INTRA:                  -0.114
REMARK UNBOUND:                -0.125
REMARK SMILES CCCCCC(=O)[O-]
REMARK SMILES IDX 4 1 5 2 6 3 7 4 8 5 3 6 2 7 1 8
REMARK H PARENT
REMARK Flexibility Score: inf
ROOT
ATOM      1  C   UNL     1     -16.551 -20.178   4.374  1.00  0.00     0.006 C 
ENDROOT
BRANCH   1   2
ATOM      2  C   UNL     1     -15.847 -19.982   5.723  1.00  0.00     0.053 C 
BRANCH   2   3
ATOM      3  C   UNL     1     -15.541 -21.290   6.384  1.00  0.00     0.041 C 
ATOM      4  O   UNL     1     -14.352 -21.700   6.461  1.00  0.00    -0.550 OA
ATOM      5  O   UNL     1     -16.572 -22.072   6.889  1.00  0.00    -0.550 OA
ENDBRANCH   2   3
ENDBRANCH   1   2
BRANCH   1   6
ATOM      6  C   UNL     1     -15.564 -20.176   3.198  1.00  0.00     0.000 C 
BRANCH   6   7
ATOM      7  C   UNL     1     -16.305 -20.087   1.859  1.00  0.00    -0.003 C 
ATOM      8  C   UNL     1     -17.432 -19.059   1.919  1.00  0.00     0.004 C 
ENDBRANCH   6   7
ENDBRANCH   1   6
TORSDOF 4
ENDMDL
MODEL 3
REMARK VINA RESULT:    -2.800      1.271      1.835
REMARK INTER + INTRA:          -3.580
REMARK INTER:                  -3.495
REMARK INTRA:                  -0.085
REMARK UNBOUND:                -0.125
REMARK SMILES CCCCCC(=O)[O-]
REMARK SMILES IDX 4 1 5 2 6 3 7 4 8 5 3 6 2 7 1 8
REMARK H PARENT
REMARK Flexibility Score: inf
ROOT
ATOM      1  C   UNL     1     -17.517 -13.492  -2.709  1.00  0.00     0.006 C 
ENDROOT
BRANCH   1   2
ATOM      2  C   UNL     1     -18.772 -13.743  -3.555  1.00  0.00     0.053 C 
BRANCH   2   3
ATOM      3  C   UNL     1     -19.443 -12.463  -3.947  1.00  0.00     0.041 C 
ATOM      4  O   UNL     1     -19.627 -11.557  -3.092  1.00  0.00    -0.550 OA
ATOM      5  O   UNL     1     -19.893 -12.284  -5.248  1.00  0.00    -0.550 OA
ENDBRANCH   2   3
ENDBRANCH   1   2
BRANCH   1   6
ATOM      6  C   UNL     1     -17.042 -14.759  -1.983  1.00  0.00     0.000 C 
BRANCH   6   7
ATOM      7  C   UNL     1     -16.921 -14.514  -0.475  1.00  0.00    -0.003 C 
ATOM      8  C   UNL     1     -17.985 -15.289   0.297  1.00  0.00     0.004 C 
ENDBRANCH   6   7
ENDBRANCH   1   6
TORSDOF 4
ENDMDL
MODEL 4
REMARK VINA RESULT:    -2.797      8.911     10.814
REMARK INTER + INTRA:          -3.576
REMARK INTER:                  -3.411
REMARK INTRA:                  -0.165
REMARK UNBOUND:                -0.125
REMARK SMILES CCCCCC(=O)[O-]
REMARK SMILES IDX 4 1 5 2 6 3 7 4 8 5 3 6 2 7 1 8
REMARK H PARENT
REMARK Flexibility Score: inf
ROOT
ATOM      1  C   UNL     1     -16.713 -20.482   2.634  1.00  0.00     0.006 C 
ENDROOT
BRANCH   1   2
ATOM      2  C   UNL     1     -15.610 -19.997   3.585  1.00  0.00     0.053 C 
BRANCH   2   3
ATOM      3  C   UNL     1     -15.928 -20.317   5.012  1.00  0.00     0.041 C 
ATOM      4  O   UNL     1     -17.048 -20.008   5.497  1.00  0.00    -0.550 OA
ATOM      5  O   UNL     1     -14.975 -20.929   5.817  1.00  0.00    -0.550 OA
ENDBRANCH   2   3
ENDBRANCH   1   2
BRANCH   1   6
ATOM      6  C   UNL     1     -17.210 -19.367   1.703  1.00  0.00     0.000 C 
BRANCH   6   7
ATOM      7  C   UNL     1     -17.802 -18.204   2.507  1.00  0.00    -0.003 C 
ATOM      8  C   UNL     1     -17.932 -16.949   1.648  1.00  0.00     0.004 C 
ENDBRANCH   6   7
ENDBRANCH   1   6
TORSDOF 4
ENDMDL
MODEL 5
REMARK VINA RESULT:    -2.773      7.675      9.526
REMARK INTER + INTRA:          -3.547
REMARK INTER:                  -3.449
REMARK INTRA:                  -0.099
REMARK UNBOUND:                -0.125
REMARK SMILES CCCCCC(=O)[O-]
REMARK SMILES IDX 4 1 5 2 6 3 7 4 8 5 3 6 2 7 1 8
REMARK H PARENT
REMARK Flexibility Score: inf
ROOT
ATOM      1  C   UNL     1     -17.943 -19.028   1.905  1.00  0.00     0.006 C 
ENDROOT
BRANCH   1   2
ATOM      2  C   UNL     1     -16.635 -19.822   1.790  1.00  0.00     0.053 C 
BRANCH   2   3
ATOM      3  C   UNL     1     -16.072 -20.162   3.135  1.00  0.00     0.041 C 
ATOM      4  O   UNL     1     -14.831 -20.093   3.339  1.00  0.00    -0.550 OA
ATOM      5  O   UNL     1     -16.914 -20.585   4.155  1.00  0.00    -0.550 OA
ENDBRANCH   2   3
ENDBRANCH   1   2
BRANCH   1   6
ATOM      6  C   UNL     1     -17.695 -17.526   2.107  1.00  0.00     0.000 C 
BRANCH   6   7
ATOM      7  C   UNL     1     -18.714 -16.691   1.323  1.00  0.00    -0.003 C 
ATOM      8  C   UNL     1     -18.041 -15.514   0.623  1.00  0.00     0.004 C 
ENDBRANCH   6   7
ENDBRANCH   1   6
TORSDOF 4
ENDMDL
MODEL 6
REMARK VINA RESULT:    -2.683      8.994      9.879
REMARK INTER + INTRA:          -3.436
REMARK INTER:                  -3.359
REMARK INTRA:                  -0.077
REMARK UNBOUND:                -0.125
REMARK SMILES CCCCCC(=O)[O-]
REMARK SMILES IDX 4 1 5 2 6 3 7 4 8 5 3 6 2 7 1 8
REMARK H PARENT
REMARK Flexibility Score: inf
ROOT
ATOM      1  C   UNL     1     -17.900 -18.640   2.208  1.00  0.00     0.006 C 
ENDROOT
BRANCH   1   2
ATOM      2  C   UNL     1     -16.825 -19.692   1.898  1.00  0.00     0.053 C 
BRANCH   2   3
ATOM      3  C   UNL     1     -16.156 -20.185   3.144  1.00  0.00     0.041 C 
ATOM      4  O   UNL     1     -16.844 -20.640   4.095  1.00  0.00    -0.550 OA
ATOM      5  O   UNL     1     -14.775 -20.112   3.266  1.00  0.00    -0.550 OA
ENDBRANCH   2   3
ENDBRANCH   1   2
BRANCH   1   6
ATOM      6  C   UNL     1     -19.316 -19.231   2.181  1.00  0.00     0.000 C 
BRANCH   6   7
ATOM      7  C   UNL     1     -20.155 -18.596   1.067  1.00  0.00    -0.003 C 
ATOM      8  C   UNL     1     -20.852 -19.662   0.225  1.00  0.00     0.004 C 
ENDBRANCH   6   7
ENDBRANCH   1   6
TORSDOF 4
ENDMDL
MODEL 7
REMARK VINA RESULT:    -2.674      8.347      9.198
REMARK INTER + INTRA:          -3.425
REMARK INTER:                  -3.319
REMARK INTRA:                  -0.106
REMARK UNBOUND:                -0.125
REMARK SMILES CCCCCC(=O)[O-]
REMARK SMILES IDX 4 1 5 2 6 3 7 4 8 5 3 6 2 7 1 8
REMARK H PARENT
REMARK Flexibility Score: inf
ROOT
ATOM      1  C   UNL     1     -21.041 -19.880  -0.153  1.00  0.00     0.006 C 
ENDROOT
BRANCH   1   2
ATOM      2  C   UNL     1     -21.772 -20.820  -1.121  1.00  0.00     0.053 C 
BRANCH   2   3
ATOM      3  C   UNL     1     -22.302 -22.033  -0.422  1.00  0.00     0.041 C 
ATOM      4  O   UNL     1     -22.443 -22.033   0.829  1.00  0.00    -0.550 OA
ATOM      5  O   UNL     1     -22.611 -23.175  -1.150  1.00  0.00    -0.550 OA
ENDBRANCH   2   3
ENDBRANCH   1   2
BRANCH   1   6
ATOM      6  C   UNL     1     -21.852 -18.612   0.149  1.00  0.00     0.000 C 
BRANCH   6   7
ATOM      7  C   UNL     1     -21.324 -17.908   1.404  1.00  0.00    -0.003 C 
ATOM      8  C   UNL     1     -19.798 -17.934   1.451  1.00  0.00     0.004 C 
ENDBRANCH   6   7
ENDBRANCH   1   6
TORSDOF 4
ENDMDL
MODEL 8
REMARK VINA RESULT:    -2.668     13.448     14.182
REMARK INTER + INTRA:          -3.417
REMARK INTER:                  -3.238
REMARK INTRA:                  -0.179
REMARK UNBOUND:                -0.125
REMARK SMILES CCCCCC(=O)[O-]
REMARK SMILES IDX 4 1 5 2 6 3 7 4 8 5 3 6 2 7 1 8
REMARK H PARENT
REMARK Flexibility Score: inf
ROOT
ATOM      1  C   UNL     1     -22.192 -26.738  -8.277  1.00  0.00     0.006 C 
ENDROOT
BRANCH   1   2
ATOM      2  C   UNL     1     -22.408 -25.899  -7.009  1.00  0.00     0.053 C 
BRANCH   2   3
ATOM      3  C   UNL     1     -22.781 -24.486  -7.337  1.00  0.00     0.041 C 
ATOM      4  O   UNL     1     -22.121 -23.838  -8.192  1.00  0.00    -0.550 OA
ATOM      5  O   UNL     1     -23.838 -23.874  -6.674  1.00  0.00    -0.550 OA
ENDBRANCH   2   3
ENDBRANCH   1   2
BRANCH   1   6
ATOM      6  C   UNL     1     -20.764 -27.295  -8.368  1.00  0.00     0.000 C 
BRANCH   6   7
ATOM      7  C   UNL     1     -20.283 -27.336  -9.823  1.00  0.00    -0.003 C 
ATOM      8  C   UNL     1     -21.093 -26.384 -10.699  1.00  0.00     0.004 C 
ENDBRANCH   6   7
ENDBRANCH   1   6
TORSDOF 4
ENDMDL
MODEL 9
REMARK VINA RESULT:    -2.597     13.031     13.583
REMARK INTER + INTRA:          -3.329
REMARK INTER:                  -3.112
REMARK INTRA:                  -0.217
REMARK UNBOUND:                -0.125
REMARK SMILES CCCCCC(=O)[O-]
REMARK SMILES IDX 4 1 5 2 6 3 7 4 8 5 3 6 2 7 1 8
REMARK H PARENT
REMARK Flexibility Score: inf
ROOT
ATOM      1  C   UNL     1     -22.085 -25.362  -7.267  1.00  0.00     0.006 C 
ENDROOT
BRANCH   1   2
ATOM      2  C   UNL     1     -22.880 -24.109  -7.660  1.00  0.00     0.053 C 
BRANCH   2   3
ATOM      3  C   UNL     1     -22.387 -23.520  -8.945  1.00  0.00     0.041 C 
ATOM      4  O   UNL     1     -22.642 -22.320  -9.231  1.00  0.00    -0.550 OA
ATOM      5  O   UNL     1     -21.673 -24.305  -9.841  1.00  0.00    -0.550 OA
ENDBRANCH   2   3
ENDBRANCH   1   2
BRANCH   1   6
ATOM      6  C   UNL     1     -22.887 -26.652  -7.489  1.00  0.00     0.000 C 
BRANCH   6   7
ATOM      7  C   UNL     1     -22.167 -27.585  -8.470  1.00  0.00    -0.003 C 
ATOM      8  C   UNL     1     -20.654 -27.386  -8.412  1.00  0.00     0.004 C 
ENDBRANCH   6   7
ENDBRANCH   1   6
TORSDOF 4
ENDMDL
