MODEL 1
REMARK VINA RESULT:    -4.832      0.000      0.000
REMARK INTER + INTRA:         -13.928
REMARK INTER:                 -10.482
REMARK INTRA:                  -3.447
REMARK UNBOUND:                -3.447
REMARK SMILES CCCCCCCCCCCCCCCCCCCCCC(=O)[O-]
REMARK SMILES IDX 12 1 11 2 10 3 9 4 8 5 7 6 6 7 5 8 4 9 3 10 2 11 1 12 13 13
REMARK SMILES IDX 14 14 15 15 16 16 17 17 18 18 19 19 20 20 21 21 22 22 23 23
REMARK SMILES IDX 24 24
REMARK H PARENT
REMARK Flexibility Score: inf
ROOT
ATOM      1  C   UNL     1      63.931  29.280   9.943  1.00  0.00     0.000 C 
ENDROOT
BRANCH   1   2
ATOM      2  C   UNL     1      62.431  29.000   9.755  1.00  0.00     0.000 C 
BRANCH   2   3
ATOM      3  C   UNL     1      61.551  30.227  10.054  1.00  0.00     0.000 C 
BRANCH   3   4
ATOM      4  C   UNL     1      61.196  30.441  11.540  1.00  0.00    -0.000 C 
BRANCH   4   5
ATOM      5  C   UNL     1      60.893  29.157  12.331  1.00  0.00    -0.000 C 
BRANCH   5   6
ATOM      6  C   UNL     1      61.675  29.068  13.650  1.00  0.00    -0.000 C 
BRANCH   6   7
ATOM      7  C   UNL     1      63.127  29.516  13.453  1.00  0.00    -0.000 C 
BRANCH   7   8
ATOM      8  C   UNL     1      63.507  30.623  14.444  1.00  0.00    -0.000 C 
BRANCH   8   9
ATOM      9  C   UNL     1      62.255  31.299  15.019  1.00  0.00    -0.000 C 
BRANCH   9  10
ATOM     10  C   UNL     1      62.580  32.595  15.783  1.00  0.00    -0.000 C 
BRANCH  10  11
ATOM     11  C   UNL     1      62.175  33.855  15.004  1.00  0.00    -0.003 C 
ATOM     12  C   UNL     1      61.602  33.492  13.634  1.00  0.00     0.004 C 
ENDBRANCH  10  11
ENDBRANCH   9  10
ENDBRANCH   8   9
ENDBRANCH   7   8
ENDBRANCH   6   7
ENDBRANCH   5   6
ENDBRANCH   4   5
ENDBRANCH   3   4
ENDBRANCH   2   3
ENDBRANCH   1   2
BRANCH   1  13
ATOM     13  C   UNL     1      64.311  30.736   9.615  1.00  0.00     0.000 C 
BRANCH  13  14
ATOM     14  C   UNL     1      64.856  31.552  10.802  1.00  0.00     0.000 C 
BRANCH  14  15
ATOM     15  C   UNL     1      65.872  32.624  10.373  1.00  0.00     0.000 C 
BRANCH  15  16
ATOM     16  C   UNL     1      66.213  33.600  11.509  1.00  0.00     0.000 C 
BRANCH  16  17
ATOM     17  C   UNL     1      65.281  33.433  12.724  1.00  0.00     0.000 C 
BRANCH  17  18
ATOM     18  C   UNL     1      65.833  34.133  13.983  1.00  0.00     0.000 C 
BRANCH  18  19
ATOM     19  C   UNL     1      66.156  33.163  15.134  1.00  0.00     0.000 C 
BRANCH  19  20
ATOM     20  C   UNL     1      66.195  33.855  16.505  1.00  0.00     0.006 C 
BRANCH  20  21
ATOM     21  C   UNL     1      65.300  35.099  16.524  1.00  0.00     0.053 C 
BRANCH  21  22
ATOM     22  C   UNL     1      64.788  35.363  17.906  1.00  0.00     0.041 C 
ATOM     23  O   UNL     1      65.574  35.758  18.807  1.00  0.00    -0.550 OA
ATOM     24  O   UNL     1      63.441  35.170  18.200  1.00  0.00    -0.550 OA
ENDBRANCH  21  22
ENDBRANCH  20  21
ENDBRANCH  19  20
ENDBRANCH  18  19
ENDBRANCH  17  18
ENDBRANCH  16  17
ENDBRANCH  15  16
ENDBRANCH  14  15
ENDBRANCH  13  14
ENDBRANCH   1  13
TORSDOF 20
ENDMDL
MODEL 2
REMARK VINA RESULT:    -4.693      1.336      4.039
REMARK INTER + INTRA:         -13.627
REMARK INTER:                 -10.457
REMARK INTRA:                  -3.170
REMARK UNBOUND:                -3.447
REMARK SMILES CCCCCCCCCCCCCCCCCCCCCC(=O)[O-]
REMARK SMILES IDX 12 1 11 2 10 3 9 4 8 5 7 6 6 7 5 8 4 9 3 10 2 11 1 12 13 13
REMARK SMILES IDX 14 14 15 15 16 16 17 17 18 18 19 19 20 20 21 21 22 22 23 23
REMARK SMILES IDX 24 24
REMARK H PARENT
REMARK Flexibility Score: inf
ROOT
ATOM      1  C   UNL     1      61.059  28.574  13.266  1.00  0.00     0.000 C 
ENDROOT
BRANCH   1   2
ATOM      2  C   UNL     1      60.239  29.003  12.038  1.00  0.00     0.000 C 
BRANCH   2   3
ATOM      3  C   UNL     1      61.027  29.917  11.082  1.00  0.00     0.000 C 
BRANCH   3   4
ATOM      4  C   UNL     1      60.910  29.566   9.584  1.00  0.00    -0.000 C 
BRANCH   4   5
ATOM      5  C   UNL     1      62.202  29.039   8.934  1.00  0.00    -0.000 C 
BRANCH   5   6
ATOM      6  C   UNL     1      63.385  28.990   9.910  1.00  0.00    -0.000 C 
BRANCH   6   7
ATOM      7  C   UNL     1      64.693  29.361   9.202  1.00  0.00    -0.000 C 
BRANCH   7   8
ATOM      8  C   UNL     1      65.410  30.508   9.924  1.00  0.00    -0.000 C 
BRANCH   8   9
ATOM      9  C   UNL     1      64.418  31.353  10.734  1.00  0.00    -0.000 C 
BRANCH   9  10
ATOM     10  C   UNL     1      65.100  32.144  11.865  1.00  0.00    -0.000 C 
BRANCH  10  11
ATOM     11  C   UNL     1      65.787  33.422  11.360  1.00  0.00    -0.003 C 
ATOM     12  C   UNL     1      66.616  34.073  12.467  1.00  0.00     0.004 C 
ENDBRANCH  10  11
ENDBRANCH   9  10
ENDBRANCH   8   9
ENDBRANCH   7   8
ENDBRANCH   6   7
ENDBRANCH   5   6
ENDBRANCH   4   5
ENDBRANCH   3   4
ENDBRANCH   2   3
ENDBRANCH   1   2
BRANCH   1  13
ATOM     13  C   UNL     1      62.531  29.019  13.185  1.00  0.00     0.000 C 
BRANCH  13  14
ATOM     14  C   UNL     1      62.921  30.163  14.140  1.00  0.00     0.000 C 
BRANCH  14  15
ATOM     15  C   UNL     1      61.767  30.589  15.065  1.00  0.00     0.000 C 
BRANCH  15  16
ATOM     16  C   UNL     1      60.930  31.733  14.473  1.00  0.00     0.000 C 
BRANCH  16  17
ATOM     17  C   UNL     1      61.742  32.611  13.503  1.00  0.00     0.000 C 
BRANCH  17  18
ATOM     18  C   UNL     1      62.251  33.904  14.175  1.00  0.00     0.000 C 
BRANCH  18  19
ATOM     19  C   UNL     1      63.693  33.793  14.703  1.00  0.00     0.000 C 
BRANCH  19  20
ATOM     20  C   UNL     1      63.759  33.650  16.232  1.00  0.00     0.006 C 
BRANCH  20  21
ATOM     21  C   UNL     1      62.561  34.329  16.904  1.00  0.00     0.053 C 
BRANCH  21  22
ATOM     22  C   UNL     1      62.982  35.024  18.162  1.00  0.00     0.041 C 
ATOM     23  O   UNL     1      62.294  34.906  19.211  1.00  0.00    -0.550 OA
ATOM     24  O   UNL     1      64.134  35.804  18.177  1.00  0.00    -0.550 OA
ENDBRANCH  21  22
ENDBRANCH  20  21
ENDBRANCH  19  20
ENDBRANCH  18  19
ENDBRANCH  17  18
ENDBRANCH  16  17
ENDBRANCH  15  16
ENDBRANCH  14  15
ENDBRANCH  13  14
ENDBRANCH   1  13
TORSDOF 20
ENDMDL
MODEL 3
REMARK VINA RESULT:    -4.685      3.112      6.475
REMARK INTER + INTRA:         -13.609
REMARK INTER:                 -10.950
REMARK INTRA:                  -2.659
REMARK UNBOUND:                -3.447
REMARK SMILES CCCCCCCCCCCCCCCCCCCCCC(=O)[O-]
REMARK SMILES IDX 12 1 11 2 10 3 9 4 8 5 7 6 6 7 5 8 4 9 3 10 2 11 1 12 13 13
REMARK SMILES IDX 14 14 15 15 16 16 17 17 18 18 19 19 20 20 21 21 22 22 23 23
REMARK SMILES IDX 24 24
REMARK H PARENT
REMARK Flexibility Score: inf
ROOT
ATOM      1  C   UNL     1      64.166  30.342  13.456  1.00  0.00     0.000 C 
ENDROOT
BRANCH   1   2
ATOM      2  C   UNL     1      63.641  31.452  12.531  1.00  0.00     0.000 C 
BRANCH   2   3
ATOM      3  C   UNL     1      63.351  32.766  13.278  1.00  0.00     0.000 C 
BRANCH   3   4
ATOM      4  C   UNL     1      61.859  33.143  13.400  1.00  0.00    -0.000 C 
BRANCH   4   5
ATOM      5  C   UNL     1      61.441  33.722  14.763  1.00  0.00    -0.000 C 
BRANCH   5   6
ATOM      6  C   UNL     1      62.374  33.297  15.905  1.00  0.00    -0.000 C 
BRANCH   6   7
ATOM      7  C   UNL     1      62.644  34.470  16.853  1.00  0.00    -0.000 C 
BRANCH   7   8
ATOM      8  C   UNL     1      64.148  34.679  17.067  1.00  0.00    -0.000 C 
BRANCH   8   9
ATOM      9  C   UNL     1      64.963  33.938  15.997  1.00  0.00    -0.000 C 
BRANCH   9  10
ATOM     10  C   UNL     1      65.868  34.882  15.185  1.00  0.00    -0.000 C 
BRANCH  10  11
ATOM     11  C   UNL     1      66.929  34.125  14.371  1.00  0.00    -0.003 C 
ATOM     12  C   UNL     1      66.576  34.117  12.884  1.00  0.00     0.004 C 
ENDBRANCH  10  11
ENDBRANCH   9  10
ENDBRANCH   8   9
ENDBRANCH   7   8
ENDBRANCH   6   7
ENDBRANCH   5   6
ENDBRANCH   4   5
ENDBRANCH   3   4
ENDBRANCH   2   3
ENDBRANCH   1   2
BRANCH   1  13
ATOM     13  C   UNL     1      63.224  29.125  13.520  1.00  0.00     0.000 C 
BRANCH  13  14
ATOM     14  C   UNL     1      61.745  29.457  13.791  1.00  0.00     0.000 C 
BRANCH  14  15
ATOM     15  C   UNL     1      60.803  28.928  12.695  1.00  0.00     0.000 C 
BRANCH  15  16
ATOM     16  C   UNL     1      60.634  29.919  11.534  1.00  0.00     0.000 C 
BRANCH  16  17
ATOM     17  C   UNL     1      60.526  29.210  10.171  1.00  0.00     0.000 C 
BRANCH  17  18
ATOM     18  C   UNL     1      61.833  28.484   9.788  1.00  0.00     0.000 C 
BRANCH  18  19
ATOM     19  C   UNL     1      62.818  29.367   9.000  1.00  0.00     0.000 C 
BRANCH  19  20
ATOM     20  C   UNL     1      64.054  29.763   9.823  1.00  0.00     0.006 C 
BRANCH  20  21
ATOM     21  C   UNL     1      65.303  29.846   8.939  1.00  0.00     0.053 C 
BRANCH  21  22
ATOM     22  C   UNL     1      66.137  31.034   9.311  1.00  0.00     0.041 C 
ATOM     23  O   UNL     1      67.393  30.969   9.250  1.00  0.00    -0.550 OA
ATOM     24  O   UNL     1      65.527  32.213   9.726  1.00  0.00    -0.550 OA
ENDBRANCH  21  22
ENDBRANCH  20  21
ENDBRANCH  19  20
ENDBRANCH  18  19
ENDBRANCH  17  18
ENDBRANCH  16  17
ENDBRANCH  15  16
ENDBRANCH  14  15
ENDBRANCH  13  14
ENDBRANCH   1  13
TORSDOF 20
ENDMDL
MODEL 4
REMARK VINA RESULT:    -4.662      1.161      4.272
REMARK INTER + INTRA:         -13.559
REMARK INTER:                 -10.774
REMARK INTRA:                  -2.785
REMARK UNBOUND:                -3.447
REMARK SMILES CCCCCCCCCCCCCCCCCCCCCC(=O)[O-]
REMARK SMILES IDX 12 1 11 2 10 3 9 4 8 5 7 6 6 7 5 8 4 9 3 10 2 11 1 12 13 13
REMARK SMILES IDX 14 14 15 15 16 16 17 17 18 18 19 19 20 20 21 21 22 22 23 23
REMARK SMILES IDX 24 24
REMARK H PARENT
REMARK Flexibility Score: inf
ROOT
ATOM      1  C   UNL     1      60.693  30.138  11.243  1.00  0.00     0.000 C 
ENDROOT
BRANCH   1   2
ATOM      2  C   UNL     1      60.826  29.923   9.726  1.00  0.00     0.000 C 
BRANCH   2   3
ATOM      3  C   UNL     1      62.253  30.179   9.207  1.00  0.00     0.000 C 
BRANCH   3   4
ATOM      4  C   UNL     1      63.304  29.126   9.617  1.00  0.00    -0.000 C 
BRANCH   4   5
ATOM      5  C   UNL     1      64.746  29.651   9.727  1.00  0.00    -0.000 C 
BRANCH   5   6
ATOM      6  C   UNL     1      64.906  31.077   9.181  1.00  0.00    -0.000 C 
BRANCH   6   7
ATOM      7  C   UNL     1      65.486  32.008  10.251  1.00  0.00    -0.000 C 
BRANCH   7   8
ATOM      8  C   UNL     1      64.619  32.011  11.515  1.00  0.00    -0.000 C 
BRANCH   8   9
ATOM      9  C   UNL     1      65.215  32.934  12.588  1.00  0.00    -0.000 C 
BRANCH   9  10
ATOM     10  C   UNL     1      66.300  33.870  12.025  1.00  0.00    -0.000 C 
BRANCH  10  11
ATOM     11  C   UNL     1      66.691  34.979  13.014  1.00  0.00    -0.003 C 
ATOM     12  C   UNL     1      67.451  36.101  12.306  1.00  0.00     0.004 C 
ENDBRANCH  10  11
ENDBRANCH   9  10
ENDBRANCH   8   9
ENDBRANCH   7   8
ENDBRANCH   6   7
ENDBRANCH   5   6
ENDBRANCH   4   5
ENDBRANCH   3   4
ENDBRANCH   2   3
ENDBRANCH   1   2
BRANCH   1  13
ATOM     13  C   UNL     1      60.663  28.816  12.032  1.00  0.00     0.000 C 
BRANCH  13  14
ATOM     14  C   UNL     1      61.251  28.889  13.452  1.00  0.00     0.000 C 
BRANCH  14  15
ATOM     15  C   UNL     1      62.711  29.375  13.471  1.00  0.00     0.000 C 
BRANCH  15  16
ATOM     16  C   UNL     1      62.953  30.474  14.516  1.00  0.00     0.000 C 
BRANCH  16  17
ATOM     17  C   UNL     1      61.722  31.379  14.709  1.00  0.00     0.000 C 
BRANCH  17  18
ATOM     18  C   UNL     1      61.780  32.639  13.820  1.00  0.00     0.000 C 
BRANCH  18  19
ATOM     19  C   UNL     1      61.488  33.943  14.585  1.00  0.00     0.000 C 
BRANCH  19  20
ATOM     20  C   UNL     1      62.055  33.938  16.013  1.00  0.00     0.006 C 
BRANCH  20  21
ATOM     21  C   UNL     1      63.553  34.259  16.016  1.00  0.00     0.053 C 
BRANCH  21  22
ATOM     22  C   UNL     1      63.976  34.808  17.343  1.00  0.00     0.041 C 
ATOM     23  O   UNL     1      63.116  35.047  18.232  1.00  0.00    -0.550 OA
ATOM     24  O   UNL     1      65.320  35.058  17.600  1.00  0.00    -0.550 OA
ENDBRANCH  21  22
ENDBRANCH  20  21
ENDBRANCH  19  20
ENDBRANCH  18  19
ENDBRANCH  17  18
ENDBRANCH  16  17
ENDBRANCH  15  16
ENDBRANCH  14  15
ENDBRANCH  13  14
ENDBRANCH   1  13
TORSDOF 20
ENDMDL
MODEL 5
REMARK VINA RESULT:    -4.629      3.181      6.576
REMARK INTER + INTRA:         -13.487
REMARK INTER:                 -10.363
REMARK INTRA:                  -3.124
REMARK UNBOUND:                -3.447
REMARK SMILES CCCCCCCCCCCCCCCCCCCCCC(=O)[O-]
REMARK SMILES IDX 12 1 11 2 10 3 9 4 8 5 7 6 6 7 5 8 4 9 3 10 2 11 1 12 13 13
REMARK SMILES IDX 14 14 15 15 16 16 17 17 18 18 19 19 20 20 21 21 22 22 23 23
REMARK SMILES IDX 24 24
REMARK H PARENT
REMARK Flexibility Score: inf
ROOT
ATOM      1  C   UNL     1      61.140  31.314  13.780  1.00  0.00     0.000 C 
ENDROOT
BRANCH   1   2
ATOM      2  C   UNL     1      61.858  32.557  13.229  1.00  0.00     0.000 C 
BRANCH   2   3
ATOM      3  C   UNL     1      61.532  33.836  14.021  1.00  0.00     0.000 C 
BRANCH   3   4
ATOM      4  C   UNL     1      61.373  33.648  15.544  1.00  0.00    -0.000 C 
BRANCH   4   5
ATOM      5  C   UNL     1      61.932  34.793  16.407  1.00  0.00    -0.000 C 
BRANCH   5   6
ATOM      6  C   UNL     1      62.894  34.305  17.499  1.00  0.00    -0.000 C 
BRANCH   6   7
ATOM      7  C   UNL     1      64.315  34.815  17.241  1.00  0.00    -0.000 C 
BRANCH   7   8
ATOM      8  C   UNL     1      65.066  33.903  16.263  1.00  0.00    -0.000 C 
BRANCH   8   9
ATOM      9  C   UNL     1      65.297  34.610  14.921  1.00  0.00    -0.000 C 
BRANCH   9  10
ATOM     10  C   UNL     1      65.601  33.625  13.778  1.00  0.00    -0.000 C 
BRANCH  10  11
ATOM     11  C   UNL     1      66.748  34.105  12.875  1.00  0.00    -0.003 C 
ATOM     12  C   UNL     1      66.477  33.753  11.412  1.00  0.00     0.004 C 
ENDBRANCH  10  11
ENDBRANCH   9  10
ENDBRANCH   8   9
ENDBRANCH   7   8
ENDBRANCH   6   7
ENDBRANCH   5   6
ENDBRANCH   4   5
ENDBRANCH   3   4
ENDBRANCH   2   3
ENDBRANCH   1   2
BRANCH   1  13
ATOM     13  C   UNL     1      62.111  30.294  14.405  1.00  0.00     0.000 C 
BRANCH  13  14
ATOM     14  C   UNL     1      63.545  30.808  14.627  1.00  0.00     0.000 C 
BRANCH  14  15
ATOM     15  C   UNL     1      64.594  30.023  13.821  1.00  0.00     0.000 C 
BRANCH  15  16
ATOM     16  C   UNL     1      64.117  29.692  12.399  1.00  0.00     0.000 C 
BRANCH  16  17
ATOM     17  C   UNL     1      64.387  30.841  11.409  1.00  0.00     0.000 C 
BRANCH  17  18
ATOM     18  C   UNL     1      64.994  30.337  10.083  1.00  0.00     0.000 C 
BRANCH  18  19
ATOM     19  C   UNL     1      64.295  29.084   9.525  1.00  0.00     0.000 C 
BRANCH  19  20
ATOM     20  C   UNL     1      62.919  29.390   8.913  1.00  0.00     0.006 C 
BRANCH  20  21
ATOM     21  C   UNL     1      61.827  28.520   9.544  1.00  0.00     0.053 C 
BRANCH  21  22
ATOM     22  C   UNL     1      61.031  29.306  10.540  1.00  0.00     0.041 C 
ATOM     23  O   UNL     1      60.787  30.524  10.334  1.00  0.00    -0.550 OA
ATOM     24  O   UNL     1      60.561  28.694  11.698  1.00  0.00    -0.550 OA
ENDBRANCH  21  22
ENDBRANCH  20  21
ENDBRANCH  19  20
ENDBRANCH  18  19
ENDBRANCH  17  18
ENDBRANCH  16  17
ENDBRANCH  15  16
ENDBRANCH  14  15
ENDBRANCH  13  14
ENDBRANCH   1  13
TORSDOF 20
ENDMDL
MODEL 6
REMARK VINA RESULT:    -4.559     10.219     13.616
REMARK INTER + INTRA:         -13.336
REMARK INTER:                  -9.734
REMARK INTRA:                  -3.602
REMARK UNBOUND:                -3.447
REMARK SMILES CCCCCCCCCCCCCCCCCCCCCC(=O)[O-]
REMARK SMILES IDX 12 1 11 2 10 3 9 4 8 5 7 6 6 7 5 8 4 9 3 10 2 11 1 12 13 13
REMARK SMILES IDX 14 14 15 15 16 16 17 17 18 18 19 19 20 20 21 21 22 22 23 23
REMARK SMILES IDX 24 24
REMARK H PARENT
REMARK Flexibility Score: inf
ROOT
ATOM      1  C   UNL     1      61.377  28.521  27.461  1.00  0.00     0.000 C 
ENDROOT
BRANCH   1   2
ATOM      2  C   UNL     1      62.296  27.957  28.557  1.00  0.00     0.000 C 
BRANCH   2   3
ATOM      3  C   UNL     1      63.485  28.881  28.876  1.00  0.00     0.000 C 
BRANCH   3   4
ATOM      4  C   UNL     1      63.329  30.343  28.407  1.00  0.00    -0.000 C 
BRANCH   4   5
ATOM      5  C   UNL     1      64.590  30.966  27.782  1.00  0.00    -0.000 C 
BRANCH   5   6
ATOM      6  C   UNL     1      65.607  29.915  27.315  1.00  0.00    -0.000 C 
BRANCH   6   7
ATOM      7  C   UNL     1      67.041  30.405  27.544  1.00  0.00    -0.000 C 
BRANCH   7   8
ATOM      8  C   UNL     1      67.987  29.887  26.453  1.00  0.00    -0.000 C 
BRANCH   8   9
ATOM      9  C   UNL     1      67.199  29.413  25.224  1.00  0.00    -0.000 C 
BRANCH   9  10
ATOM     10  C   UNL     1      67.551  30.207  23.953  1.00  0.00    -0.000 C 
BRANCH  10  11
ATOM     11  C   UNL     1      66.318  30.516  23.091  1.00  0.00    -0.003 C 
ATOM     12  C   UNL     1      65.273  31.297  23.888  1.00  0.00     0.004 C 
ENDBRANCH  10  11
ENDBRANCH   9  10
ENDBRANCH   8   9
ENDBRANCH   7   8
ENDBRANCH   6   7
ENDBRANCH   5   6
ENDBRANCH   4   5
ENDBRANCH   3   4
ENDBRANCH   2   3
ENDBRANCH   1   2
BRANCH   1  13
ATOM     13  C   UNL     1      61.586  27.837  26.097  1.00  0.00     0.000 C 
BRANCH  13  14
ATOM     14  C   UNL     1      62.297  28.697  25.037  1.00  0.00     0.000 C 
BRANCH  14  15
ATOM     15  C   UNL     1      63.685  28.151  24.657  1.00  0.00     0.000 C 
BRANCH  15  16
ATOM     16  C   UNL     1      64.114  26.968  25.538  1.00  0.00     0.000 C 
BRANCH  16  17
ATOM     17  C   UNL     1      65.547  26.497  25.228  1.00  0.00     0.000 C 
BRANCH  17  18
ATOM     18  C   UNL     1      65.679  25.937  23.796  1.00  0.00     0.000 C 
BRANCH  18  19
ATOM     19  C   UNL     1      66.837  26.563  22.997  1.00  0.00     0.000 C 
BRANCH  19  20
ATOM     20  C   UNL     1      66.386  27.141  21.646  1.00  0.00     0.006 C 
BRANCH  20  21
ATOM     21  C   UNL     1      67.527  27.113  20.623  1.00  0.00     0.053 C 
BRANCH  21  22
ATOM     22  C   UNL     1      66.987  27.018  19.229  1.00  0.00     0.041 C 
ATOM     23  O   UNL     1      66.186  26.095  18.923  1.00  0.00    -0.550 OA
ATOM     24  O   UNL     1      67.369  27.947  18.267  1.00  0.00    -0.550 OA
ENDBRANCH  21  22
ENDBRANCH  20  21
ENDBRANCH  19  20
ENDBRANCH  18  19
ENDBRANCH  17  18
ENDBRANCH  16  17
ENDBRANCH  15  16
ENDBRANCH  14  15
ENDBRANCH  13  14
ENDBRANCH   1  13
TORSDOF 20
ENDMDL
MODEL 7
REMARK VINA RESULT:    -4.523      1.347      5.027
REMARK INTER + INTRA:         -13.257
REMARK INTER:                 -10.251
REMARK INTRA:                  -3.006
REMARK UNBOUND:                -3.447
REMARK SMILES CCCCCCCCCCCCCCCCCCCCCC(=O)[O-]
REMARK SMILES IDX 12 1 11 2 10 3 9 4 8 5 7 6 6 7 5 8 4 9 3 10 2 11 1 12 13 13
REMARK SMILES IDX 14 14 15 15 16 16 17 17 18 18 19 19 20 20 21 21 22 22 23 23
REMARK SMILES IDX 24 24
REMARK H PARENT
REMARK Flexibility Score: inf
ROOT
ATOM      1  C   UNL     1      64.042  30.112  13.216  1.00  0.00     0.000 C 
ENDROOT
BRANCH   1   2
ATOM      2  C   UNL     1      64.677  31.506  13.348  1.00  0.00     0.000 C 
BRANCH   2   3
ATOM      3  C   UNL     1      64.534  32.352  12.070  1.00  0.00     0.000 C 
BRANCH   3   4
ATOM      4  C   UNL     1      65.799  33.124  11.643  1.00  0.00    -0.000 C 
BRANCH   4   5
ATOM      5  C   UNL     1      66.335  32.777  10.243  1.00  0.00    -0.000 C 
BRANCH   5   6
ATOM      6  C   UNL     1      65.347  31.943   9.415  1.00  0.00    -0.000 C 
BRANCH   6   7
ATOM      7  C   UNL     1      65.861  30.511   9.232  1.00  0.00    -0.000 C 
BRANCH   7   8
ATOM      8  C   UNL     1      64.787  29.482   9.608  1.00  0.00    -0.000 C 
BRANCH   8   9
ATOM      9  C   UNL     1      63.439  29.835   8.964  1.00  0.00    -0.000 C 
BRANCH   9  10
ATOM     10  C   UNL     1      62.492  28.625   8.876  1.00  0.00    -0.000 C 
BRANCH  10  11
ATOM     11  C   UNL     1      61.348  28.697   9.899  1.00  0.00    -0.003 C 
ATOM     12  C   UNL     1      60.190  29.543   9.369  1.00  0.00     0.004 C 
ENDBRANCH  10  11
ENDBRANCH   9  10
ENDBRANCH   8   9
ENDBRANCH   7   8
ENDBRANCH   6   7
ENDBRANCH   5   6
ENDBRANCH   4   5
ENDBRANCH   3   4
ENDBRANCH   2   3
ENDBRANCH   1   2
BRANCH   1  13
ATOM     13  C   UNL     1      62.852  29.906  14.172  1.00  0.00     0.000 C 
BRANCH  13  14
ATOM     14  C   UNL     1      61.524  29.531  13.490  1.00  0.00     0.000 C 
BRANCH  14  15
ATOM     15  C   UNL     1      60.775  30.751  12.927  1.00  0.00     0.000 C 
BRANCH  15  16
ATOM     16  C   UNL     1      60.607  31.870  13.966  1.00  0.00     0.000 C 
BRANCH  16  17
ATOM     17  C   UNL     1      61.230  33.199  13.500  1.00  0.00     0.000 C 
BRANCH  17  18
ATOM     18  C   UNL     1      62.255  33.748  14.515  1.00  0.00     0.000 C 
BRANCH  18  19
ATOM     19  C   UNL     1      62.121  33.131  15.919  1.00  0.00     0.000 C 
BRANCH  19  20
ATOM     20  C   UNL     1      62.864  33.934  16.998  1.00  0.00     0.006 C 
BRANCH  20  21
ATOM     21  C   UNL     1      64.127  34.590  16.429  1.00  0.00     0.053 C 
BRANCH  21  22
ATOM     22  C   UNL     1      65.049  35.010  17.531  1.00  0.00     0.041 C 
ATOM     23  O   UNL     1      64.758  35.997  18.258  1.00  0.00    -0.550 OA
ATOM     24  O   UNL     1      66.232  34.313  17.756  1.00  0.00    -0.550 OA
ENDBRANCH  21  22
ENDBRANCH  20  21
ENDBRANCH  19  20
ENDBRANCH  18  19
ENDBRANCH  17  18
ENDBRANCH  16  17
ENDBRANCH  15  16
ENDBRANCH  14  15
ENDBRANCH  13  14
ENDBRANCH   1  13
TORSDOF 20
ENDMDL
MODEL 8
REMARK VINA RESULT:    -4.498      2.719      6.349
REMARK INTER + INTRA:         -13.204
REMARK INTER:                  -9.817
REMARK INTRA:                  -3.387
REMARK UNBOUND:                -3.447
REMARK SMILES CCCCCCCCCCCCCCCCCCCCCC(=O)[O-]
REMARK SMILES IDX 12 1 11 2 10 3 9 4 8 5 7 6 6 7 5 8 4 9 3 10 2 11 1 12 13 13
REMARK SMILES IDX 14 14 15 15 16 16 17 17 18 18 19 19 20 20 21 21 22 22 23 23
REMARK SMILES IDX 24 24
REMARK H PARENT
REMARK Flexibility Score: inf
ROOT
ATOM      1  C   UNL     1      61.812  32.972  13.011  1.00  0.00     0.000 C 
ENDROOT
BRANCH   1   2
ATOM      2  C   UNL     1      61.143  32.276  14.208  1.00  0.00     0.000 C 
BRANCH   2   3
ATOM      3  C   UNL     1      62.070  32.167  15.432  1.00  0.00     0.000 C 
BRANCH   3   4
ATOM      4  C   UNL     1      61.792  33.177  16.564  1.00  0.00    -0.000 C 
BRANCH   4   5
ATOM      5  C   UNL     1      62.475  34.546  16.400  1.00  0.00    -0.000 C 
BRANCH   5   6
ATOM      6  C   UNL     1      63.341  34.931  17.608  1.00  0.00    -0.000 C 
BRANCH   6   7
ATOM      7  C   UNL     1      64.830  34.776  17.283  1.00  0.00    -0.000 C 
BRANCH   7   8
ATOM      8  C   UNL     1      65.053  34.565  15.781  1.00  0.00    -0.000 C 
BRANCH   8   9
ATOM      9  C   UNL     1      66.014  33.396  15.527  1.00  0.00    -0.000 C 
BRANCH   9  10
ATOM     10  C   UNL     1      66.904  33.620  14.291  1.00  0.00    -0.000 C 
BRANCH  10  11
ATOM     11  C   UNL     1      66.420  34.788  13.420  1.00  0.00    -0.003 C 
ATOM     12  C   UNL     1      66.925  34.648  11.984  1.00  0.00     0.004 C 
ENDBRANCH  10  11
ENDBRANCH   9  10
ENDBRANCH   8   9
ENDBRANCH   7   8
ENDBRANCH   6   7
ENDBRANCH   5   6
ENDBRANCH   4   5
ENDBRANCH   3   4
ENDBRANCH   2   3
ENDBRANCH   1   2
BRANCH   1  13
ATOM     13  C   UNL     1      63.347  32.841  13.028  1.00  0.00     0.000 C 
BRANCH  13  14
ATOM     14  C   UNL     1      63.894  31.506  12.490  1.00  0.00     0.000 C 
BRANCH  14  15
ATOM     15  C   UNL     1      64.735  31.676  11.212  1.00  0.00     0.000 C 
BRANCH  15  16
ATOM     16  C   UNL     1      64.726  30.419  10.330  1.00  0.00     0.000 C 
BRANCH  16  17
ATOM     17  C   UNL     1      63.777  30.558   9.124  1.00  0.00     0.000 C 
BRANCH  17  18
ATOM     18  C   UNL     1      62.510  29.691   9.277  1.00  0.00     0.000 C 
BRANCH  18  19
ATOM     19  C   UNL     1      61.252  30.500   9.642  1.00  0.00     0.000 C 
BRANCH  19  20
ATOM     20  C   UNL     1      60.666  30.110  11.007  1.00  0.00     0.006 C 
BRANCH  20  21
ATOM     21  C   UNL     1      61.432  28.935  11.624  1.00  0.00     0.053 C 
BRANCH  21  22
ATOM     22  C   UNL     1      60.978  28.685  13.029  1.00  0.00     0.041 C 
ATOM     23  O   UNL     1      61.744  28.941  13.996  1.00  0.00    -0.550 OA
ATOM     24  O   UNL     1      59.710  28.166  13.272  1.00  0.00    -0.550 OA
ENDBRANCH  21  22
ENDBRANCH  20  21
ENDBRANCH  19  20
ENDBRANCH  18  19
ENDBRANCH  17  18
ENDBRANCH  16  17
ENDBRANCH  15  16
ENDBRANCH  14  15
ENDBRANCH  13  14
ENDBRANCH   1  13
TORSDOF 20
ENDMDL
MODEL 9
REMARK VINA RESULT:    -4.431      1.599      4.816
REMARK INTER + INTRA:         -13.059
REMARK INTER:                  -9.821
REMARK INTRA:                  -3.238
REMARK UNBOUND:                -3.447
REMARK SMILES CCCCCCCCCCCCCCCCCCCCCC(=O)[O-]
REMARK SMILES IDX 12 1 11 2 10 3 9 4 8 5 7 6 6 7 5 8 4 9 3 10 2 11 1 12 13 13
REMARK SMILES IDX 14 14 15 15 16 16 17 17 18 18 19 19 20 20 21 21 22 22 23 23
REMARK SMILES IDX 24 24
REMARK H PARENT
REMARK Flexibility Score: inf
ROOT
ATOM      1  C   UNL     1      61.198  29.608   9.558  1.00  0.00     0.000 C 
ENDROOT
BRANCH   1   2
ATOM      2  C   UNL     1      62.399  28.660   9.404  1.00  0.00     0.000 C 
BRANCH   2   3
ATOM      3  C   UNL     1      63.745  29.346   9.699  1.00  0.00     0.000 C 
BRANCH   3   4
ATOM      4  C   UNL     1      63.936  30.733   9.051  1.00  0.00    -0.000 C 
BRANCH   4   5
ATOM      5  C   UNL     1      65.399  31.181   8.885  1.00  0.00    -0.000 C 
BRANCH   5   6
ATOM      6  C   UNL     1      66.069  31.541  10.219  1.00  0.00    -0.000 C 
BRANCH   6   7
ATOM      7  C   UNL     1      65.946  33.042  10.503  1.00  0.00    -0.000 C 
BRANCH   7   8
ATOM      8  C   UNL     1      67.246  33.605  11.090  1.00  0.00    -0.000 C 
BRANCH   8   9
ATOM      9  C   UNL     1      66.984  34.914  11.847  1.00  0.00    -0.000 C 
BRANCH   9  10
ATOM     10  C   UNL     1      67.314  34.806  13.347  1.00  0.00    -0.000 C 
BRANCH  10  11
ATOM     11  C   UNL     1      66.085  34.451  14.197  1.00  0.00    -0.003 C 
ATOM     12  C   UNL     1      66.248  33.078  14.849  1.00  0.00     0.004 C 
ENDBRANCH  10  11
ENDBRANCH   9  10
ENDBRANCH   8   9
ENDBRANCH   7   8
ENDBRANCH   6   7
ENDBRANCH   5   6
ENDBRANCH   4   5
ENDBRANCH   3   4
ENDBRANCH   2   3
ENDBRANCH   1   2
BRANCH   1  13
ATOM     13  C   UNL     1      60.980  30.062  11.013  1.00  0.00     0.000 C 
BRANCH  13  14
ATOM     14  C   UNL     1      60.309  29.021  11.928  1.00  0.00     0.000 C 
BRANCH  14  15
ATOM     15  C   UNL     1      60.969  28.931  13.316  1.00  0.00     0.000 C 
BRANCH  15  16
ATOM     16  C   UNL     1      62.500  29.033  13.247  1.00  0.00     0.000 C 
BRANCH  16  17
ATOM     17  C   UNL     1      63.037  30.278  13.976  1.00  0.00     0.000 C 
BRANCH  17  18
ATOM     18  C   UNL     1      63.809  31.220  13.029  1.00  0.00     0.000 C 
BRANCH  18  19
ATOM     19  C   UNL     1      63.156  32.606  12.875  1.00  0.00     0.000 C 
BRANCH  19  20
ATOM     20  C   UNL     1      61.776  32.694  13.545  1.00  0.00     0.006 C 
BRANCH  20  21
ATOM     21  C   UNL     1      61.731  33.832  14.571  1.00  0.00     0.053 C 
BRANCH  21  22
ATOM     22  C   UNL     1      61.922  33.303  15.959  1.00  0.00     0.041 C 
ATOM     23  O   UNL     1      61.400  32.207  16.296  1.00  0.00    -0.550 OA
ATOM     24  O   UNL     1      62.676  34.021  16.882  1.00  0.00    -0.550 OA
ENDBRANCH  21  22
ENDBRANCH  20  21
ENDBRANCH  19  20
ENDBRANCH  18  19
ENDBRANCH  17  18
ENDBRANCH  16  17
ENDBRANCH  15  16
ENDBRANCH  14  15
ENDBRANCH  13  14
ENDBRANCH   1  13
TORSDOF 20
ENDMDL
