MODEL 1
REMARK VINA RESULT:    -5.657      0.000      0.000
REMARK INTER + INTRA:         -12.776
REMARK INTER:                  -9.295
REMARK INTRA:                  -3.481
REMARK UNBOUND:                -3.481
REMARK SMILES C[C@H]1O[C@H](OC[C@H]2O[C@H](Oc3c(-c4ccc(O)c(O)c4)oc4cc(O)cc(O)c4c3=O)[C@H](O)[C@H](O)[C@@H]2O)[C@@H](O)[C@H](O)[C@H]1O
REMARK SMILES IDX 7 1 36 2 34 3 32 4 9 5 8 6 6 7 5 8 4 9 1 10 2 11 42 12 3 13
REMARK SMILES IDX 40 14 38 15 43 16 41 18 39 20 37 22 35 24 10 26 11 27 12 28
REMARK SMILES IDX 30 29 21 30 29 31 31 32 22 33 27 34 23 35 26 36 24 37 13 38
REMARK SMILES IDX 20 39 14 40 18 41 15 42 16 43 19 44 17 46 28 48 25 50 33 52
REMARK H PARENT 43 17 41 19 39 21 37 23 35 25 19 45 17 47 28 49 25 51 33 53
REMARK Flexibility Score: inf
ROOT
ATOM      1  C   UNL     1      11.084  20.282  23.389  1.00  0.00     0.180 C 
ATOM      2  C   UNL     1      10.887  20.751  21.925  1.00  0.00     0.177 C 
ATOM      3  C   UNL     1      12.194  21.368  21.397  1.00  0.00     0.180 C 
ATOM      4  C   UNL     1      13.364  20.392  21.631  1.00  0.00     0.214 C 
ATOM      5  C   UNL     1      13.389  19.922  23.097  1.00  0.00     0.339 C 
ATOM      6  O   UNL     1      12.146  19.349  23.475  1.00  0.00    -0.332 OA
ENDROOT
BRANCH   1   7
ATOM      7  C   UNL     1       9.824  19.590  23.935  1.00  0.00     0.198 C 
BRANCH   7   8
ATOM      8  O   UNL     1       8.792  20.518  24.219  1.00  0.00    -0.347 OA
BRANCH   8   9
ATOM      9  C   UNL     1       7.510  19.906  24.276  1.00  0.00     0.281 C 
ATOM     10  C   UNL     1       6.036  22.173  26.784  1.00  0.00     0.041 C 
ATOM     11  C   UNL     1       6.585  21.737  25.420  1.00  0.00     0.150 C 
ATOM     12  C   UNL     1       5.628  22.128  24.262  1.00  0.00     0.174 C 
ATOM     13  O   UNL     1       6.809  20.335  25.437  1.00  0.00    -0.344 OA
ATOM     14  C   UNL     1       6.204  21.648  22.913  1.00  0.00     0.179 C 
ATOM     15  C   UNL     1       6.682  20.178  22.994  1.00  0.00     0.202 C 
BRANCH  12  16
ATOM     16  O   UNL     1       4.363  21.546  24.451  1.00  0.00    -0.388 OA
ATOM     17  H   UNL     1       4.413  20.615  24.104  1.00  0.00     0.211 HD
ENDBRANCH  12  16
BRANCH  14  18
ATOM     18  O   UNL     1       7.224  22.495  22.433  1.00  0.00    -0.387 OA
ATOM     19  H   UNL     1       7.453  22.230  21.503  1.00  0.00     0.211 HD
ENDBRANCH  14  18
BRANCH  15  20
ATOM     20  O   UNL     1       5.571  19.314  22.988  1.00  0.00    -0.385 OA
ATOM     21  H   UNL     1       4.832  19.793  22.527  1.00  0.00     0.211 HD
ENDBRANCH  15  20
ENDBRANCH   8   9
ENDBRANCH   7   8
ENDBRANCH   1   7
BRANCH   2  22
ATOM     22  O   UNL     1       9.856  21.704  21.853  1.00  0.00    -0.387 OA
ATOM     23  H   UNL     1       9.033  21.212  21.605  1.00  0.00     0.211 HD
ENDBRANCH   2  22
BRANCH   3  24
ATOM     24  O   UNL     1      12.430  22.591  22.051  1.00  0.00    -0.387 OA
ATOM     25  H   UNL     1      12.335  23.309  21.370  1.00  0.00     0.211 HD
ENDBRANCH   3  24
BRANCH   5  26
ATOM     26  O   UNL     1      13.762  20.993  23.970  1.00  0.00    -0.454 OA
BRANCH  26  27
ATOM     27  C   UNL     1      14.725  20.899  24.988  1.00  0.00     0.214 A 
ATOM     28  C   UNL     1      14.296  20.791  26.324  1.00  0.00     0.180 A 
ATOM     29  C   UNL     1      16.112  20.941  24.735  1.00  0.00     0.239 A 
ATOM     30  O   UNL     1      15.175  20.835  27.319  1.00  0.00    -0.452 OA
ATOM     31  C   UNL     1      17.017  20.970  25.816  1.00  0.00     0.111 A 
ATOM     32  O   UNL     1      16.535  20.927  23.546  1.00  0.00    -0.285 OA
ATOM     33  C   UNL     1      16.486  20.931  27.128  1.00  0.00     0.146 A 
ATOM     34  C   UNL     1      18.421  21.039  25.645  1.00  0.00     0.134 A 
ATOM     35  C   UNL     1      17.334  20.986  28.239  1.00  0.00     0.094 A 
ATOM     36  C   UNL     1      19.257  21.088  26.771  1.00  0.00     0.093 A 
ATOM     37  C   UNL     1      18.720  21.066  28.062  1.00  0.00     0.123 A 
BRANCH  28  38
ATOM     38  C   UNL     1      12.864  20.658  26.664  1.00  0.00     0.025 A 
ATOM     39  C   UNL     1      12.035  21.789  26.617  1.00  0.00     0.062 A 
ATOM     40  C   UNL     1      12.331  19.429  27.085  1.00  0.00     0.016 A 
ATOM     41  C   UNL     1      10.683  21.695  26.969  1.00  0.00     0.158 A 
ATOM     42  C   UNL     1      10.980  19.329  27.434  1.00  0.00     0.051 A 
ATOM     43  C   UNL     1      10.150  20.458  27.378  1.00  0.00     0.157 A 
BRANCH  41  44
ATOM     44  O   UNL     1       9.889  22.842  26.910  1.00  0.00    -0.504 OA
ATOM     45  H   UNL     1       9.559  23.222  26.029  1.00  0.00     0.293 HD
ENDBRANCH  41  44
BRANCH  43  46
ATOM     46  O   UNL     1       8.806  20.366  27.738  1.00  0.00    -0.504 OA
ATOM     47  H   UNL     1       8.065  20.561  27.074  1.00  0.00     0.293 HD
ENDBRANCH  43  46
ENDBRANCH  28  38
BRANCH  34  48
ATOM     48  O   UNL     1      18.988  21.059  24.368  1.00  0.00    -0.507 OA
ATOM     49  H   UNL     1      18.820  21.821  23.723  1.00  0.00     0.293 HD
ENDBRANCH  34  48
BRANCH  37  50
ATOM     50  O   UNL     1      19.575  21.131  29.160  1.00  0.00    -0.508 OA
ATOM     51  H   UNL     1      19.227  21.039  30.113  1.00  0.00     0.293 HD
ENDBRANCH  37  50
ENDBRANCH  26  27
ENDBRANCH   5  26
BRANCH   4  52
ATOM     52  O   UNL     1      14.590  20.998  21.314  1.00  0.00    -0.384 OA
ATOM     53  H   UNL     1      14.998  21.281  22.172  1.00  0.00     0.211 HD
ENDBRANCH   4  52
TORSDOF 16
ENDMDL
MODEL 2
REMARK VINA RESULT:    -5.295      2.618      9.859
REMARK INTER + INTRA:         -12.182
REMARK INTER:                  -9.937
REMARK INTRA:                  -2.244
REMARK UNBOUND:                -3.481
REMARK SMILES C[C@H]1O[C@H](OC[C@H]2O[C@H](Oc3c(-c4ccc(O)c(O)c4)oc4cc(O)cc(O)c4c3=O)[C@H](O)[C@H](O)[C@@H]2O)[C@@H](O)[C@H](O)[C@H]1O
REMARK SMILES IDX 7 1 36 2 34 3 32 4 9 5 8 6 6 7 5 8 4 9 1 10 2 11 42 12 3 13
REMARK SMILES IDX 40 14 38 15 43 16 41 18 39 20 37 22 35 24 10 26 11 27 12 28
REMARK SMILES IDX 30 29 21 30 29 31 31 32 22 33 27 34 23 35 26 36 24 37 13 38
REMARK SMILES IDX 20 39 14 40 18 41 15 42 16 43 19 44 17 46 28 48 25 50 33 52
REMARK H PARENT 43 17 41 19 39 21 37 23 35 25 19 45 17 47 28 49 25 51 33 53
REMARK Flexibility Score: inf
ROOT
ATOM      1  C   UNL     1      14.972  22.127  27.561  1.00  0.00     0.180 C 
ATOM      2  C   UNL     1      14.774  21.891  29.080  1.00  0.00     0.177 C 
ATOM      3  C   UNL     1      13.464  21.118  29.319  1.00  0.00     0.180 C 
ATOM      4  C   UNL     1      13.437  19.853  28.439  1.00  0.00     0.214 C 
ATOM      5  C   UNL     1      13.749  20.208  26.973  1.00  0.00     0.339 C 
ATOM      6  O   UNL     1      14.985  20.895  26.862  1.00  0.00    -0.332 OA
ENDROOT
BRANCH   1   7
ATOM      7  C   UNL     1      16.308  22.832  27.269  1.00  0.00     0.198 C 
BRANCH   7   8
ATOM      8  O   UNL     1      17.088  22.995  28.441  1.00  0.00    -0.347 OA
BRANCH   8   9
ATOM      9  C   UNL     1      17.638  24.301  28.551  1.00  0.00     0.281 C 
ATOM     10  C   UNL     1      17.105  24.711  32.177  1.00  0.00     0.041 C 
ATOM     11  C   UNL     1      17.737  24.160  30.894  1.00  0.00     0.150 C 
ATOM     12  C   UNL     1      19.288  24.208  30.949  1.00  0.00     0.174 C 
ATOM     13  O   UNL     1      17.249  24.897  29.782  1.00  0.00    -0.344 OA
ATOM     14  C   UNL     1      19.882  23.671  29.629  1.00  0.00     0.179 C 
ATOM     15  C   UNL     1      19.180  24.293  28.398  1.00  0.00     0.202 C 
BRANCH  12  16
ATOM     16  O   UNL     1      19.733  25.527  31.146  1.00  0.00    -0.388 OA
ATOM     17  H   UNL     1      18.981  26.032  31.558  1.00  0.00     0.211 HD
ENDBRANCH  12  16
BRANCH  14  18
ATOM     18  O   UNL     1      19.870  22.263  29.570  1.00  0.00    -0.387 OA
ATOM     19  H   UNL     1      20.676  21.913  30.035  1.00  0.00     0.211 HD
ENDBRANCH  14  18
BRANCH  15  20
ATOM     20  O   UNL     1      19.617  25.619  28.219  1.00  0.00    -0.385 OA
ATOM     21  H   UNL     1      19.684  26.029  29.123  1.00  0.00     0.211 HD
ENDBRANCH  15  20
ENDBRANCH   8   9
ENDBRANCH   7   8
ENDBRANCH   1   7
BRANCH   2  22
ATOM     22  O   UNL     1      14.725  23.119  29.763  1.00  0.00    -0.387 OA
ATOM     23  H   UNL     1      15.659  23.351  29.994  1.00  0.00     0.211 HD
ENDBRANCH   2  22
BRANCH   3  24
ATOM     24  O   UNL     1      12.370  21.952  29.022  1.00  0.00    -0.387 OA
ATOM     25  H   UNL     1      11.788  21.968  29.828  1.00  0.00     0.211 HD
ENDBRANCH   3  24
BRANCH   5  26
ATOM     26  O   UNL     1      12.676  20.955  26.391  1.00  0.00    -0.454 OA
BRANCH  26  27
ATOM     27  C   UNL     1      11.747  20.441  25.471  1.00  0.00     0.214 A 
ATOM     28  C   UNL     1      12.132  20.289  24.126  1.00  0.00     0.180 A 
ATOM     29  C   UNL     1      10.427  20.099  25.829  1.00  0.00     0.239 A 
ATOM     30  O   UNL     1      11.240  19.934  23.207  1.00  0.00    -0.452 OA
ATOM     31  C   UNL     1       9.512  19.710  24.830  1.00  0.00     0.111 A 
ATOM     32  O   UNL     1      10.079  20.118  27.043  1.00  0.00    -0.285 OA
ATOM     33  C   UNL     1       9.973  19.657  23.492  1.00  0.00     0.146 A 
ATOM     34  C   UNL     1       8.163  19.377  25.106  1.00  0.00     0.134 A 
ATOM     35  C   UNL     1       9.102  19.305  22.455  1.00  0.00     0.094 A 
ATOM     36  C   UNL     1       7.306  19.021  24.053  1.00  0.00     0.093 A 
ATOM     37  C   UNL     1       7.768  18.989  22.733  1.00  0.00     0.123 A 
BRANCH  28  38
ATOM     38  C   UNL     1      13.519  20.547  23.688  1.00  0.00     0.025 A 
ATOM     39  C   UNL     1      14.424  19.479  23.593  1.00  0.00     0.062 A 
ATOM     40  C   UNL     1      13.962  21.852  23.418  1.00  0.00     0.016 A 
ATOM     41  C   UNL     1      15.753  19.703  23.215  1.00  0.00     0.158 A 
ATOM     42  C   UNL     1      15.289  22.081  23.036  1.00  0.00     0.051 A 
ATOM     43  C   UNL     1      16.189  21.011  22.932  1.00  0.00     0.157 A 
BRANCH  41  44
ATOM     44  O   UNL     1      16.624  18.615  23.130  1.00  0.00    -0.504 OA
ATOM     45  H   UNL     1      16.368  17.694  23.472  1.00  0.00     0.293 HD
ENDBRANCH  41  44
BRANCH  43  46
ATOM     46  O   UNL     1      17.515  21.237  22.565  1.00  0.00    -0.504 OA
ATOM     47  H   UNL     1      17.922  22.166  22.593  1.00  0.00     0.293 HD
ENDBRANCH  43  46
ENDBRANCH  28  38
BRANCH  34  48
ATOM     48  O   UNL     1       7.672  19.396  26.413  1.00  0.00    -0.507 OA
ATOM     49  H   UNL     1       8.254  19.145  27.204  1.00  0.00     0.293 HD
ENDBRANCH  34  48
BRANCH  37  50
ATOM     50  O   UNL     1       6.889  18.646  21.708  1.00  0.00    -0.508 OA
ATOM     51  H   UNL     1       5.894  18.519  21.879  1.00  0.00     0.293 HD
ENDBRANCH  37  50
ENDBRANCH  26  27
ENDBRANCH   5  26
BRANCH   4  52
ATOM     52  O   UNL     1      12.184  19.223  28.511  1.00  0.00    -0.384 OA
ATOM     53  H   UNL     1      11.512  19.892  28.224  1.00  0.00     0.211 HD
ENDBRANCH   4  52
TORSDOF 16
ENDMDL
MODEL 3
REMARK VINA RESULT:    -5.219      2.962      9.567
REMARK INTER + INTRA:         -12.056
REMARK INTER:                  -8.491
REMARK INTRA:                  -3.565
REMARK UNBOUND:                -3.481
REMARK SMILES C[C@H]1O[C@H](OC[C@H]2O[C@H](Oc3c(-c4ccc(O)c(O)c4)oc4cc(O)cc(O)c4c3=O)[C@H](O)[C@H](O)[C@@H]2O)[C@@H](O)[C@H](O)[C@H]1O
REMARK SMILES IDX 7 1 36 2 34 3 32 4 9 5 8 6 6 7 5 8 4 9 1 10 2 11 42 12 3 13
REMARK SMILES IDX 40 14 38 15 43 16 41 18 39 20 37 22 35 24 10 26 11 27 12 28
REMARK SMILES IDX 30 29 21 30 29 31 31 32 22 33 27 34 23 35 26 36 24 37 13 38
REMARK SMILES IDX 20 39 14 40 18 41 15 42 16 43 19 44 17 46 28 48 25 50 33 52
REMARK H PARENT 43 17 41 19 39 21 37 23 35 25 19 45 17 47 28 49 25 51 33 53
REMARK Flexibility Score: inf
ROOT
ATOM      1  C   UNL     1       8.967  22.768  27.877  1.00  0.00     0.180 C 
ATOM      2  C   UNL     1       8.879  24.282  28.194  1.00  0.00     0.177 C 
ATOM      3  C   UNL     1       7.923  24.967  27.201  1.00  0.00     0.180 C 
ATOM      4  C   UNL     1       6.578  24.215  27.168  1.00  0.00     0.214 C 
ATOM      5  C   UNL     1       6.808  22.708  26.948  1.00  0.00     0.339 C 
ATOM      6  O   UNL     1       7.682  22.172  27.929  1.00  0.00    -0.332 OA
ENDROOT
BRANCH   1   7
ATOM      7  C   UNL     1       9.854  22.028  28.892  1.00  0.00     0.198 C 
BRANCH   7   8
ATOM      8  O   UNL     1      11.206  21.976  28.473  1.00  0.00    -0.347 OA
BRANCH   8   9
ATOM      9  C   UNL     1      12.075  21.507  29.496  1.00  0.00     0.281 C 
ATOM     10  C   UNL     1      14.920  20.646  27.313  1.00  0.00     0.041 C 
ATOM     11  C   UNL     1      13.936  21.551  28.062  1.00  0.00     0.150 C 
ATOM     12  C   UNL     1      14.668  22.669  28.854  1.00  0.00     0.174 C 
ATOM     13  O   UNL     1      13.142  20.756  28.931  1.00  0.00    -0.344 OA
ATOM     14  C   UNL     1      13.643  23.539  29.613  1.00  0.00     0.179 C 
ATOM     15  C   UNL     1      12.614  22.666  30.373  1.00  0.00     0.202 C 
BRANCH  12  16
ATOM     16  O   UNL     1      15.566  22.109  29.779  1.00  0.00    -0.388 OA
ATOM     17  H   UNL     1      15.691  22.776  30.507  1.00  0.00     0.211 HD
ENDBRANCH  12  16
BRANCH  14  18
ATOM     18  O   UNL     1      13.004  24.472  28.772  1.00  0.00    -0.387 OA
ATOM     19  H   UNL     1      12.789  24.033  27.908  1.00  0.00     0.211 HD
ENDBRANCH  14  18
BRANCH  15  20
ATOM     20  O   UNL     1      13.211  22.116  31.522  1.00  0.00    -0.385 OA
ATOM     21  H   UNL     1      13.256  21.132  31.385  1.00  0.00     0.211 HD
ENDBRANCH  15  20
ENDBRANCH   8   9
ENDBRANCH   7   8
ENDBRANCH   1   7
BRANCH   2  22
ATOM     22  O   UNL     1      10.151  24.874  28.104  1.00  0.00    -0.387 OA
ATOM     23  H   UNL     1      10.575  24.770  28.993  1.00  0.00     0.211 HD
ENDBRANCH   2  22
BRANCH   3  24
ATOM     24  O   UNL     1       8.513  24.984  25.923  1.00  0.00    -0.387 OA
ATOM     25  H   UNL     1       9.456  25.275  26.040  1.00  0.00     0.211 HD
ENDBRANCH   3  24
BRANCH   5  26
ATOM     26  O   UNL     1       7.283  22.453  25.623  1.00  0.00    -0.454 OA
BRANCH  26  27
ATOM     27  C   UNL     1       6.700  21.545  24.723  1.00  0.00     0.214 A 
ATOM     28  C   UNL     1       7.266  20.264  24.585  1.00  0.00     0.180 A 
ATOM     29  C   UNL     1       5.587  21.872  23.921  1.00  0.00     0.239 A 
ATOM     30  O   UNL     1       6.824  19.430  23.649  1.00  0.00    -0.452 OA
ATOM     31  C   UNL     1       5.135  20.956  22.949  1.00  0.00     0.111 A 
ATOM     32  O   UNL     1       4.986  22.969  24.095  1.00  0.00    -0.285 OA
ATOM     33  C   UNL     1       5.815  19.719  22.835  1.00  0.00     0.146 A 
ATOM     34  C   UNL     1       4.041  21.220  22.089  1.00  0.00     0.134 A 
ATOM     35  C   UNL     1       5.429  18.784  21.870  1.00  0.00     0.094 A 
ATOM     36  C   UNL     1       3.665  20.268  21.131  1.00  0.00     0.093 A 
ATOM     37  C   UNL     1       4.355  19.057  21.015  1.00  0.00     0.123 A 
BRANCH  28  38
ATOM     38  C   UNL     1       8.380  19.818  25.446  1.00  0.00     0.025 A 
ATOM     39  C   UNL     1       9.703  20.076  25.054  1.00  0.00     0.062 A 
ATOM     40  C   UNL     1       8.140  19.093  26.624  1.00  0.00     0.016 A 
ATOM     41  C   UNL     1      10.776  19.633  25.835  1.00  0.00     0.158 A 
ATOM     42  C   UNL     1       9.209  18.650  27.410  1.00  0.00     0.051 A 
ATOM     43  C   UNL     1      10.530  18.916  27.022  1.00  0.00     0.157 A 
BRANCH  41  44
ATOM     44  O   UNL     1      12.078  19.909  25.413  1.00  0.00    -0.504 OA
ATOM     45  H   UNL     1      12.393  19.702  24.471  1.00  0.00     0.293 HD
ENDBRANCH  41  44
BRANCH  43  46
ATOM     46  O   UNL     1      11.599  18.466  27.796  1.00  0.00    -0.504 OA
ATOM     47  H   UNL     1      11.611  18.584  28.803  1.00  0.00     0.293 HD
ENDBRANCH  43  46
ENDBRANCH  28  38
BRANCH  34  48
ATOM     48  O   UNL     1       3.329  22.419  22.181  1.00  0.00    -0.507 OA
ATOM     49  H   UNL     1       2.659  22.584  22.924  1.00  0.00     0.293 HD
ENDBRANCH  34  48
BRANCH  37  50
ATOM     50  O   UNL     1       3.967  18.137  20.043  1.00  0.00    -0.508 OA
ATOM     51  H   UNL     1       4.474  18.043  19.166  1.00  0.00     0.293 HD
ENDBRANCH  37  50
ENDBRANCH  26  27
ENDBRANCH   5  26
BRANCH   4  52
ATOM     52  O   UNL     1       5.752  24.715  26.149  1.00  0.00    -0.384 OA
ATOM     53  H   UNL     1       6.062  25.637  25.958  1.00  0.00     0.211 HD
ENDBRANCH   4  52
TORSDOF 16
ENDMDL
MODEL 4
REMARK VINA RESULT:    -5.207      1.693      4.273
REMARK INTER + INTRA:         -12.036
REMARK INTER:                  -9.034
REMARK INTRA:                  -3.002
REMARK UNBOUND:                -3.481
REMARK SMILES C[C@H]1O[C@H](OC[C@H]2O[C@H](Oc3c(-c4ccc(O)c(O)c4)oc4cc(O)cc(O)c4c3=O)[C@H](O)[C@H](O)[C@@H]2O)[C@@H](O)[C@H](O)[C@H]1O
REMARK SMILES IDX 7 1 36 2 34 3 32 4 9 5 8 6 6 7 5 8 4 9 1 10 2 11 42 12 3 13
REMARK SMILES IDX 40 14 38 15 43 16 41 18 39 20 37 22 35 24 10 26 11 27 12 28
REMARK SMILES IDX 30 29 21 30 29 31 31 32 22 33 27 34 23 35 26 36 24 37 13 38
REMARK SMILES IDX 20 39 14 40 18 41 15 42 16 43 19 44 17 46 28 48 25 50 33 52
REMARK H PARENT 43 17 41 19 39 21 37 23 35 25 19 45 17 47 28 49 25 51 33 53
REMARK Flexibility Score: inf
ROOT
ATOM      1  C   UNL     1       9.907  21.306  26.196  1.00  0.00     0.180 C 
ATOM      2  C   UNL     1       9.322  20.184  27.090  1.00  0.00     0.177 C 
ATOM      3  C   UNL     1      10.452  19.250  27.558  1.00  0.00     0.180 C 
ATOM      4  C   UNL     1      11.587  20.080  28.190  1.00  0.00     0.214 C 
ATOM      5  C   UNL     1      12.008  21.222  27.247  1.00  0.00     0.339 C 
ATOM      6  O   UNL     1      10.899  22.035  26.896  1.00  0.00    -0.332 OA
ENDROOT
BRANCH   1   7
ATOM      7  C   UNL     1       8.823  22.309  25.765  1.00  0.00     0.198 C 
BRANCH   7   8
ATOM      8  O   UNL     1       7.724  21.665  25.144  1.00  0.00    -0.347 OA
BRANCH   8   9
ATOM      9  C   UNL     1       7.711  21.849  23.734  1.00  0.00     0.281 C 
ATOM     10  C   UNL     1       7.116  18.325  22.823  1.00  0.00     0.041 C 
ATOM     11  C   UNL     1       6.789  19.719  23.373  1.00  0.00     0.150 C 
ATOM     12  C   UNL     1       5.452  20.265  22.802  1.00  0.00     0.174 C 
ATOM     13  O   UNL     1       7.862  20.600  23.072  1.00  0.00    -0.344 OA
ATOM     14  C   UNL     1       5.176  21.678  23.359  1.00  0.00     0.179 C 
ATOM     15  C   UNL     1       6.429  22.580  23.259  1.00  0.00     0.202 C 
BRANCH  12  16
ATOM     16  O   UNL     1       5.505  20.329  21.399  1.00  0.00    -0.388 OA
ATOM     17  H   UNL     1       5.961  19.502  21.085  1.00  0.00     0.211 HD
ENDBRANCH  12  16
BRANCH  14  18
ATOM     18  O   UNL     1       4.669  21.646  24.674  1.00  0.00    -0.387 OA
ATOM     19  H   UNL     1       3.980  20.933  24.738  1.00  0.00     0.211 HD
ENDBRANCH  14  18
BRANCH  15  20
ATOM     20  O   UNL     1       6.617  22.989  21.926  1.00  0.00    -0.385 OA
ATOM     21  H   UNL     1       6.108  22.355  21.352  1.00  0.00     0.211 HD
ENDBRANCH  15  20
ENDBRANCH   8   9
ENDBRANCH   7   8
ENDBRANCH   1   7
BRANCH   2  22
ATOM     22  O   UNL     1       8.365  19.441  26.377  1.00  0.00    -0.387 OA
ATOM     23  H   UNL     1       7.557  20.010  26.311  1.00  0.00     0.211 HD
ENDBRANCH   2  22
BRANCH   3  24
ATOM     24  O   UNL     1      10.930  18.509  26.461  1.00  0.00    -0.387 OA
ATOM     25  H   UNL     1      11.386  19.150  25.853  1.00  0.00     0.211 HD
ENDBRANCH   3  24
BRANCH   5  26
ATOM     26  O   UNL     1      12.672  20.709  26.088  1.00  0.00    -0.454 OA
BRANCH  26  27
ATOM     27  C   UNL     1      13.947  21.106  25.653  1.00  0.00     0.214 A 
ATOM     28  C   UNL     1      14.063  21.815  24.442  1.00  0.00     0.180 A 
ATOM     29  C   UNL     1      15.128  20.796  26.359  1.00  0.00     0.239 A 
ATOM     30  O   UNL     1      15.261  22.088  23.935  1.00  0.00    -0.452 OA
ATOM     31  C   UNL     1      16.381  21.116  25.798  1.00  0.00     0.111 A 
ATOM     32  O   UNL     1      15.056  20.259  27.500  1.00  0.00    -0.285 OA
ATOM     33  C   UNL     1      16.398  21.765  24.539  1.00  0.00     0.146 A 
ATOM     34  C   UNL     1      17.610  20.815  26.433  1.00  0.00     0.134 A 
ATOM     35  C   UNL     1      17.612  22.081  23.921  1.00  0.00     0.094 A 
ATOM     36  C   UNL     1      18.818  21.144  25.800  1.00  0.00     0.093 A 
ATOM     37  C   UNL     1      18.823  21.769  24.548  1.00  0.00     0.123 A 
BRANCH  28  38
ATOM     38  C   UNL     1      12.870  22.248  23.686  1.00  0.00     0.025 A 
ATOM     39  C   UNL     1      12.147  21.307  22.938  1.00  0.00     0.062 A 
ATOM     40  C   UNL     1      12.479  23.596  23.662  1.00  0.00     0.016 A 
ATOM     41  C   UNL     1      11.034  21.699  22.185  1.00  0.00     0.158 A 
ATOM     42  C   UNL     1      11.365  23.993  22.913  1.00  0.00     0.051 A 
ATOM     43  C   UNL     1      10.638  23.050  22.173  1.00  0.00     0.157 A 
BRANCH  41  44
ATOM     44  O   UNL     1      10.339  20.734  21.453  1.00  0.00    -0.504 OA
ATOM     45  H   UNL     1      10.678  19.782  21.362  1.00  0.00     0.293 HD
ENDBRANCH  41  44
BRANCH  43  46
ATOM     46  O   UNL     1       9.535  23.444  21.416  1.00  0.00    -0.504 OA
ATOM     47  H   UNL     1       9.320  23.008  20.526  1.00  0.00     0.293 HD
ENDBRANCH  43  46
ENDBRANCH  28  38
BRANCH  34  48
ATOM     48  O   UNL     1      17.639  20.194  27.684  1.00  0.00    -0.507 OA
ATOM     49  H   UNL     1      18.481  19.760  28.044  1.00  0.00     0.293 HD
ENDBRANCH  34  48
BRANCH  37  50
ATOM     50  O   UNL     1      20.039  22.070  23.938  1.00  0.00    -0.508 OA
ATOM     51  H   UNL     1      20.557  21.372  23.409  1.00  0.00     0.293 HD
ENDBRANCH  37  50
ENDBRANCH  26  27
ENDBRANCH   5  26
BRANCH   4  52
ATOM     52  O   UNL     1      12.700  19.270  28.470  1.00  0.00    -0.384 OA
ATOM     53  H   UNL     1      12.368  18.337  28.517  1.00  0.00     0.211 HD
ENDBRANCH   4  52
TORSDOF 16
ENDMDL
MODEL 5
REMARK VINA RESULT:    -5.195      2.628      5.312
REMARK INTER + INTRA:         -12.016
REMARK INTER:                  -9.147
REMARK INTRA:                  -2.869
REMARK UNBOUND:                -3.481
REMARK SMILES C[C@H]1O[C@H](OC[C@H]2O[C@H](Oc3c(-c4ccc(O)c(O)c4)oc4cc(O)cc(O)c4c3=O)[C@H](O)[C@H](O)[C@@H]2O)[C@@H](O)[C@H](O)[C@H]1O
REMARK SMILES IDX 7 1 36 2 34 3 32 4 9 5 8 6 6 7 5 8 4 9 1 10 2 11 42 12 3 13
REMARK SMILES IDX 40 14 38 15 43 16 41 18 39 20 37 22 35 24 10 26 11 27 12 28
REMARK SMILES IDX 30 29 21 30 29 31 31 32 22 33 27 34 23 35 26 36 24 37 13 38
REMARK SMILES IDX 20 39 14 40 18 41 15 42 16 43 19 44 17 46 28 48 25 50 33 52
REMARK H PARENT 43 17 41 19 39 21 37 23 35 25 19 45 17 47 28 49 25 51 33 53
REMARK Flexibility Score: inf
ROOT
ATOM      1  C   UNL     1      12.307  20.245  26.107  1.00  0.00     0.180 C 
ATOM      2  C   UNL     1      11.149  19.627  26.931  1.00  0.00     0.177 C 
ATOM      3  C   UNL     1      11.330  19.972  28.420  1.00  0.00     0.180 C 
ATOM      4  C   UNL     1      11.527  21.492  28.584  1.00  0.00     0.214 C 
ATOM      5  C   UNL     1      12.633  21.998  27.640  1.00  0.00     0.339 C 
ATOM      6  O   UNL     1      12.358  21.648  26.292  1.00  0.00    -0.332 OA
ENDROOT
BRANCH   1   7
ATOM      7  C   UNL     1      12.128  19.989  24.601  1.00  0.00     0.198 C 
BRANCH   7   8
ATOM      8  O   UNL     1      10.819  19.542  24.293  1.00  0.00    -0.347 OA
BRANCH   8   9
ATOM      9  C   UNL     1      10.309  20.128  23.102  1.00  0.00     0.281 C 
ATOM     10  C   UNL     1       7.245  18.089  22.871  1.00  0.00     0.041 C 
ATOM     11  C   UNL     1       8.193  19.159  23.423  1.00  0.00     0.150 C 
ATOM     12  C   UNL     1       7.471  20.519  23.627  1.00  0.00     0.174 C 
ATOM     13  O   UNL     1       9.297  19.302  22.541  1.00  0.00    -0.344 OA
ATOM     14  C   UNL     1       8.467  21.573  24.157  1.00  0.00     0.179 C 
ATOM     15  C   UNL     1       9.784  21.566  23.345  1.00  0.00     0.202 C 
BRANCH  12  16
ATOM     16  O   UNL     1       6.928  20.974  22.413  1.00  0.00    -0.388 OA
ATOM     17  H   UNL     1       6.069  20.491  22.277  1.00  0.00     0.211 HD
ENDBRANCH  12  16
BRANCH  14  18
ATOM     18  O   UNL     1       8.713  21.431  25.538  1.00  0.00    -0.387 OA
ATOM     19  H   UNL     1       9.154  20.556  25.699  1.00  0.00     0.211 HD
ENDBRANCH  14  18
BRANCH  15  20
ATOM     20  O   UNL     1       9.579  22.182  22.097  1.00  0.00    -0.385 OA
ATOM     21  H   UNL     1      10.383  22.737  21.909  1.00  0.00     0.211 HD
ENDBRANCH  15  20
ENDBRANCH   8   9
ENDBRANCH   7   8
ENDBRANCH   1   7
BRANCH   2  22
ATOM     22  O   UNL     1      11.127  18.231  26.773  1.00  0.00    -0.387 OA
ATOM     23  H   UNL     1      11.391  17.843  27.644  1.00  0.00     0.211 HD
ENDBRANCH   2  22
BRANCH   3  24
ATOM     24  O   UNL     1      12.438  19.271  28.930  1.00  0.00    -0.387 OA
ATOM     25  H   UNL     1      12.792  18.707  28.192  1.00  0.00     0.211 HD
ENDBRANCH   3  24
BRANCH   5  26
ATOM     26  O   UNL     1      13.916  21.521  28.056  1.00  0.00    -0.454 OA
BRANCH  26  27
ATOM     27  C   UNL     1      15.031  22.336  28.311  1.00  0.00     0.214 A 
ATOM     28  C   UNL     1      16.004  22.496  27.307  1.00  0.00     0.180 A 
ATOM     29  C   UNL     1      15.239  22.981  29.549  1.00  0.00     0.239 A 
ATOM     30  O   UNL     1      17.132  23.149  27.561  1.00  0.00    -0.452 OA
ATOM     31  C   UNL     1      16.442  23.679  29.777  1.00  0.00     0.111 A 
ATOM     32  O   UNL     1      14.339  22.951  30.433  1.00  0.00    -0.285 OA
ATOM     33  C   UNL     1      17.394  23.723  28.729  1.00  0.00     0.146 A 
ATOM     34  C   UNL     1      16.736  24.330  31.000  1.00  0.00     0.134 A 
ATOM     35  C   UNL     1      18.617  24.377  28.909  1.00  0.00     0.094 A 
ATOM     36  C   UNL     1      17.966  24.985  31.160  1.00  0.00     0.093 A 
ATOM     37  C   UNL     1      18.906  25.007  30.124  1.00  0.00     0.123 A 
BRANCH  28  38
ATOM     38  C   UNL     1      15.819  21.921  25.958  1.00  0.00     0.025 A 
ATOM     39  C   UNL     1      16.182  20.587  25.720  1.00  0.00     0.062 A 
ATOM     40  C   UNL     1      15.335  22.704  24.898  1.00  0.00     0.016 A 
ATOM     41  C   UNL     1      16.049  20.030  24.442  1.00  0.00     0.158 A 
ATOM     42  C   UNL     1      15.197  22.152  23.619  1.00  0.00     0.051 A 
ATOM     43  C   UNL     1      15.552  20.816  23.384  1.00  0.00     0.157 A 
BRANCH  41  44
ATOM     44  O   UNL     1      16.421  18.699  24.244  1.00  0.00    -0.504 OA
ATOM     45  H   UNL     1      17.037  18.212  24.885  1.00  0.00     0.293 HD
ENDBRANCH  41  44
BRANCH  43  46
ATOM     46  O   UNL     1      15.429  20.265  22.109  1.00  0.00    -0.504 OA
ATOM     47  H   UNL     1      15.076  19.325  21.970  1.00  0.00     0.293 HD
ENDBRANCH  43  46
ENDBRANCH  28  38
BRANCH  34  48
ATOM     48  O   UNL     1      15.818  24.328  32.053  1.00  0.00    -0.507 OA
ATOM     49  H   UNL     1      15.480  23.466  32.463  1.00  0.00     0.293 HD
ENDBRANCH  34  48
BRANCH  37  50
ATOM     50  O   UNL     1      20.125  25.654  30.319  1.00  0.00    -0.508 OA
ATOM     51  H   UNL     1      20.554  25.716  31.240  1.00  0.00     0.293 HD
ENDBRANCH  37  50
ENDBRANCH  26  27
ENDBRANCH   5  26
BRANCH   4  52
ATOM     52  O   UNL     1      11.863  21.811  29.910  1.00  0.00    -0.384 OA
ATOM     53  H   UNL     1      11.606  21.031  30.464  1.00  0.00     0.211 HD
ENDBRANCH   4  52
TORSDOF 16
ENDMDL
MODEL 6
REMARK VINA RESULT:    -5.124      1.397      1.806
REMARK INTER + INTRA:         -11.900
REMARK INTER:                  -8.988
REMARK INTRA:                  -2.912
REMARK UNBOUND:                -3.481
REMARK SMILES C[C@H]1O[C@H](OC[C@H]2O[C@H](Oc3c(-c4ccc(O)c(O)c4)oc4cc(O)cc(O)c4c3=O)[C@H](O)[C@H](O)[C@@H]2O)[C@@H](O)[C@H](O)[C@H]1O
REMARK SMILES IDX 7 1 36 2 34 3 32 4 9 5 8 6 6 7 5 8 4 9 1 10 2 11 42 12 3 13
REMARK SMILES IDX 40 14 38 15 43 16 41 18 39 20 37 22 35 24 10 26 11 27 12 28
REMARK SMILES IDX 30 29 21 30 29 31 31 32 22 33 27 34 23 35 26 36 24 37 13 38
REMARK SMILES IDX 20 39 14 40 18 41 15 42 16 43 19 44 17 46 28 48 25 50 33 52
REMARK H PARENT 43 17 41 19 39 21 37 23 35 25 19 45 17 47 28 49 25 51 33 53
REMARK Flexibility Score: inf
ROOT
ATOM      1  C   UNL     1      12.535  19.959  23.288  1.00  0.00     0.180 C 
ATOM      2  C   UNL     1      12.617  20.598  21.878  1.00  0.00     0.177 C 
ATOM      3  C   UNL     1      13.848  21.518  21.796  1.00  0.00     0.180 C 
ATOM      4  C   UNL     1      15.105  20.752  22.254  1.00  0.00     0.214 C 
ATOM      5  C   UNL     1      14.860  20.080  23.617  1.00  0.00     0.339 C 
ATOM      6  O   UNL     1      13.719  19.237  23.578  1.00  0.00    -0.332 OA
ENDROOT
BRANCH   1   7
ATOM      7  C   UNL     1      11.361  18.971  23.393  1.00  0.00     0.198 C 
BRANCH   7   8
ATOM      8  O   UNL     1      10.126  19.581  23.062  1.00  0.00    -0.347 OA
BRANCH   8   9
ATOM      9  C   UNL     1       9.337  19.869  24.209  1.00  0.00     0.281 C 
ATOM     10  C   UNL     1       8.483  23.342  23.309  1.00  0.00     0.041 C 
ATOM     11  C   UNL     1       8.454  21.812  23.226  1.00  0.00     0.150 C 
ATOM     12  C   UNL     1       7.002  21.265  23.169  1.00  0.00     0.174 C 
ATOM     13  O   UNL     1       9.152  21.273  24.340  1.00  0.00    -0.344 OA
ATOM     14  C   UNL     1       7.018  19.722  23.114  1.00  0.00     0.179 C 
ATOM     15  C   UNL     1       7.975  19.129  24.175  1.00  0.00     0.202 C 
BRANCH  12  16
ATOM     16  O   UNL     1       6.277  21.674  24.302  1.00  0.00    -0.388 OA
ATOM     17  H   UNL     1       6.748  21.308  25.099  1.00  0.00     0.211 HD
ENDBRANCH  12  16
BRANCH  14  18
ATOM     18  O   UNL     1       7.314  19.235  21.825  1.00  0.00    -0.387 OA
ATOM     19  H   UNL     1       8.119  19.704  21.479  1.00  0.00     0.211 HD
ENDBRANCH  14  18
BRANCH  15  20
ATOM     20  O   UNL     1       7.388  19.218  25.451  1.00  0.00    -0.385 OA
ATOM     21  H   UNL     1       7.828  19.975  25.923  1.00  0.00     0.211 HD
ENDBRANCH  15  20
ENDBRANCH   8   9
ENDBRANCH   7   8
ENDBRANCH   1   7
BRANCH   2  22
ATOM     22  O   UNL     1      11.456  21.343  21.612  1.00  0.00    -0.387 OA
ATOM     23  H   UNL     1      10.875  20.770  21.051  1.00  0.00     0.211 HD
ENDBRANCH   2  22
BRANCH   3  24
ATOM     24  O   UNL     1      13.638  22.652  22.603  1.00  0.00    -0.387 OA
ATOM     25  H   UNL     1      12.655  22.793  22.657  1.00  0.00     0.211 HD
ENDBRANCH   3  24
BRANCH   5  26
ATOM     26  O   UNL     1      14.756  21.058  24.657  1.00  0.00    -0.454 OA
BRANCH  26  27
ATOM     27  C   UNL     1      15.553  21.086  25.813  1.00  0.00     0.214 A 
ATOM     28  C   UNL     1      14.935  20.949  27.070  1.00  0.00     0.180 A 
ATOM     29  C   UNL     1      16.949  21.281  25.775  1.00  0.00     0.239 A 
ATOM     30  O   UNL     1      15.639  21.106  28.187  1.00  0.00    -0.452 OA
ATOM     31  C   UNL     1      17.666  21.427  26.980  1.00  0.00     0.111 A 
ATOM     32  O   UNL     1      17.552  21.299  24.666  1.00  0.00    -0.285 OA
ATOM     33  C   UNL     1      16.945  21.346  28.196  1.00  0.00     0.146 A 
ATOM     34  C   UNL     1      19.064  21.650  27.024  1.00  0.00     0.134 A 
ATOM     35  C   UNL     1      17.599  21.511  29.421  1.00  0.00     0.094 A 
ATOM     36  C   UNL     1      19.704  21.808  28.263  1.00  0.00     0.093 A 
ATOM     37  C   UNL     1      18.978  21.744  29.457  1.00  0.00     0.123 A 
BRANCH  28  38
ATOM     38  C   UNL     1      13.491  20.661  27.191  1.00  0.00     0.025 A 
ATOM     39  C   UNL     1      12.560  21.684  26.956  1.00  0.00     0.062 A 
ATOM     40  C   UNL     1      13.037  19.393  27.588  1.00  0.00     0.016 A 
ATOM     41  C   UNL     1      11.188  21.444  27.098  1.00  0.00     0.158 A 
ATOM     42  C   UNL     1      11.667  19.147  27.729  1.00  0.00     0.051 A 
ATOM     43  C   UNL     1      10.736  20.168  27.485  1.00  0.00     0.157 A 
BRANCH  41  44
ATOM     44  O   UNL     1      10.292  22.487  26.856  1.00  0.00    -0.504 OA
ATOM     45  H   UNL     1      10.595  23.379  26.479  1.00  0.00     0.293 HD
ENDBRANCH  41  44
BRANCH  43  46
ATOM     46  O   UNL     1       9.371  19.931  27.637  1.00  0.00    -0.504 OA
ATOM     47  H   UNL     1       8.952  19.051  27.357  1.00  0.00     0.293 HD
ENDBRANCH  43  46
ENDBRANCH  28  38
BRANCH  34  48
ATOM     48  O   UNL     1      19.818  21.716  25.850  1.00  0.00    -0.507 OA
ATOM     49  H   UNL     1      20.694  21.216  25.751  1.00  0.00     0.293 HD
ENDBRANCH  34  48
BRANCH  37  50
ATOM     50  O   UNL     1      19.639  21.920  30.671  1.00  0.00    -0.508 OA
ATOM     51  H   UNL     1      19.413  21.356  31.487  1.00  0.00     0.293 HD
ENDBRANCH  37  50
ENDBRANCH  26  27
ENDBRANCH   5  26
BRANCH   4  52
ATOM     52  O   UNL     1      16.208  21.615  22.350  1.00  0.00    -0.384 OA
ATOM     53  H   UNL     1      16.028  22.223  23.112  1.00  0.00     0.211 HD
ENDBRANCH   4  52
TORSDOF 16
ENDMDL
MODEL 7
REMARK VINA RESULT:    -5.118      2.107      3.022
REMARK INTER + INTRA:         -11.891
REMARK INTER:                  -9.051
REMARK INTRA:                  -2.840
REMARK UNBOUND:                -3.481
REMARK SMILES C[C@H]1O[C@H](OC[C@H]2O[C@H](Oc3c(-c4ccc(O)c(O)c4)oc4cc(O)cc(O)c4c3=O)[C@H](O)[C@H](O)[C@@H]2O)[C@@H](O)[C@H](O)[C@H]1O
REMARK SMILES IDX 7 1 36 2 34 3 32 4 9 5 8 6 6 7 5 8 4 9 1 10 2 11 42 12 3 13
REMARK SMILES IDX 40 14 38 15 43 16 41 18 39 20 37 22 35 24 10 26 11 27 12 28
REMARK SMILES IDX 30 29 21 30 29 31 31 32 22 33 27 34 23 35 26 36 24 37 13 38
REMARK SMILES IDX 20 39 14 40 18 41 15 42 16 43 19 44 17 46 28 48 25 50 33 52
REMARK H PARENT 43 17 41 19 39 21 37 23 35 25 19 45 17 47 28 49 25 51 33 53
REMARK Flexibility Score: inf
ROOT
ATOM      1  C   UNL     1      13.040  20.280  23.834  1.00  0.00     0.180 C 
ATOM      2  C   UNL     1      13.633  20.205  22.405  1.00  0.00     0.177 C 
ATOM      3  C   UNL     1      15.018  20.875  22.382  1.00  0.00     0.180 C 
ATOM      4  C   UNL     1      15.901  20.288  23.501  1.00  0.00     0.214 C 
ATOM      5  C   UNL     1      15.160  20.327  24.850  1.00  0.00     0.339 C 
ATOM      6  O   UNL     1      13.908  19.663  24.768  1.00  0.00    -0.332 OA
ENDROOT
BRANCH   1   7
ATOM      7  C   UNL     1      11.686  19.555  23.923  1.00  0.00     0.198 C 
BRANCH   7   8
ATOM      8  O   UNL     1      10.642  20.430  24.312  1.00  0.00    -0.347 OA
BRANCH   8   9
ATOM      9  C   UNL     1       9.974  21.010  23.199  1.00  0.00     0.281 C 
ATOM     10  C   UNL     1       8.117  17.994  22.167  1.00  0.00     0.041 C 
ATOM     11  C   UNL     1       8.481  19.202  23.039  1.00  0.00     0.150 C 
ATOM     12  C   UNL     1       7.232  20.049  23.401  1.00  0.00     0.174 C 
ATOM     13  O   UNL     1       9.445  19.992  22.358  1.00  0.00    -0.344 OA
ATOM     14  C   UNL     1       7.646  21.268  24.254  1.00  0.00     0.179 C 
ATOM     15  C   UNL     1       8.865  21.998  23.641  1.00  0.00     0.202 C 
BRANCH  12  16
ATOM     16  O   UNL     1       6.591  20.505  22.236  1.00  0.00    -0.388 OA
ATOM     17  H   UNL     1       6.578  19.746  21.592  1.00  0.00     0.211 HD
ENDBRANCH  12  16
BRANCH  14  18
ATOM     18  O   UNL     1       7.876  20.925  25.602  1.00  0.00    -0.387 OA
ATOM     19  H   UNL     1       8.449  20.114  25.636  1.00  0.00     0.211 HD
ENDBRANCH  14  18
BRANCH  15  20
ATOM     20  O   UNL     1       8.459  22.744  22.519  1.00  0.00    -0.385 OA
ATOM     21  H   UNL     1       8.707  22.216  21.713  1.00  0.00     0.211 HD
ENDBRANCH  15  20
ENDBRANCH   8   9
ENDBRANCH   7   8
ENDBRANCH   1   7
BRANCH   2  22
ATOM     22  O   UNL     1      12.784  20.851  21.490  1.00  0.00    -0.387 OA
ATOM     23  H   UNL     1      11.860  20.714  21.816  1.00  0.00     0.211 HD
ENDBRANCH   2  22
BRANCH   3  24
ATOM     24  O   UNL     1      14.867  22.264  22.547  1.00  0.00    -0.387 OA
ATOM     25  H   UNL     1      15.775  22.665  22.494  1.00  0.00     0.211 HD
ENDBRANCH   3  24
BRANCH   5  26
ATOM     26  O   UNL     1      15.012  21.673  25.312  1.00  0.00    -0.454 OA
BRANCH  26  27
ATOM     27  C   UNL     1      15.521  22.165  26.525  1.00  0.00     0.214 A 
ATOM     28  C   UNL     1      14.733  22.059  27.687  1.00  0.00     0.180 A 
ATOM     29  C   UNL     1      16.779  22.794  26.628  1.00  0.00     0.239 A 
ATOM     30  O   UNL     1      15.125  22.632  28.820  1.00  0.00    -0.452 OA
ATOM     31  C   UNL     1      17.169  23.377  27.851  1.00  0.00     0.111 A 
ATOM     32  O   UNL     1      17.557  22.810  25.634  1.00  0.00    -0.285 OA
ATOM     33  C   UNL     1      16.276  23.283  28.946  1.00  0.00     0.146 A 
ATOM     34  C   UNL     1      18.404  24.048  28.026  1.00  0.00     0.134 A 
ATOM     35  C   UNL     1      16.598  23.867  30.175  1.00  0.00     0.094 A 
ATOM     36  C   UNL     1      18.711  24.623  29.269  1.00  0.00     0.093 A 
ATOM     37  C   UNL     1      17.814  24.539  30.338  1.00  0.00     0.123 A 
BRANCH  28  38
ATOM     38  C   UNL     1      13.442  21.342  27.679  1.00  0.00     0.025 A 
ATOM     39  C   UNL     1      12.272  22.030  27.323  1.00  0.00     0.062 A 
ATOM     40  C   UNL     1      13.358  19.997  28.072  1.00  0.00     0.016 A 
ATOM     41  C   UNL     1      11.031  21.382  27.341  1.00  0.00     0.158 A 
ATOM     42  C   UNL     1      12.121  19.343  28.090  1.00  0.00     0.051 A 
ATOM     43  C   UNL     1      10.953  20.029  27.725  1.00  0.00     0.157 A 
BRANCH  41  44
ATOM     44  O   UNL     1       9.889  22.099  26.981  1.00  0.00    -0.504 OA
ATOM     45  H   UNL     1       9.166  22.332  27.654  1.00  0.00     0.293 HD
ENDBRANCH  41  44
BRANCH  43  46
ATOM     46  O   UNL     1       9.717  19.385  27.754  1.00  0.00    -0.504 OA
ATOM     47  H   UNL     1       9.587  18.511  28.251  1.00  0.00     0.293 HD
ENDBRANCH  43  46
ENDBRANCH  28  38
BRANCH  34  48
ATOM     48  O   UNL     1      19.322  24.147  26.979  1.00  0.00    -0.507 OA
ATOM     49  H   UNL     1      19.331  24.943  26.352  1.00  0.00     0.293 HD
ENDBRANCH  34  48
BRANCH  37  50
ATOM     50  O   UNL     1      18.142  25.133  31.555  1.00  0.00    -0.508 OA
ATOM     51  H   UNL     1      18.710  25.976  31.601  1.00  0.00     0.293 HD
ENDBRANCH  37  50
ENDBRANCH  26  27
ENDBRANCH   5  26
BRANCH   4  52
ATOM     52  O   UNL     1      17.107  20.999  23.609  1.00  0.00    -0.384 OA
ATOM     53  H   UNL     1      17.524  20.991  22.710  1.00  0.00     0.211 HD
ENDBRANCH   4  52
TORSDOF 16
ENDMDL
MODEL 8
REMARK VINA RESULT:    -5.074      2.600      9.588
REMARK INTER + INTRA:         -11.817
REMARK INTER:                  -8.295
REMARK INTRA:                  -3.522
REMARK UNBOUND:                -3.481
REMARK SMILES C[C@H]1O[C@H](OC[C@H]2O[C@H](Oc3c(-c4ccc(O)c(O)c4)oc4cc(O)cc(O)c4c3=O)[C@H](O)[C@H](O)[C@@H]2O)[C@@H](O)[C@H](O)[C@H]1O
REMARK SMILES IDX 7 1 36 2 34 3 32 4 9 5 8 6 6 7 5 8 4 9 1 10 2 11 42 12 3 13
REMARK SMILES IDX 40 14 38 15 43 16 41 18 39 20 37 22 35 24 10 26 11 27 12 28
REMARK SMILES IDX 30 29 21 30 29 31 31 32 22 33 27 34 23 35 26 36 24 37 13 38
REMARK SMILES IDX 20 39 14 40 18 41 15 42 16 43 19 44 17 46 28 48 25 50 33 52
REMARK H PARENT 43 17 41 19 39 21 37 23 35 25 19 45 17 47 28 49 25 51 33 53
REMARK Flexibility Score: inf
ROOT
ATOM      1  C   UNL     1      14.724  21.719  28.525  1.00  0.00     0.180 C 
ATOM      2  C   UNL     1      14.355  22.330  29.901  1.00  0.00     0.177 C 
ATOM      3  C   UNL     1      12.824  22.410  30.040  1.00  0.00     0.180 C 
ATOM      4  C   UNL     1      12.199  21.035  29.733  1.00  0.00     0.214 C 
ATOM      5  C   UNL     1      12.723  20.492  28.391  1.00  0.00     0.339 C 
ATOM      6  O   UNL     1      14.141  20.436  28.377  1.00  0.00    -0.332 OA
ENDROOT
BRANCH   1   7
ATOM      7  C   UNL     1      16.245  21.550  28.371  1.00  0.00     0.198 C 
BRANCH   7   8
ATOM      8  O   UNL     1      16.829  22.632  27.668  1.00  0.00    -0.347 OA
BRANCH   8   9
ATOM      9  C   UNL     1      18.217  22.774  27.942  1.00  0.00     0.281 C 
ATOM     10  C   UNL     1      18.983  25.115  25.198  1.00  0.00     0.041 C 
ATOM     11  C   UNL     1      18.397  24.646  26.534  1.00  0.00     0.150 C 
ATOM     12  C   UNL     1      18.733  25.629  27.688  1.00  0.00     0.174 C 
ATOM     13  O   UNL     1      18.885  23.344  26.824  1.00  0.00    -0.344 OA
ATOM     14  C   UNL     1      18.149  25.106  29.018  1.00  0.00     0.179 C 
ATOM     15  C   UNL     1      18.471  23.606  29.225  1.00  0.00     0.202 C 
BRANCH  12  16
ATOM     16  O   UNL     1      20.125  25.769  27.826  1.00  0.00    -0.388 OA
ATOM     17  H   UNL     1      20.376  26.635  27.403  1.00  0.00     0.211 HD
ENDBRANCH  12  16
BRANCH  14  18
ATOM     18  O   UNL     1      16.766  25.355  29.131  1.00  0.00    -0.387 OA
ATOM     19  H   UNL     1      16.574  25.707  30.040  1.00  0.00     0.211 HD
ENDBRANCH  14  18
BRANCH  15  20
ATOM     20  O   UNL     1      19.820  23.454  29.596  1.00  0.00    -0.385 OA
ATOM     21  H   UNL     1      20.302  23.101  28.801  1.00  0.00     0.211 HD
ENDBRANCH  15  20
ENDBRANCH   8   9
ENDBRANCH   7   8
ENDBRANCH   1   7
BRANCH   2  22
ATOM     22  O   UNL     1      14.905  23.617  30.026  1.00  0.00    -0.387 OA
ATOM     23  H   UNL     1      14.642  24.118  29.214  1.00  0.00     0.211 HD
ENDBRANCH   2  22
BRANCH   3  24
ATOM     24  O   UNL     1      12.326  23.389  29.159  1.00  0.00    -0.387 OA
ATOM     25  H   UNL     1      11.400  23.120  28.918  1.00  0.00     0.211 HD
ENDBRANCH   3  24
BRANCH   5  26
ATOM     26  O   UNL     1      12.215  21.260  27.296  1.00  0.00    -0.454 OA
BRANCH  26  27
ATOM     27  C   UNL     1      11.537  20.726  26.188  1.00  0.00     0.214 A 
ATOM     28  C   UNL     1      12.216  20.619  24.960  1.00  0.00     0.180 A 
ATOM     29  C   UNL     1      10.187  20.321  26.241  1.00  0.00     0.239 A 
ATOM     30  O   UNL     1      11.567  20.245  23.863  1.00  0.00    -0.452 OA
ATOM     31  C   UNL     1       9.535  19.914  25.059  1.00  0.00     0.111 A 
ATOM     32  O   UNL     1       9.579  20.299  27.347  1.00  0.00    -0.285 OA
ATOM     33  C   UNL     1      10.283  19.909  23.856  1.00  0.00     0.146 A 
ATOM     34  C   UNL     1       8.175  19.518  25.025  1.00  0.00     0.134 A 
ATOM     35  C   UNL     1       9.680  19.542  22.648  1.00  0.00     0.094 A 
ATOM     36  C   UNL     1       7.590  19.148  23.804  1.00  0.00     0.093 A 
ATOM     37  C   UNL     1       8.334  19.163  22.620  1.00  0.00     0.123 A 
BRANCH  28  38
ATOM     38  C   UNL     1      13.652  20.945  24.844  1.00  0.00     0.025 A 
ATOM     39  C   UNL     1      14.040  22.259  24.540  1.00  0.00     0.062 A 
ATOM     40  C   UNL     1      14.634  19.951  24.981  1.00  0.00     0.016 A 
ATOM     41  C   UNL     1      15.393  22.585  24.390  1.00  0.00     0.158 A 
ATOM     42  C   UNL     1      15.988  20.272  24.835  1.00  0.00     0.051 A 
ATOM     43  C   UNL     1      16.375  21.587  24.540  1.00  0.00     0.157 A 
BRANCH  41  44
ATOM     44  O   UNL     1      15.741  23.903  24.087  1.00  0.00    -0.504 OA
ATOM     45  H   UNL     1      15.200  24.466  23.439  1.00  0.00     0.293 HD
ENDBRANCH  41  44
BRANCH  43  46
ATOM     46  O   UNL     1      17.723  21.909  24.381  1.00  0.00    -0.504 OA
ATOM     47  H   UNL     1      18.383  21.245  23.992  1.00  0.00     0.293 HD
ENDBRANCH  43  46
ENDBRANCH  28  38
BRANCH  34  48
ATOM     48  O   UNL     1       7.407  19.489  26.191  1.00  0.00    -0.507 OA
ATOM     49  H   UNL     1       7.658  18.904  26.979  1.00  0.00     0.293 HD
ENDBRANCH  34  48
BRANCH  37  50
ATOM     50  O   UNL     1       7.720  18.805  21.421  1.00  0.00    -0.508 OA
ATOM     51  H   UNL     1       6.892  18.214  21.402  1.00  0.00     0.293 HD
ENDBRANCH  37  50
ENDBRANCH  26  27
ENDBRANCH   5  26
BRANCH   4  52
ATOM     52  O   UNL     1      10.799  21.123  29.687  1.00  0.00    -0.384 OA
ATOM     53  H   UNL     1      10.448  20.247  29.991  1.00  0.00     0.211 HD
ENDBRANCH   4  52
TORSDOF 16
ENDMDL
MODEL 9
REMARK VINA RESULT:    -5.034      2.213      9.511
REMARK INTER + INTRA:         -11.753
REMARK INTER:                  -8.555
REMARK INTRA:                  -3.198
REMARK UNBOUND:                -3.481
REMARK SMILES C[C@H]1O[C@H](OC[C@H]2O[C@H](Oc3c(-c4ccc(O)c(O)c4)oc4cc(O)cc(O)c4c3=O)[C@H](O)[C@H](O)[C@@H]2O)[C@@H](O)[C@H](O)[C@H]1O
REMARK SMILES IDX 7 1 36 2 34 3 32 4 9 5 8 6 6 7 5 8 4 9 1 10 2 11 42 12 3 13
REMARK SMILES IDX 40 14 38 15 43 16 41 18 39 20 37 22 35 24 10 26 11 27 12 28
REMARK SMILES IDX 30 29 21 30 29 31 31 32 22 33 27 34 23 35 26 36 24 37 13 38
REMARK SMILES IDX 20 39 14 40 18 41 15 42 16 43 19 44 17 46 28 48 25 50 33 52
REMARK H PARENT 43 17 41 19 39 21 37 23 35 25 19 45 17 47 28 49 25 51 33 53
REMARK Flexibility Score: inf
ROOT
ATOM      1  C   UNL     1      14.275  23.158  27.977  1.00  0.00     0.180 C 
ATOM      2  C   UNL     1      13.831  23.453  29.432  1.00  0.00     0.177 C 
ATOM      3  C   UNL     1      12.428  22.868  29.676  1.00  0.00     0.180 C 
ATOM      4  C   UNL     1      12.402  21.384  29.259  1.00  0.00     0.214 C 
ATOM      5  C   UNL     1      12.962  21.213  27.835  1.00  0.00     0.339 C 
ATOM      6  O   UNL     1      14.265  21.764  27.725  1.00  0.00    -0.332 OA
ENDROOT
BRANCH   1   7
ATOM      7  C   UNL     1      15.704  23.659  27.709  1.00  0.00     0.198 C 
BRANCH   7   8
ATOM      8  O   UNL     1      16.595  23.296  28.750  1.00  0.00    -0.347 OA
BRANCH   8   9
ATOM      9  C   UNL     1      17.940  23.184  28.301  1.00  0.00     0.281 C 
ATOM     10  C   UNL     1      19.276  21.491  31.293  1.00  0.00     0.041 C 
ATOM     11  C   UNL     1      18.474  21.647  29.996  1.00  0.00     0.150 C 
ATOM     12  C   UNL     1      18.734  20.474  29.012  1.00  0.00     0.174 C 
ATOM     13  O   UNL     1      18.801  22.891  29.394  1.00  0.00    -0.344 OA
ATOM     14  C   UNL     1      17.930  20.684  27.711  1.00  0.00     0.179 C 
ATOM     15  C   UNL     1      18.088  22.128  27.176  1.00  0.00     0.202 C 
BRANCH  12  16
ATOM     16  O   UNL     1      20.101  20.391  28.695  1.00  0.00    -0.388 OA
ATOM     17  H   UNL     1      20.601  20.378  29.556  1.00  0.00     0.211 HD
ENDBRANCH  12  16
BRANCH  14  18
ATOM     18  O   UNL     1      16.572  20.336  27.858  1.00  0.00    -0.387 OA
ATOM     19  H   UNL     1      16.210  20.781  28.669  1.00  0.00     0.211 HD
ENDBRANCH  14  18
BRANCH  15  20
ATOM     20  O   UNL     1      19.355  22.282  26.584  1.00  0.00    -0.385 OA
ATOM     21  H   UNL     1      19.953  21.601  26.995  1.00  0.00     0.211 HD
ENDBRANCH  15  20
ENDBRANCH   8   9
ENDBRANCH   7   8
ENDBRANCH   1   7
BRANCH   2  22
ATOM     22  O   UNL     1      13.808  24.839  29.663  1.00  0.00    -0.387 OA
ATOM     23  H   UNL     1      14.684  25.075  30.060  1.00  0.00     0.211 HD
ENDBRANCH   2  22
BRANCH   3  24
ATOM     24  O   UNL     1      11.481  23.606  28.941  1.00  0.00    -0.387 OA
ATOM     25  H   UNL     1      11.911  24.467  28.692  1.00  0.00     0.211 HD
ENDBRANCH   3  24
BRANCH   5  26
ATOM     26  O   UNL     1      12.070  21.773  26.866  1.00  0.00    -0.454 OA
BRANCH  26  27
ATOM     27  C   UNL     1      11.352  21.031  25.913  1.00  0.00     0.214 A 
ATOM     28  C   UNL     1      11.990  20.663  24.714  1.00  0.00     0.180 A 
ATOM     29  C   UNL     1      10.002  20.663  26.090  1.00  0.00     0.239 A 
ATOM     30  O   UNL     1      11.303  20.079  23.738  1.00  0.00    -0.452 OA
ATOM     31  C   UNL     1       9.309  20.031  25.038  1.00  0.00     0.111 A 
ATOM     32  O   UNL     1       9.430  20.879  27.194  1.00  0.00    -0.285 OA
ATOM     33  C   UNL     1      10.017  19.767  23.840  1.00  0.00     0.146 A 
ATOM     34  C   UNL     1       7.946  19.654  25.128  1.00  0.00     0.134 A 
ATOM     35  C   UNL     1       9.373  19.166  22.753  1.00  0.00     0.094 A 
ATOM     36  C   UNL     1       7.319  19.048  24.029  1.00  0.00     0.093 A 
ATOM     37  C   UNL     1       8.023  18.809  22.845  1.00  0.00     0.123 A 
BRANCH  28  38
ATOM     38  C   UNL     1      13.424  20.939  24.489  1.00  0.00     0.025 A 
ATOM     39  C   UNL     1      14.369  19.932  24.740  1.00  0.00     0.062 A 
ATOM     40  C   UNL     1      13.862  22.208  24.080  1.00  0.00     0.016 A 
ATOM     41  C   UNL     1      15.736  20.179  24.568  1.00  0.00     0.158 A 
ATOM     42  C   UNL     1      15.227  22.461  23.904  1.00  0.00     0.051 A 
ATOM     43  C   UNL     1      16.170  21.451  24.146  1.00  0.00     0.157 A 
BRANCH  41  44
ATOM     44  O   UNL     1      16.646  19.153  24.827  1.00  0.00    -0.504 OA
ATOM     45  H   UNL     1      17.240  18.766  24.101  1.00  0.00     0.293 HD
ENDBRANCH  41  44
BRANCH  43  46
ATOM     46  O   UNL     1      17.532  21.702  23.984  1.00  0.00    -0.504 OA
ATOM     47  H   UNL     1      17.906  22.046  23.107  1.00  0.00     0.293 HD
ENDBRANCH  43  46
ENDBRANCH  28  38
BRANCH  34  48
ATOM     48  O   UNL     1       7.216  19.877  26.298  1.00  0.00    -0.507 OA
ATOM     49  H   UNL     1       6.231  20.115  26.273  1.00  0.00     0.293 HD
ENDBRANCH  34  48
BRANCH  37  50
ATOM     50  O   UNL     1       7.368  18.219  21.766  1.00  0.00    -0.508 OA
ATOM     51  H   UNL     1       6.353  18.197  21.706  1.00  0.00     0.293 HD
ENDBRANCH  37  50
ENDBRANCH  26  27
ENDBRANCH   5  26
BRANCH   4  52
ATOM     52  O   UNL     1      11.094  20.875  29.312  1.00  0.00    -0.384 OA
ATOM     53  H   UNL     1      11.026  20.192  28.597  1.00  0.00     0.211 HD
ENDBRANCH   4  52
TORSDOF 16
ENDMDL
