MODEL 1
REMARK VINA RESULT:    -7.176      0.000      0.000
REMARK INTER + INTRA:          -7.878
REMARK INTER:                  -7.806
REMARK INTRA:                  -0.072
REMARK UNBOUND:                -0.072
REMARK SMILES C[C@@H]1[C@H]2C3=CC[C@@H]4[C@@]5(C)CC[C@@H](O)C(C)(C)[C@H]5CC[C@@]4(C)[C@]3(C)CC[C@@]2(C(=O)[O-])CC[C@@H]1C
REMARK SMILES IDX 26 1 30 2 25 3 3 4 31 5 24 6 4 7 2 8 32 9 22 10 5 11 1 12
REMARK SMILES IDX 33 13 23 14 20 15 6 16 7 17 19 18 21 19 8 20 18 21 17 22
REMARK SMILES IDX 10 23 9 24 14 25 11 26 12 27 15 28 16 29 27 30 28 31 29 32
REMARK SMILES IDX 13 33
REMARK H PARENT 13 34
REMARK Flexibility Score: inf
ROOT
ATOM      1  C   UNL     1      15.298  24.535  42.815  1.00  0.00     0.017 C 
ATOM      2  C   UNL     1      15.639  25.566  41.702  1.00  0.00     0.014 C 
ATOM      3  C   UNL     1      15.422  25.188  44.216  1.00  0.00     0.014 C 
ATOM      4  C   UNL     1      16.249  23.297  42.748  1.00  0.00     0.030 C 
ATOM      5  C   UNL     1      17.126  25.927  41.618  1.00  0.00     0.004 C 
ATOM      6  C   UNL     1      14.967  24.237  45.335  1.00  0.00     0.013 C 
ATOM      7  C   UNL     1      15.980  22.336  43.924  1.00  0.00    -0.063 C 
ATOM      8  C   UNL     1      17.762  23.687  42.609  1.00  0.00    -0.003 C 
ATOM      9  C   UNL     1      18.011  24.683  41.445  1.00  0.00    -0.011 C 
ATOM     10  C   UNL     1      15.687  22.838  45.356  1.00  0.00    -0.006 C 
ATOM     11  C   UNL     1      16.116  21.014  43.680  1.00  0.00    -0.027 C 
ATOM     12  C   UNL     1      18.690  22.463  42.500  1.00  0.00     0.008 C 
ATOM     13  C   UNL     1      17.857  24.066  40.039  1.00  0.00     0.008 C 
ATOM     14  C   UNL     1      17.078  23.069  46.031  1.00  0.00     0.017 C 
ATOM     15  C   UNL     1      14.790  21.747  46.155  1.00  0.00    -0.020 C 
ATOM     16  C   UNL     1      15.683  19.922  44.610  1.00  0.00     0.032 C 
ATOM     17  C   UNL     1      15.462  20.341  46.090  1.00  0.00     0.006 C 
ATOM     18  C   UNL     1      14.714  22.113  47.650  1.00  0.00     0.008 C 
ATOM     19  C   UNL     1      13.349  21.674  45.555  1.00  0.00     0.012 C 
ATOM     20  C   UNL     1      14.846  19.175  47.036  1.00  0.00    -0.025 C 
ATOM     21  C   UNL     1      13.831  21.204  48.489  1.00  0.00     0.005 C 
ATOM     22  C   UNL     1      13.801  19.675  48.153  1.00  0.00     0.003 C 
ATOM     23  C   UNL     1      16.046  18.429  47.724  1.00  0.00     0.010 C 
ATOM     24  C   UNL     1      14.118  18.108  46.148  1.00  0.00     0.012 C 
ATOM     25  C   UNL     1      13.801  18.813  49.502  1.00  0.00    -0.006 C 
ATOM     26  C   UNL     1      16.377  19.001  49.106  1.00  0.00     0.033 C 
ATOM     27  C   UNL     1      15.243  18.781  50.136  1.00  0.00     0.120 C 
ATOM     28  C   UNL     1      13.321  17.351  49.255  1.00  0.00     0.014 C 
ATOM     29  C   UNL     1      12.745  19.364  50.519  1.00  0.00     0.014 C 
ENDROOT
BRANCH   1  30
ATOM     30  C   UNL     1      13.848  24.120  42.568  1.00  0.00     0.048 C 
ATOM     31  O   UNL     1      12.911  24.935  42.786  1.00  0.00    -0.550 OA
ATOM     32  O   UNL     1      13.539  22.876  42.025  1.00  0.00    -0.550 OA
ENDBRANCH   1  30
BRANCH  27  33
ATOM     33  O   UNL     1      15.370  19.748  51.150  1.00  0.00    -0.393 OA
ATOM     34  H   UNL     1      14.458  19.925  51.502  1.00  0.00     0.210 HD
ENDBRANCH  27  33
TORSDOF 2
ENDMDL
MODEL 2
REMARK VINA RESULT:    -7.034      3.656      9.032
REMARK INTER + INTRA:          -7.724
REMARK INTER:                  -7.753
REMARK INTRA:                   0.029
REMARK UNBOUND:                -0.072
REMARK SMILES C[C@@H]1[C@H]2C3=CC[C@@H]4[C@@]5(C)CC[C@@H](O)C(C)(C)[C@H]5CC[C@@]4(C)[C@]3(C)CC[C@@]2(C(=O)[O-])CC[C@@H]1C
REMARK SMILES IDX 26 1 30 2 25 3 3 4 31 5 24 6 4 7 2 8 32 9 22 10 5 11 1 12
REMARK SMILES IDX 33 13 23 14 20 15 6 16 7 17 19 18 21 19 8 20 18 21 17 22
REMARK SMILES IDX 10 23 9 24 14 25 11 26 12 27 15 28 16 29 27 30 28 31 29 32
REMARK SMILES IDX 13 33
REMARK H PARENT 13 34
REMARK Flexibility Score: inf
ROOT
ATOM      1  C   UNL     1      16.685  25.296  45.087  1.00  0.00     0.017 C 
ATOM      2  C   UNL     1      16.245  25.377  46.576  1.00  0.00     0.014 C 
ATOM      3  C   UNL     1      15.497  25.635  44.150  1.00  0.00     0.014 C 
ATOM      4  C   UNL     1      17.218  23.870  44.733  1.00  0.00     0.030 C 
ATOM      5  C   UNL     1      15.318  24.239  47.017  1.00  0.00     0.004 C 
ATOM      6  C   UNL     1      15.927  25.691  42.676  1.00  0.00     0.013 C 
ATOM      7  C   UNL     1      17.543  23.765  43.229  1.00  0.00    -0.063 C 
ATOM      8  C   UNL     1      16.281  22.717  45.240  1.00  0.00    -0.003 C 
ATOM      9  C   UNL     1      15.934  22.858  46.746  1.00  0.00    -0.011 C 
ATOM     10  C   UNL     1      16.649  24.400  42.140  1.00  0.00    -0.006 C 
ATOM     11  C   UNL     1      18.597  22.995  42.881  1.00  0.00    -0.027 C 
ATOM     12  C   UNL     1      16.834  21.315  44.926  1.00  0.00     0.008 C 
ATOM     13  C   UNL     1      17.111  22.561  47.698  1.00  0.00     0.008 C 
ATOM     14  C   UNL     1      15.523  23.359  41.838  1.00  0.00     0.017 C 
ATOM     15  C   UNL     1      17.534  24.746  40.825  1.00  0.00    -0.020 C 
ATOM     16  C   UNL     1      19.210  22.948  41.515  1.00  0.00     0.032 C 
ATOM     17  C   UNL     1      18.324  23.485  40.356  1.00  0.00     0.006 C 
ATOM     18  C   UNL     1      16.615  25.133  39.651  1.00  0.00     0.008 C 
ATOM     19  C   UNL     1      18.530  25.913  41.124  1.00  0.00     0.012 C 
ATOM     20  C   UNL     1      19.070  23.564  38.918  1.00  0.00    -0.025 C 
ATOM     21  C   UNL     1      17.338  25.557  38.383  1.00  0.00     0.005 C 
ATOM     22  C   UNL     1      18.668  24.825  38.001  1.00  0.00     0.003 C 
ATOM     23  C   UNL     1      18.770  22.228  38.145  1.00  0.00     0.010 C 
ATOM     24  C   UNL     1      20.621  23.607  39.132  1.00  0.00     0.012 C 
ATOM     25  C   UNL     1      18.715  24.549  36.426  1.00  0.00    -0.006 C 
ATOM     26  C   UNL     1      17.556  22.345  37.219  1.00  0.00     0.033 C 
ATOM     27  C   UNL     1      17.784  23.334  36.050  1.00  0.00     0.120 C 
ATOM     28  C   UNL     1      20.163  24.250  35.932  1.00  0.00     0.014 C 
ATOM     29  C   UNL     1      18.325  25.833  35.620  1.00  0.00     0.014 C 
ENDROOT
BRANCH   1  30
ATOM     30  C   UNL     1      17.786  26.343  44.920  1.00  0.00     0.048 C 
ATOM     31  O   UNL     1      18.961  25.985  44.633  1.00  0.00    -0.550 OA
ATOM     32  O   UNL     1      17.503  27.703  44.997  1.00  0.00    -0.550 OA
ENDBRANCH   1  30
BRANCH  27  33
ATOM     33  O   UNL     1      16.530  23.782  35.596  1.00  0.00    -0.393 OA
ATOM     34  H   UNL     1      16.264  24.545  36.174  1.00  0.00     0.210 HD
ENDBRANCH  27  33
TORSDOF 2
ENDMDL
MODEL 3
REMARK VINA RESULT:    -6.982      2.188      8.033
REMARK INTER + INTRA:          -7.667
REMARK INTER:                  -7.594
REMARK INTRA:                  -0.073
REMARK UNBOUND:                -0.072
REMARK SMILES C[C@@H]1[C@H]2C3=CC[C@@H]4[C@@]5(C)CC[C@@H](O)C(C)(C)[C@H]5CC[C@@]4(C)[C@]3(C)CC[C@@]2(C(=O)[O-])CC[C@@H]1C
REMARK SMILES IDX 26 1 30 2 25 3 3 4 31 5 24 6 4 7 2 8 32 9 22 10 5 11 1 12
REMARK SMILES IDX 33 13 23 14 20 15 6 16 7 17 19 18 21 19 8 20 18 21 17 22
REMARK SMILES IDX 10 23 9 24 14 25 11 26 12 27 15 28 16 29 27 30 28 31 29 32
REMARK SMILES IDX 13 33
REMARK H PARENT 13 34
REMARK Flexibility Score: inf
ROOT
ATOM      1  C   UNL     1      14.626  21.161  47.598  1.00  0.00     0.017 C 
ATOM      2  C   UNL     1      14.086  20.572  48.932  1.00  0.00     0.014 C 
ATOM      3  C   UNL     1      16.174  21.246  47.630  1.00  0.00     0.014 C 
ATOM      4  C   UNL     1      14.045  22.588  47.336  1.00  0.00     0.030 C 
ATOM      5  C   UNL     1      14.205  21.522  50.129  1.00  0.00     0.004 C 
ATOM      6  C   UNL     1      16.750  21.703  46.280  1.00  0.00     0.013 C 
ATOM      7  C   UNL     1      14.673  23.210  46.072  1.00  0.00    -0.063 C 
ATOM      8  C   UNL     1      14.127  23.528  48.589  1.00  0.00    -0.003 C 
ATOM      9  C   UNL     1      13.524  22.873  49.860  1.00  0.00    -0.011 C 
ATOM     10  C   UNL     1      16.173  23.060  45.730  1.00  0.00    -0.006 C 
ATOM     11  C   UNL     1      13.878  23.996  45.314  1.00  0.00    -0.027 C 
ATOM     12  C   UNL     1      13.514  24.918  48.336  1.00  0.00     0.008 C 
ATOM     13  C   UNL     1      11.987  22.742  49.837  1.00  0.00     0.008 C 
ATOM     14  C   UNL     1      16.913  24.199  46.503  1.00  0.00     0.017 C 
ATOM     15  C   UNL     1      16.391  23.164  44.126  1.00  0.00    -0.020 C 
ATOM     16  C   UNL     1      14.223  24.500  43.946  1.00  0.00     0.032 C 
ATOM     17  C   UNL     1      15.731  24.465  43.573  1.00  0.00     0.006 C 
ATOM     18  C   UNL     1      17.892  23.277  43.799  1.00  0.00     0.008 C 
ATOM     19  C   UNL     1      15.786  21.916  43.406  1.00  0.00     0.012 C 
ATOM     20  C   UNL     1      16.055  24.870  42.036  1.00  0.00    -0.025 C 
ATOM     21  C   UNL     1      18.226  23.300  42.317  1.00  0.00     0.005 C 
ATOM     22  C   UNL     1      17.253  24.048  41.344  1.00  0.00     0.003 C 
ATOM     23  C   UNL     1      16.375  26.409  42.000  1.00  0.00     0.010 C 
ATOM     24  C   UNL     1      14.772  24.669  41.158  1.00  0.00     0.012 C 
ATOM     25  C   UNL     1      18.086  24.871  40.253  1.00  0.00    -0.006 C 
ATOM     26  C   UNL     1      17.874  26.699  42.108  1.00  0.00     0.033 C 
ATOM     27  C   UNL     1      18.677  26.187  40.887  1.00  0.00     0.120 C 
ATOM     28  C   UNL     1      17.212  25.249  39.020  1.00  0.00     0.014 C 
ATOM     29  C   UNL     1      19.216  23.986  39.627  1.00  0.00     0.014 C 
ENDROOT
BRANCH   1  30
ATOM     30  C   UNL     1      14.187  20.187  46.505  1.00  0.00     0.048 C 
ATOM     31  O   UNL     1      14.756  19.067  46.390  1.00  0.00    -0.550 OA
ATOM     32  O   UNL     1      13.108  20.475  45.676  1.00  0.00    -0.550 OA
ENDBRANCH   1  30
BRANCH  27  33
ATOM     33  O   UNL     1      20.015  26.002  41.280  1.00  0.00    -0.393 OA
ATOM     34  H   UNL     1      20.021  25.919  42.270  1.00  0.00     0.210 HD
ENDBRANCH  27  33
TORSDOF 2
ENDMDL
MODEL 4
REMARK VINA RESULT:    -6.963      3.917      6.398
REMARK INTER + INTRA:          -7.646
REMARK INTER:                  -7.869
REMARK INTRA:                   0.223
REMARK UNBOUND:                -0.072
REMARK SMILES C[C@@H]1[C@H]2C3=CC[C@@H]4[C@@]5(C)CC[C@@H](O)C(C)(C)[C@H]5CC[C@@]4(C)[C@]3(C)CC[C@@]2(C(=O)[O-])CC[C@@H]1C
REMARK SMILES IDX 26 1 30 2 25 3 3 4 31 5 24 6 4 7 2 8 32 9 22 10 5 11 1 12
REMARK SMILES IDX 33 13 23 14 20 15 6 16 7 17 19 18 21 19 8 20 18 21 17 22
REMARK SMILES IDX 10 23 9 24 14 25 11 26 12 27 15 28 16 29 27 30 28 31 29 32
REMARK SMILES IDX 13 33
REMARK H PARENT 13 34
REMARK Flexibility Score: inf
ROOT
ATOM      1  C   UNL     1      13.989  27.182  48.374  1.00  0.00     0.017 C 
ATOM      2  C   UNL     1      13.430  28.610  48.636  1.00  0.00     0.014 C 
ATOM      3  C   UNL     1      13.289  26.542  47.147  1.00  0.00     0.014 C 
ATOM      4  C   UNL     1      13.780  26.257  49.616  1.00  0.00     0.030 C 
ATOM      5  C   UNL     1      12.003  28.629  49.194  1.00  0.00     0.004 C 
ATOM      6  C   UNL     1      13.906  25.183  46.779  1.00  0.00     0.013 C 
ATOM      7  C   UNL     1      14.232  24.815  49.306  1.00  0.00    -0.063 C 
ATOM      8  C   UNL     1      12.328  26.332  50.204  1.00  0.00    -0.003 C 
ATOM      9  C   UNL     1      11.875  27.792  50.476  1.00  0.00    -0.011 C 
ATOM     10  C   UNL     1      13.954  24.131  47.949  1.00  0.00    -0.006 C 
ATOM     11  C   UNL     1      14.796  24.118  50.317  1.00  0.00    -0.027 C 
ATOM     12  C   UNL     1      12.142  25.452  51.454  1.00  0.00     0.008 C 
ATOM     13  C   UNL     1      12.584  28.464  51.669  1.00  0.00     0.008 C 
ATOM     14  C   UNL     1      12.518  23.522  48.052  1.00  0.00     0.017 C 
ATOM     15  C   UNL     1      15.081  23.002  47.654  1.00  0.00    -0.020 C 
ATOM     16  C   UNL     1      15.501  22.805  50.164  1.00  0.00     0.032 C 
ATOM     17  C   UNL     1      15.191  22.019  48.860  1.00  0.00     0.006 C 
ATOM     18  C   UNL     1      14.669  22.143  46.443  1.00  0.00     0.008 C 
ATOM     19  C   UNL     1      16.469  23.666  47.384  1.00  0.00     0.012 C 
ATOM     20  C   UNL     1      16.083  20.679  48.652  1.00  0.00    -0.025 C 
ATOM     21  C   UNL     1      15.689  21.099  46.020  1.00  0.00     0.005 C 
ATOM     22  C   UNL     1      16.512  20.366  47.133  1.00  0.00     0.003 C 
ATOM     23  C   UNL     1      15.274  19.466  49.238  1.00  0.00     0.010 C 
ATOM     24  C   UNL     1      17.394  20.784  49.504  1.00  0.00     0.012 C 
ATOM     25  C   UNL     1      16.652  18.811  46.784  1.00  0.00    -0.006 C 
ATOM     26  C   UNL     1      14.439  18.749  48.173  1.00  0.00     0.033 C 
ATOM     27  C   UNL     1      15.306  18.053  47.095  1.00  0.00     0.120 C 
ATOM     28  C   UNL     1      17.810  18.139  47.583  1.00  0.00     0.014 C 
ATOM     29  C   UNL     1      17.087  18.607  45.294  1.00  0.00     0.014 C 
ENDROOT
BRANCH   1  30
ATOM     30  C   UNL     1      15.477  27.365  48.078  1.00  0.00     0.048 C 
ATOM     31  O   UNL     1      16.267  27.715  48.997  1.00  0.00    -0.550 OA
ATOM     32  O   UNL     1      16.003  27.073  46.823  1.00  0.00    -0.550 OA
ENDBRANCH   1  30
BRANCH  27  33
ATOM     33  O   UNL     1      14.532  17.901  45.931  1.00  0.00    -0.393 OA
ATOM     34  H   UNL     1      13.579  17.992  46.198  1.00  0.00     0.210 HD
ENDBRANCH  27  33
TORSDOF 2
ENDMDL
MODEL 5
REMARK VINA RESULT:    -6.828      2.560      3.700
REMARK INTER + INTRA:          -7.499
REMARK INTER:                  -7.738
REMARK INTRA:                   0.239
REMARK UNBOUND:                -0.072
REMARK SMILES C[C@@H]1[C@H]2C3=CC[C@@H]4[C@@]5(C)CC[C@@H](O)C(C)(C)[C@H]5CC[C@@]4(C)[C@]3(C)CC[C@@]2(C(=O)[O-])CC[C@@H]1C
REMARK SMILES IDX 26 1 30 2 25 3 3 4 31 5 24 6 4 7 2 8 32 9 22 10 5 11 1 12
REMARK SMILES IDX 33 13 23 14 20 15 6 16 7 17 19 18 21 19 8 20 18 21 17 22
REMARK SMILES IDX 10 23 9 24 14 25 11 26 12 27 15 28 16 29 27 30 28 31 29 32
REMARK SMILES IDX 13 33
REMARK H PARENT 13 34
REMARK Flexibility Score: inf
ROOT
ATOM      1  C   UNL     1      17.151  25.281  40.420  1.00  0.00     0.017 C 
ATOM      2  C   UNL     1      17.858  25.563  39.064  1.00  0.00     0.014 C 
ATOM      3  C   UNL     1      17.399  26.446  41.414  1.00  0.00     0.014 C 
ATOM      4  C   UNL     1      17.666  23.951  41.060  1.00  0.00     0.030 C 
ATOM      5  C   UNL     1      19.386  25.449  39.120  1.00  0.00     0.004 C 
ATOM      6  C   UNL     1      16.610  26.263  42.720  1.00  0.00     0.013 C 
ATOM      7  C   UNL     1      17.046  23.740  42.456  1.00  0.00    -0.063 C 
ATOM      8  C   UNL     1      19.230  23.831  41.059  1.00  0.00    -0.003 C 
ATOM      9  C   UNL     1      19.842  24.083  39.655  1.00  0.00    -0.011 C 
ATOM     10  C   UNL     1      16.850  24.897  43.462  1.00  0.00    -0.006 C 
ATOM     11  C   UNL     1      16.772  22.468  42.819  1.00  0.00    -0.027 C 
ATOM     12  C   UNL     1      19.729  22.500  41.651  1.00  0.00     0.008 C 
ATOM     13  C   UNL     1      19.577  22.955  38.636  1.00  0.00     0.008 C 
ATOM     14  C   UNL     1      18.205  25.044  44.228  1.00  0.00     0.017 C 
ATOM     15  C   UNL     1      15.614  24.564  44.459  1.00  0.00    -0.020 C 
ATOM     16  C   UNL     1      15.967  22.074  44.021  1.00  0.00     0.032 C 
ATOM     17  C   UNL     1      15.811  23.164  45.117  1.00  0.00     0.006 C 
ATOM     18  C   UNL     1      15.578  25.578  45.618  1.00  0.00     0.008 C 
ATOM     19  C   UNL     1      14.258  24.599  43.684  1.00  0.00     0.012 C 
ATOM     20  C   UNL     1      14.810  22.762  46.329  1.00  0.00    -0.025 C 
ATOM     21  C   UNL     1      14.410  25.415  46.577  1.00  0.00     0.005 C 
ATOM     22  C   UNL     1      13.918  23.967  46.915  1.00  0.00     0.003 C 
ATOM     23  C   UNL     1      15.675  22.133  47.481  1.00  0.00     0.010 C 
ATOM     24  C   UNL     1      13.831  21.635  45.851  1.00  0.00     0.012 C 
ATOM     25  C   UNL     1      13.574  23.849  48.473  1.00  0.00    -0.006 C 
ATOM     26  C   UNL     1      16.096  23.165  48.530  1.00  0.00     0.033 C 
ATOM     27  C   UNL     1      14.897  23.741  49.323  1.00  0.00     0.120 C 
ATOM     28  C   UNL     1      12.672  22.615  48.777  1.00  0.00     0.014 C 
ATOM     29  C   UNL     1      12.693  25.054  48.946  1.00  0.00     0.014 C 
ENDROOT
BRANCH   1  30
ATOM     30  C   UNL     1      15.660  25.188  40.101  1.00  0.00     0.048 C 
ATOM     31  O   UNL     1      15.217  24.217  39.428  1.00  0.00    -0.550 OA
ATOM     32  O   UNL     1      14.755  26.114  40.610  1.00  0.00    -0.550 OA
ENDBRANCH   1  30
BRANCH  27  33
ATOM     33  O   UNL     1      15.267  24.995  49.842  1.00  0.00    -0.393 OA
ATOM     34  H   UNL     1      16.169  25.206  49.483  1.00  0.00     0.210 HD
ENDBRANCH  27  33
TORSDOF 2
ENDMDL
MODEL 6
REMARK VINA RESULT:    -6.648      2.064      3.771
REMARK INTER + INTRA:          -7.304
REMARK INTER:                  -7.240
REMARK INTRA:                  -0.064
REMARK UNBOUND:                -0.072
REMARK SMILES C[C@@H]1[C@H]2C3=CC[C@@H]4[C@@]5(C)CC[C@@H](O)C(C)(C)[C@H]5CC[C@@]4(C)[C@]3(C)CC[C@@]2(C(=O)[O-])CC[C@@H]1C
REMARK SMILES IDX 26 1 30 2 25 3 3 4 31 5 24 6 4 7 2 8 32 9 22 10 5 11 1 12
REMARK SMILES IDX 33 13 23 14 20 15 6 16 7 17 19 18 21 19 8 20 18 21 17 22
REMARK SMILES IDX 10 23 9 24 14 25 11 26 12 27 15 28 16 29 27 30 28 31 29 32
REMARK SMILES IDX 13 33
REMARK H PARENT 13 34
REMARK Flexibility Score: inf
ROOT
ATOM      1  C   UNL     1      16.650  24.790  42.260  1.00  0.00     0.017 C 
ATOM      2  C   UNL     1      16.764  25.328  40.805  1.00  0.00     0.014 C 
ATOM      3  C   UNL     1      17.285  23.379  42.368  1.00  0.00     0.014 C 
ATOM      4  C   UNL     1      15.158  24.710  42.717  1.00  0.00     0.030 C 
ATOM      5  C   UNL     1      15.843  24.623  39.804  1.00  0.00     0.004 C 
ATOM      6  C   UNL     1      17.307  22.869  43.818  1.00  0.00     0.013 C 
ATOM      7  C   UNL     1      15.048  24.068  44.115  1.00  0.00    -0.063 C 
ATOM      8  C   UNL     1      14.222  24.033  41.655  1.00  0.00    -0.003 C 
ATOM      9  C   UNL     1      14.372  24.666  40.246  1.00  0.00    -0.011 C 
ATOM     10  C   UNL     1      15.911  22.860  44.545  1.00  0.00    -0.006 C 
ATOM     11  C   UNL     1      14.078  24.536  44.931  1.00  0.00    -0.027 C 
ATOM     12  C   UNL     1      12.747  23.996  42.094  1.00  0.00     0.008 C 
ATOM     13  C   UNL     1      13.781  26.085  40.123  1.00  0.00     0.008 C 
ATOM     14  C   UNL     1      15.161  21.585  44.041  1.00  0.00     0.017 C 
ATOM     15  C   UNL     1      16.108  22.862  46.155  1.00  0.00    -0.020 C 
ATOM     16  C   UNL     1      13.954  24.213  46.388  1.00  0.00     0.032 C 
ATOM     17  C   UNL     1      14.723  22.951  46.869  1.00  0.00     0.006 C 
ATOM     18  C   UNL     1      16.738  21.534  46.616  1.00  0.00     0.008 C 
ATOM     19  C   UNL     1      17.010  24.058  46.598  1.00  0.00     0.012 C 
ATOM     20  C   UNL     1      14.696  22.715  48.474  1.00  0.00    -0.025 C 
ATOM     21  C   UNL     1      17.045  21.450  48.102  1.00  0.00     0.005 C 
ATOM     22  C   UNL     1      16.052  22.124  49.108  1.00  0.00     0.003 C 
ATOM     23  C   UNL     1      13.494  21.756  48.800  1.00  0.00     0.010 C 
ATOM     24  C   UNL     1      14.384  24.070  49.199  1.00  0.00     0.012 C 
ATOM     25  C   UNL     1      15.840  21.187  50.387  1.00  0.00    -0.006 C 
ATOM     26  C   UNL     1      13.917  20.286  48.864  1.00  0.00     0.033 C 
ATOM     27  C   UNL     1      14.880  19.986  50.038  1.00  0.00     0.120 C 
ATOM     28  C   UNL     1      15.248  21.977  51.593  1.00  0.00     0.014 C 
ATOM     29  C   UNL     1      17.212  20.674  50.940  1.00  0.00     0.014 C 
ENDROOT
BRANCH   1  30
ATOM     30  C   UNL     1      17.433  25.773  43.130  1.00  0.00     0.048 C 
ATOM     31  O   UNL     1      18.687  25.853  43.023  1.00  0.00    -0.550 OA
ATOM     32  O   UNL     1      16.779  26.650  43.989  1.00  0.00    -0.550 OA
ENDBRANCH   1  30
BRANCH  27  33
ATOM     33  O   UNL     1      15.614  18.827  49.728  1.00  0.00    -0.393 OA
ATOM     34  H   UNL     1      14.989  18.058  49.795  1.00  0.00     0.210 HD
ENDBRANCH  27  33
TORSDOF 2
ENDMDL
MODEL 7
REMARK VINA RESULT:    -6.412      1.824      7.815
REMARK INTER + INTRA:          -7.047
REMARK INTER:                  -6.972
REMARK INTRA:                  -0.075
REMARK UNBOUND:                -0.072
REMARK SMILES C[C@@H]1[C@H]2C3=CC[C@@H]4[C@@]5(C)CC[C@@H](O)C(C)(C)[C@H]5CC[C@@]4(C)[C@]3(C)CC[C@@]2(C(=O)[O-])CC[C@@H]1C
REMARK SMILES IDX 26 1 30 2 25 3 3 4 31 5 24 6 4 7 2 8 32 9 22 10 5 11 1 12
REMARK SMILES IDX 33 13 23 14 20 15 6 16 7 17 19 18 21 19 8 20 18 21 17 22
REMARK SMILES IDX 10 23 9 24 14 25 11 26 12 27 15 28 16 29 27 30 28 31 29 32
REMARK SMILES IDX 13 33
REMARK H PARENT 13 34
REMARK Flexibility Score: inf
ROOT
ATOM      1  C   UNL     1      14.456  20.056  48.013  1.00  0.00     0.017 C 
ATOM      2  C   UNL     1      13.680  19.069  48.930  1.00  0.00     0.014 C 
ATOM      3  C   UNL     1      14.126  21.523  48.392  1.00  0.00     0.014 C 
ATOM      4  C   UNL     1      14.098  19.829  46.508  1.00  0.00     0.030 C 
ATOM      5  C   UNL     1      12.175  19.008  48.651  1.00  0.00     0.004 C 
ATOM      6  C   UNL     1      14.973  22.526  47.592  1.00  0.00     0.013 C 
ATOM      7  C   UNL     1      14.782  20.885  45.617  1.00  0.00    -0.063 C 
ATOM      8  C   UNL     1      12.555  19.716  46.251  1.00  0.00    -0.003 C 
ATOM      9  C   UNL     1      11.875  18.675  47.181  1.00  0.00    -0.011 C 
ATOM     10  C   UNL     1      14.895  22.371  46.028  1.00  0.00    -0.006 C 
ATOM     11  C   UNL     1      15.194  20.483  44.395  1.00  0.00    -0.027 C 
ATOM     12  C   UNL     1      12.211  19.449  44.774  1.00  0.00     0.008 C 
ATOM     13  C   UNL     1      12.217  17.208  46.848  1.00  0.00     0.008 C 
ATOM     14  C   UNL     1      13.559  23.049  45.584  1.00  0.00     0.017 C 
ATOM     15  C   UNL     1      16.191  23.046  45.323  1.00  0.00    -0.020 C 
ATOM     16  C   UNL     1      16.073  21.282  43.481  1.00  0.00     0.032 C 
ATOM     17  C   UNL     1      16.156  22.804  43.782  1.00  0.00     0.006 C 
ATOM     18  C   UNL     1      16.164  24.574  45.513  1.00  0.00     0.008 C 
ATOM     19  C   UNL     1      17.510  22.462  45.921  1.00  0.00     0.012 C 
ATOM     20  C   UNL     1      17.232  23.613  42.875  1.00  0.00    -0.025 C 
ATOM     21  C   UNL     1      17.374  25.311  44.962  1.00  0.00     0.005 C 
ATOM     22  C   UNL     1      18.018  24.796  43.631  1.00  0.00     0.003 C 
ATOM     23  C   UNL     1      16.472  24.191  41.627  1.00  0.00     0.010 C 
ATOM     24  C   UNL     1      18.301  22.615  42.314  1.00  0.00     0.012 C 
ATOM     25  C   UNL     1      18.423  26.032  42.699  1.00  0.00    -0.006 C 
ATOM     26  C   UNL     1      15.986  25.626  41.848  1.00  0.00     0.033 C 
ATOM     27  C   UNL     1      17.147  26.639  42.001  1.00  0.00     0.120 C 
ATOM     28  C   UNL     1      19.453  25.620  41.604  1.00  0.00     0.014 C 
ATOM     29  C   UNL     1      19.195  27.122  43.516  1.00  0.00     0.014 C 
ENDROOT
BRANCH   1  30
ATOM     30  C   UNL     1      15.938  19.781  48.265  1.00  0.00     0.048 C 
ATOM     31  O   UNL     1      16.474  20.144  49.348  1.00  0.00    -0.550 OA
ATOM     32  O   UNL     1      16.702  19.059  47.352  1.00  0.00    -0.550 OA
ENDBRANCH   1  30
BRANCH  27  33
ATOM     33  O   UNL     1      16.671  27.759  42.706  1.00  0.00    -0.393 OA
ATOM     34  H   UNL     1      16.170  28.322  42.059  1.00  0.00     0.210 HD
ENDBRANCH  27  33
TORSDOF 2
ENDMDL
MODEL 8
REMARK VINA RESULT:    -6.127      1.737      7.816
REMARK INTER + INTRA:          -6.737
REMARK INTER:                  -7.161
REMARK INTRA:                   0.423
REMARK UNBOUND:                -0.072
REMARK SMILES C[C@@H]1[C@H]2C3=CC[C@@H]4[C@@]5(C)CC[C@@H](O)C(C)(C)[C@H]5CC[C@@]4(C)[C@]3(C)CC[C@@]2(C(=O)[O-])CC[C@@H]1C
REMARK SMILES IDX 26 1 30 2 25 3 3 4 31 5 24 6 4 7 2 8 32 9 22 10 5 11 1 12
REMARK SMILES IDX 33 13 23 14 20 15 6 16 7 17 19 18 21 19 8 20 18 21 17 22
REMARK SMILES IDX 10 23 9 24 14 25 11 26 12 27 15 28 16 29 27 30 28 31 29 32
REMARK SMILES IDX 13 33
REMARK H PARENT 13 34
REMARK Flexibility Score: inf
ROOT
ATOM      1  C   UNL     1      13.530  19.909  48.034  1.00  0.00     0.017 C 
ATOM      2  C   UNL     1      13.101  18.871  49.109  1.00  0.00     0.014 C 
ATOM      3  C   UNL     1      13.368  19.316  46.611  1.00  0.00     0.014 C 
ATOM      4  C   UNL     1      15.018  20.347  48.234  1.00  0.00     0.030 C 
ATOM      5  C   UNL     1      14.078  17.701  49.273  1.00  0.00     0.004 C 
ATOM      6  C   UNL     1      13.660  20.358  45.519  1.00  0.00     0.013 C 
ATOM      7  C   UNL     1      15.469  21.287  47.098  1.00  0.00    -0.063 C 
ATOM      8  C   UNL     1      15.993  19.137  48.453  1.00  0.00    -0.003 C 
ATOM      9  C   UNL     1      15.505  18.181  49.575  1.00  0.00    -0.011 C 
ATOM     10  C   UNL     1      15.063  21.062  45.623  1.00  0.00    -0.006 C 
ATOM     11  C   UNL     1      16.334  22.272  47.423  1.00  0.00    -0.027 C 
ATOM     12  C   UNL     1      17.449  19.577  48.692  1.00  0.00     0.008 C 
ATOM     13  C   UNL     1      15.622  18.763  50.999  1.00  0.00     0.008 C 
ATOM     14  C   UNL     1      16.104  20.058  45.032  1.00  0.00     0.017 C 
ATOM     15  C   UNL     1      15.052  22.476  44.827  1.00  0.00    -0.020 C 
ATOM     16  C   UNL     1      16.709  23.414  46.529  1.00  0.00     0.032 C 
ATOM     17  C   UNL     1      16.414  23.214  45.016  1.00  0.00     0.006 C 
ATOM     18  C   UNL     1      14.907  22.233  43.313  1.00  0.00     0.008 C 
ATOM     19  C   UNL     1      13.884  23.382  45.332  1.00  0.00     0.012 C 
ATOM     20  C   UNL     1      16.687  24.523  44.097  1.00  0.00    -0.025 C 
ATOM     21  C   UNL     1      14.804  23.492  42.468  1.00  0.00     0.005 C 
ATOM     22  C   UNL     1      15.650  24.742  42.885  1.00  0.00     0.003 C 
ATOM     23  C   UNL     1      18.150  24.419  43.533  1.00  0.00     0.010 C 
ATOM     24  C   UNL     1      16.651  25.809  44.991  1.00  0.00     0.012 C 
ATOM     25  C   UNL     1      16.274  25.444  41.590  1.00  0.00    -0.006 C 
ATOM     26  C   UNL     1      18.201  23.769  42.148  1.00  0.00     0.033 C 
ATOM     27  C   UNL     1      17.508  24.621  41.057  1.00  0.00     0.120 C 
ATOM     28  C   UNL     1      16.727  26.906  41.884  1.00  0.00     0.014 C 
ATOM     29  C   UNL     1      15.190  25.628  40.475  1.00  0.00     0.014 C 
ENDROOT
BRANCH   1  30
ATOM     30  C   UNL     1      12.587  21.100  48.206  1.00  0.00     0.048 C 
ATOM     31  O   UNL     1      11.876  21.488  47.239  1.00  0.00    -0.550 OA
ATOM     32  O   UNL     1      12.431  21.722  49.440  1.00  0.00    -0.550 OA
ENDBRANCH   1  30
BRANCH  27  33
ATOM     33  O   UNL     1      17.130  23.772  40.001  1.00  0.00    -0.393 OA
ATOM     34  H   UNL     1      17.319  24.254  39.154  1.00  0.00     0.210 HD
ENDBRANCH  27  33
TORSDOF 2
ENDMDL
