MODEL 1
REMARK VINA RESULT:    -4.084      0.000      0.000
REMARK INTER + INTRA:          -6.449
REMARK INTER:                  -6.233
REMARK INTRA:                  -0.216
REMARK UNBOUND:                -0.216
REMARK SMILES CC1=CCC[C@H](C)C(=O)C[C@@H](C(C)C)C(=O)C1
REMARK SMILES IDX 8 1 9 2 6 3 7 4 5 5 4 6 3 7 2 8 1 9 10 11 11 12 15 13 16 14
REMARK SMILES IDX 17 15 12 17 13 18 14 19
REMARK H PARENT
REMARK Flexibility Score: 70.00
ROOT
ATOM      1  C   UNL     1     -15.452  14.448 -31.903  1.00  0.00     0.136 C 
ATOM      2  O   UNL     1     -15.419  14.279 -33.113  1.00  0.00    -0.299 OA
ENDROOT
BRANCH   1   3
ATOM      3  C   UNL     1     -16.559  13.775 -31.110  1.00  0.00     0.053 C 
ATOM      4  C   UNL     1     -17.403  12.859 -32.006  1.00  0.00     0.016 C 
BRANCH   3   5
ATOM      5  C   UNL     1     -16.018  13.005 -29.889  1.00  0.00     0.015 C 
BRANCH   5   6
ATOM      6  C   UNL     1     -16.121  13.819 -28.578  1.00  0.00     0.028 C 
BRANCH   6   7
ATOM      7  C   UNL     1     -15.040  13.413 -27.607  1.00  0.00    -0.028 C 
ATOM      8  C   UNL     1     -13.780  13.909 -27.585  1.00  0.00    -0.070 CG0
ATOM      9  C   UNL     1     -12.819  13.342 -26.571  1.00  0.00     0.039 C 
ATOM     10  G   UNL     1     -13.314  15.047 -28.483  1.00  0.00     0.000 G0
ENDBRANCH   6   7
ENDBRANCH   5   6
ENDBRANCH   3   5
ENDBRANCH   1   3
BRANCH   1  11
ATOM     11  C   UNL     1     -14.382  15.313 -31.265  1.00  0.00     0.087 C 
BRANCH  11  12
ATOM     12  C   UNL     1     -13.010  14.602 -31.107  1.00  0.00     0.066 C 
BRANCH  12  13
ATOM     13  C   UNL     1     -12.475  14.677 -29.680  1.00  0.00     0.140 C 
ATOM     14  O   UNL     1     -11.294  14.425 -29.484  1.00  0.00    -0.299 OA
BRANCH  13  15
ATOM     15  C   UNL     1     -13.317  15.048 -28.472  1.00  0.00     0.106 CG0
ATOM     16  G   UNL     1     -13.759  13.895 -27.580  1.00  0.00     0.000 G0
ENDBRANCH  13  15
ENDBRANCH  12  13
BRANCH  12  17
ATOM     17  C   UNL     1     -11.978  15.109 -32.164  1.00  0.00    -0.006 C 
ATOM     18  C   UNL     1     -12.361  16.500 -32.691  1.00  0.00     0.008 C 
ATOM     19  C   UNL     1     -11.758  14.152 -33.352  1.00  0.00     0.008 C 
ENDBRANCH  12  17
ENDBRANCH  11  12
ENDBRANCH   1  11
TORSDOF 1
ENDMDL
MODEL 2
REMARK VINA RESULT:    -3.901      1.677      1.952
REMARK INTER + INTRA:          -6.170
REMARK INTER:                  -5.805
REMARK INTRA:                  -0.365
REMARK UNBOUND:                -0.216
REMARK SMILES CC1=CCC[C@H](C)C(=O)C[C@@H](C(C)C)C(=O)C1
REMARK SMILES IDX 8 1 9 2 6 3 7 4 5 5 4 6 3 7 2 8 1 9 10 11 11 12 15 13 16 14
REMARK SMILES IDX 17 15 12 17 13 18 14 19
REMARK H PARENT
REMARK Flexibility Score: 70.00
ROOT
ATOM      1  C   UNL     1     -16.527  13.956 -31.988  1.00  0.00     0.136 C 
ATOM      2  O   UNL     1     -16.517  14.305 -33.159  1.00  0.00    -0.299 OA
ENDROOT
BRANCH   1   3
ATOM      3  C   UNL     1     -17.617  13.002 -31.528  1.00  0.00     0.053 C 
ATOM      4  C   UNL     1     -17.227  11.544 -31.803  1.00  0.00     0.016 C 
BRANCH   3   5
ATOM      5  C   UNL     1     -17.982  13.205 -30.044  1.00  0.00     0.015 C 
BRANCH   5   6
ATOM      6  C   UNL     1     -17.604  11.988 -29.166  1.00  0.00     0.028 C 
BRANCH   6   7
ATOM      7  C   UNL     1     -16.709  12.406 -28.025  1.00  0.00    -0.028 C 
ATOM      8  C   UNL     1     -15.356  12.344 -28.028  1.00  0.00    -0.070 CG0
ATOM      9  C   UNL     1     -14.632  12.758 -26.772  1.00  0.00     0.039 C 
ATOM     10  G   UNL     1     -14.540  11.943 -29.249  1.00  0.00     0.000 G0
ENDBRANCH   6   7
ENDBRANCH   5   6
ENDBRANCH   3   5
ENDBRANCH   1   3
BRANCH   1  11
ATOM     11  C   UNL     1     -15.448  14.489 -31.065  1.00  0.00     0.087 C 
BRANCH  11  12
ATOM     12  C   UNL     1     -14.089  13.746 -31.193  1.00  0.00     0.066 C 
BRANCH  12  13
ATOM     13  C   UNL     1     -13.699  13.021 -29.908  1.00  0.00     0.140 C 
ATOM     14  O   UNL     1     -12.647  13.324 -29.363  1.00  0.00    -0.299 OA
BRANCH  13  15
ATOM     15  C   UNL     1     -14.536  11.937 -29.252  1.00  0.00     0.106 CG0
ATOM     16  G   UNL     1     -15.347  12.357 -28.034  1.00  0.00     0.000 G0
ENDBRANCH  13  15
ENDBRANCH  12  13
BRANCH  12  17
ATOM     17  C   UNL     1     -12.964  14.695 -31.714  1.00  0.00    -0.006 C 
ATOM     18  C   UNL     1     -13.487  16.128 -31.892  1.00  0.00     0.008 C 
ATOM     19  C   UNL     1     -12.287  14.229 -33.016  1.00  0.00     0.008 C 
ENDBRANCH  12  17
ENDBRANCH  11  12
ENDBRANCH   1  11
TORSDOF 1
ENDMDL
MODEL 3
REMARK VINA RESULT:    -3.858     11.159     13.512
REMARK INTER + INTRA:          -6.104
REMARK INTER:                  -6.175
REMARK INTRA:                   0.071
REMARK UNBOUND:                -0.216
REMARK SMILES CC1=CCC[C@H](C)C(=O)C[C@@H](C(C)C)C(=O)C1
REMARK SMILES IDX 8 1 9 2 6 3 7 4 5 5 4 6 3 7 2 8 1 9 10 11 11 12 15 13 16 14
REMARK SMILES IDX 17 15 12 17 13 18 14 19
REMARK H PARENT
REMARK Flexibility Score: 70.00
ROOT
ATOM      1  C   UNL     1     -23.648  20.336 -31.137  1.00  0.00     0.136 C 
ATOM      2  O   UNL     1     -22.464  20.552 -30.923  1.00  0.00    -0.299 OA
ENDROOT
BRANCH   1   3
ATOM      3  C   UNL     1     -24.359  21.182 -32.179  1.00  0.00     0.053 C 
ATOM      4  C   UNL     1     -24.005  22.667 -32.021  1.00  0.00     0.016 C 
BRANCH   3   5
ATOM      5  C   UNL     1     -24.079  20.699 -33.615  1.00  0.00     0.015 C 
BRANCH   5   6
ATOM      6  C   UNL     1     -25.229  19.838 -34.189  1.00  0.00     0.028 C 
BRANCH   6   7
ATOM      7  C   UNL     1     -26.571  20.381 -33.761  1.00  0.00    -0.028 C 
ATOM      8  C   UNL     1     -27.513  19.691 -33.075  1.00  0.00    -0.070 CG0
ATOM      9  C   UNL     1     -28.818  20.386 -32.781  1.00  0.00     0.039 C 
ATOM     10  G   UNL     1     -27.291  18.284 -32.535  1.00  0.00     0.000 G0
ENDBRANCH   6   7
ENDBRANCH   5   6
ENDBRANCH   3   5
ENDBRANCH   1   3
BRANCH   1  11
ATOM     11  C   UNL     1     -24.333  19.231 -30.356  1.00  0.00     0.087 C 
BRANCH  11  12
ATOM     12  C   UNL     1     -24.941  18.115 -31.250  1.00  0.00     0.066 C 
BRANCH  12  13
ATOM     13  C   UNL     1     -26.467  18.148 -31.265  1.00  0.00     0.140 C 
ATOM     14  O   UNL     1     -27.064  18.057 -30.202  1.00  0.00    -0.299 OA
BRANCH  13  15
ATOM     15  C   UNL     1     -27.304  18.287 -32.525  1.00  0.00     0.106 CG0
ATOM     16  G   UNL     1     -27.493  19.702 -33.055  1.00  0.00     0.000 G0
ENDBRANCH  13  15
ENDBRANCH  12  13
BRANCH  12  17
ATOM     17  C   UNL     1     -24.373  16.709 -30.875  1.00  0.00    -0.006 C 
ATOM     18  C   UNL     1     -23.220  16.310 -31.808  1.00  0.00     0.008 C 
ATOM     19  C   UNL     1     -25.424  15.583 -30.845  1.00  0.00     0.008 C 
ENDBRANCH  12  17
ENDBRANCH  11  12
ENDBRANCH   1  11
TORSDOF 1
ENDMDL
MODEL 4
REMARK VINA RESULT:    -3.852      1.887      4.175
REMARK INTER + INTRA:          -6.094
REMARK INTER:                  -5.849
REMARK INTRA:                  -0.245
REMARK UNBOUND:                -0.216
REMARK SMILES CC1=CCC[C@H](C)C(=O)C[C@@H](C(C)C)C(=O)C1
REMARK SMILES IDX 8 1 9 2 6 3 7 4 5 5 4 6 3 7 2 8 1 9 10 11 11 12 15 13 16 14
REMARK SMILES IDX 17 15 12 17 13 18 14 19
REMARK H PARENT
REMARK Flexibility Score: 70.00
ROOT
ATOM      1  C   UNL     1     -13.594  14.185 -28.568  1.00  0.00     0.136 C 
ATOM      2  O   UNL     1     -13.632  15.376 -28.293  1.00  0.00    -0.299 OA
ENDROOT
BRANCH   1   3
ATOM      3  C   UNL     1     -13.731  13.179 -27.438  1.00  0.00     0.053 C 
ATOM      4  C   UNL     1     -12.714  13.456 -26.324  1.00  0.00     0.016 C 
BRANCH   3   5
ATOM      5  C   UNL     1     -15.165  13.125 -26.875  1.00  0.00     0.015 C 
BRANCH   5   6
ATOM      6  C   UNL     1     -15.951  11.886 -27.365  1.00  0.00     0.028 C 
BRANCH   6   7
ATOM      7  C   UNL     1     -17.165  12.301 -28.160  1.00  0.00    -0.028 C 
ATOM      8  C   UNL     1     -17.196  12.491 -29.501  1.00  0.00    -0.070 CG0
ATOM      9  C   UNL     1     -18.492  12.958 -30.114  1.00  0.00     0.039 C 
ATOM     10  G   UNL     1     -16.014  12.195 -30.415  1.00  0.00     0.000 G0
ENDBRANCH   6   7
ENDBRANCH   5   6
ENDBRANCH   3   5
ENDBRANCH   1   3
BRANCH   1  11
ATOM     11  C   UNL     1     -13.418  13.785 -30.020  1.00  0.00     0.087 C 
BRANCH  11  12
ATOM     12  C   UNL     1     -14.509  14.359 -30.966  1.00  0.00     0.066 C 
BRANCH  12  13
ATOM     13  C   UNL     1     -15.557  13.316 -31.347  1.00  0.00     0.140 C 
ATOM     14  O   UNL     1     -16.068  13.380 -32.456  1.00  0.00    -0.299 OA
BRANCH  13  15
ATOM     15  C   UNL     1     -16.014  12.193 -30.433  1.00  0.00     0.106 CG0
ATOM     16  G   UNL     1     -17.187  12.506 -29.514  1.00  0.00     0.000 G0
ENDBRANCH  13  15
ENDBRANCH  12  13
BRANCH  12  17
ATOM     17  C   UNL     1     -13.877  15.059 -32.210  1.00  0.00    -0.006 C 
ATOM     18  C   UNL     1     -12.650  14.286 -32.717  1.00  0.00     0.008 C 
ATOM     19  C   UNL     1     -13.499  16.535 -31.988  1.00  0.00     0.008 C 
ENDBRANCH  12  17
ENDBRANCH  11  12
ENDBRANCH   1  11
TORSDOF 1
ENDMDL
MODEL 5
REMARK VINA RESULT:    -3.709      1.878      5.068
REMARK INTER + INTRA:          -5.877
REMARK INTER:                  -5.679
REMARK INTRA:                  -0.198
REMARK UNBOUND:                -0.216
REMARK SMILES CC1=CCC[C@H](C)C(=O)C[C@@H](C(C)C)C(=O)C1
REMARK SMILES IDX 8 1 9 2 6 3 7 4 5 5 4 6 3 7 2 8 1 9 10 11 11 12 15 13 16 14
REMARK SMILES IDX 17 15 12 17 13 18 14 19
REMARK H PARENT
REMARK Flexibility Score: 70.00
ROOT
ATOM      1  C   UNL     1     -14.518  13.336 -27.369  1.00  0.00     0.136 C 
ATOM      2  O   UNL     1     -14.959  12.264 -26.981  1.00  0.00    -0.299 OA
ENDROOT
BRANCH   1   3
ATOM      3  C   UNL     1     -13.306  13.916 -26.659  1.00  0.00     0.053 C 
ATOM      4  C   UNL     1     -12.375  12.805 -26.157  1.00  0.00     0.016 C 
BRANCH   3   5
ATOM      5  C   UNL     1     -12.539  14.921 -27.542  1.00  0.00     0.015 C 
BRANCH   5   6
ATOM      6  C   UNL     1     -11.646  14.227 -28.597  1.00  0.00     0.028 C 
BRANCH   6   7
ATOM      7  C   UNL     1     -11.702  14.961 -29.914  1.00  0.00    -0.028 C 
ATOM      8  C   UNL     1     -12.328  14.519 -31.032  1.00  0.00    -0.070 CG0
ATOM      9  C   UNL     1     -12.231  15.369 -32.273  1.00  0.00     0.039 C 
ATOM     10  G   UNL     1     -13.170  13.250 -31.072  1.00  0.00     0.000 G0
ENDBRANCH   6   7
ENDBRANCH   5   6
ENDBRANCH   3   5
ENDBRANCH   1   3
BRANCH   1  11
ATOM     11  C   UNL     1     -15.201  14.019 -28.538  1.00  0.00     0.087 C 
BRANCH  11  12
ATOM     12  C   UNL     1     -15.502  13.070 -29.731  1.00  0.00     0.066 C 
BRANCH  12  13
ATOM     13  C   UNL     1     -14.679  13.412 -30.969  1.00  0.00     0.140 C 
ATOM     14  O   UNL     1     -15.258  13.854 -31.952  1.00  0.00    -0.299 OA
BRANCH  13  15
ATOM     15  C   UNL     1     -13.173  13.241 -31.067  1.00  0.00     0.106 CG0
ATOM     16  G   UNL     1     -12.346  14.520 -31.047  1.00  0.00     0.000 G0
ENDBRANCH  13  15
ENDBRANCH  12  13
BRANCH  12  17
ATOM     17  C   UNL     1     -17.032  12.992 -30.028  1.00  0.00    -0.006 C 
ATOM     18  C   UNL     1     -17.849  13.654 -28.908  1.00  0.00     0.008 C 
ATOM     19  C   UNL     1     -17.563  11.567 -30.278  1.00  0.00     0.008 C 
ENDBRANCH  12  17
ENDBRANCH  11  12
ENDBRANCH   1  11
TORSDOF 1
ENDMDL
MODEL 6
REMARK VINA RESULT:    -3.674      1.727      2.065
REMARK INTER + INTRA:          -5.822
REMARK INTER:                  -5.791
REMARK INTRA:                  -0.032
REMARK UNBOUND:                -0.216
REMARK SMILES CC1=CCC[C@H](C)C(=O)C[C@@H](C(C)C)C(=O)C1
REMARK SMILES IDX 8 1 9 2 6 3 7 4 5 5 4 6 3 7 2 8 1 9 10 11 11 12 15 13 16 14
REMARK SMILES IDX 17 15 12 17 13 18 14 19
REMARK H PARENT
REMARK Flexibility Score: 70.00
ROOT
ATOM      1  C   UNL     1     -15.428  15.092 -30.110  1.00  0.00     0.136 C 
ATOM      2  O   UNL     1     -16.073  15.800 -29.350  1.00  0.00    -0.299 OA
ENDROOT
BRANCH   1   3
ATOM      3  C   UNL     1     -16.141  13.947 -30.809  1.00  0.00     0.053 C 
ATOM      4  C   UNL     1     -16.063  14.095 -32.334  1.00  0.00     0.016 C 
BRANCH   3   5
ATOM      5  C   UNL     1     -15.613  12.570 -30.360  1.00  0.00     0.015 C 
BRANCH   5   6
ATOM      6  C   UNL     1     -15.942  12.259 -28.881  1.00  0.00     0.028 C 
BRANCH   6   7
ATOM      7  C   UNL     1     -14.771  11.597 -28.198  1.00  0.00    -0.028 C 
ATOM      8  C   UNL     1     -13.835  12.233 -27.454  1.00  0.00    -0.070 CG0
ATOM      9  C   UNL     1     -12.705  11.409 -26.892  1.00  0.00     0.039 C 
ATOM     10  G   UNL     1     -13.908  13.715 -27.107  1.00  0.00     0.000 G0
ENDBRANCH   6   7
ENDBRANCH   5   6
ENDBRANCH   3   5
ENDBRANCH   1   3
BRANCH   1  11
ATOM     11  C   UNL     1     -13.958  15.403 -30.315  1.00  0.00     0.087 C 
BRANCH  11  12
ATOM     12  C   UNL     1     -13.003  14.469 -29.521  1.00  0.00     0.066 C 
BRANCH  12  13
ATOM     13  C   UNL     1     -13.129  14.654 -28.011  1.00  0.00     0.140 C 
ATOM     14  O   UNL     1     -12.578  15.614 -27.492  1.00  0.00    -0.299 OA
BRANCH  13  15
ATOM     15  C   UNL     1     -13.901  13.717 -27.099  1.00  0.00     0.106 CG0
ATOM     16  G   UNL     1     -13.835  12.235 -27.444  1.00  0.00     0.000 G0
ENDBRANCH  13  15
ENDBRANCH  12  13
BRANCH  12  17
ATOM     17  C   UNL     1     -11.530  14.599 -30.022  1.00  0.00    -0.006 C 
ATOM     18  C   UNL     1     -11.406  15.679 -31.107  1.00  0.00     0.008 C 
ATOM     19  C   UNL     1     -10.910  13.284 -30.532  1.00  0.00     0.008 C 
ENDBRANCH  12  17
ENDBRANCH  11  12
ENDBRANCH   1  11
TORSDOF 1
ENDMDL
MODEL 7
REMARK VINA RESULT:    -3.628      1.601      1.779
REMARK INTER + INTRA:          -5.753
REMARK INTER:                  -6.058
REMARK INTRA:                   0.306
REMARK UNBOUND:                -0.216
REMARK SMILES CC1=CCC[C@H](C)C(=O)C[C@@H](C(C)C)C(=O)C1
REMARK SMILES IDX 8 1 9 2 6 3 7 4 5 5 4 6 3 7 2 8 1 9 10 11 11 12 15 13 16 14
REMARK SMILES IDX 17 15 12 17 13 18 14 19
REMARK H PARENT
REMARK Flexibility Score: 70.00
ROOT
ATOM      1  C   UNL     1     -16.306  13.522 -32.007  1.00  0.00     0.136 C 
ATOM      2  O   UNL     1     -16.545  12.979 -33.075  1.00  0.00    -0.299 OA
ENDROOT
BRANCH   1   3
ATOM      3  C   UNL     1     -17.013  13.010 -30.762  1.00  0.00     0.053 C 
ATOM      4  C   UNL     1     -18.516  12.835 -31.014  1.00  0.00     0.016 C 
BRANCH   3   5
ATOM      5  C   UNL     1     -16.386  11.707 -30.229  1.00  0.00     0.015 C 
BRANCH   5   6
ATOM      6  C   UNL     1     -16.006  11.798 -28.733  1.00  0.00     0.028 C 
BRANCH   6   7
ATOM      7  C   UNL     1     -14.511  11.704 -28.552  1.00  0.00    -0.028 C 
ATOM      8  C   UNL     1     -13.672  12.757 -28.398  1.00  0.00    -0.070 CG0
ATOM      9  C   UNL     1     -12.197  12.469 -28.283  1.00  0.00     0.039 C 
ATOM     10  G   UNL     1     -14.153  14.197 -28.270  1.00  0.00     0.000 G0
ENDBRANCH   6   7
ENDBRANCH   5   6
ENDBRANCH   3   5
ENDBRANCH   1   3
BRANCH   1  11
ATOM     11  C   UNL     1     -15.313  14.668 -31.985  1.00  0.00     0.087 C 
BRANCH  11  12
ATOM     12  C   UNL     1     -14.187  14.503 -30.927  1.00  0.00     0.066 C 
BRANCH  12  13
ATOM     13  C   UNL     1     -14.648  14.881 -29.522  1.00  0.00     0.140 C 
ATOM     14  O   UNL     1     -15.472  15.776 -29.398  1.00  0.00    -0.299 OA
BRANCH  13  15
ATOM     15  C   UNL     1     -14.148  14.215 -28.253  1.00  0.00     0.106 CG0
ATOM     16  G   UNL     1     -13.693  12.767 -28.386  1.00  0.00     0.000 G0
ENDBRANCH  13  15
ENDBRANCH  12  13
BRANCH  12  17
ATOM     17  C   UNL     1     -12.886  15.253 -31.355  1.00  0.00    -0.006 C 
ATOM     18  C   UNL     1     -13.214  16.509 -32.177  1.00  0.00     0.008 C 
ATOM     19  C   UNL     1     -11.873  14.385 -32.126  1.00  0.00     0.008 C 
ENDBRANCH  12  17
ENDBRANCH  11  12
ENDBRANCH   1  11
TORSDOF 1
ENDMDL
MODEL 8
REMARK VINA RESULT:    -3.600      2.043      2.629
REMARK INTER + INTRA:          -5.710
REMARK INTER:                  -5.438
REMARK INTRA:                  -0.272
REMARK UNBOUND:                -0.216
REMARK SMILES CC1=CCC[C@H](C)C(=O)C[C@@H](C(C)C)C(=O)C1
REMARK SMILES IDX 8 1 9 2 6 3 7 4 5 5 4 6 3 7 2 8 1 9 10 11 11 12 15 13 16 14
REMARK SMILES IDX 17 15 12 17 13 18 14 19
REMARK H PARENT
REMARK Flexibility Score: 70.00
ROOT
ATOM      1  C   UNL     1     -17.160  13.545 -30.420  1.00  0.00     0.136 C 
ATOM      2  O   UNL     1     -16.952  13.126 -31.549  1.00  0.00    -0.299 OA
ENDROOT
BRANCH   1   3
ATOM      3  C   UNL     1     -18.350  12.994 -29.653  1.00  0.00     0.053 C 
ATOM      4  C   UNL     1     -19.636  13.092 -30.483  1.00  0.00     0.016 C 
BRANCH   3   5
ATOM      5  C   UNL     1     -18.114  11.549 -29.169  1.00  0.00     0.015 C 
BRANCH   5   6
ATOM      6  C   UNL     1     -17.673  11.482 -27.688  1.00  0.00     0.028 C 
BRANCH   6   7
ATOM      7  C   UNL     1     -16.283  10.905 -27.568  1.00  0.00    -0.028 C 
ATOM      8  C   UNL     1     -15.150  11.624 -27.381  1.00  0.00    -0.070 CG0
ATOM      9  C   UNL     1     -13.843  10.875 -27.338  1.00  0.00     0.039 C 
ATOM     10  G   UNL     1     -15.143  13.130 -27.150  1.00  0.00     0.000 G0
ENDBRANCH   6   7
ENDBRANCH   5   6
ENDBRANCH   3   5
ENDBRANCH   1   3
BRANCH   1  11
ATOM     11  C   UNL     1     -16.215  14.585 -29.850  1.00  0.00     0.087 C 
BRANCH  11  12
ATOM     12  C   UNL     1     -14.763  14.070 -29.648  1.00  0.00     0.066 C 
BRANCH  12  13
ATOM     13  C   UNL     1     -14.380  13.967 -28.174  1.00  0.00     0.140 C 
ATOM     14  O   UNL     1     -13.406  14.591 -27.778  1.00  0.00    -0.299 OA
BRANCH  13  15
ATOM     15  C   UNL     1     -15.135  13.133 -27.154  1.00  0.00     0.106 CG0
ATOM     16  G   UNL     1     -15.145  11.628 -27.388  1.00  0.00     0.000 G0
ENDBRANCH  13  15
ENDBRANCH  12  13
BRANCH  12  17
ATOM     17  C   UNL     1     -13.739  14.907 -30.478  1.00  0.00    -0.006 C 
ATOM     18  C   UNL     1     -14.451  15.768 -31.533  1.00  0.00     0.008 C 
ATOM     19  C   UNL     1     -12.633  14.075 -31.155  1.00  0.00     0.008 C 
ENDBRANCH  12  17
ENDBRANCH  11  12
ENDBRANCH   1  11
TORSDOF 1
ENDMDL
MODEL 9
REMARK VINA RESULT:    -3.510      2.262      4.283
REMARK INTER + INTRA:          -5.573
REMARK INTER:                  -5.535
REMARK INTRA:                  -0.038
REMARK UNBOUND:                -0.216
REMARK SMILES CC1=CCC[C@H](C)C(=O)C[C@@H](C(C)C)C(=O)C1
REMARK SMILES IDX 8 1 9 2 6 3 7 4 5 5 4 6 3 7 2 8 1 9 10 11 11 12 15 13 16 14
REMARK SMILES IDX 17 15 12 17 13 18 14 19
REMARK H PARENT
REMARK Flexibility Score: 70.00
ROOT
ATOM      1  C   UNL     1     -16.903  13.675 -28.670  1.00  0.00     0.136 C 
ATOM      2  O   UNL     1     -17.428  14.778 -28.632  1.00  0.00    -0.299 OA
ENDROOT
BRANCH   1   3
ATOM      3  C   UNL     1     -17.525  12.610 -29.559  1.00  0.00     0.053 C 
ATOM      4  C   UNL     1     -18.669  11.887 -28.838  1.00  0.00     0.016 C 
BRANCH   3   5
ATOM      5  C   UNL     1     -17.997  13.181 -30.910  1.00  0.00     0.015 C 
BRANCH   5   6
ATOM      6  C   UNL     1     -16.881  13.177 -31.982  1.00  0.00     0.028 C 
BRANCH   6   7
ATOM      7  C   UNL     1     -16.135  14.489 -31.985  1.00  0.00    -0.028 C 
ATOM      8  C   UNL     1     -14.846  14.659 -31.603  1.00  0.00    -0.070 CG0
ATOM      9  C   UNL     1     -14.286  16.058 -31.624  1.00  0.00     0.039 C 
ATOM     10  G   UNL     1     -13.929  13.504 -31.220  1.00  0.00     0.000 G0
ENDBRANCH   6   7
ENDBRANCH   5   6
ENDBRANCH   3   5
ENDBRANCH   1   3
BRANCH   1  11
ATOM     11  C   UNL     1     -15.661  13.436 -27.834  1.00  0.00     0.087 C 
BRANCH  11  12
ATOM     12  C   UNL     1     -14.336  13.792 -28.562  1.00  0.00     0.066 C 
BRANCH  12  13
ATOM     13  C   UNL     1     -14.107  12.938 -29.806  1.00  0.00     0.140 C 
ATOM     14  O   UNL     1     -14.067  11.723 -29.681  1.00  0.00    -0.299 OA
BRANCH  13  15
ATOM     15  C   UNL     1     -13.924  13.501 -31.205  1.00  0.00     0.106 CG0
ATOM     16  G   UNL     1     -14.829  14.665 -31.587  1.00  0.00     0.000 G0
ENDBRANCH  13  15
ENDBRANCH  12  13
BRANCH  12  17
ATOM     17  C   UNL     1     -13.120  13.766 -27.583  1.00  0.00    -0.006 C 
ATOM     18  C   UNL     1     -13.483  13.063 -26.266  1.00  0.00     0.008 C 
ATOM     19  C   UNL     1     -12.516  15.150 -27.277  1.00  0.00     0.008 C 
ENDBRANCH  12  17
ENDBRANCH  11  12
ENDBRANCH   1  11
TORSDOF 1
ENDMDL
