MODEL 1
REMARK VINA RESULT:    -3.977      0.000      0.000
REMARK INTER + INTRA:          -6.189
REMARK INTER:                  -6.070
REMARK INTRA:                  -0.118
REMARK UNBOUND:                -0.118
REMARK SMILES CC1=CCC[C@H](C)C(=O)C[C@H](C(C)C)C(=O)C1
REMARK SMILES IDX 8 1 9 2 6 3 7 4 5 5 4 6 3 7 2 8 1 9 10 11 11 12 15 13 16 14
REMARK SMILES IDX 17 15 12 17 13 18 14 19
REMARK H PARENT
REMARK Flexibility Score: 70.00
ROOT
ATOM      1  C   UNL     1      36.471  18.658  25.757  1.00  0.00     0.136 C 
ATOM      2  O   UNL     1      35.980  18.651  26.878  1.00  0.00    -0.299 OA
ENDROOT
BRANCH   1   3
ATOM      3  C   UNL     1      36.066  19.739  24.772  1.00  0.00     0.053 C 
ATOM      4  C   UNL     1      34.709  19.401  24.137  1.00  0.00     0.016 C 
BRANCH   3   5
ATOM      5  C   UNL     1      36.035  21.126  25.477  1.00  0.00     0.015 C 
BRANCH   5   6
ATOM      6  C   UNL     1      37.416  21.783  25.667  1.00  0.00     0.028 C 
BRANCH   6   7
ATOM      7  C   UNL     1      38.001  21.699  27.061  1.00  0.00    -0.028 C 
ATOM      8  C   UNL     1      39.076  20.967  27.436  1.00  0.00    -0.070 CG0
ATOM      9  C   UNL     1      39.404  20.908  28.909  1.00  0.00     0.039 C 
ATOM     10  G   UNL     1      39.954  20.209  26.462  1.00  0.00     0.000 G0
ENDBRANCH   6   7
ENDBRANCH   5   6
ENDBRANCH   3   5
ENDBRANCH   1   3
BRANCH   1  11
ATOM     11  C   UNL     1      37.502  17.613  25.391  1.00  0.00     0.087 C 
BRANCH  11  12
ATOM     12  C   UNL     1      38.920  18.183  25.089  1.00  0.00     0.066 C 
BRANCH  12  13
ATOM     13  C   UNL     1      39.614  18.740  26.333  1.00  0.00     0.140 C 
ATOM     14  O   UNL     1      39.921  17.986  27.244  1.00  0.00    -0.299 OA
BRANCH  13  15
ATOM     15  C   UNL     1      39.972  20.202  26.463  1.00  0.00     0.106 CG0
ATOM     16  G   UNL     1      39.065  20.945  27.424  1.00  0.00     0.000 G0
ENDBRANCH  13  15
ENDBRANCH  12  13
BRANCH  12  17
ATOM     17  C   UNL     1      39.808  17.232  24.222  1.00  0.00    -0.006 C 
ATOM     18  C   UNL     1      39.405  15.750  24.271  1.00  0.00     0.008 C 
ATOM     19  C   UNL     1      41.301  17.392  24.554  1.00  0.00     0.008 C 
ENDBRANCH  12  17
ENDBRANCH  11  12
ENDBRANCH   1  11
TORSDOF 1
ENDMDL
MODEL 2
REMARK VINA RESULT:    -3.880      2.454      5.523
REMARK INTER + INTRA:          -6.040
REMARK INTER:                  -5.507
REMARK INTRA:                  -0.534
REMARK UNBOUND:                -0.118
REMARK SMILES CC1=CCC[C@H](C)C(=O)C[C@H](C(C)C)C(=O)C1
REMARK SMILES IDX 8 1 9 2 6 3 7 4 5 5 4 6 3 7 2 8 1 9 10 11 11 12 15 13 16 14
REMARK SMILES IDX 17 15 12 17 13 18 14 19
REMARK H PARENT
REMARK Flexibility Score: 70.00
ROOT
ATOM      1  C   UNL     1      39.016  21.189  29.489  1.00  0.00     0.136 C 
ATOM      2  O   UNL     1      38.820  20.663  30.576  1.00  0.00    -0.299 OA
ENDROOT
BRANCH   1   3
ATOM      3  C   UNL     1      40.389  21.747  29.166  1.00  0.00     0.053 C 
ATOM      4  C   UNL     1      40.825  22.750  30.245  1.00  0.00     0.016 C 
BRANCH   3   5
ATOM      5  C   UNL     1      41.419  20.589  29.016  1.00  0.00     0.015 C 
BRANCH   5   6
ATOM      6  C   UNL     1      40.936  19.406  28.153  1.00  0.00     0.028 C 
BRANCH   6   7
ATOM      7  C   UNL     1      41.185  19.530  26.664  1.00  0.00    -0.028 C 
ATOM      8  C   UNL     1      40.245  19.538  25.692  1.00  0.00    -0.070 CG0
ATOM      9  C   UNL     1      40.718  19.522  24.259  1.00  0.00     0.039 C 
ATOM     10  G   UNL     1      38.754  19.555  25.968  1.00  0.00     0.000 G0
ENDBRANCH   6   7
ENDBRANCH   5   6
ENDBRANCH   3   5
ENDBRANCH   1   3
BRANCH   1  11
ATOM     11  C   UNL     1      37.894  21.237  28.474  1.00  0.00     0.087 C 
BRANCH  11  12
ATOM     12  C   UNL     1      38.282  21.892  27.115  1.00  0.00     0.066 C 
BRANCH  12  13
ATOM     13  C   UNL     1      38.140  20.934  25.932  1.00  0.00     0.140 C 
ATOM     14  O   UNL     1      37.553  21.298  24.924  1.00  0.00    -0.299 OA
BRANCH  13  15
ATOM     15  C   UNL     1      38.740  19.547  25.948  1.00  0.00     0.106 CG0
ATOM     16  G   UNL     1      40.232  19.550  25.682  1.00  0.00     0.000 G0
ENDBRANCH  13  15
ENDBRANCH  12  13
BRANCH  12  17
ATOM     17  C   UNL     1      37.640  23.300  26.891  1.00  0.00    -0.006 C 
ATOM     18  C   UNL     1      38.564  24.488  27.202  1.00  0.00     0.008 C 
ATOM     19  C   UNL     1      36.310  23.443  27.650  1.00  0.00     0.008 C 
ENDBRANCH  12  17
ENDBRANCH  11  12
ENDBRANCH   1  11
TORSDOF 1
ENDMDL
MODEL 3
REMARK VINA RESULT:    -3.868      2.213      3.744
REMARK INTER + INTRA:          -6.022
REMARK INTER:                  -6.063
REMARK INTRA:                   0.041
REMARK UNBOUND:                -0.118
REMARK SMILES CC1=CCC[C@H](C)C(=O)C[C@H](C(C)C)C(=O)C1
REMARK SMILES IDX 8 1 9 2 6 3 7 4 5 5 4 6 3 7 2 8 1 9 10 11 11 12 15 13 16 14
REMARK SMILES IDX 17 15 12 17 13 18 14 19
REMARK H PARENT
REMARK Flexibility Score: 70.00
ROOT
ATOM      1  C   UNL     1      37.632  22.390  26.314  1.00  0.00     0.136 C 
ATOM      2  O   UNL     1      37.809  22.238  25.114  1.00  0.00    -0.299 OA
ENDROOT
BRANCH   1   3
ATOM      3  C   UNL     1      37.413  23.787  26.865  1.00  0.00     0.053 C 
ATOM      4  C   UNL     1      36.359  23.763  27.981  1.00  0.00     0.016 C 
BRANCH   3   5
ATOM      5  C   UNL     1      38.760  24.384  27.367  1.00  0.00     0.015 C 
BRANCH   5   6
ATOM      6  C   UNL     1      39.105  24.054  28.833  1.00  0.00     0.028 C 
BRANCH   6   7
ATOM      7  C   UNL     1      40.483  23.471  29.071  1.00  0.00    -0.028 C 
ATOM      8  C   UNL     1      40.775  22.170  29.297  1.00  0.00    -0.070 CG0
ATOM      9  C   UNL     1      42.199  21.823  29.658  1.00  0.00     0.039 C 
ATOM     10  G   UNL     1      39.751  21.055  29.211  1.00  0.00     0.000 G0
ENDBRANCH   6   7
ENDBRANCH   5   6
ENDBRANCH   3   5
ENDBRANCH   1   3
BRANCH   1  11
ATOM     11  C   UNL     1      37.597  21.178  27.220  1.00  0.00     0.087 C 
BRANCH  11  12
ATOM     12  C   UNL     1      38.722  20.136  26.948  1.00  0.00     0.066 C 
BRANCH  12  13
ATOM     13  C   UNL     1      39.866  20.219  27.960  1.00  0.00     0.140 C 
ATOM     14  O   UNL     1      40.917  19.638  27.735  1.00  0.00    -0.299 OA
BRANCH  13  15
ATOM     15  C   UNL     1      39.756  21.035  29.227  1.00  0.00     0.106 CG0
ATOM     16  G   UNL     1      40.775  22.155  29.293  1.00  0.00     0.000 G0
ENDBRANCH  13  15
ENDBRANCH  12  13
BRANCH  12  17
ATOM     17  C   UNL     1      38.189  18.690  26.687  1.00  0.00    -0.006 C 
ATOM     18  C   UNL     1      38.737  18.018  25.418  1.00  0.00     0.008 C 
ATOM     19  C   UNL     1      36.652  18.644  26.697  1.00  0.00     0.008 C 
ENDBRANCH  12  17
ENDBRANCH  11  12
ENDBRANCH   1  11
TORSDOF 1
ENDMDL
MODEL 4
REMARK VINA RESULT:    -3.841      1.876      4.163
REMARK INTER + INTRA:          -5.980
REMARK INTER:                  -5.536
REMARK INTRA:                  -0.443
REMARK UNBOUND:                -0.118
REMARK SMILES CC1=CCC[C@H](C)C(=O)C[C@H](C(C)C)C(=O)C1
REMARK SMILES IDX 8 1 9 2 6 3 7 4 5 5 4 6 3 7 2 8 1 9 10 11 11 12 15 13 16 14
REMARK SMILES IDX 17 15 12 17 13 18 14 19
REMARK H PARENT
REMARK Flexibility Score: 70.00
ROOT
ATOM      1  C   UNL     1      41.437  18.080  25.313  1.00  0.00     0.136 C 
ATOM      2  O   UNL     1      42.393  18.372  24.608  1.00  0.00    -0.299 OA
ENDROOT
BRANCH   1   3
ATOM      3  C   UNL     1      41.559  18.197  26.821  1.00  0.00     0.053 C 
ATOM      4  C   UNL     1      42.939  17.710  27.285  1.00  0.00     0.016 C 
BRANCH   3   5
ATOM      5  C   UNL     1      41.293  19.664  27.269  1.00  0.00     0.015 C 
BRANCH   5   6
ATOM      6  C   UNL     1      39.990  19.867  28.069  1.00  0.00     0.028 C 
BRANCH   6   7
ATOM      7  C   UNL     1      38.913  20.678  27.379  1.00  0.00    -0.028 C 
ATOM      8  C   UNL     1      37.792  20.191  26.799  1.00  0.00    -0.070 CG0
ATOM      9  C   UNL     1      36.920  21.159  26.035  1.00  0.00     0.039 C 
ATOM     10  G   UNL     1      37.375  18.735  26.872  1.00  0.00     0.000 G0
ENDBRANCH   6   7
ENDBRANCH   5   6
ENDBRANCH   3   5
ENDBRANCH   1   3
BRANCH   1  11
ATOM     11  C   UNL     1      40.141  17.642  24.665  1.00  0.00     0.087 C 
BRANCH  11  12
ATOM     12  C   UNL     1      39.074  17.096  25.661  1.00  0.00     0.066 C 
BRANCH  12  13
ATOM     13  C   UNL     1      37.783  17.916  25.657  1.00  0.00     0.140 C 
ATOM     14  O   UNL     1      37.058  17.901  24.674  1.00  0.00    -0.299 OA
BRANCH  13  15
ATOM     15  C   UNL     1      37.346  18.726  26.855  1.00  0.00     0.106 CG0
ATOM     16  G   UNL     1      37.797  20.172  26.782  1.00  0.00     0.000 G0
ENDBRANCH  13  15
ENDBRANCH  12  13
BRANCH  12  17
ATOM     17  C   UNL     1      38.862  15.550  25.567  1.00  0.00    -0.006 C 
ATOM     18  C   UNL     1      39.901  14.708  26.324  1.00  0.00     0.008 C 
ATOM     19  C   UNL     1      38.754  15.082  24.106  1.00  0.00     0.008 C 
ENDBRANCH  12  17
ENDBRANCH  11  12
ENDBRANCH   1  11
TORSDOF 1
ENDMDL
MODEL 5
REMARK VINA RESULT:    -3.817      1.892      4.296
REMARK INTER + INTRA:          -5.943
REMARK INTER:                  -5.460
REMARK INTRA:                  -0.483
REMARK UNBOUND:                -0.118
REMARK SMILES CC1=CCC[C@H](C)C(=O)C[C@H](C(C)C)C(=O)C1
REMARK SMILES IDX 8 1 9 2 6 3 7 4 5 5 4 6 3 7 2 8 1 9 10 11 11 12 15 13 16 14
REMARK SMILES IDX 17 15 12 17 13 18 14 19
REMARK H PARENT
REMARK Flexibility Score: 70.00
ROOT
ATOM      1  C   UNL     1      37.825  20.106  25.479  1.00  0.00     0.136 C 
ATOM      2  O   UNL     1      37.677  20.393  24.299  1.00  0.00    -0.299 OA
ENDROOT
BRANCH   1   3
ATOM      3  C   UNL     1      37.240  18.810  26.010  1.00  0.00     0.053 C 
ATOM      4  C   UNL     1      35.706  18.871  25.999  1.00  0.00     0.016 C 
BRANCH   3   5
ATOM      5  C   UNL     1      37.768  17.603  25.181  1.00  0.00     0.015 C 
BRANCH   5   6
ATOM      6  C   UNL     1      38.988  16.885  25.792  1.00  0.00     0.028 C 
BRANCH   6   7
ATOM      7  C   UNL     1      40.343  17.429  25.390  1.00  0.00    -0.028 C 
ATOM      8  C   UNL     1      41.154  18.202  26.149  1.00  0.00    -0.070 CG0
ATOM      9  C   UNL     1      42.398  18.760  25.501  1.00  0.00     0.039 C 
ATOM     10  G   UNL     1      40.875  18.535  27.601  1.00  0.00     0.000 G0
ENDBRANCH   6   7
ENDBRANCH   5   6
ENDBRANCH   3   5
ENDBRANCH   1   3
BRANCH   1  11
ATOM     11  C   UNL     1      38.620  21.030  26.375  1.00  0.00     0.087 C 
BRANCH  11  12
ATOM     12  C   UNL     1      39.010  20.415  27.753  1.00  0.00     0.066 C 
BRANCH  12  13
ATOM     13  C   UNL     1      40.472  19.969  27.811  1.00  0.00     0.140 C 
ATOM     14  O   UNL     1      41.345  20.786  28.065  1.00  0.00    -0.299 OA
BRANCH  13  15
ATOM     15  C   UNL     1      40.879  18.530  27.601  1.00  0.00     0.106 CG0
ATOM     16  G   UNL     1      41.158  18.205  26.147  1.00  0.00     0.000 G0
ENDBRANCH  13  15
ENDBRANCH  12  13
BRANCH  12  17
ATOM     17  C   UNL     1      38.541  21.268  28.976  1.00  0.00    -0.006 C 
ATOM     18  C   UNL     1      37.922  20.460  30.127  1.00  0.00     0.008 C 
ATOM     19  C   UNL     1      37.594  22.401  28.546  1.00  0.00     0.008 C 
ENDBRANCH  12  17
ENDBRANCH  11  12
ENDBRANCH   1  11
TORSDOF 1
ENDMDL
MODEL 6
REMARK VINA RESULT:    -3.736      1.900      4.280
REMARK INTER + INTRA:          -5.820
REMARK INTER:                  -5.453
REMARK INTRA:                  -0.367
REMARK UNBOUND:                -0.118
REMARK SMILES CC1=CCC[C@H](C)C(=O)C[C@H](C(C)C)C(=O)C1
REMARK SMILES IDX 8 1 9 2 6 3 7 4 5 5 4 6 3 7 2 8 1 9 10 11 11 12 15 13 16 14
REMARK SMILES IDX 17 15 12 17 13 18 14 19
REMARK H PARENT
REMARK Flexibility Score: 70.00
ROOT
ATOM      1  C   UNL     1      38.103  20.262  28.542  1.00  0.00     0.136 C 
ATOM      2  O   UNL     1      38.044  20.058  29.747  1.00  0.00    -0.299 OA
ENDROOT
BRANCH   1   3
ATOM      3  C   UNL     1      38.931  21.422  28.022  1.00  0.00     0.053 C 
ATOM      4  C   UNL     1      38.389  22.752  28.564  1.00  0.00     0.016 C 
BRANCH   3   5
ATOM      5  C   UNL     1      40.429  21.223  28.395  1.00  0.00     0.015 C 
BRANCH   5   6
ATOM      6  C   UNL     1      40.930  19.768  28.300  1.00  0.00     0.028 C 
BRANCH   6   7
ATOM      7  C   UNL     1      41.514  19.357  26.964  1.00  0.00    -0.028 C 
ATOM      8  C   UNL     1      41.083  18.343  26.179  1.00  0.00    -0.070 CG0
ATOM      9  C   UNL     1      41.900  18.008  24.955  1.00  0.00     0.039 C 
ATOM     10  G   UNL     1      39.836  17.532  26.468  1.00  0.00     0.000 G0
ENDBRANCH   6   7
ENDBRANCH   5   6
ENDBRANCH   3   5
ENDBRANCH   1   3
BRANCH   1  11
ATOM     11  C   UNL     1      37.380  19.330  27.594  1.00  0.00     0.087 C 
BRANCH  11  12
ATOM     12  C   UNL     1      37.925  19.343  26.135  1.00  0.00     0.066 C 
BRANCH  12  13
ATOM     13  C   UNL     1      38.603  18.030  25.742  1.00  0.00     0.140 C 
ATOM     14  O   UNL     1      38.169  17.381  24.802  1.00  0.00    -0.299 OA
BRANCH  13  15
ATOM     15  C   UNL     1      39.829  17.515  26.460  1.00  0.00     0.106 CG0
ATOM     16  G   UNL     1      41.068  18.340  26.170  1.00  0.00     0.000 G0
ENDBRANCH  13  15
ENDBRANCH  12  13
BRANCH  12  17
ATOM     17  C   UNL     1      36.900  19.884  25.086  1.00  0.00    -0.006 C 
ATOM     18  C   UNL     1      36.977  21.397  24.828  1.00  0.00     0.008 C 
ATOM     19  C   UNL     1      35.460  19.473  25.439  1.00  0.00     0.008 C 
ENDBRANCH  12  17
ENDBRANCH  11  12
ENDBRANCH   1  11
TORSDOF 1
ENDMDL
MODEL 7
REMARK VINA RESULT:    -3.734      1.775      2.391
REMARK INTER + INTRA:          -5.817
REMARK INTER:                  -5.584
REMARK INTRA:                  -0.234
REMARK UNBOUND:                -0.118
REMARK SMILES CC1=CCC[C@H](C)C(=O)C[C@H](C(C)C)C(=O)C1
REMARK SMILES IDX 8 1 9 2 6 3 7 4 5 5 4 6 3 7 2 8 1 9 10 11 11 12 15 13 16 14
REMARK SMILES IDX 17 15 12 17 13 18 14 19
REMARK H PARENT
REMARK Flexibility Score: 70.00
ROOT
ATOM      1  C   UNL     1      38.102  17.959  25.364  1.00  0.00     0.136 C 
ATOM      2  O   UNL     1      38.512  17.165  24.528  1.00  0.00    -0.299 OA
ENDROOT
BRANCH   1   3
ATOM      3  C   UNL     1      36.816  18.721  25.101  1.00  0.00     0.053 C 
ATOM      4  C   UNL     1      35.820  18.500  26.249  1.00  0.00     0.016 C 
BRANCH   3   5
ATOM      5  C   UNL     1      37.121  20.233  24.894  1.00  0.00     0.015 C 
BRANCH   5   6
ATOM      6  C   UNL     1      36.392  21.177  25.871  1.00  0.00     0.028 C 
BRANCH   6   7
ATOM      7  C   UNL     1      37.241  22.268  26.491  1.00  0.00    -0.028 C 
ATOM      8  C   UNL     1      38.059  22.137  27.561  1.00  0.00    -0.070 CG0
ATOM      9  C   UNL     1      38.703  23.388  28.109  1.00  0.00     0.039 C 
ATOM     10  G   UNL     1      38.354  20.810  28.232  1.00  0.00     0.000 G0
ENDBRANCH   6   7
ENDBRANCH   5   6
ENDBRANCH   3   5
ENDBRANCH   1   3
BRANCH   1  11
ATOM     11  C   UNL     1      38.865  18.136  26.659  1.00  0.00     0.087 C 
BRANCH  11  12
ATOM     12  C   UNL     1      39.875  19.322  26.656  1.00  0.00     0.066 C 
BRANCH  12  13
ATOM     13  C   UNL     1      39.701  20.253  27.857  1.00  0.00     0.140 C 
ATOM     14  O   UNL     1      40.677  20.581  28.515  1.00  0.00    -0.299 OA
BRANCH  13  15
ATOM     15  C   UNL     1      38.355  20.820  28.242  1.00  0.00     0.106 CG0
ATOM     16  G   UNL     1      38.062  22.146  27.569  1.00  0.00     0.000 G0
ENDBRANCH  13  15
ENDBRANCH  12  13
BRANCH  12  17
ATOM     17  C   UNL     1      41.351  18.889  26.378  1.00  0.00    -0.006 C 
ATOM     18  C   UNL     1      41.741  18.839  24.892  1.00  0.00     0.008 C 
ATOM     19  C   UNL     1      41.689  17.555  27.065  1.00  0.00     0.008 C 
ENDBRANCH  12  17
ENDBRANCH  11  12
ENDBRANCH   1  11
TORSDOF 1
ENDMDL
MODEL 8
REMARK VINA RESULT:    -3.667      1.729      4.225
REMARK INTER + INTRA:          -5.716
REMARK INTER:                  -5.815
REMARK INTRA:                   0.100
REMARK UNBOUND:                -0.118
REMARK SMILES CC1=CCC[C@H](C)C(=O)C[C@H](C(C)C)C(=O)C1
REMARK SMILES IDX 8 1 9 2 6 3 7 4 5 5 4 6 3 7 2 8 1 9 10 11 11 12 15 13 16 14
REMARK SMILES IDX 17 15 12 17 13 18 14 19
REMARK H PARENT
REMARK Flexibility Score: 70.00
ROOT
ATOM      1  C   UNL     1      38.407  16.492  26.088  1.00  0.00     0.136 C 
ATOM      2  O   UNL     1      38.073  16.382  27.259  1.00  0.00    -0.299 OA
ENDROOT
BRANCH   1   3
ATOM      3  C   UNL     1      39.122  15.341  25.405  1.00  0.00     0.053 C 
ATOM      4  C   UNL     1      38.778  15.311  23.909  1.00  0.00     0.016 C 
BRANCH   3   5
ATOM      5  C   UNL     1      40.658  15.451  25.634  1.00  0.00     0.015 C 
BRANCH   5   6
ATOM      6  C   UNL     1      41.307  16.724  25.054  1.00  0.00     0.028 C 
BRANCH   6   7
ATOM      7  C   UNL     1      41.847  17.710  26.069  1.00  0.00    -0.028 C 
ATOM      8  C   UNL     1      41.471  19.002  26.210  1.00  0.00    -0.070 CG0
ATOM      9  C   UNL     1      42.242  19.853  27.189  1.00  0.00     0.039 C 
ATOM     10  G   UNL     1      40.328  19.631  25.438  1.00  0.00     0.000 G0
ENDBRANCH   6   7
ENDBRANCH   5   6
ENDBRANCH   3   5
ENDBRANCH   1   3
BRANCH   1  11
ATOM     11  C   UNL     1      38.065  17.759  25.333  1.00  0.00     0.087 C 
BRANCH  11  12
ATOM     12  C   UNL     1      37.862  19.013  26.236  1.00  0.00     0.066 C 
BRANCH  12  13
ATOM     13  C   UNL     1      39.111  19.890  26.323  1.00  0.00     0.140 C 
ATOM     14  O   UNL     1      39.156  20.801  27.136  1.00  0.00    -0.299 OA
BRANCH  13  15
ATOM     15  C   UNL     1      40.324  19.646  25.455  1.00  0.00     0.106 CG0
ATOM     16  G   UNL     1      41.470  19.009  26.214  1.00  0.00     0.000 G0
ENDBRANCH  13  15
ENDBRANCH  12  13
BRANCH  12  17
ATOM     17  C   UNL     1      36.540  19.792  25.939  1.00  0.00    -0.006 C 
ATOM     18  C   UNL     1      35.326  18.906  25.616  1.00  0.00     0.008 C 
ATOM     19  C   UNL     1      36.740  20.847  24.838  1.00  0.00     0.008 C 
ENDBRANCH  12  17
ENDBRANCH  11  12
ENDBRANCH   1  11
TORSDOF 1
ENDMDL
MODEL 9
REMARK VINA RESULT:    -3.633      1.897      3.548
REMARK INTER + INTRA:          -5.664
REMARK INTER:                  -5.808
REMARK INTRA:                   0.144
REMARK UNBOUND:                -0.118
REMARK SMILES CC1=CCC[C@H](C)C(=O)C[C@H](C(C)C)C(=O)C1
REMARK SMILES IDX 8 1 9 2 6 3 7 4 5 5 4 6 3 7 2 8 1 9 10 11 11 12 15 13 16 14
REMARK SMILES IDX 17 15 12 17 13 18 14 19
REMARK H PARENT
REMARK Flexibility Score: 70.00
ROOT
ATOM      1  C   UNL     1      38.148  20.478  27.715  1.00  0.00     0.136 C 
ATOM      2  O   UNL     1      38.030  19.983  28.828  1.00  0.00    -0.299 OA
ENDROOT
BRANCH   1   3
ATOM      3  C   UNL     1      37.337  21.709  27.357  1.00  0.00     0.053 C 
ATOM      4  C   UNL     1      37.463  22.772  28.457  1.00  0.00     0.016 C 
BRANCH   3   5
ATOM      5  C   UNL     1      37.786  22.264  25.974  1.00  0.00     0.015 C 
BRANCH   5   6
ATOM      6  C   UNL     1      37.252  21.479  24.759  1.00  0.00     0.028 C 
BRANCH   6   7
ATOM      7  C   UNL     1      35.947  20.739  24.974  1.00  0.00    -0.028 C 
ATOM      8  C   UNL     1      35.770  19.399  24.935  1.00  0.00    -0.070 CG0
ATOM      9  C   UNL     1      34.358  18.875  25.029  1.00  0.00     0.039 C 
ATOM     10  G   UNL     1      36.908  18.407  24.797  1.00  0.00     0.000 G0
ENDBRANCH   6   7
ENDBRANCH   5   6
ENDBRANCH   3   5
ENDBRANCH   1   3
BRANCH   1  11
ATOM     11  C   UNL     1      39.129  19.874  26.734  1.00  0.00     0.087 C 
BRANCH  11  12
ATOM     12  C   UNL     1      38.941  18.347  26.490  1.00  0.00     0.066 C 
BRANCH  12  13
ATOM     13  C   UNL     1      37.508  17.980  26.101  1.00  0.00     0.140 C 
ATOM     14  O   UNL     1      36.808  17.357  26.886  1.00  0.00    -0.299 OA
BRANCH  13  15
ATOM     15  C   UNL     1      36.904  18.398  24.781  1.00  0.00     0.106 CG0
ATOM     16  G   UNL     1      35.774  19.395  24.941  1.00  0.00     0.000 G0
ENDBRANCH  13  15
ENDBRANCH  12  13
BRANCH  12  17
ATOM     17  C   UNL     1      40.043  17.717  25.578  1.00  0.00    -0.006 C 
ATOM     18  C   UNL     1      41.163  16.982  26.331  1.00  0.00     0.008 C 
ATOM     19  C   UNL     1      40.639  18.754  24.611  1.00  0.00     0.008 C 
ENDBRANCH  12  17
ENDBRANCH  11  12
ENDBRANCH   1  11
TORSDOF 1
ENDMDL
