MODEL 1
REMARK VINA RESULT:    -4.065      0.000      0.000
REMARK INTER + INTRA:          -8.646
REMARK INTER:                  -7.629
REMARK INTRA:                  -1.017
REMARK UNBOUND:                -1.017
REMARK SMILES O=C([O-])CCCCCCCCCCCCCCC(=O)[O-]
REMARK SMILES IDX 10 1 9 2 8 3 7 4 6 5 5 6 4 7 2 8 1 9 3 10 11 11 12 12 13 13
REMARK SMILES IDX 14 14 15 15 16 16 17 17 18 18 19 19 20 20
REMARK H PARENT
REMARK Flexibility Score: inf
ROOT
ATOM      1  C   UNL     1      57.465  36.684  52.466  1.00  0.00     0.000 C 
ENDROOT
BRANCH   1   2
ATOM      2  C   UNL     1      58.337  35.426  52.329  1.00  0.00     0.000 C 
BRANCH   2   3
ATOM      3  C   UNL     1      59.044  35.341  50.967  1.00  0.00     0.000 C 
BRANCH   3   4
ATOM      4  C   UNL     1      58.262  36.043  49.847  1.00  0.00     0.000 C 
BRANCH   4   5
ATOM      5  C   UNL     1      59.100  36.126  48.563  1.00  0.00     0.000 C 
BRANCH   5   6
ATOM      6  C   UNL     1      60.387  35.290  48.638  1.00  0.00     0.006 C 
BRANCH   6   7
ATOM      7  C   UNL     1      61.533  35.893  47.816  1.00  0.00     0.053 C 
BRANCH   7   8
ATOM      8  C   UNL     1      62.219  36.973  48.592  1.00  0.00     0.041 C 
ATOM      9  O   UNL     1      61.940  38.182  48.378  1.00  0.00    -0.550 OA
ATOM     10  O   UNL     1      63.206  36.647  49.514  1.00  0.00    -0.550 OA
ENDBRANCH   7   8
ENDBRANCH   6   7
ENDBRANCH   5   6
ENDBRANCH   4   5
ENDBRANCH   3   4
ENDBRANCH   2   3
ENDBRANCH   1   2
BRANCH   1  11
ATOM     11  C   UNL     1      57.728  37.391  53.800  1.00  0.00     0.000 C 
BRANCH  11  12
ATOM     12  C   UNL     1      58.759  36.619  54.638  1.00  0.00     0.000 C 
BRANCH  12  13
ATOM     13  C   UNL     1      59.646  37.542  55.493  1.00  0.00     0.000 C 
BRANCH  13  14
ATOM     14  C   UNL     1      58.918  38.255  56.650  1.00  0.00     0.000 C 
BRANCH  14  15
ATOM     15  C   UNL     1      59.484  37.969  58.055  1.00  0.00     0.000 C 
BRANCH  15  16
ATOM     16  C   UNL     1      60.884  37.333  58.074  1.00  0.00     0.006 C 
BRANCH  16  17
ATOM     17  C   UNL     1      61.941  38.238  58.718  1.00  0.00     0.053 C 
BRANCH  17  18
ATOM     18  C   UNL     1      63.011  38.579  57.729  1.00  0.00     0.041 C 
ATOM     19  O   UNL     1      62.948  38.137  56.550  1.00  0.00    -0.550 OA
ATOM     20  O   UNL     1      64.101  39.344  58.120  1.00  0.00    -0.550 OA
ENDBRANCH  17  18
ENDBRANCH  16  17
ENDBRANCH  15  16
ENDBRANCH  14  15
ENDBRANCH  13  14
ENDBRANCH  12  13
ENDBRANCH  11  12
ENDBRANCH   1  11
TORSDOF 15
ENDMDL
MODEL 2
REMARK VINA RESULT:    -3.968     12.351     15.955
REMARK INTER + INTRA:          -8.464
REMARK INTER:                  -7.671
REMARK INTRA:                  -0.793
REMARK UNBOUND:                -1.017
REMARK SMILES O=C([O-])CCCCCCCCCCCCCCC(=O)[O-]
REMARK SMILES IDX 10 1 9 2 8 3 7 4 6 5 5 6 4 7 2 8 1 9 3 10 11 11 12 12 13 13
REMARK SMILES IDX 14 14 15 15 16 16 17 17 18 18 19 19 20 20
REMARK H PARENT
REMARK Flexibility Score: inf
ROOT
ATOM      1  C   UNL     1      67.482  50.777  57.352  1.00  0.00     0.000 C 
ENDROOT
BRANCH   1   2
ATOM      2  C   UNL     1      67.457  49.241  57.293  1.00  0.00     0.000 C 
BRANCH   2   3
ATOM      3  C   UNL     1      66.307  48.636  58.113  1.00  0.00     0.000 C 
BRANCH   3   4
ATOM      4  C   UNL     1      66.383  47.104  58.201  1.00  0.00     0.000 C 
BRANCH   4   5
ATOM      5  C   UNL     1      64.977  46.488  58.244  1.00  0.00     0.000 C 
BRANCH   5   6
ATOM      6  C   UNL     1      65.003  44.953  58.311  1.00  0.00     0.006 C 
BRANCH   6   7
ATOM      7  C   UNL     1      65.841  44.325  57.190  1.00  0.00     0.053 C 
BRANCH   7   8
ATOM      8  C   UNL     1      65.802  42.833  57.282  1.00  0.00     0.041 C 
ATOM      9  O   UNL     1      64.783  42.253  57.742  1.00  0.00    -0.550 OA
ATOM     10  O   UNL     1      66.911  42.084  56.910  1.00  0.00    -0.550 OA
ENDBRANCH   7   8
ENDBRANCH   6   7
ENDBRANCH   5   6
ENDBRANCH   4   5
ENDBRANCH   3   4
ENDBRANCH   2   3
ENDBRANCH   1   2
BRANCH   1  11
ATOM     11  C   UNL     1      68.208  51.360  56.134  1.00  0.00     0.000 C 
BRANCH  11  12
ATOM     12  C   UNL     1      69.217  50.353  55.561  1.00  0.00     0.000 C 
BRANCH  12  13
ATOM     13  C   UNL     1      70.325  51.025  54.731  1.00  0.00     0.000 C 
BRANCH  13  14
ATOM     14  C   UNL     1      69.995  52.448  54.234  1.00  0.00     0.000 C 
BRANCH  14  15
ATOM     15  C   UNL     1      70.639  52.837  52.888  1.00  0.00     0.000 C 
BRANCH  15  16
ATOM     16  C   UNL     1      71.067  51.652  52.007  1.00  0.00     0.006 C 
BRANCH  16  17
ATOM     17  C   UNL     1      70.524  51.747  50.576  1.00  0.00     0.053 C 
BRANCH  17  18
ATOM     18  C   UNL     1      69.093  51.311  50.530  1.00  0.00     0.041 C 
ATOM     19  O   UNL     1      68.285  51.871  49.742  1.00  0.00    -0.550 OA
ATOM     20  O   UNL     1      68.640  50.321  51.393  1.00  0.00    -0.550 OA
ENDBRANCH  17  18
ENDBRANCH  16  17
ENDBRANCH  15  16
ENDBRANCH  14  15
ENDBRANCH  13  14
ENDBRANCH  12  13
ENDBRANCH  11  12
ENDBRANCH   1  11
TORSDOF 15
ENDMDL
MODEL 3
REMARK VINA RESULT:    -3.878      1.355      2.699
REMARK INTER + INTRA:          -8.297
REMARK INTER:                  -7.141
REMARK INTRA:                  -1.156
REMARK UNBOUND:                -1.017
REMARK SMILES O=C([O-])CCCCCCCCCCCCCCC(=O)[O-]
REMARK SMILES IDX 10 1 9 2 8 3 7 4 6 5 5 6 4 7 2 8 1 9 3 10 11 11 12 12 13 13
REMARK SMILES IDX 14 14 15 15 16 16 17 17 18 18 19 19 20 20
REMARK H PARENT
REMARK Flexibility Score: inf
ROOT
ATOM      1  C   UNL     1      59.239  34.916  50.475  1.00  0.00     0.000 C 
ENDROOT
BRANCH   1   2
ATOM      2  C   UNL     1      58.577  35.903  49.501  1.00  0.00     0.000 C 
BRANCH   2   3
ATOM      3  C   UNL     1      58.269  35.270  48.135  1.00  0.00     0.000 C 
BRANCH   3   4
ATOM      4  C   UNL     1      58.651  36.182  46.959  1.00  0.00     0.000 C 
BRANCH   4   5
ATOM      5  C   UNL     1      59.758  35.543  46.108  1.00  0.00     0.000 C 
BRANCH   5   6
ATOM      6  C   UNL     1      61.145  36.144  46.387  1.00  0.00     0.006 C 
BRANCH   6   7
ATOM      7  C   UNL     1      61.811  35.540  47.630  1.00  0.00     0.053 C 
BRANCH   7   8
ATOM      8  C   UNL     1      62.155  36.615  48.611  1.00  0.00     0.041 C 
ATOM      9  O   UNL     1      61.624  37.754  48.517  1.00  0.00    -0.550 OA
ATOM     10  O   UNL     1      63.103  36.378  49.599  1.00  0.00    -0.550 OA
ENDBRANCH   7   8
ENDBRANCH   6   7
ENDBRANCH   5   6
ENDBRANCH   4   5
ENDBRANCH   3   4
ENDBRANCH   2   3
ENDBRANCH   1   2
BRANCH   1  11
ATOM     11  C   UNL     1      58.784  35.178  51.916  1.00  0.00     0.000 C 
BRANCH  11  12
ATOM     12  C   UNL     1      57.850  36.397  51.983  1.00  0.00     0.000 C 
BRANCH  12  13
ATOM     13  C   UNL     1      57.510  36.808  53.427  1.00  0.00     0.000 C 
BRANCH  13  14
ATOM     14  C   UNL     1      58.410  36.183  54.512  1.00  0.00     0.000 C 
BRANCH  14  15
ATOM     15  C   UNL     1      59.499  37.116  55.077  1.00  0.00     0.000 C 
BRANCH  15  16
ATOM     16  C   UNL     1      58.989  38.196  56.047  1.00  0.00     0.006 C 
BRANCH  16  17
ATOM     17  C   UNL     1      59.035  37.748  57.513  1.00  0.00     0.053 C 
BRANCH  17  18
ATOM     18  C   UNL     1      60.272  38.265  58.179  1.00  0.00     0.041 C 
ATOM     19  O   UNL     1      60.190  39.164  59.057  1.00  0.00    -0.550 OA
ATOM     20  O   UNL     1      61.518  37.788  57.795  1.00  0.00    -0.550 OA
ENDBRANCH  17  18
ENDBRANCH  16  17
ENDBRANCH  15  16
ENDBRANCH  14  15
ENDBRANCH  13  14
ENDBRANCH  12  13
ENDBRANCH  11  12
ENDBRANCH   1  11
TORSDOF 15
ENDMDL
MODEL 4
REMARK VINA RESULT:    -3.865      2.605      9.282
REMARK INTER + INTRA:          -8.272
REMARK INTER:                  -7.145
REMARK INTRA:                  -1.126
REMARK UNBOUND:                -1.017
REMARK SMILES O=C([O-])CCCCCCCCCCCCCCC(=O)[O-]
REMARK SMILES IDX 10 1 9 2 8 3 7 4 6 5 5 6 4 7 2 8 1 9 3 10 11 11 12 12 13 13
REMARK SMILES IDX 14 14 15 15 16 16 17 17 18 18 19 19 20 20
REMARK H PARENT
REMARK Flexibility Score: inf
ROOT
ATOM      1  C   UNL     1      59.001  35.289  49.829  1.00  0.00     0.000 C 
ENDROOT
BRANCH   1   2
ATOM      2  C   UNL     1      58.917  35.114  51.353  1.00  0.00     0.000 C 
BRANCH   2   3
ATOM      3  C   UNL     1      58.070  36.203  52.029  1.00  0.00     0.000 C 
BRANCH   3   4
ATOM      4  C   UNL     1      57.935  35.994  53.545  1.00  0.00     0.000 C 
BRANCH   4   5
ATOM      5  C   UNL     1      57.849  37.342  54.278  1.00  0.00     0.000 C 
BRANCH   5   6
ATOM      6  C   UNL     1      58.879  37.468  55.412  1.00  0.00     0.006 C 
BRANCH   6   7
ATOM      7  C   UNL     1      60.160  36.670  55.138  1.00  0.00     0.053 C 
BRANCH   7   8
ATOM      8  C   UNL     1      61.311  37.259  55.890  1.00  0.00     0.041 C 
ATOM      9  O   UNL     1      62.167  37.963  55.290  1.00  0.00    -0.550 OA
ATOM     10  O   UNL     1      61.471  36.987  57.243  1.00  0.00    -0.550 OA
ENDBRANCH   7   8
ENDBRANCH   6   7
ENDBRANCH   5   6
ENDBRANCH   4   5
ENDBRANCH   3   4
ENDBRANCH   2   3
ENDBRANCH   1   2
BRANCH   1  11
ATOM     11  C   UNL     1      60.456  35.457  49.376  1.00  0.00     0.000 C 
BRANCH  11  12
ATOM     12  C   UNL     1      60.527  35.857  47.894  1.00  0.00     0.000 C 
BRANCH  12  13
ATOM     13  C   UNL     1      60.370  37.372  47.676  1.00  0.00     0.000 C 
BRANCH  13  14
ATOM     14  C   UNL     1      59.047  37.800  47.008  1.00  0.00     0.000 C 
BRANCH  14  15
ATOM     15  C   UNL     1      58.234  36.655  46.372  1.00  0.00     0.000 C 
BRANCH  15  16
ATOM     16  C   UNL     1      58.256  36.619  44.835  1.00  0.00     0.006 C 
BRANCH  16  17
ATOM     17  C   UNL     1      59.239  35.582  44.277  1.00  0.00     0.053 C 
BRANCH  17  18
ATOM     18  C   UNL     1      60.497  36.249  43.818  1.00  0.00     0.041 C 
ATOM     19  O   UNL     1      60.507  36.915  42.749  1.00  0.00    -0.550 OA
ATOM     20  O   UNL     1      61.671  36.093  44.544  1.00  0.00    -0.550 OA
ENDBRANCH  17  18
ENDBRANCH  16  17
ENDBRANCH  15  16
ENDBRANCH  14  15
ENDBRANCH  13  14
ENDBRANCH  12  13
ENDBRANCH  11  12
ENDBRANCH   1  11
TORSDOF 15
ENDMDL
MODEL 5
REMARK VINA RESULT:    -3.831      0.936      8.352
REMARK INTER + INTRA:          -8.207
REMARK INTER:                  -7.371
REMARK INTRA:                  -0.836
REMARK UNBOUND:                -1.017
REMARK SMILES O=C([O-])CCCCCCCCCCCCCCC(=O)[O-]
REMARK SMILES IDX 10 1 9 2 8 3 7 4 6 5 5 6 4 7 2 8 1 9 3 10 11 11 12 12 13 13
REMARK SMILES IDX 14 14 15 15 16 16 17 17 18 18 19 19 20 20
REMARK H PARENT
REMARK Flexibility Score: inf
ROOT
ATOM      1  C   UNL     1      59.603  37.298  55.363  1.00  0.00     0.000 C 
ENDROOT
BRANCH   1   2
ATOM      2  C   UNL     1      58.797  38.325  56.173  1.00  0.00     0.000 C 
BRANCH   2   3
ATOM      3  C   UNL     1      59.079  38.245  57.681  1.00  0.00     0.000 C 
BRANCH   3   4
ATOM      4  C   UNL     1      60.066  37.124  58.041  1.00  0.00     0.000 C 
BRANCH   4   5
ATOM      5  C   UNL     1      61.148  37.635  59.003  1.00  0.00     0.000 C 
BRANCH   5   6
ATOM      6  C   UNL     1      62.382  38.186  58.271  1.00  0.00     0.006 C 
BRANCH   6   7
ATOM      7  C   UNL     1      62.949  39.448  58.934  1.00  0.00     0.053 C 
BRANCH   7   8
ATOM      8  C   UNL     1      64.189  39.896  58.227  1.00  0.00     0.041 C 
ATOM      9  O   UNL     1      65.026  39.049  57.817  1.00  0.00    -0.550 OA
ATOM     10  O   UNL     1      64.447  41.252  58.067  1.00  0.00    -0.550 OA
ENDBRANCH   7   8
ENDBRANCH   6   7
ENDBRANCH   5   6
ENDBRANCH   4   5
ENDBRANCH   3   4
ENDBRANCH   2   3
ENDBRANCH   1   2
BRANCH   1  11
ATOM     11  C   UNL     1      58.673  36.368  54.575  1.00  0.00     0.000 C 
BRANCH  11  12
ATOM     12  C   UNL     1      57.825  37.163  53.570  1.00  0.00     0.000 C 
BRANCH  12  13
ATOM     13  C   UNL     1      57.645  36.430  52.229  1.00  0.00     0.000 C 
BRANCH  13  14
ATOM     14  C   UNL     1      58.833  35.539  51.809  1.00  0.00     0.000 C 
BRANCH  14  15
ATOM     15  C   UNL     1      58.849  35.125  50.324  1.00  0.00     0.000 C 
BRANCH  15  16
ATOM     16  C   UNL     1      59.131  36.269  49.335  1.00  0.00     0.006 C 
BRANCH  16  17
ATOM     17  C   UNL     1      60.231  35.924  48.324  1.00  0.00     0.053 C 
BRANCH  17  18
ATOM     18  C   UNL     1      61.414  36.820  48.511  1.00  0.00     0.041 C 
ATOM     19  O   UNL     1      61.394  37.997  48.062  1.00  0.00    -0.550 OA
ATOM     20  O   UNL     1      62.556  36.341  49.138  1.00  0.00    -0.550 OA
ENDBRANCH  17  18
ENDBRANCH  16  17
ENDBRANCH  15  16
ENDBRANCH  14  15
ENDBRANCH  13  14
ENDBRANCH  12  13
ENDBRANCH  11  12
ENDBRANCH   1  11
TORSDOF 15
ENDMDL
MODEL 6
REMARK VINA RESULT:    -3.823     12.553     15.311
REMARK INTER + INTRA:          -8.194
REMARK INTER:                  -7.230
REMARK INTRA:                  -0.963
REMARK UNBOUND:                -1.017
REMARK SMILES O=C([O-])CCCCCCCCCCCCCCC(=O)[O-]
REMARK SMILES IDX 10 1 9 2 8 3 7 4 6 5 5 6 4 7 2 8 1 9 3 10 11 11 12 12 13 13
REMARK SMILES IDX 14 14 15 15 16 16 17 17 18 18 19 19 20 20
REMARK H PARENT
REMARK Flexibility Score: inf
ROOT
ATOM      1  C   UNL     1      68.487  51.147  56.611  1.00  0.00     0.000 C 
ENDROOT
BRANCH   1   2
ATOM      2  C   UNL     1      69.443  52.071  55.842  1.00  0.00     0.000 C 
BRANCH   2   3
ATOM      3  C   UNL     1      70.715  51.349  55.371  1.00  0.00     0.000 C 
BRANCH   3   4
ATOM      4  C   UNL     1      70.978  51.529  53.869  1.00  0.00     0.000 C 
BRANCH   4   5
ATOM      5  C   UNL     1      70.216  52.745  53.321  1.00  0.00     0.000 C 
BRANCH   5   6
ATOM      6  C   UNL     1      70.437  52.955  51.814  1.00  0.00     0.006 C 
BRANCH   6   7
ATOM      7  C   UNL     1      70.431  51.638  51.026  1.00  0.00     0.053 C 
BRANCH   7   8
ATOM      8  C   UNL     1      69.031  51.244  50.680  1.00  0.00     0.041 C 
ATOM      9  O   UNL     1      68.516  50.216  51.195  1.00  0.00    -0.550 OA
ATOM     10  O   UNL     1      68.311  51.980  49.747  1.00  0.00    -0.550 OA
ENDBRANCH   7   8
ENDBRANCH   6   7
ENDBRANCH   5   6
ENDBRANCH   4   5
ENDBRANCH   3   4
ENDBRANCH   2   3
ENDBRANCH   1   2
BRANCH   1  11
ATOM     11  C   UNL     1      68.384  49.776  55.931  1.00  0.00     0.000 C 
BRANCH  11  12
ATOM     12  C   UNL     1      68.017  48.685  56.948  1.00  0.00     0.000 C 
BRANCH  12  13
ATOM     13  C   UNL     1      66.991  49.161  57.991  1.00  0.00     0.000 C 
BRANCH  13  14
ATOM     14  C   UNL     1      65.773  48.234  58.179  1.00  0.00     0.000 C 
BRANCH  14  15
ATOM     15  C   UNL     1      66.111  46.744  58.386  1.00  0.00     0.000 C 
BRANCH  15  16
ATOM     16  C   UNL     1      65.109  45.758  57.761  1.00  0.00     0.006 C 
BRANCH  16  17
ATOM     17  C   UNL     1      65.777  44.746  56.822  1.00  0.00     0.053 C 
BRANCH  17  18
ATOM     18  C   UNL     1      65.796  43.387  57.447  1.00  0.00     0.041 C 
ATOM     19  O   UNL     1      65.019  43.117  58.402  1.00  0.00    -0.550 OA
ATOM     20  O   UNL     1      66.706  42.433  57.010  1.00  0.00    -0.550 OA
ENDBRANCH  17  18
ENDBRANCH  16  17
ENDBRANCH  15  16
ENDBRANCH  14  15
ENDBRANCH  13  14
ENDBRANCH  12  13
ENDBRANCH  11  12
ENDBRANCH   1  11
TORSDOF 15
ENDMDL
MODEL 7
REMARK VINA RESULT:    -3.804      2.412      4.007
REMARK INTER + INTRA:          -8.156
REMARK INTER:                  -7.160
REMARK INTRA:                  -0.996
REMARK UNBOUND:                -1.017
REMARK SMILES O=C([O-])CCCCCCCCCCCCCCC(=O)[O-]
REMARK SMILES IDX 10 1 9 2 8 3 7 4 6 5 5 6 4 7 2 8 1 9 3 10 11 11 12 12 13 13
REMARK SMILES IDX 14 14 15 15 16 16 17 17 18 18 19 19 20 20
REMARK H PARENT
REMARK Flexibility Score: inf
ROOT
ATOM      1  C   UNL     1      58.638  35.620  49.565  1.00  0.00     0.000 C 
ENDROOT
BRANCH   1   2
ATOM      2  C   UNL     1      59.607  36.368  48.638  1.00  0.00     0.000 C 
BRANCH   2   3
ATOM      3  C   UNL     1      61.079  36.160  49.027  1.00  0.00     0.000 C 
BRANCH   3   4
ATOM      4  C   UNL     1      61.904  35.511  47.905  1.00  0.00     0.000 C 
BRANCH   4   5
ATOM      5  C   UNL     1      61.004  35.105  46.729  1.00  0.00     0.000 C 
BRANCH   5   6
ATOM      6  C   UNL     1      61.254  35.950  45.470  1.00  0.00     0.006 C 
BRANCH   6   7
ATOM      7  C   UNL     1      60.239  35.667  44.355  1.00  0.00     0.053 C 
BRANCH   7   8
ATOM      8  C   UNL     1      59.189  36.731  44.323  1.00  0.00     0.041 C 
ATOM      9  O   UNL     1      58.458  36.930  45.329  1.00  0.00    -0.550 OA
ATOM     10  O   UNL     1      58.979  37.467  43.164  1.00  0.00    -0.550 OA
ENDBRANCH   7   8
ENDBRANCH   6   7
ENDBRANCH   5   6
ENDBRANCH   4   5
ENDBRANCH   3   4
ENDBRANCH   2   3
ENDBRANCH   1   2
BRANCH   1  11
ATOM     11  C   UNL     1      59.389  34.962  50.729  1.00  0.00     0.000 C 
BRANCH  11  12
ATOM     12  C   UNL     1      58.686  35.243  52.065  1.00  0.00     0.000 C 
BRANCH  12  13
ATOM     13  C   UNL     1      57.735  36.451  51.997  1.00  0.00     0.000 C 
BRANCH  13  14
ATOM     14  C   UNL     1      57.409  37.102  53.357  1.00  0.00     0.000 C 
BRANCH  14  15
ATOM     15  C   UNL     1      58.379  36.745  54.502  1.00  0.00     0.000 C 
BRANCH  15  16
ATOM     16  C   UNL     1      58.836  37.937  55.360  1.00  0.00     0.006 C 
BRANCH  16  17
ATOM     17  C   UNL     1      59.463  37.507  56.692  1.00  0.00     0.053 C 
BRANCH  17  18
ATOM     18  C   UNL     1      60.899  37.135  56.497  1.00  0.00     0.041 C 
ATOM     19  O   UNL     1      61.449  36.307  57.272  1.00  0.00    -0.550 OA
ATOM     20  O   UNL     1      61.643  37.737  55.492  1.00  0.00    -0.550 OA
ENDBRANCH  17  18
ENDBRANCH  16  17
ENDBRANCH  15  16
ENDBRANCH  14  15
ENDBRANCH  13  14
ENDBRANCH  12  13
ENDBRANCH  11  12
ENDBRANCH   1  11
TORSDOF 15
ENDMDL
MODEL 8
REMARK VINA RESULT:    -3.776     14.010     17.498
REMARK INTER + INTRA:          -8.104
REMARK INTER:                  -6.981
REMARK INTRA:                  -1.123
REMARK UNBOUND:                -1.017
REMARK SMILES O=C([O-])CCCCCCCCCCCCCCC(=O)[O-]
REMARK SMILES IDX 10 1 9 2 8 3 7 4 6 5 5 6 4 7 2 8 1 9 3 10 11 11 12 12 13 13
REMARK SMILES IDX 14 14 15 15 16 16 17 17 18 18 19 19 20 20
REMARK H PARENT
REMARK Flexibility Score: inf
ROOT
ATOM      1  C   UNL     1      70.178  50.921  55.072  1.00  0.00     0.000 C 
ENDROOT
BRANCH   1   2
ATOM      2  C   UNL     1      68.666  50.906  55.345  1.00  0.00     0.000 C 
BRANCH   2   3
ATOM      3  C   UNL     1      68.269  49.884  56.421  1.00  0.00     0.000 C 
BRANCH   3   4
ATOM      4  C   UNL     1      67.219  50.431  57.400  1.00  0.00     0.000 C 
BRANCH   4   5
ATOM      5  C   UNL     1      66.715  49.324  58.338  1.00  0.00     0.000 C 
BRANCH   5   6
ATOM      6  C   UNL     1      66.843  47.921  57.723  1.00  0.00     0.006 C 
BRANCH   6   7
ATOM      7  C   UNL     1      65.630  47.031  58.023  1.00  0.00     0.053 C 
BRANCH   7   8
ATOM      8  C   UNL     1      65.707  45.762  57.236  1.00  0.00     0.041 C 
ATOM      9  O   UNL     1      65.451  44.658  57.786  1.00  0.00    -0.550 OA
ATOM     10  O   UNL     1      66.115  45.790  55.908  1.00  0.00    -0.550 OA
ENDBRANCH   7   8
ENDBRANCH   6   7
ENDBRANCH   5   6
ENDBRANCH   4   5
ENDBRANCH   3   4
ENDBRANCH   2   3
ENDBRANCH   1   2
BRANCH   1  11
ATOM     11  C   UNL     1      70.668  52.344  54.778  1.00  0.00     0.000 C 
BRANCH  11  12
ATOM     12  C   UNL     1      70.099  52.858  53.447  1.00  0.00     0.000 C 
BRANCH  12  13
ATOM     13  C   UNL     1      71.116  52.781  52.294  1.00  0.00     0.000 C 
BRANCH  13  14
ATOM     14  C   UNL     1      70.835  51.680  51.251  1.00  0.00     0.000 C 
BRANCH  14  15
ATOM     15  C   UNL     1      69.454  51.004  51.368  1.00  0.00     0.000 C 
BRANCH  15  16
ATOM     16  C   UNL     1      68.498  51.275  50.193  1.00  0.00     0.006 C 
BRANCH  16  17
ATOM     17  C   UNL     1      68.955  52.442  49.310  1.00  0.00     0.053 C 
BRANCH  17  18
ATOM     18  C   UNL     1      68.077  53.635  49.522  1.00  0.00     0.041 C 
ATOM     19  O   UNL     1      67.130  53.873  48.727  1.00  0.00    -0.550 OA
ATOM     20  O   UNL     1      68.335  54.510  50.569  1.00  0.00    -0.550 OA
ENDBRANCH  17  18
ENDBRANCH  16  17
ENDBRANCH  15  16
ENDBRANCH  14  15
ENDBRANCH  13  14
ENDBRANCH  12  13
ENDBRANCH  11  12
ENDBRANCH   1  11
TORSDOF 15
ENDMDL
MODEL 9
REMARK VINA RESULT:    -3.766     11.199     14.922
REMARK INTER + INTRA:          -8.086
REMARK INTER:                  -7.610
REMARK INTRA:                  -0.476
REMARK UNBOUND:                -1.017
REMARK SMILES O=C([O-])CCCCCCCCCCCCCCC(=O)[O-]
REMARK SMILES IDX 10 1 9 2 8 3 7 4 6 5 5 6 4 7 2 8 1 9 3 10 11 11 12 12 13 13
REMARK SMILES IDX 14 14 15 15 16 16 17 17 18 18 19 19 20 20
REMARK H PARENT
REMARK Flexibility Score: inf
ROOT
ATOM      1  C   UNL     1      67.162  47.752  57.376  1.00  0.00     0.000 C 
ENDROOT
BRANCH   1   2
ATOM      2  C   UNL     1      65.758  47.650  57.993  1.00  0.00     0.000 C 
BRANCH   2   3
ATOM      3  C   UNL     1      65.555  46.353  58.792  1.00  0.00     0.000 C 
BRANCH   3   4
ATOM      4  C   UNL     1      64.817  45.271  57.989  1.00  0.00     0.000 C 
BRANCH   4   5
ATOM      5  C   UNL     1      65.730  44.672  56.909  1.00  0.00     0.000 C 
BRANCH   5   6
ATOM      6  C   UNL     1      65.720  43.135  56.907  1.00  0.00     0.006 C 
BRANCH   6   7
ATOM      7  C   UNL     1      65.809  42.542  58.319  1.00  0.00     0.053 C 
BRANCH   7   8
ATOM      8  C   UNL     1      65.281  41.143  58.331  1.00  0.00     0.041 C 
ATOM      9  O   UNL     1      64.125  40.905  58.770  1.00  0.00    -0.550 OA
ATOM     10  O   UNL     1      66.086  40.092  57.908  1.00  0.00    -0.550 OA
ENDBRANCH   7   8
ENDBRANCH   6   7
ENDBRANCH   5   6
ENDBRANCH   4   5
ENDBRANCH   3   4
ENDBRANCH   2   3
ENDBRANCH   1   2
BRANCH   1  11
ATOM     11  C   UNL     1      67.564  49.217  57.168  1.00  0.00     0.000 C 
BRANCH  11  12
ATOM     12  C   UNL     1      68.945  49.318  56.503  1.00  0.00     0.000 C 
BRANCH  12  13
ATOM     13  C   UNL     1      69.227  50.716  55.923  1.00  0.00     0.000 C 
BRANCH  13  14
ATOM     14  C   UNL     1      70.665  50.929  55.409  1.00  0.00     0.000 C 
BRANCH  14  15
ATOM     15  C   UNL     1      70.773  51.601  54.025  1.00  0.00     0.000 C 
BRANCH  15  16
ATOM     16  C   UNL     1      69.799  51.061  52.964  1.00  0.00     0.006 C 
BRANCH  16  17
ATOM     17  C   UNL     1      69.932  51.778  51.614  1.00  0.00     0.053 C 
BRANCH  17  18
ATOM     18  C   UNL     1      69.030  51.150  50.599  1.00  0.00     0.041 C 
ATOM     19  O   UNL     1      68.335  50.144  50.903  1.00  0.00    -0.550 OA
ATOM     20  O   UNL     1      68.993  51.646  49.302  1.00  0.00    -0.550 OA
ENDBRANCH  17  18
ENDBRANCH  16  17
ENDBRANCH  15  16
ENDBRANCH  14  15
ENDBRANCH  13  14
ENDBRANCH  12  13
ENDBRANCH  11  12
ENDBRANCH   1  11
TORSDOF 15
ENDMDL
