MODEL 1
REMARK VINA RESULT:    -3.670      0.000      0.000
REMARK INTER + INTRA:          -4.347
REMARK INTER:                  -4.314
REMARK INTRA:                  -0.033
REMARK UNBOUND:                -0.033
REMARK SMILES CCCCC(=O)[O-]
REMARK SMILES IDX 4 1 5 2 6 3 7 4 3 5 2 6 1 7
REMARK H PARENT
REMARK Flexibility Score: inf
ROOT
ATOM      1  C   UNL     1       8.292  20.059  29.651  1.00  0.00     0.053 C 
ENDROOT
BRANCH   1   2
ATOM      2  C   UNL     1       8.052  21.498  29.321  1.00  0.00     0.041 C 
ATOM      3  O   UNL     1       8.053  22.366  30.234  1.00  0.00    -0.550 OA
ATOM      4  O   UNL     1       7.876  21.890  28.000  1.00  0.00    -0.550 OA
ENDBRANCH   1   2
BRANCH   1   5
ATOM      5  C   UNL     1       8.682  19.904  31.123  1.00  0.00     0.006 C 
BRANCH   5   6
ATOM      6  C   UNL     1       8.981  18.439  31.462  1.00  0.00    -0.003 C 
ATOM      7  C   UNL     1       9.895  17.806  30.417  1.00  0.00     0.004 C 
ENDBRANCH   5   6
ENDBRANCH   1   5
TORSDOF 3
ENDMDL
MODEL 2
REMARK VINA RESULT:    -3.491      2.842      4.147
REMARK INTER + INTRA:          -4.137
REMARK INTER:                  -4.097
REMARK INTRA:                  -0.040
REMARK UNBOUND:                -0.033
REMARK SMILES CCCCC(=O)[O-]
REMARK SMILES IDX 4 1 5 2 6 3 7 4 3 5 2 6 1 7
REMARK H PARENT
REMARK Flexibility Score: inf
ROOT
ATOM      1  C   UNL     1       8.802  19.730  31.161  1.00  0.00     0.053 C 
ENDROOT
BRANCH   1   2
ATOM      2  C   UNL     1       9.402  18.362  31.090  1.00  0.00     0.041 C 
ATOM      3  O   UNL     1       9.774  17.890  29.983  1.00  0.00    -0.550 OA
ATOM      4  O   UNL     1       9.597  17.626  32.252  1.00  0.00    -0.550 OA
ENDBRANCH   1   2
BRANCH   1   5
ATOM      5  C   UNL     1       8.288  20.163  29.786  1.00  0.00     0.006 C 
BRANCH   5   6
ATOM      6  C   UNL     1       8.028  21.673  29.746  1.00  0.00    -0.003 C 
ATOM      7  C   UNL     1       7.875  22.244  31.153  1.00  0.00     0.004 C 
ENDBRANCH   5   6
ENDBRANCH   1   5
TORSDOF 3
ENDMDL
MODEL 3
REMARK VINA RESULT:    -3.480      2.847      4.044
REMARK INTER + INTRA:          -4.123
REMARK INTER:                  -4.102
REMARK INTRA:                  -0.021
REMARK UNBOUND:                -0.033
REMARK SMILES CCCCC(=O)[O-]
REMARK SMILES IDX 4 1 5 2 6 3 7 4 3 5 2 6 1 7
REMARK H PARENT
REMARK Flexibility Score: inf
ROOT
ATOM      1  C   UNL     1       9.024  19.712  31.315  1.00  0.00     0.053 C 
ENDROOT
BRANCH   1   2
ATOM      2  C   UNL     1       9.629  18.344  31.344  1.00  0.00     0.041 C 
ATOM      3  O   UNL     1       9.719  17.714  32.430  1.00  0.00    -0.550 OA
ATOM      4  O   UNL     1      10.049  17.744  30.163  1.00  0.00    -0.550 OA
ENDBRANCH   1   2
BRANCH   1   5
ATOM      5  C   UNL     1       8.321  19.959  29.978  1.00  0.00     0.006 C 
BRANCH   5   6
ATOM      6  C   UNL     1       8.021  21.450  29.782  1.00  0.00    -0.003 C 
ATOM      7  C   UNL     1       7.876  21.794  28.303  1.00  0.00     0.004 C 
ENDBRANCH   5   6
ENDBRANCH   1   5
TORSDOF 3
ENDMDL
MODEL 4
REMARK VINA RESULT:    -3.466      4.528      5.287
REMARK INTER + INTRA:          -4.107
REMARK INTER:                  -4.088
REMARK INTRA:                  -0.019
REMARK UNBOUND:                -0.033
REMARK SMILES CCCCC(=O)[O-]
REMARK SMILES IDX 4 1 5 2 6 3 7 4 3 5 2 6 1 7
REMARK H PARENT
REMARK Flexibility Score: inf
ROOT
ATOM      1  C   UNL     1       8.166  18.477  33.576  1.00  0.00     0.053 C 
ENDROOT
BRANCH   1   2
ATOM      2  C   UNL     1       8.345  17.860  34.927  1.00  0.00     0.041 C 
ATOM      3  O   UNL     1       7.892  18.436  35.952  1.00  0.00    -0.550 OA
ATOM      4  O   UNL     1       8.967  16.624  35.051  1.00  0.00    -0.550 OA
ENDBRANCH   1   2
BRANCH   1   5
ATOM      5  C   UNL     1       9.334  18.107  32.659  1.00  0.00     0.006 C 
BRANCH   5   6
ATOM      6  C   UNL     1       9.100  18.624  31.235  1.00  0.00    -0.003 C 
ATOM      7  C   UNL     1       9.894  17.812  30.215  1.00  0.00     0.004 C 
ENDBRANCH   5   6
ENDBRANCH   1   5
TORSDOF 3
ENDMDL
MODEL 5
REMARK VINA RESULT:    -3.454      1.608      2.056
REMARK INTER + INTRA:          -4.093
REMARK INTER:                  -3.984
REMARK INTRA:                  -0.109
REMARK UNBOUND:                -0.033
REMARK SMILES CCCCC(=O)[O-]
REMARK SMILES IDX 4 1 5 2 6 3 7 4 3 5 2 6 1 7
REMARK H PARENT
REMARK Flexibility Score: inf
ROOT
ATOM      1  C   UNL     1       9.027  20.493  32.235  1.00  0.00     0.053 C 
ENDROOT
BRANCH   1   2
ATOM      2  C   UNL     1       8.285  21.341  31.252  1.00  0.00     0.041 C 
ATOM      3  O   UNL     1       7.989  20.883  30.117  1.00  0.00    -0.550 OA
ATOM      4  O   UNL     1       7.876  22.621  31.605  1.00  0.00    -0.550 OA
ENDBRANCH   1   2
BRANCH   1   5
ATOM      5  C   UNL     1       8.617  19.024  32.093  1.00  0.00     0.006 C 
BRANCH   5   6
ATOM      6  C   UNL     1       9.819  18.153  31.713  1.00  0.00    -0.003 C 
ATOM      7  C   UNL     1       9.773  17.761  30.238  1.00  0.00     0.004 C 
ENDBRANCH   5   6
ENDBRANCH   1   5
TORSDOF 3
ENDMDL
MODEL 6
REMARK VINA RESULT:    -3.400      3.778      4.874
REMARK INTER + INTRA:          -4.029
REMARK INTER:                  -3.931
REMARK INTRA:                  -0.099
REMARK UNBOUND:                -0.033
REMARK SMILES CCCCC(=O)[O-]
REMARK SMILES IDX 4 1 5 2 6 3 7 4 3 5 2 6 1 7
REMARK H PARENT
REMARK Flexibility Score: inf
ROOT
ATOM      1  C   UNL     1       9.806  17.394  32.737  1.00  0.00     0.053 C 
ENDROOT
BRANCH   1   2
ATOM      2  C   UNL     1      10.688  17.997  33.784  1.00  0.00     0.041 C 
ATOM      3  O   UNL     1      10.728  17.501  34.941  1.00  0.00    -0.550 OA
ATOM      4  O   UNL     1      11.504  19.077  33.470  1.00  0.00    -0.550 OA
ENDBRANCH   1   2
BRANCH   1   5
ATOM      5  C   UNL     1       8.740  18.398  32.291  1.00  0.00     0.006 C 
BRANCH   5   6
ATOM      6  C   UNL     1       8.947  18.805  30.828  1.00  0.00    -0.003 C 
ATOM      7  C   UNL     1       9.872  17.828  30.108  1.00  0.00     0.004 C 
ENDBRANCH   5   6
ENDBRANCH   1   5
TORSDOF 3
ENDMDL
MODEL 7
REMARK VINA RESULT:    -3.310      3.170      4.296
REMARK INTER + INTRA:          -3.923
REMARK INTER:                  -3.831
REMARK INTRA:                  -0.092
REMARK UNBOUND:                -0.033
REMARK SMILES CCCCC(=O)[O-]
REMARK SMILES IDX 4 1 5 2 6 3 7 4 3 5 2 6 1 7
REMARK H PARENT
REMARK Flexibility Score: inf
ROOT
ATOM      1  C   UNL     1       8.284  18.176  33.137  1.00  0.00     0.053 C 
ENDROOT
BRANCH   1   2
ATOM      2  C   UNL     1       8.261  19.256  34.171  1.00  0.00     0.041 C 
ATOM      3  O   UNL     1       7.877  19.003  35.344  1.00  0.00    -0.550 OA
ATOM      4  O   UNL     1       8.711  20.532  33.855  1.00  0.00    -0.550 OA
ENDBRANCH   1   2
BRANCH   1   5
ATOM      5  C   UNL     1       9.718  17.903  32.677  1.00  0.00     0.006 C 
BRANCH   5   6
ATOM      6  C   UNL     1       9.791  17.771  31.151  1.00  0.00    -0.003 C 
ATOM      7  C   UNL     1       9.058  18.919  30.462  1.00  0.00     0.004 C 
ENDBRANCH   5   6
ENDBRANCH   1   5
TORSDOF 3
ENDMDL
MODEL 8
REMARK VINA RESULT:    -3.274      2.100      2.487
REMARK INTER + INTRA:          -3.881
REMARK INTER:                  -3.834
REMARK INTRA:                  -0.048
REMARK UNBOUND:                -0.033
REMARK SMILES CCCCC(=O)[O-]
REMARK SMILES IDX 4 1 5 2 6 3 7 4 3 5 2 6 1 7
REMARK H PARENT
REMARK Flexibility Score: inf
ROOT
ATOM      1  C   UNL     1       8.366  21.220  31.051  1.00  0.00     0.053 C 
ENDROOT
BRANCH   1   2
ATOM      2  C   UNL     1       9.279  22.158  31.775  1.00  0.00     0.041 C 
ATOM      3  O   UNL     1       8.943  23.359  31.952  1.00  0.00    -0.550 OA
ATOM      4  O   UNL     1      10.479  21.695  32.299  1.00  0.00    -0.550 OA
ENDBRANCH   1   2
BRANCH   1   5
ATOM      5  C   UNL     1       8.671  19.770  31.436  1.00  0.00     0.006 C 
BRANCH   5   6
ATOM      6  C   UNL     1       9.002  18.930  30.197  1.00  0.00    -0.003 C 
ATOM      7  C   UNL     1       9.866  17.725  30.562  1.00  0.00     0.004 C 
ENDBRANCH   5   6
ENDBRANCH   1   5
TORSDOF 3
ENDMDL
MODEL 9
REMARK VINA RESULT:    -3.169      3.383      4.549
REMARK INTER + INTRA:          -3.758
REMARK INTER:                  -3.672
REMARK INTRA:                  -0.087
REMARK UNBOUND:                -0.033
REMARK SMILES CCCCC(=O)[O-]
REMARK SMILES IDX 4 1 5 2 6 3 7 4 3 5 2 6 1 7
REMARK H PARENT
REMARK Flexibility Score: inf
ROOT
ATOM      1  C   UNL     1      10.059  18.661  31.758  1.00  0.00     0.053 C 
ENDROOT
BRANCH   1   2
ATOM      2  C   UNL     1       9.626  17.952  33.002  1.00  0.00     0.041 C 
ATOM      3  O   UNL     1      10.445  17.245  33.646  1.00  0.00    -0.550 OA
ATOM      4  O   UNL     1       8.331  18.111  33.479  1.00  0.00    -0.550 OA
ENDBRANCH   1   2
BRANCH   1   5
ATOM      5  C   UNL     1       9.038  18.451  30.637  1.00  0.00     0.006 C 
BRANCH   5   6
ATOM      6  C   UNL     1       8.589  19.791  30.044  1.00  0.00    -0.003 C 
ATOM      7  C   UNL     1       8.254  20.797  31.142  1.00  0.00     0.004 C 
ENDBRANCH   5   6
ENDBRANCH   1   5
TORSDOF 3
ENDMDL
