MODEL 1
REMARK VINA RESULT:    -4.122      0.000      0.000
REMARK INTER + INTRA:          -7.077
REMARK INTER:                  -6.531
REMARK INTRA:                  -0.546
REMARK UNBOUND:                -0.546
REMARK SMILES CCCCCCCCCCCC(=O)[O-]
REMARK SMILES IDX 7 1 8 2 9 3 10 4 11 5 12 6 13 7 14 8 6 9 5 10 4 11 3 12 2 13
REMARK SMILES IDX 1 14
REMARK H PARENT
REMARK Flexibility Score: inf
ROOT
ATOM      1  C   UNL     1      11.174  16.714  14.739  1.00  0.00     0.000 C 
ENDROOT
BRANCH   1   2
ATOM      2  C   UNL     1      11.065  16.652  16.272  1.00  0.00     0.000 C 
BRANCH   2   3
ATOM      3  C   UNL     1      11.821  15.455  16.878  1.00  0.00     0.000 C 
BRANCH   3   4
ATOM      4  C   UNL     1      13.113  15.813  17.643  1.00  0.00     0.006 C 
BRANCH   4   5
ATOM      5  C   UNL     1      13.688  17.198  17.311  1.00  0.00     0.053 C 
BRANCH   5   6
ATOM      6  C   UNL     1      15.026  17.105  16.644  1.00  0.00     0.041 C 
ATOM      7  O   UNL     1      15.874  18.024  16.792  1.00  0.00    -0.550 OA
ATOM      8  O   UNL     1      15.349  15.986  15.887  1.00  0.00    -0.550 OA
ENDBRANCH   5   6
ENDBRANCH   4   5
ENDBRANCH   3   4
ENDBRANCH   2   3
ENDBRANCH   1   2
BRANCH   1   9
ATOM      9  C   UNL     1      10.926  18.128  14.188  1.00  0.00     0.000 C 
BRANCH   9  10
ATOM     10  C   UNL     1      10.200  18.118  12.831  1.00  0.00    -0.000 C 
BRANCH  10  11
ATOM     11  C   UNL     1      10.139  16.716  12.202  1.00  0.00    -0.000 C 
BRANCH  11  12
ATOM     12  C   UNL     1       8.718  16.331  11.757  1.00  0.00    -0.000 C 
BRANCH  12  13
ATOM     13  C   UNL     1       8.597  16.194  10.231  1.00  0.00    -0.003 C 
ATOM     14  C   UNL     1       7.830  17.350   9.590  1.00  0.00     0.004 C 
ENDBRANCH  12  13
ENDBRANCH  11  12
ENDBRANCH  10  11
ENDBRANCH   9  10
ENDBRANCH   1   9
TORSDOF 10
ENDMDL
MODEL 2
REMARK VINA RESULT:    -4.041      3.503      6.599
REMARK INTER + INTRA:          -6.950
REMARK INTER:                  -6.076
REMARK INTRA:                  -0.874
REMARK UNBOUND:                -0.546
REMARK SMILES CCCCCCCCCCCC(=O)[O-]
REMARK SMILES IDX 7 1 8 2 9 3 10 4 11 5 12 6 13 7 14 8 6 9 5 10 4 11 3 12 2 13
REMARK SMILES IDX 1 14
REMARK H PARENT
REMARK Flexibility Score: inf
ROOT
ATOM      1  C   UNL     1      12.577  19.095  14.499  1.00  0.00     0.000 C 
ENDROOT
BRANCH   1   2
ATOM      2  C   UNL     1      11.087  18.719  14.425  1.00  0.00     0.000 C 
BRANCH   2   3
ATOM      3  C   UNL     1      10.825  17.487  13.539  1.00  0.00     0.000 C 
BRANCH   3   4
ATOM      4  C   UNL     1      10.181  17.787  12.169  1.00  0.00     0.006 C 
BRANCH   4   5
ATOM      5  C   UNL     1       9.877  16.544  11.320  1.00  0.00     0.053 C 
BRANCH   5   6
ATOM      6  C   UNL     1       8.444  16.124  11.432  1.00  0.00     0.041 C 
ATOM      7  O   UNL     1       8.054  15.458  12.427  1.00  0.00    -0.550 OA
ATOM      8  O   UNL     1       7.531  16.499  10.454  1.00  0.00    -0.550 OA
ENDBRANCH   5   6
ENDBRANCH   4   5
ENDBRANCH   3   4
ENDBRANCH   2   3
ENDBRANCH   1   2
BRANCH   1   9
ATOM      9  C   UNL     1      13.232  18.650  15.818  1.00  0.00     0.000 C 
BRANCH   9  10
ATOM     10  C   UNL     1      13.868  17.252  15.724  1.00  0.00    -0.000 C 
BRANCH  10  11
ATOM     11  C   UNL     1      14.119  16.622  17.104  1.00  0.00    -0.000 C 
BRANCH  11  12
ATOM     12  C   UNL     1      12.907  15.826  17.617  1.00  0.00    -0.000 C 
BRANCH  12  13
ATOM     13  C   UNL     1      11.892  15.516  16.505  1.00  0.00    -0.003 C 
ATOM     14  C   UNL     1      10.466  15.930  16.870  1.00  0.00     0.004 C 
ENDBRANCH  12  13
ENDBRANCH  11  12
ENDBRANCH  10  11
ENDBRANCH   9  10
ENDBRANCH   1   9
TORSDOF 10
ENDMDL
MODEL 3
REMARK VINA RESULT:    -3.995      3.042      4.406
REMARK INTER + INTRA:          -6.877
REMARK INTER:                  -5.532
REMARK INTRA:                  -1.345
REMARK UNBOUND:                -0.546
REMARK SMILES CCCCCCCCCCCC(=O)[O-]
REMARK SMILES IDX 7 1 8 2 9 3 10 4 11 5 12 6 13 7 14 8 6 9 5 10 4 11 3 12 2 13
REMARK SMILES IDX 1 14
REMARK H PARENT
REMARK Flexibility Score: inf
ROOT
ATOM      1  C   UNL     1      13.650  18.720  17.494  1.00  0.00     0.000 C 
ENDROOT
BRANCH   1   2
ATOM      2  C   UNL     1      14.705  17.607  17.620  1.00  0.00     0.000 C 
BRANCH   2   3
ATOM      3  C   UNL     1      14.767  16.699  16.377  1.00  0.00     0.000 C 
BRANCH   3   4
ATOM      4  C   UNL     1      16.172  16.515  15.768  1.00  0.00     0.006 C 
BRANCH   4   5
ATOM      5  C   UNL     1      16.538  17.542  14.686  1.00  0.00     0.053 C 
BRANCH   5   6
ATOM      6  C   UNL     1      17.486  18.582  15.197  1.00  0.00     0.041 C 
ATOM      7  O   UNL     1      17.047  19.608  15.781  1.00  0.00    -0.550 OA
ATOM      8  O   UNL     1      18.857  18.402  15.060  1.00  0.00    -0.550 OA
ENDBRANCH   5   6
ENDBRANCH   4   5
ENDBRANCH   3   4
ENDBRANCH   2   3
ENDBRANCH   1   2
BRANCH   1   9
ATOM      9  C   UNL     1      13.310  19.046  16.031  1.00  0.00     0.000 C 
BRANCH   9  10
ATOM     10  C   UNL     1      11.796  19.190  15.790  1.00  0.00    -0.000 C 
BRANCH  10  11
ATOM     11  C   UNL     1      11.284  18.265  14.674  1.00  0.00    -0.000 C 
BRANCH  11  12
ATOM     12  C   UNL     1      11.479  16.776  15.006  1.00  0.00    -0.000 C 
BRANCH  12  13
ATOM     13  C   UNL     1      10.771  16.365  16.306  1.00  0.00    -0.003 C 
ATOM     14  C   UNL     1      11.451  15.189  17.007  1.00  0.00     0.004 C 
ENDBRANCH  12  13
ENDBRANCH  11  12
ENDBRANCH  10  11
ENDBRANCH   9  10
ENDBRANCH   1   9
TORSDOF 10
ENDMDL
MODEL 4
REMARK VINA RESULT:    -3.964      2.372      3.913
REMARK INTER + INTRA:          -6.827
REMARK INTER:                  -5.731
REMARK INTRA:                  -1.096
REMARK UNBOUND:                -0.546
REMARK SMILES CCCCCCCCCCCC(=O)[O-]
REMARK SMILES IDX 7 1 8 2 9 3 10 4 11 5 12 6 13 7 14 8 6 9 5 10 4 11 3 12 2 13
REMARK SMILES IDX 1 14
REMARK H PARENT
REMARK Flexibility Score: inf
ROOT
ATOM      1  C   UNL     1       9.562  19.770  11.662  1.00  0.00     0.000 C 
ENDROOT
BRANCH   1   2
ATOM      2  C   UNL     1       9.645  19.197  13.087  1.00  0.00     0.000 C 
BRANCH   2   3
ATOM      3  C   UNL     1      10.631  18.020  13.203  1.00  0.00     0.000 C 
BRANCH   3   4
ATOM      4  C   UNL     1      11.746  18.197  14.254  1.00  0.00     0.006 C 
BRANCH   4   5
ATOM      5  C   UNL     1      12.090  16.923  15.040  1.00  0.00     0.053 C 
BRANCH   5   6
ATOM      6  C   UNL     1      11.203  16.742  16.233  1.00  0.00     0.041 C 
ATOM      7  O   UNL     1      10.421  15.758  16.298  1.00  0.00    -0.550 OA
ATOM      8  O   UNL     1      11.266  17.643  17.289  1.00  0.00    -0.550 OA
ENDBRANCH   5   6
ENDBRANCH   4   5
ENDBRANCH   3   4
ENDBRANCH   2   3
ENDBRANCH   1   2
BRANCH   1   9
ATOM      9  C   UNL     1      10.257  18.872  10.625  1.00  0.00     0.000 C 
BRANCH   9  10
ATOM     10  C   UNL     1       9.417  18.675   9.350  1.00  0.00    -0.000 C 
BRANCH  10  11
ATOM     11  C   UNL     1       8.632  17.353   9.357  1.00  0.00    -0.000 C 
BRANCH  11  12
ATOM     12  C   UNL     1       7.216  17.512   9.937  1.00  0.00    -0.000 C 
BRANCH  12  13
ATOM     13  C   UNL     1       6.995  16.656  11.194  1.00  0.00    -0.003 C 
ATOM     14  C   UNL     1       8.236  15.860  11.595  1.00  0.00     0.004 C 
ENDBRANCH  12  13
ENDBRANCH  11  12
ENDBRANCH  10  11
ENDBRANCH   9  10
ENDBRANCH   1   9
TORSDOF 10
ENDMDL
MODEL 5
REMARK VINA RESULT:    -3.958      3.604      6.930
REMARK INTER + INTRA:          -6.818
REMARK INTER:                  -6.195
REMARK INTRA:                  -0.623
REMARK UNBOUND:                -0.546
REMARK SMILES CCCCCCCCCCCC(=O)[O-]
REMARK SMILES IDX 7 1 8 2 9 3 10 4 11 5 12 6 13 7 14 8 6 9 5 10 4 11 3 12 2 13
REMARK SMILES IDX 1 14
REMARK H PARENT
REMARK Flexibility Score: inf
ROOT
ATOM      1  C   UNL     1      11.191  16.784  15.938  1.00  0.00     0.000 C 
ENDROOT
BRANCH   1   2
ATOM      2  C   UNL     1      11.640  17.022  14.486  1.00  0.00     0.000 C 
BRANCH   2   3
ATOM      3  C   UNL     1      10.721  17.996  13.727  1.00  0.00     0.000 C 
BRANCH   3   4
ATOM      4  C   UNL     1      10.254  17.513  12.338  1.00  0.00     0.006 C 
BRANCH   4   5
ATOM      5  C   UNL     1       9.417  16.225  12.359  1.00  0.00     0.053 C 
BRANCH   5   6
ATOM      6  C   UNL     1       8.497  16.135  11.180  1.00  0.00     0.041 C 
ATOM      7  O   UNL     1       8.950  16.252  10.012  1.00  0.00    -0.550 OA
ATOM      8  O   UNL     1       7.143  15.887  11.373  1.00  0.00    -0.550 OA
ENDBRANCH   5   6
ENDBRANCH   4   5
ENDBRANCH   3   4
ENDBRANCH   2   3
ENDBRANCH   1   2
BRANCH   1   9
ATOM      9  C   UNL     1      11.803  15.509  16.542  1.00  0.00     0.000 C 
BRANCH   9  10
ATOM     10  C   UNL     1      12.899  15.811  17.580  1.00  0.00    -0.000 C 
BRANCH  10  11
ATOM     11  C   UNL     1      13.902  16.868  17.092  1.00  0.00    -0.000 C 
BRANCH  11  12
ATOM     12  C   UNL     1      14.892  16.308  16.056  1.00  0.00    -0.000 C 
BRANCH  12  13
ATOM     13  C   UNL     1      15.845  17.383  15.511  1.00  0.00    -0.003 C 
ATOM     14  C   UNL     1      15.110  18.617  14.986  1.00  0.00     0.004 C 
ENDBRANCH  12  13
ENDBRANCH  11  12
ENDBRANCH  10  11
ENDBRANCH   9  10
ENDBRANCH   1   9
TORSDOF 10
ENDMDL
MODEL 6
REMARK VINA RESULT:    -3.949      0.939      1.620
REMARK INTER + INTRA:          -6.803
REMARK INTER:                  -6.245
REMARK INTRA:                  -0.558
REMARK UNBOUND:                -0.546
REMARK SMILES CCCCCCCCCCCC(=O)[O-]
REMARK SMILES IDX 7 1 8 2 9 3 10 4 11 5 12 6 13 7 14 8 6 9 5 10 4 11 3 12 2 13
REMARK SMILES IDX 1 14
REMARK H PARENT
REMARK Flexibility Score: inf
ROOT
ATOM      1  C   UNL     1      11.457  17.139  16.065  1.00  0.00     0.000 C 
ENDROOT
BRANCH   1   2
ATOM      2  C   UNL     1      11.597  15.828  16.858  1.00  0.00     0.000 C 
BRANCH   2   3
ATOM      3  C   UNL     1      12.971  15.682  17.538  1.00  0.00     0.000 C 
BRANCH   3   4
ATOM      4  C   UNL     1      14.023  16.733  17.125  1.00  0.00     0.006 C 
BRANCH   4   5
ATOM      5  C   UNL     1      15.012  16.257  16.050  1.00  0.00     0.053 C 
BRANCH   5   6
ATOM      6  C   UNL     1      16.105  17.254  15.813  1.00  0.00     0.041 C 
ATOM      7  O   UNL     1      16.650  17.340  14.681  1.00  0.00    -0.550 OA
ATOM      8  O   UNL     1      16.497  18.111  16.833  1.00  0.00    -0.550 OA
ENDBRANCH   5   6
ENDBRANCH   4   5
ENDBRANCH   3   4
ENDBRANCH   2   3
ENDBRANCH   1   2
BRANCH   1   9
ATOM      9  C   UNL     1      11.027  16.903  14.608  1.00  0.00     0.000 C 
BRANCH   9  10
ATOM     10  C   UNL     1      10.883  18.212  13.811  1.00  0.00    -0.000 C 
BRANCH  10  11
ATOM     11  C   UNL     1      10.039  18.040  12.537  1.00  0.00    -0.000 C 
BRANCH  11  12
ATOM     12  C   UNL     1      10.068  16.598  12.002  1.00  0.00    -0.000 C 
BRANCH  12  13
ATOM     13  C   UNL     1       8.666  16.067  11.665  1.00  0.00    -0.003 C 
ATOM     14  C   UNL     1       7.747  17.142  11.086  1.00  0.00     0.004 C 
ENDBRANCH  12  13
ENDBRANCH  11  12
ENDBRANCH  10  11
ENDBRANCH   9  10
ENDBRANCH   1   9
TORSDOF 10
ENDMDL
MODEL 7
REMARK VINA RESULT:    -3.907      3.197      6.003
REMARK INTER + INTRA:          -6.738
REMARK INTER:                  -5.433
REMARK INTRA:                  -1.305
REMARK UNBOUND:                -0.546
REMARK SMILES CCCCCCCCCCCC(=O)[O-]
REMARK SMILES IDX 7 1 8 2 9 3 10 4 11 5 12 6 13 7 14 8 6 9 5 10 4 11 3 12 2 13
REMARK SMILES IDX 1 14
REMARK H PARENT
REMARK Flexibility Score: inf
ROOT
ATOM      1  C   UNL     1      14.315  19.969  15.922  1.00  0.00     0.000 C 
ENDROOT
BRANCH   1   2
ATOM      2  C   UNL     1      12.818  20.069  15.581  1.00  0.00     0.000 C 
BRANCH   2   3
ATOM      3  C   UNL     1      12.453  19.347  14.270  1.00  0.00     0.000 C 
BRANCH   3   4
ATOM      4  C   UNL     1      11.032  18.747  14.224  1.00  0.00     0.006 C 
BRANCH   4   5
ATOM      5  C   UNL     1      10.948  17.354  13.582  1.00  0.00     0.053 C 
BRANCH   5   6
ATOM      6  C   UNL     1      10.110  17.358  12.341  1.00  0.00     0.041 C 
ATOM      7  O   UNL     1      10.032  18.396  11.632  1.00  0.00    -0.550 OA
ATOM      8  O   UNL     1       9.441  16.204  11.950  1.00  0.00    -0.550 OA
ENDBRANCH   5   6
ENDBRANCH   4   5
ENDBRANCH   3   4
ENDBRANCH   2   3
ENDBRANCH   1   2
BRANCH   1   9
ATOM      9  C   UNL     1      14.975  18.721  15.312  1.00  0.00     0.000 C 
BRANCH   9  10
ATOM     10  C   UNL     1      15.079  17.555  16.312  1.00  0.00    -0.000 C 
BRANCH  10  11
ATOM     11  C   UNL     1      14.014  16.473  16.072  1.00  0.00    -0.000 C 
BRANCH  11  12
ATOM     12  C   UNL     1      12.796  16.628  16.999  1.00  0.00    -0.000 C 
BRANCH  12  13
ATOM     13  C   UNL     1      11.815  15.450  16.884  1.00  0.00    -0.003 C 
ATOM     14  C   UNL     1      10.353  15.897  16.857  1.00  0.00     0.004 C 
ENDBRANCH  12  13
ENDBRANCH  11  12
ENDBRANCH  10  11
ENDBRANCH   9  10
ENDBRANCH   1   9
TORSDOF 10
ENDMDL
MODEL 8
REMARK VINA RESULT:    -3.886      2.949      4.358
REMARK INTER + INTRA:          -6.704
REMARK INTER:                  -5.461
REMARK INTRA:                  -1.243
REMARK UNBOUND:                -0.546
REMARK SMILES CCCCCCCCCCCC(=O)[O-]
REMARK SMILES IDX 7 1 8 2 9 3 10 4 11 5 12 6 13 7 14 8 6 9 5 10 4 11 3 12 2 13
REMARK SMILES IDX 1 14
REMARK H PARENT
REMARK Flexibility Score: inf
ROOT
ATOM      1  C   UNL     1      12.906  15.494  17.629  1.00  0.00     0.000 C 
ENDROOT
BRANCH   1   2
ATOM      2  C   UNL     1      13.806  16.661  17.189  1.00  0.00     0.000 C 
BRANCH   2   3
ATOM      3  C   UNL     1      14.852  16.248  16.137  1.00  0.00     0.000 C 
BRANCH   3   4
ATOM      4  C   UNL     1      15.572  17.416  15.432  1.00  0.00     0.006 C 
BRANCH   4   5
ATOM      5  C   UNL     1      16.398  18.314  16.365  1.00  0.00     0.053 C 
BRANCH   5   6
ATOM      6  C   UNL     1      17.865  18.034  16.260  1.00  0.00     0.041 C 
ATOM      7  O   UNL     1      18.520  17.690  17.279  1.00  0.00    -0.550 OA
ATOM      8  O   UNL     1      18.503  18.119  15.028  1.00  0.00    -0.550 OA
ENDBRANCH   5   6
ENDBRANCH   4   5
ENDBRANCH   3   4
ENDBRANCH   2   3
ENDBRANCH   1   2
BRANCH   1   9
ATOM      9  C   UNL     1      11.570  15.461  16.869  1.00  0.00     0.000 C 
BRANCH   9  10
ATOM     10  C   UNL     1      11.108  16.859  16.420  1.00  0.00    -0.000 C 
BRANCH  10  11
ATOM     11  C   UNL     1      11.124  17.024  14.891  1.00  0.00    -0.000 C 
BRANCH  11  12
ATOM     12  C   UNL     1      11.671  18.393  14.452  1.00  0.00    -0.000 C 
BRANCH  12  13
ATOM     13  C   UNL     1      11.774  19.388  15.620  1.00  0.00    -0.003 C 
ATOM     14  C   UNL     1      13.082  20.179  15.612  1.00  0.00     0.004 C 
ENDBRANCH  12  13
ENDBRANCH  11  12
ENDBRANCH  10  11
ENDBRANCH   9  10
ENDBRANCH   1   9
TORSDOF 10
ENDMDL
MODEL 9
REMARK VINA RESULT:    -3.870      3.883      7.252
REMARK INTER + INTRA:          -6.679
REMARK INTER:                  -5.945
REMARK INTRA:                  -0.735
REMARK UNBOUND:                -0.546
REMARK SMILES CCCCCCCCCCCC(=O)[O-]
REMARK SMILES IDX 7 1 8 2 9 3 10 4 11 5 12 6 13 7 14 8 6 9 5 10 4 11 3 12 2 13
REMARK SMILES IDX 1 14
REMARK H PARENT
REMARK Flexibility Score: inf
ROOT
ATOM      1  C   UNL     1      10.226  16.783  12.291  1.00  0.00     0.000 C 
ENDROOT
BRANCH   1   2
ATOM      2  C   UNL     1       8.813  16.332  11.880  1.00  0.00     0.000 C 
BRANCH   2   3
ATOM      3  C   UNL     1       8.714  15.957  10.390  1.00  0.00     0.000 C 
BRANCH   3   4
ATOM      4  C   UNL     1       8.138  17.056   9.473  1.00  0.00     0.006 C 
BRANCH   4   5
ATOM      5  C   UNL     1       9.152  18.126   9.043  1.00  0.00     0.053 C 
BRANCH   5   6
ATOM      6  C   UNL     1       8.830  19.469   9.622  1.00  0.00     0.041 C 
ATOM      7  O   UNL     1       7.841  19.609  10.388  1.00  0.00    -0.550 OA
ATOM      8  O   UNL     1       9.645  20.560   9.343  1.00  0.00    -0.550 OA
ENDBRANCH   5   6
ENDBRANCH   4   5
ENDBRANCH   3   4
ENDBRANCH   2   3
ENDBRANCH   1   2
BRANCH   1   9
ATOM      9  C   UNL     1      10.261  18.243  12.772  1.00  0.00     0.000 C 
BRANCH   9  10
ATOM     10  C   UNL     1      10.966  18.404  14.131  1.00  0.00    -0.000 C 
BRANCH  10  11
ATOM     11  C   UNL     1      11.294  17.055  14.791  1.00  0.00    -0.000 C 
BRANCH  11  12
ATOM     12  C   UNL     1      12.554  17.120  15.670  1.00  0.00    -0.000 C 
BRANCH  12  13
ATOM     13  C   UNL     1      12.435  16.255  16.935  1.00  0.00    -0.003 C 
ATOM     14  C   UNL     1      11.278  15.258  16.865  1.00  0.00     0.004 C 
ENDBRANCH  12  13
ENDBRANCH  11  12
ENDBRANCH  10  11
ENDBRANCH   9  10
ENDBRANCH   1   9
TORSDOF 10
ENDMDL
