MODEL 1
REMARK VINA RESULT:    -5.740      0.000      0.000
REMARK INTER + INTRA:          -8.915
REMARK INTER:                  -8.760
REMARK INTRA:                  -0.155
REMARK UNBOUND:                -0.155
REMARK SMILES CC1=CCC[C@@H](C)C(=O)C[C@@H](C(C)C)C(=O)C1
REMARK SMILES IDX 8 1 9 2 6 3 7 4 5 5 4 6 3 7 2 8 1 9 10 11 11 12 15 13 16 14
REMARK SMILES IDX 17 15 12 17 13 18 14 19
REMARK H PARENT
REMARK Flexibility Score: 70.00
ROOT
ATOM      1  C   UNL     1      27.251  15.977  81.905  1.00  0.00     0.136 C 
ATOM      2  O   UNL     1      27.076  17.113  82.322  1.00  0.00    -0.299 OA
ENDROOT
BRANCH   1   3
ATOM      3  C   UNL     1      26.373  14.868  82.465  1.00  0.00     0.053 C 
ATOM      4  C   UNL     1      24.867  15.126  82.295  1.00  0.00     0.016 C 
BRANCH   3   5
ATOM      5  C   UNL     1      26.770  14.484  83.907  1.00  0.00     0.015 C 
BRANCH   5   6
ATOM      6  C   UNL     1      28.022  13.590  84.002  1.00  0.00     0.028 C 
BRANCH   6   7
ATOM      7  C   UNL     1      27.915  12.346  83.155  1.00  0.00    -0.028 C 
ATOM      8  C   UNL     1      28.795  11.986  82.186  1.00  0.00    -0.070 CG0
ATOM      9  C   UNL     1      28.592  10.680  81.460  1.00  0.00     0.039 C 
ATOM     10  G   UNL     1      29.946  12.867  81.725  1.00  0.00     0.000 G0
ENDBRANCH   6   7
ENDBRANCH   5   6
ENDBRANCH   3   5
ENDBRANCH   1   3
BRANCH   1  11
ATOM     11  C   UNL     1      28.346  15.753  80.877  1.00  0.00     0.087 C 
BRANCH  11  12
ATOM     12  C   UNL     1      28.316  14.320  80.279  1.00  0.00     0.066 C 
BRANCH  12  13
ATOM     13  C   UNL     1      29.658  13.624  80.454  1.00  0.00     0.140 C 
ATOM     14  O   UNL     1      30.490  13.650  79.557  1.00  0.00    -0.299 OA
BRANCH  13  15
ATOM     15  C   UNL     1      29.952  12.855  81.719  1.00  0.00     0.106 CG0
ATOM     16  G   UNL     1      28.788  12.001  82.197  1.00  0.00     0.000 G0
ENDBRANCH  13  15
ENDBRANCH  12  13
BRANCH  12  17
ATOM     17  C   UNL     1      27.830  14.279  78.793  1.00  0.00    -0.006 C 
ATOM     18  C   UNL     1      26.650  15.223  78.496  1.00  0.00     0.008 C 
ATOM     19  C   UNL     1      27.472  12.849  78.356  1.00  0.00     0.008 C 
ENDBRANCH  12  17
ENDBRANCH  11  12
ENDBRANCH   1  11
TORSDOF 1
ENDMDL
MODEL 2
REMARK VINA RESULT:    -5.476      1.164      1.536
REMARK INTER + INTRA:          -8.512
REMARK INTER:                  -8.181
REMARK INTRA:                  -0.330
REMARK UNBOUND:                -0.155
REMARK SMILES CC1=CCC[C@@H](C)C(=O)C[C@@H](C(C)C)C(=O)C1
REMARK SMILES IDX 8 1 9 2 6 3 7 4 5 5 4 6 3 7 2 8 1 9 10 11 11 12 15 13 16 14
REMARK SMILES IDX 17 15 12 17 13 18 14 19
REMARK H PARENT
REMARK Flexibility Score: 70.00
ROOT
ATOM      1  C   UNL     1      27.201  15.541  81.096  1.00  0.00     0.136 C 
ATOM      2  O   UNL     1      27.798  16.336  81.808  1.00  0.00    -0.299 OA
ENDROOT
BRANCH   1   3
ATOM      3  C   UNL     1      26.081  14.725  81.723  1.00  0.00     0.053 C 
ATOM      4  C   UNL     1      24.756  15.494  81.859  1.00  0.00     0.016 C 
BRANCH   3   5
ATOM      5  C   UNL     1      26.525  14.034  83.030  1.00  0.00     0.015 C 
BRANCH   5   6
ATOM      6  C   UNL     1      27.468  12.832  82.822  1.00  0.00     0.028 C 
BRANCH   6   7
ATOM      7  C   UNL     1      28.925  13.222  82.849  1.00  0.00    -0.028 C 
ATOM      8  C   UNL     1      29.783  13.098  81.804  1.00  0.00    -0.070 CG0
ATOM      9  C   UNL     1      31.201  13.587  81.959  1.00  0.00     0.039 C 
ATOM     10  G   UNL     1      29.420  12.415  80.494  1.00  0.00     0.000 G0
ENDBRANCH   6   7
ENDBRANCH   5   6
ENDBRANCH   3   5
ENDBRANCH   1   3
BRANCH   1  11
ATOM     11  C   UNL     1      27.636  15.410  79.648  1.00  0.00     0.087 C 
BRANCH  11  12
ATOM     12  C   UNL     1      27.727  13.930  79.185  1.00  0.00     0.066 C 
BRANCH  12  13
ATOM     13  C   UNL     1      29.135  13.383  79.369  1.00  0.00     0.140 C 
ATOM     14  O   UNL     1      30.027  13.693  78.591  1.00  0.00    -0.299 OA
BRANCH  13  15
ATOM     15  C   UNL     1      29.430  12.413  80.488  1.00  0.00     0.106 CG0
ATOM     16  G   UNL     1      29.764  13.091  81.808  1.00  0.00     0.000 G0
ENDBRANCH  13  15
ENDBRANCH  12  13
BRANCH  12  17
ATOM     17  C   UNL     1      27.201  13.702  77.730  1.00  0.00    -0.006 C 
ATOM     18  C   UNL     1      25.847  14.378  77.443  1.00  0.00     0.008 C 
ATOM     19  C   UNL     1      27.116  12.205  77.389  1.00  0.00     0.008 C 
ENDBRANCH  12  17
ENDBRANCH  11  12
ENDBRANCH   1  11
TORSDOF 1
ENDMDL
MODEL 3
REMARK VINA RESULT:    -5.460      2.108      4.319
REMARK INTER + INTRA:          -8.488
REMARK INTER:                  -8.487
REMARK INTRA:                  -0.001
REMARK UNBOUND:                -0.155
REMARK SMILES CC1=CCC[C@@H](C)C(=O)C[C@@H](C(C)C)C(=O)C1
REMARK SMILES IDX 8 1 9 2 6 3 7 4 5 5 4 6 3 7 2 8 1 9 10 11 11 12 15 13 16 14
REMARK SMILES IDX 17 15 12 17 13 18 14 19
REMARK H PARENT
REMARK Flexibility Score: 70.00
ROOT
ATOM      1  C   UNL     1      27.565  11.809  80.456  1.00  0.00     0.136 C 
ATOM      2  O   UNL     1      28.245  11.028  81.108  1.00  0.00    -0.299 OA
ENDROOT
BRANCH   1   3
ATOM      3  C   UNL     1      27.715  11.792  78.942  1.00  0.00     0.053 C 
ATOM      4  C   UNL     1      27.124  10.538  78.276  1.00  0.00     0.016 C 
BRANCH   3   5
ATOM      5  C   UNL     1      29.161  12.098  78.497  1.00  0.00     0.015 C 
BRANCH   5   6
ATOM      6  C   UNL     1      29.626  13.536  78.802  1.00  0.00     0.028 C 
BRANCH   6   7
ATOM      7  C   UNL     1      30.625  13.599  79.930  1.00  0.00    -0.028 C 
ATOM      8  C   UNL     1      30.486  14.352  81.051  1.00  0.00    -0.070 CG0
ATOM      9  C   UNL     1      31.541  14.268  82.125  1.00  0.00     0.039 C 
ATOM     10  G   UNL     1      29.356  15.349  81.261  1.00  0.00     0.000 G0
ENDBRANCH   6   7
ENDBRANCH   5   6
ENDBRANCH   3   5
ENDBRANCH   1   3
BRANCH   1  11
ATOM     11  C   UNL     1      26.642  12.752  81.205  1.00  0.00     0.087 C 
BRANCH  11  12
ATOM     12  C   UNL     1      26.986  14.245  80.954  1.00  0.00     0.066 C 
BRANCH  12  13
ATOM     13  C   UNL     1      28.115  14.709  81.863  1.00  0.00     0.140 C 
ATOM     14  O   UNL     1      28.012  14.609  83.078  1.00  0.00    -0.299 OA
BRANCH  13  15
ATOM     15  C   UNL     1      29.351  15.342  81.271  1.00  0.00     0.106 CG0
ATOM     16  G   UNL     1      30.487  14.357  81.040  1.00  0.00     0.000 G0
ENDBRANCH  13  15
ENDBRANCH  12  13
BRANCH  12  17
ATOM     17  C   UNL     1      25.743  15.191  81.043  1.00  0.00    -0.006 C 
ATOM     18  C   UNL     1      26.078  16.681  80.838  1.00  0.00     0.008 C 
ATOM     19  C   UNL     1      24.988  15.008  82.370  1.00  0.00     0.008 C 
ENDBRANCH  12  17
ENDBRANCH  11  12
ENDBRANCH   1  11
TORSDOF 1
ENDMDL
MODEL 4
REMARK VINA RESULT:    -5.370      2.007      4.867
REMARK INTER + INTRA:          -8.350
REMARK INTER:                  -7.914
REMARK INTRA:                  -0.436
REMARK UNBOUND:                -0.155
REMARK SMILES CC1=CCC[C@@H](C)C(=O)C[C@@H](C(C)C)C(=O)C1
REMARK SMILES IDX 8 1 9 2 6 3 7 4 5 5 4 6 3 7 2 8 1 9 10 11 11 12 15 13 16 14
REMARK SMILES IDX 17 15 12 17 13 18 14 19
REMARK H PARENT
REMARK Flexibility Score: 70.00
ROOT
ATOM      1  C   UNL     1      28.626  13.439  79.494  1.00  0.00     0.136 C 
ATOM      2  O   UNL     1      29.584  13.891  78.882  1.00  0.00    -0.299 OA
ENDROOT
BRANCH   1   3
ATOM      3  C   UNL     1      27.344  13.180  78.719  1.00  0.00     0.053 C 
ATOM      4  C   UNL     1      27.500  12.147  77.590  1.00  0.00     0.016 C 
BRANCH   3   5
ATOM      5  C   UNL     1      26.665  14.490  78.261  1.00  0.00     0.015 C 
BRANCH   5   6
ATOM      6  C   UNL     1      25.682  15.086  79.288  1.00  0.00     0.028 C 
BRANCH   6   7
ATOM      7  C   UNL     1      26.280  16.225  80.075  1.00  0.00    -0.028 C 
ATOM      8  C   UNL     1      26.486  16.219  81.417  1.00  0.00    -0.070 CG0
ATOM      9  C   UNL     1      27.150  17.410  82.061  1.00  0.00     0.039 C 
ATOM     10  G   UNL     1      26.012  15.104  82.337  1.00  0.00     0.000 G0
ENDBRANCH   6   7
ENDBRANCH   5   6
ENDBRANCH   3   5
ENDBRANCH   1   3
BRANCH   1  11
ATOM     11  C   UNL     1      28.780  13.192  80.984  1.00  0.00     0.087 C 
BRANCH  11  12
ATOM     12  C   UNL     1      27.417  12.966  81.693  1.00  0.00     0.066 C 
BRANCH  12  13
ATOM     13  C   UNL     1      27.111  14.095  82.667  1.00  0.00     0.140 C 
ATOM     14  O   UNL     1      27.711  14.177  83.729  1.00  0.00    -0.299 OA
BRANCH  13  15
ATOM     15  C   UNL     1      26.028  15.097  82.347  1.00  0.00     0.106 CG0
ATOM     16  G   UNL     1      26.488  16.218  81.427  1.00  0.00     0.000 G0
ENDBRANCH  13  15
ENDBRANCH  12  13
BRANCH  12  17
ATOM     17  C   UNL     1      27.298  11.564  82.375  1.00  0.00    -0.006 C 
ATOM     18  C   UNL     1      28.613  11.060  82.999  1.00  0.00     0.008 C 
ATOM     19  C   UNL     1      26.748  10.508  81.402  1.00  0.00     0.008 C 
ENDBRANCH  12  17
ENDBRANCH  11  12
ENDBRANCH   1  11
TORSDOF 1
ENDMDL
MODEL 5
REMARK VINA RESULT:    -5.349      2.131      3.594
REMARK INTER + INTRA:          -8.319
REMARK INTER:                  -7.990
REMARK INTRA:                  -0.329
REMARK UNBOUND:                -0.155
REMARK SMILES CC1=CCC[C@@H](C)C(=O)C[C@@H](C(C)C)C(=O)C1
REMARK SMILES IDX 8 1 9 2 6 3 7 4 5 5 4 6 3 7 2 8 1 9 10 11 11 12 15 13 16 14
REMARK SMILES IDX 17 15 12 17 13 18 14 19
REMARK H PARENT
REMARK Flexibility Score: 70.00
ROOT
ATOM      1  C   UNL     1      28.763  14.502  82.043  1.00  0.00     0.136 C 
ATOM      2  O   UNL     1      29.918  14.725  82.375  1.00  0.00    -0.299 OA
ENDROOT
BRANCH   1   3
ATOM      3  C   UNL     1      28.076  13.279  82.632  1.00  0.00     0.053 C 
ATOM      4  C   UNL     1      27.996  13.292  84.167  1.00  0.00     0.016 C 
BRANCH   3   5
ATOM      5  C   UNL     1      28.642  11.961  82.059  1.00  0.00     0.015 C 
BRANCH   5   6
ATOM      6  C   UNL     1      29.309  12.107  80.677  1.00  0.00     0.028 C 
BRANCH   6   7
ATOM      7  C   UNL     1      28.447  11.583  79.555  1.00  0.00    -0.028 C 
ATOM      8  C   UNL     1      27.967  12.330  78.528  1.00  0.00    -0.070 CG0
ATOM      9  C   UNL     1      27.166  11.656  77.443  1.00  0.00     0.039 C 
ATOM     10  G   UNL     1      28.123  13.841  78.442  1.00  0.00     0.000 G0
ENDBRANCH   6   7
ENDBRANCH   5   6
ENDBRANCH   3   5
ENDBRANCH   1   3
BRANCH   1  11
ATOM     11  C   UNL     1      28.107  15.446  81.052  1.00  0.00     0.087 C 
BRANCH  11  12
ATOM     12  C   UNL     1      26.793  14.869  80.460  1.00  0.00     0.066 C 
BRANCH  12  13
ATOM     13  C   UNL     1      26.928  14.619  78.965  1.00  0.00     0.140 C 
ATOM     14  O   UNL     1      26.058  14.997  78.193  1.00  0.00    -0.299 OA
BRANCH  13  15
ATOM     15  C   UNL     1      28.116  13.857  78.430  1.00  0.00     0.106 CG0
ATOM     16  G   UNL     1      27.971  12.347  78.541  1.00  0.00     0.000 G0
ENDBRANCH  13  15
ENDBRANCH  12  13
BRANCH  12  17
ATOM     17  C   UNL     1      25.531  15.732  80.792  1.00  0.00    -0.006 C 
ATOM     18  C   UNL     1      25.817  17.243  80.885  1.00  0.00     0.008 C 
ATOM     19  C   UNL     1      24.844  15.254  82.082  1.00  0.00     0.008 C 
ENDBRANCH  12  17
ENDBRANCH  11  12
ENDBRANCH   1  11
TORSDOF 1
ENDMDL
MODEL 6
REMARK VINA RESULT:    -5.229      2.005      3.561
REMARK INTER + INTRA:          -8.135
REMARK INTER:                  -7.845
REMARK INTRA:                  -0.289
REMARK UNBOUND:                -0.155
REMARK SMILES CC1=CCC[C@@H](C)C(=O)C[C@@H](C(C)C)C(=O)C1
REMARK SMILES IDX 8 1 9 2 6 3 7 4 5 5 4 6 3 7 2 8 1 9 10 11 11 12 15 13 16 14
REMARK SMILES IDX 17 15 12 17 13 18 14 19
REMARK H PARENT
REMARK Flexibility Score: 70.00
ROOT
ATOM      1  C   UNL     1      28.013  13.879  78.280  1.00  0.00     0.136 C 
ATOM      2  O   UNL     1      28.757  14.770  77.896  1.00  0.00    -0.299 OA
ENDROOT
BRANCH   1   3
ATOM      3  C   UNL     1      26.611  14.265  78.727  1.00  0.00     0.053 C 
ATOM      4  C   UNL     1      25.714  14.769  77.585  1.00  0.00     0.016 C 
BRANCH   3   5
ATOM      5  C   UNL     1      26.628  15.204  79.953  1.00  0.00     0.015 C 
BRANCH   5   6
ATOM      6  C   UNL     1      27.110  14.535  81.256  1.00  0.00     0.028 C 
BRANCH   6   7
ATOM      7  C   UNL     1      28.554  14.839  81.568  1.00  0.00    -0.028 C 
ATOM      8  C   UNL     1      29.514  13.907  81.796  1.00  0.00    -0.070 CG0
ATOM      9  C   UNL     1      30.932  14.359  82.038  1.00  0.00     0.039 C 
ATOM     10  G   UNL     1      29.230  12.416  81.903  1.00  0.00     0.000 G0
ENDBRANCH   6   7
ENDBRANCH   5   6
ENDBRANCH   3   5
ENDBRANCH   1   3
BRANCH   1  11
ATOM     11  C   UNL     1      28.549  12.460  78.306  1.00  0.00     0.087 C 
BRANCH  11  12
ATOM     12  C   UNL     1      28.168  11.702  79.607  1.00  0.00     0.066 C 
BRANCH  12  13
ATOM     13  C   UNL     1      29.333  11.669  80.584  1.00  0.00     0.140 C 
ATOM     14  O   UNL     1      30.333  11.011  80.334  1.00  0.00    -0.299 OA
BRANCH  13  15
ATOM     15  C   UNL     1      29.242  12.411  81.896  1.00  0.00     0.106 CG0
ATOM     16  G   UNL     1      29.518  13.902  81.772  1.00  0.00     0.000 G0
ENDBRANCH  13  15
ENDBRANCH  12  13
BRANCH  12  17
ATOM     17  C   UNL     1      27.588  10.273  79.345  1.00  0.00    -0.006 C 
ATOM     18  C   UNL     1      26.970  10.097  77.945  1.00  0.00     0.008 C 
ATOM     19  C   UNL     1      26.562   9.875  80.418  1.00  0.00     0.008 C 
ENDBRANCH  12  17
ENDBRANCH  11  12
ENDBRANCH   1  11
TORSDOF 1
ENDMDL
MODEL 7
REMARK VINA RESULT:    -5.224      2.063      4.005
REMARK INTER + INTRA:          -8.128
REMARK INTER:                  -8.071
REMARK INTRA:                  -0.057
REMARK UNBOUND:                -0.155
REMARK SMILES CC1=CCC[C@@H](C)C(=O)C[C@@H](C(C)C)C(=O)C1
REMARK SMILES IDX 8 1 9 2 6 3 7 4 5 5 4 6 3 7 2 8 1 9 10 11 11 12 15 13 16 14
REMARK SMILES IDX 17 15 12 17 13 18 14 19
REMARK H PARENT
REMARK Flexibility Score: 70.00
ROOT
ATOM      1  C   UNL     1      25.919  14.609  81.955  1.00  0.00     0.136 C 
ATOM      2  O   UNL     1      24.812  14.947  82.349  1.00  0.00    -0.299 OA
ENDROOT
BRANCH   1   3
ATOM      3  C   UNL     1      26.705  15.595  81.104  1.00  0.00     0.053 C 
ATOM      4  C   UNL     1      27.097  16.881  81.851  1.00  0.00     0.016 C 
BRANCH   3   5
ATOM      5  C   UNL     1      26.025  15.861  79.743  1.00  0.00     0.015 C 
BRANCH   5   6
ATOM      6  C   UNL     1      26.338  14.805  78.664  1.00  0.00     0.028 C 
BRANCH   6   7
ATOM      7  C   UNL     1      27.806  14.470  78.584  1.00  0.00    -0.028 C 
ATOM      8  C   UNL     1      28.329  13.224  78.722  1.00  0.00    -0.070 CG0
ATOM      9  C   UNL     1      29.815  13.031  78.558  1.00  0.00     0.039 C 
ATOM     10  G   UNL     1      27.507  12.006  79.116  1.00  0.00     0.000 G0
ENDBRANCH   6   7
ENDBRANCH   5   6
ENDBRANCH   3   5
ENDBRANCH   1   3
BRANCH   1  11
ATOM     11  C   UNL     1      26.418  13.223  82.322  1.00  0.00     0.087 C 
BRANCH  11  12
ATOM     12  C   UNL     1      27.739  12.854  81.595  1.00  0.00     0.066 C 
BRANCH  12  13
ATOM     13  C   UNL     1      27.523  11.714  80.610  1.00  0.00     0.140 C 
ATOM     14  O   UNL     1      27.390  10.565  81.010  1.00  0.00    -0.299 OA
BRANCH  13  15
ATOM     15  C   UNL     1      27.519  11.988  79.125  1.00  0.00     0.106 CG0
ATOM     16  G   UNL     1      28.325  13.216  78.731  1.00  0.00     0.000 G0
ENDBRANCH  13  15
ENDBRANCH  12  13
BRANCH  12  17
ATOM     17  C   UNL     1      28.924  12.559  82.572  1.00  0.00    -0.006 C 
ATOM     18  C   UNL     1      28.477  12.114  83.978  1.00  0.00     0.008 C 
ATOM     19  C   UNL     1      29.874  13.762  82.686  1.00  0.00     0.008 C 
ENDBRANCH  12  17
ENDBRANCH  11  12
ENDBRANCH   1  11
TORSDOF 1
ENDMDL
MODEL 8
REMARK VINA RESULT:    -5.143      1.951      4.405
REMARK INTER + INTRA:          -8.004
REMARK INTER:                  -7.647
REMARK INTRA:                  -0.357
REMARK UNBOUND:                -0.155
REMARK SMILES CC1=CCC[C@@H](C)C(=O)C[C@@H](C(C)C)C(=O)C1
REMARK SMILES IDX 8 1 9 2 6 3 7 4 5 5 4 6 3 7 2 8 1 9 10 11 11 12 15 13 16 14
REMARK SMILES IDX 17 15 12 17 13 18 14 19
REMARK H PARENT
REMARK Flexibility Score: 70.00
ROOT
ATOM      1  C   UNL     1      28.424  11.499  82.391  1.00  0.00     0.136 C 
ATOM      2  O   UNL     1      28.627  10.658  83.255  1.00  0.00    -0.299 OA
ENDROOT
BRANCH   1   3
ATOM      3  C   UNL     1      27.853  11.031  81.061  1.00  0.00     0.053 C 
ATOM      4  C   UNL     1      26.550  10.225  81.195  1.00  0.00     0.016 C 
BRANCH   3   5
ATOM      5  C   UNL     1      28.917  10.333  80.184  1.00  0.00     0.015 C 
BRANCH   5   6
ATOM      6  C   UNL     1      29.677  11.283  79.238  1.00  0.00     0.028 C 
BRANCH   6   7
ATOM      7  C   UNL     1      28.772  12.286  78.567  1.00  0.00    -0.028 C 
ATOM      8  C   UNL     1      28.781  13.623  78.805  1.00  0.00    -0.070 CG0
ATOM      9  C   UNL     1      27.857  14.514  78.014  1.00  0.00     0.039 C 
ATOM     10  G   UNL     1      29.620  14.279  79.892  1.00  0.00     0.000 G0
ENDBRANCH   6   7
ENDBRANCH   5   6
ENDBRANCH   3   5
ENDBRANCH   1   3
BRANCH   1  11
ATOM     11  C   UNL     1      28.777  12.942  82.699  1.00  0.00     0.087 C 
BRANCH  11  12
ATOM     12  C   UNL     1      27.927  13.951  81.879  1.00  0.00     0.066 C 
BRANCH  12  13
ATOM     13  C   UNL     1      28.813  14.861  81.040  1.00  0.00     0.140 C 
ATOM     14  O   UNL     1      28.846  16.064  81.256  1.00  0.00    -0.299 OA
BRANCH  13  15
ATOM     15  C   UNL     1      29.623  14.287  79.902  1.00  0.00     0.106 CG0
ATOM     16  G   UNL     1      28.776  13.626  78.826  1.00  0.00     0.000 G0
ENDBRANCH  13  15
ENDBRANCH  12  13
BRANCH  12  17
ATOM     17  C   UNL     1      26.920  14.769  82.754  1.00  0.00    -0.006 C 
ATOM     18  C   UNL     1      26.902  14.353  84.237  1.00  0.00     0.008 C 
ATOM     19  C   UNL     1      25.495  14.705  82.180  1.00  0.00     0.008 C 
ENDBRANCH  12  17
ENDBRANCH  11  12
ENDBRANCH   1  11
TORSDOF 1
ENDMDL
MODEL 9
REMARK VINA RESULT:    -5.106      1.496      2.184
REMARK INTER + INTRA:          -7.948
REMARK INTER:                  -7.823
REMARK INTRA:                  -0.125
REMARK UNBOUND:                -0.155
REMARK SMILES CC1=CCC[C@@H](C)C(=O)C[C@@H](C(C)C)C(=O)C1
REMARK SMILES IDX 8 1 9 2 6 3 7 4 5 5 4 6 3 7 2 8 1 9 10 11 11 12 15 13 16 14
REMARK SMILES IDX 17 15 12 17 13 18 14 19
REMARK H PARENT
REMARK Flexibility Score: 70.00
ROOT
ATOM      1  C   UNL     1      26.772  15.004  79.984  1.00  0.00     0.136 C 
ATOM      2  O   UNL     1      25.897  14.763  79.164  1.00  0.00    -0.299 OA
ENDROOT
BRANCH   1   3
ATOM      3  C   UNL     1      26.397  15.829  81.205  1.00  0.00     0.053 C 
ATOM      4  C   UNL     1      27.508  16.787  81.670  1.00  0.00     0.016 C 
BRANCH   3   5
ATOM      5  C   UNL     1      25.824  14.958  82.344  1.00  0.00     0.015 C 
BRANCH   5   6
ATOM      6  C   UNL     1      26.762  14.806  83.558  1.00  0.00     0.028 C 
BRANCH   6   7
ATOM      7  C   UNL     1      27.155  13.372  83.815  1.00  0.00    -0.028 C 
ATOM      8  C   UNL     1      28.349  12.820  83.476  1.00  0.00    -0.070 CG0
ATOM      9  C   UNL     1      28.625  11.386  83.852  1.00  0.00     0.039 C 
ATOM     10  G   UNL     1      29.410  13.544  82.662  1.00  0.00     0.000 G0
ENDBRANCH   6   7
ENDBRANCH   5   6
ENDBRANCH   3   5
ENDBRANCH   1   3
BRANCH   1  11
ATOM     11  C   UNL     1      28.171  14.482  79.712  1.00  0.00     0.087 C 
BRANCH  11  12
ATOM     12  C   UNL     1      28.397  13.057  80.286  1.00  0.00     0.066 C 
BRANCH  12  13
ATOM     13  C   UNL     1      29.572  13.035  81.253  1.00  0.00     0.140 C 
ATOM     14  O   UNL     1      30.645  12.555  80.913  1.00  0.00    -0.299 OA
BRANCH  13  15
ATOM     15  C   UNL     1      29.406  13.561  82.658  1.00  0.00     0.106 CG0
ATOM     16  G   UNL     1      28.365  12.807  83.471  1.00  0.00     0.000 G0
ENDBRANCH  13  15
ENDBRANCH  12  13
BRANCH  12  17
ATOM     17  C   UNL     1      28.533  11.957  79.181  1.00  0.00    -0.006 C 
ATOM     18  C   UNL     1      27.671  12.218  77.932  1.00  0.00     0.008 C 
ATOM     19  C   UNL     1      28.229  10.557  79.739  1.00  0.00     0.008 C 
ENDBRANCH  12  17
ENDBRANCH  11  12
ENDBRANCH   1  11
TORSDOF 1
ENDMDL
