MODEL 1
REMARK VINA RESULT:    -4.748      0.000      0.000
REMARK INTER + INTRA:          -7.332
REMARK INTER:                  -6.413
REMARK INTRA:                  -0.919
REMARK UNBOUND:                -0.919
REMARK SMILES CCCCCCC=CC(=O)[O-]
REMARK SMILES IDX 5 1 6 2 7 3 8 4 9 5 10 6 11 7 4 8 3 9 2 10 1 11
REMARK H PARENT
REMARK Flexibility Score: inf
ROOT
ATOM      1  C   UNL     1     -28.958  -2.448  23.206  1.00  0.00     0.004 C 
ENDROOT
BRANCH   1   2
ATOM      2  C   UNL     1     -30.422  -2.177  23.578  1.00  0.00     0.027 C 
BRANCH   2   3
ATOM      3  C   UNL     1     -30.814  -0.762  23.259  1.00  0.00    -0.025 C 
ATOM      4  C   UNL     1     -30.780   0.279  24.109  1.00  0.00     0.020 C 
BRANCH   4   5
ATOM      5  C   UNL     1     -30.313   0.256  25.511  1.00  0.00     0.064 C 
ATOM      6  O   UNL     1     -29.225   0.820  25.798  1.00  0.00    -0.545 OA
ATOM      7  O   UNL     1     -31.018  -0.388  26.519  1.00  0.00    -0.545 OA
ENDBRANCH   4   5
ENDBRANCH   2   3
ENDBRANCH   1   2
BRANCH   1   8
ATOM      8  C   UNL     1     -28.051  -2.349  24.438  1.00  0.00     0.000 C 
BRANCH   8   9
ATOM      9  C   UNL     1     -26.863  -1.412  24.173  1.00  0.00    -0.000 C 
BRANCH   9  10
ATOM     10  C   UNL     1     -27.033  -0.591  22.886  1.00  0.00    -0.003 C 
ATOM     11  C   UNL     1     -26.987   0.916  23.135  1.00  0.00     0.004 C 
ENDBRANCH   9  10
ENDBRANCH   8   9
ENDBRANCH   1   8
TORSDOF 6
ENDMDL
MODEL 2
REMARK VINA RESULT:    -4.743      1.438      2.799
REMARK INTER + INTRA:          -7.325
REMARK INTER:                  -6.380
REMARK INTRA:                  -0.946
REMARK UNBOUND:                -0.919
REMARK SMILES CCCCCCC=CC(=O)[O-]
REMARK SMILES IDX 5 1 6 2 7 3 8 4 9 5 10 6 11 7 4 8 3 9 2 10 1 11
REMARK H PARENT
REMARK Flexibility Score: inf
ROOT
ATOM      1  C   UNL     1     -29.121  -2.257  23.439  1.00  0.00     0.004 C 
ENDROOT
BRANCH   1   2
ATOM      2  C   UNL     1     -28.214  -2.219  24.675  1.00  0.00     0.027 C 
BRANCH   2   3
ATOM      3  C   UNL     1     -27.360  -0.982  24.688  1.00  0.00    -0.025 C 
ATOM      4  C   UNL     1     -27.543   0.098  25.467  1.00  0.00     0.020 C 
BRANCH   4   5
ATOM      5  C   UNL     1     -28.590   0.274  26.496  1.00  0.00     0.064 C 
ATOM      6  O   UNL     1     -29.588   0.994  26.230  1.00  0.00    -0.545 OA
ATOM      7  O   UNL     1     -28.501  -0.306  27.754  1.00  0.00    -0.545 OA
ENDBRANCH   4   5
ENDBRANCH   2   3
ENDBRANCH   1   2
BRANCH   1   8
ATOM      8  C   UNL     1     -30.573  -1.934  23.812  1.00  0.00     0.000 C 
BRANCH   8   9
ATOM      9  C   UNL     1     -30.964  -0.527  23.336  1.00  0.00    -0.000 C 
BRANCH   9  10
ATOM     10  C   UNL     1     -29.960   0.059  22.333  1.00  0.00    -0.003 C 
ATOM     11  C   UNL     1     -29.523   1.479  22.693  1.00  0.00     0.004 C 
ENDBRANCH   9  10
ENDBRANCH   8   9
ENDBRANCH   1   8
TORSDOF 6
ENDMDL
MODEL 3
REMARK VINA RESULT:    -4.730      1.382      3.672
REMARK INTER + INTRA:          -7.308
REMARK INTER:                  -6.448
REMARK INTRA:                  -0.860
REMARK UNBOUND:                -0.919
REMARK SMILES CCCCCCC=CC(=O)[O-]
REMARK SMILES IDX 5 1 6 2 7 3 8 4 9 5 10 6 11 7 4 8 3 9 2 10 1 11
REMARK H PARENT
REMARK Flexibility Score: inf
ROOT
ATOM      1  C   UNL     1     -28.684   0.436  22.157  1.00  0.00     0.004 C 
ENDROOT
BRANCH   1   2
ATOM      2  C   UNL     1     -27.326   0.513  22.867  1.00  0.00     0.027 C 
BRANCH   2   3
ATOM      3  C   UNL     1     -26.958  -0.807  23.486  1.00  0.00    -0.025 C 
ATOM      4  C   UNL     1     -27.215  -1.187  24.749  1.00  0.00     0.020 C 
BRANCH   4   5
ATOM      5  C   UNL     1     -27.946  -0.410  25.771  1.00  0.00     0.064 C 
ATOM      6  O   UNL     1     -27.419   0.636  26.231  1.00  0.00    -0.545 OA
ATOM      7  O   UNL     1     -29.183  -0.806  26.262  1.00  0.00    -0.545 OA
ENDBRANCH   4   5
ENDBRANCH   2   3
ENDBRANCH   1   2
BRANCH   1   8
ATOM      8  C   UNL     1     -29.753   1.219  22.928  1.00  0.00     0.000 C 
BRANCH   8   9
ATOM      9  C   UNL     1     -30.910   0.301  23.351  1.00  0.00    -0.000 C 
BRANCH   9  10
ATOM     10  C   UNL     1     -30.848  -1.078  22.676  1.00  0.00    -0.003 C 
ATOM     11  C   UNL     1     -30.884  -2.230  23.681  1.00  0.00     0.004 C 
ENDBRANCH   9  10
ENDBRANCH   8   9
ENDBRANCH   1   8
TORSDOF 6
ENDMDL
MODEL 4
REMARK VINA RESULT:    -4.712      3.093      3.605
REMARK INTER + INTRA:          -7.285
REMARK INTER:                  -6.299
REMARK INTRA:                  -0.986
REMARK UNBOUND:                -0.919
REMARK SMILES CCCCCCC=CC(=O)[O-]
REMARK SMILES IDX 5 1 6 2 7 3 8 4 9 5 10 6 11 7 4 8 3 9 2 10 1 11
REMARK H PARENT
REMARK Flexibility Score: inf
ROOT
ATOM      1  C   UNL     1     -29.653  -1.593  24.179  1.00  0.00     0.004 C 
ENDROOT
BRANCH   1   2
ATOM      2  C   UNL     1     -30.401  -1.743  22.848  1.00  0.00     0.027 C 
BRANCH   2   3
ATOM      3  C   UNL     1     -30.147  -0.569  21.943  1.00  0.00    -0.025 C 
ATOM      4  C   UNL     1     -29.223  -0.505  20.970  1.00  0.00     0.020 C 
BRANCH   4   5
ATOM      5  C   UNL     1     -28.298  -1.584  20.562  1.00  0.00     0.064 C 
ATOM      6  O   UNL     1     -27.070  -1.457  20.807  1.00  0.00    -0.545 OA
ATOM      7  O   UNL     1     -28.732  -2.722  19.895  1.00  0.00    -0.545 OA
ENDBRANCH   4   5
ENDBRANCH   2   3
ENDBRANCH   1   2
BRANCH   1   8
ATOM      8  C   UNL     1     -28.371  -2.434  24.188  1.00  0.00     0.000 C 
BRANCH   8   9
ATOM      9  C   UNL     1     -27.130  -1.545  24.352  1.00  0.00    -0.000 C 
BRANCH   9  10
ATOM     10  C   UNL     1     -27.486  -0.067  24.572  1.00  0.00    -0.003 C 
ATOM     11  C   UNL     1     -26.867   0.853  23.519  1.00  0.00     0.004 C 
ENDBRANCH   9  10
ENDBRANCH   8   9
ENDBRANCH   1   8
TORSDOF 6
ENDMDL
MODEL 5
REMARK VINA RESULT:    -4.699      2.205      3.350
REMARK INTER + INTRA:          -7.266
REMARK INTER:                  -6.358
REMARK INTRA:                  -0.909
REMARK UNBOUND:                -0.919
REMARK SMILES CCCCCCC=CC(=O)[O-]
REMARK SMILES IDX 5 1 6 2 7 3 8 4 9 5 10 6 11 7 4 8 3 9 2 10 1 11
REMARK H PARENT
REMARK Flexibility Score: inf
ROOT
ATOM      1  C   UNL     1     -27.100   0.448  23.848  1.00  0.00     0.004 C 
ENDROOT
BRANCH   1   2
ATOM      2  C   UNL     1     -27.910   0.463  22.545  1.00  0.00     0.027 C 
BRANCH   2   3
ATOM      3  C   UNL     1     -29.252   1.111  22.743  1.00  0.00    -0.025 C 
ATOM      4  C   UNL     1     -30.433   0.475  22.827  1.00  0.00     0.020 C 
BRANCH   4   5
ATOM      5  C   UNL     1     -30.651  -0.986  22.785  1.00  0.00     0.064 C 
ATOM      6  O   UNL     1     -31.093  -1.564  23.812  1.00  0.00    -0.545 OA
ATOM      7  O   UNL     1     -30.362  -1.749  21.662  1.00  0.00    -0.545 OA
ENDBRANCH   4   5
ENDBRANCH   2   3
ENDBRANCH   1   2
BRANCH   1   8
ATOM      8  C   UNL     1     -27.163  -0.928  24.520  1.00  0.00     0.000 C 
BRANCH   8   9
ATOM      9  C   UNL     1     -28.174  -0.931  25.676  1.00  0.00    -0.000 C 
BRANCH   9  10
ATOM     10  C   UNL     1     -28.286   0.436  26.367  1.00  0.00    -0.003 C 
ATOM     11  C   UNL     1     -29.733   0.905  26.520  1.00  0.00     0.004 C 
ENDBRANCH   9  10
ENDBRANCH   8   9
ENDBRANCH   1   8
TORSDOF 6
ENDMDL
MODEL 6
REMARK VINA RESULT:    -4.695      3.058      4.775
REMARK INTER + INTRA:          -7.261
REMARK INTER:                  -6.335
REMARK INTRA:                  -0.926
REMARK UNBOUND:                -0.919
REMARK SMILES CCCCCCC=CC(=O)[O-]
REMARK SMILES IDX 5 1 6 2 7 3 8 4 9 5 10 6 11 7 4 8 3 9 2 10 1 11
REMARK H PARENT
REMARK Flexibility Score: inf
ROOT
ATOM      1  C   UNL     1     -28.517   0.746  23.573  1.00  0.00     0.004 C 
ENDROOT
BRANCH   1   2
ATOM      2  C   UNL     1     -27.502   0.248  22.537  1.00  0.00     0.027 C 
BRANCH   2   3
ATOM      3  C   UNL     1     -27.560  -1.247  22.390  1.00  0.00    -0.025 C 
ATOM      4  C   UNL     1     -28.260  -1.924  21.464  1.00  0.00     0.020 C 
BRANCH   4   5
ATOM      5  C   UNL     1     -29.077  -1.342  20.378  1.00  0.00     0.064 C 
ATOM      6  O   UNL     1     -28.502  -0.697  19.463  1.00  0.00    -0.545 OA
ATOM      7  O   UNL     1     -30.460  -1.459  20.345  1.00  0.00    -0.545 OA
ENDBRANCH   4   5
ENDBRANCH   2   3
ENDBRANCH   1   2
BRANCH   1   8
ATOM      8  C   UNL     1     -29.779   1.288  22.891  1.00  0.00     0.000 C 
BRANCH   8   9
ATOM      9  C   UNL     1     -31.004   0.429  23.238  1.00  0.00    -0.000 C 
BRANCH   9  10
ATOM     10  C   UNL     1     -30.703  -0.624  24.315  1.00  0.00    -0.003 C 
ATOM     11  C   UNL     1     -31.138  -2.031  23.905  1.00  0.00     0.004 C 
ENDBRANCH   9  10
ENDBRANCH   8   9
ENDBRANCH   1   8
TORSDOF 6
ENDMDL
MODEL 7
REMARK VINA RESULT:    -4.673      2.652      3.657
REMARK INTER + INTRA:          -7.231
REMARK INTER:                  -6.426
REMARK INTRA:                  -0.804
REMARK UNBOUND:                -0.919
REMARK SMILES CCCCCCC=CC(=O)[O-]
REMARK SMILES IDX 5 1 6 2 7 3 8 4 9 5 10 6 11 7 4 8 3 9 2 10 1 11
REMARK H PARENT
REMARK Flexibility Score: inf
ROOT
ATOM      1  C   UNL     1     -29.601   0.886  24.029  1.00  0.00     0.004 C 
ENDROOT
BRANCH   1   2
ATOM      2  C   UNL     1     -30.914   0.259  23.542  1.00  0.00     0.027 C 
BRANCH   2   3
ATOM      3  C   UNL     1     -30.923  -1.228  23.760  1.00  0.00    -0.025 C 
ATOM      4  C   UNL     1     -30.459  -2.156  22.906  1.00  0.00     0.020 C 
BRANCH   4   5
ATOM      5  C   UNL     1     -29.808  -1.905  21.603  1.00  0.00     0.064 C 
ATOM      6  O   UNL     1     -30.491  -1.415  20.666  1.00  0.00    -0.545 OA
ATOM      7  O   UNL     1     -28.475  -2.215  21.366  1.00  0.00    -0.545 OA
ENDBRANCH   4   5
ENDBRANCH   2   3
ENDBRANCH   1   2
BRANCH   1   8
ATOM      8  C   UNL     1     -28.712   1.288  22.847  1.00  0.00     0.000 C 
BRANCH   8   9
ATOM      9  C   UNL     1     -27.304   0.693  22.989  1.00  0.00    -0.000 C 
BRANCH   9  10
ATOM     10  C   UNL     1     -27.114  -0.068  24.310  1.00  0.00    -0.003 C 
ATOM     11  C   UNL     1     -26.457  -1.435  24.117  1.00  0.00     0.004 C 
ENDBRANCH   9  10
ENDBRANCH   8   9
ENDBRANCH   1   8
TORSDOF 6
ENDMDL
MODEL 8
REMARK VINA RESULT:    -4.644      2.597      4.217
REMARK INTER + INTRA:          -7.192
REMARK INTER:                  -6.294
REMARK INTRA:                  -0.898
REMARK UNBOUND:                -0.919
REMARK SMILES CCCCCCC=CC(=O)[O-]
REMARK SMILES IDX 5 1 6 2 7 3 8 4 9 5 10 6 11 7 4 8 3 9 2 10 1 11
REMARK H PARENT
REMARK Flexibility Score: inf
ROOT
ATOM      1  C   UNL     1     -28.318  -1.702  24.792  1.00  0.00     0.004 C 
ENDROOT
BRANCH   1   2
ATOM      2  C   UNL     1     -27.008  -1.348  24.076  1.00  0.00     0.027 C 
BRANCH   2   3
ATOM      3  C   UNL     1     -27.079   0.017  23.449  1.00  0.00    -0.025 C 
ATOM      4  C   UNL     1     -27.417   0.285  22.177  1.00  0.00     0.020 C 
BRANCH   4   5
ATOM      5  C   UNL     1     -27.828  -0.694  21.149  1.00  0.00     0.064 C 
ATOM      6  O   UNL     1     -26.956  -1.448  20.644  1.00  0.00    -0.545 OA
ATOM      7  O   UNL     1     -29.139  -0.796  20.702  1.00  0.00    -0.545 OA
ENDBRANCH   4   5
ENDBRANCH   2   3
ENDBRANCH   1   2
BRANCH   1   8
ATOM      8  C   UNL     1     -29.215  -2.568  23.900  1.00  0.00     0.000 C 
BRANCH   8   9
ATOM      9  C   UNL     1     -30.634  -1.987  23.816  1.00  0.00    -0.000 C 
BRANCH   9  10
ATOM     10  C   UNL     1     -30.712  -0.541  24.327  1.00  0.00    -0.003 C 
ATOM     11  C   UNL     1     -31.128   0.449  23.239  1.00  0.00     0.004 C 
ENDBRANCH   9  10
ENDBRANCH   8   9
ENDBRANCH   1   8
TORSDOF 6
ENDMDL
MODEL 9
REMARK VINA RESULT:    -4.598      2.027      3.022
REMARK INTER + INTRA:          -7.130
REMARK INTER:                  -6.181
REMARK INTRA:                  -0.949
REMARK UNBOUND:                -0.919
REMARK SMILES CCCCCCC=CC(=O)[O-]
REMARK SMILES IDX 5 1 6 2 7 3 8 4 9 5 10 6 11 7 4 8 3 9 2 10 1 11
REMARK H PARENT
REMARK Flexibility Score: inf
ROOT
ATOM      1  C   UNL     1     -28.247  -2.253  24.695  1.00  0.00     0.004 C 
ENDROOT
BRANCH   1   2
ATOM      2  C   UNL     1     -29.039  -2.471  23.399  1.00  0.00     0.027 C 
BRANCH   2   3
ATOM      3  C   UNL     1     -30.368  -1.770  23.447  1.00  0.00    -0.025 C 
ATOM      4  C   UNL     1     -30.624  -0.528  23.002  1.00  0.00     0.020 C 
BRANCH   4   5
ATOM      5  C   UNL     1     -29.668   0.385  22.340  1.00  0.00     0.064 C 
ATOM      6  O   UNL     1     -29.403   1.488  22.885  1.00  0.00    -0.545 OA
ATOM      7  O   UNL     1     -29.070   0.080  21.125  1.00  0.00    -0.545 OA
ENDBRANCH   4   5
ENDBRANCH   2   3
ENDBRANCH   1   2
BRANCH   1   8
ATOM      8  C   UNL     1     -27.198  -1.149  24.520  1.00  0.00     0.000 C 
BRANCH   8   9
ATOM      9  C   UNL     1     -27.495   0.044  25.440  1.00  0.00    -0.000 C 
BRANCH   9  10
ATOM     10  C   UNL     1     -28.608  -0.255  26.456  1.00  0.00    -0.003 C 
ATOM     11  C   UNL     1     -29.747   0.764  26.403  1.00  0.00     0.004 C 
ENDBRANCH   9  10
ENDBRANCH   8   9
ENDBRANCH   1   8
TORSDOF 6
ENDMDL
