MODEL 1
REMARK VINA RESULT:    -4.249      0.000      0.000
REMARK INTER + INTRA:          -5.833
REMARK INTER:                  -5.491
REMARK INTRA:                  -0.342
REMARK UNBOUND:                -0.342
REMARK SMILES CCCCCCC(=O)[O-]
REMARK SMILES IDX 5 1 6 2 7 3 8 4 9 5 4 6 3 7 2 8 1 9
REMARK H PARENT
REMARK Flexibility Score: inf
ROOT
ATOM      1  C   UNL     1      -5.050  10.047  -9.964  1.00  0.00     0.006 C 
ENDROOT
BRANCH   1   2
ATOM      2  C   UNL     1      -5.248  11.463  -9.416  1.00  0.00     0.053 C 
BRANCH   2   3
ATOM      3  C   UNL     1      -6.694  11.714  -9.125  1.00  0.00     0.041 C 
ATOM      4  O   UNL     1      -7.031  12.635  -8.336  1.00  0.00    -0.550 OA
ATOM      5  O   UNL     1      -7.672  10.962  -9.763  1.00  0.00    -0.550 OA
ENDBRANCH   2   3
ENDBRANCH   1   2
BRANCH   1   6
ATOM      6  C   UNL     1      -4.524   9.103  -8.875  1.00  0.00     0.000 C 
BRANCH   6   7
ATOM      7  C   UNL     1      -5.321   7.790  -8.854  1.00  0.00    -0.000 C 
BRANCH   7   8
ATOM      8  C   UNL     1      -6.321   7.689 -10.016  1.00  0.00    -0.003 C 
ATOM      9  C   UNL     1      -7.730   7.319  -9.553  1.00  0.00     0.004 C 
ENDBRANCH   7   8
ENDBRANCH   6   7
ENDBRANCH   1   6
TORSDOF 5
ENDMDL
MODEL 2
REMARK VINA RESULT:    -4.119      2.523      3.718
REMARK INTER + INTRA:          -5.665
REMARK INTER:                  -5.213
REMARK INTRA:                  -0.452
REMARK UNBOUND:                -0.342
REMARK SMILES CCCCCCC(=O)[O-]
REMARK SMILES IDX 5 1 6 2 7 3 8 4 9 5 4 6 3 7 2 8 1 9
REMARK H PARENT
REMARK Flexibility Score: inf
ROOT
ATOM      1  C   UNL     1      -4.747   9.796  -8.452  1.00  0.00     0.006 C 
ENDROOT
BRANCH   1   2
ATOM      2  C   UNL     1      -4.298   8.353  -8.700  1.00  0.00     0.053 C 
BRANCH   2   3
ATOM      3  C   UNL     1      -5.454   7.414  -8.565  1.00  0.00     0.041 C 
ATOM      4  O   UNL     1      -5.384   6.249  -9.037  1.00  0.00    -0.550 OA
ATOM      5  O   UNL     1      -6.594   7.809  -7.874  1.00  0.00    -0.550 OA
ENDBRANCH   2   3
ENDBRANCH   1   2
BRANCH   1   6
ATOM      6  C   UNL     1      -5.073  10.506  -9.772  1.00  0.00     0.000 C 
BRANCH   6   7
ATOM      7  C   UNL     1      -6.558  10.896  -9.833  1.00  0.00    -0.000 C 
BRANCH   7   8
ATOM      8  C   UNL     1      -7.387   9.927 -10.689  1.00  0.00    -0.003 C 
ATOM      9  C   UNL     1      -6.563   9.250 -11.784  1.00  0.00     0.004 C 
ENDBRANCH   7   8
ENDBRANCH   6   7
ENDBRANCH   1   6
TORSDOF 5
ENDMDL
MODEL 3
REMARK VINA RESULT:    -4.106      1.334      2.462
REMARK INTER + INTRA:          -5.648
REMARK INTER:                  -5.474
REMARK INTRA:                  -0.173
REMARK UNBOUND:                -0.342
REMARK SMILES CCCCCCC(=O)[O-]
REMARK SMILES IDX 5 1 6 2 7 3 8 4 9 5 4 6 3 7 2 8 1 9
REMARK H PARENT
REMARK Flexibility Score: inf
ROOT
ATOM      1  C   UNL     1      -5.615   9.803 -10.127  1.00  0.00     0.006 C 
ENDROOT
BRANCH   1   2
ATOM      2  C   UNL     1      -5.530  11.219  -9.552  1.00  0.00     0.053 C 
BRANCH   2   3
ATOM      3  C   UNL     1      -6.893  11.724  -9.199  1.00  0.00     0.041 C 
ATOM      4  O   UNL     1      -7.028  12.649  -8.357  1.00  0.00    -0.550 OA
ATOM      5  O   UNL     1      -8.013  11.206  -9.838  1.00  0.00    -0.550 OA
ENDBRANCH   2   3
ENDBRANCH   1   2
BRANCH   1   6
ATOM      6  C   UNL     1      -5.475   8.749  -9.021  1.00  0.00     0.000 C 
BRANCH   6   7
ATOM      7  C   UNL     1      -3.998   8.491  -8.691  1.00  0.00    -0.000 C 
BRANCH   7   8
ATOM      8  C   UNL     1      -3.638   8.879  -7.249  1.00  0.00    -0.003 C 
ATOM      9  C   UNL     1      -2.732   7.853  -6.568  1.00  0.00     0.004 C 
ENDBRANCH   7   8
ENDBRANCH   6   7
ENDBRANCH   1   6
TORSDOF 5
ENDMDL
MODEL 4
REMARK VINA RESULT:    -4.103      2.597      3.986
REMARK INTER + INTRA:          -5.644
REMARK INTER:                  -5.257
REMARK INTRA:                  -0.387
REMARK UNBOUND:                -0.342
REMARK SMILES CCCCCCC(=O)[O-]
REMARK SMILES IDX 5 1 6 2 7 3 8 4 9 5 4 6 3 7 2 8 1 9
REMARK H PARENT
REMARK Flexibility Score: inf
ROOT
ATOM      1  C   UNL     1      -5.824   7.999  -8.817  1.00  0.00     0.006 C 
ENDROOT
BRANCH   1   2
ATOM      2  C   UNL     1      -4.307   8.156  -8.684  1.00  0.00     0.053 C 
BRANCH   2   3
ATOM      3  C   UNL     1      -3.961   8.830  -7.394  1.00  0.00     0.041 C 
ATOM      4  O   UNL     1      -4.753   9.662  -6.881  1.00  0.00    -0.550 OA
ATOM      5  O   UNL     1      -2.784   8.502  -6.733  1.00  0.00    -0.550 OA
ENDBRANCH   2   3
ENDBRANCH   1   2
BRANCH   1   6
ATOM      6  C   UNL     1      -6.299   8.394 -10.222  1.00  0.00     0.000 C 
BRANCH   6   7
ATOM      7  C   UNL     1      -5.766   9.781 -10.611  1.00  0.00    -0.000 C 
BRANCH   7   8
ATOM      8  C   UNL     1      -6.391  10.909  -9.776  1.00  0.00    -0.003 C 
ATOM      9  C   UNL     1      -5.380  11.988  -9.389  1.00  0.00     0.004 C 
ENDBRANCH   7   8
ENDBRANCH   6   7
ENDBRANCH   1   6
TORSDOF 5
ENDMDL
MODEL 5
REMARK VINA RESULT:    -4.101      1.259      2.294
REMARK INTER + INTRA:          -5.642
REMARK INTER:                  -5.257
REMARK INTRA:                  -0.385
REMARK UNBOUND:                -0.342
REMARK SMILES CCCCCCC(=O)[O-]
REMARK SMILES IDX 5 1 6 2 7 3 8 4 9 5 4 6 3 7 2 8 1 9
REMARK H PARENT
REMARK Flexibility Score: inf
ROOT
ATOM      1  C   UNL     1      -6.596   8.634 -11.021  1.00  0.00     0.006 C 
ENDROOT
BRANCH   1   2
ATOM      2  C   UNL     1      -5.934   9.914 -10.504  1.00  0.00     0.053 C 
BRANCH   2   3
ATOM      3  C   UNL     1      -6.839  10.622  -9.546  1.00  0.00     0.041 C 
ATOM      4  O   UNL     1      -6.480  10.810  -8.355  1.00  0.00    -0.550 OA
ATOM      5  O   UNL     1      -8.062  11.117  -9.983  1.00  0.00    -0.550 OA
ENDBRANCH   2   3
ENDBRANCH   1   2
BRANCH   1   6
ATOM      6  C   UNL     1      -7.017   7.723  -9.861  1.00  0.00     0.000 C 
BRANCH   6   7
ATOM      7  C   UNL     1      -5.883   6.760  -9.478  1.00  0.00    -0.000 C 
BRANCH   7   8
ATOM      8  C   UNL     1      -5.236   7.115  -8.131  1.00  0.00    -0.003 C 
ATOM      9  C   UNL     1      -3.885   7.812  -8.289  1.00  0.00     0.004 C 
ENDBRANCH   7   8
ENDBRANCH   6   7
ENDBRANCH   1   6
TORSDOF 5
ENDMDL
MODEL 6
REMARK VINA RESULT:    -4.100      1.338      2.229
REMARK INTER + INTRA:          -5.641
REMARK INTER:                  -5.312
REMARK INTRA:                  -0.329
REMARK UNBOUND:                -0.342
REMARK SMILES CCCCCCC(=O)[O-]
REMARK SMILES IDX 5 1 6 2 7 3 8 4 9 5 4 6 3 7 2 8 1 9
REMARK H PARENT
REMARK Flexibility Score: inf
ROOT
ATOM      1  C   UNL     1      -6.556   9.689 -10.926  1.00  0.00     0.006 C 
ENDROOT
BRANCH   1   2
ATOM      2  C   UNL     1      -5.287  10.237 -10.268  1.00  0.00     0.053 C 
BRANCH   2   3
ATOM      3  C   UNL     1      -5.631  11.294  -9.266  1.00  0.00     0.041 C 
ATOM      4  O   UNL     1      -6.268  10.995  -8.223  1.00  0.00    -0.550 OA
ATOM      5  O   UNL     1      -5.206  12.602  -9.462  1.00  0.00    -0.550 OA
ENDBRANCH   2   3
ENDBRANCH   1   2
BRANCH   1   6
ATOM      6  C   UNL     1      -6.536   8.155 -10.970  1.00  0.00     0.000 C 
BRANCH   6   7
ATOM      7  C   UNL     1      -6.794   7.562  -9.577  1.00  0.00    -0.000 C 
BRANCH   7   8
ATOM      8  C   UNL     1      -5.705   6.567  -9.148  1.00  0.00    -0.003 C 
ATOM      9  C   UNL     1      -4.650   7.199  -8.240  1.00  0.00     0.004 C 
ENDBRANCH   7   8
ENDBRANCH   6   7
ENDBRANCH   1   6
TORSDOF 5
ENDMDL
MODEL 7
REMARK VINA RESULT:    -4.090      3.183      4.095
REMARK INTER + INTRA:          -5.627
REMARK INTER:                  -5.379
REMARK INTRA:                  -0.249
REMARK UNBOUND:                -0.342
REMARK SMILES CCCCCCC(=O)[O-]
REMARK SMILES IDX 5 1 6 2 7 3 8 4 9 5 4 6 3 7 2 8 1 9
REMARK H PARENT
REMARK Flexibility Score: inf
ROOT
ATOM      1  C   UNL     1      -4.722  10.060  -8.407  1.00  0.00     0.006 C 
ENDROOT
BRANCH   1   2
ATOM      2  C   UNL     1      -4.119   8.689  -8.727  1.00  0.00     0.053 C 
BRANCH   2   3
ATOM      3  C   UNL     1      -3.776   7.960  -7.466  1.00  0.00     0.041 C 
ATOM      4  O   UNL     1      -4.411   6.924  -7.140  1.00  0.00    -0.550 OA
ATOM      5  O   UNL     1      -2.721   8.399  -6.676  1.00  0.00    -0.550 OA
ENDBRANCH   2   3
ENDBRANCH   1   2
BRANCH   1   6
ATOM      6  C   UNL     1      -5.118  10.801  -9.691  1.00  0.00     0.000 C 
BRANCH   6   7
ATOM      7  C   UNL     1      -6.645  10.913  -9.811  1.00  0.00    -0.000 C 
BRANCH   7   8
ATOM      8  C   UNL     1      -7.269   9.715 -10.543  1.00  0.00    -0.003 C 
ATOM      9  C   UNL     1      -6.477   9.302 -11.784  1.00  0.00     0.004 C 
ENDBRANCH   7   8
ENDBRANCH   6   7
ENDBRANCH   1   6
TORSDOF 5
ENDMDL
MODEL 8
REMARK VINA RESULT:    -4.076      1.694      2.412
REMARK INTER + INTRA:          -5.609
REMARK INTER:                  -5.246
REMARK INTRA:                  -0.363
REMARK UNBOUND:                -0.342
REMARK SMILES CCCCCCC(=O)[O-]
REMARK SMILES IDX 5 1 6 2 7 3 8 4 9 5 4 6 3 7 2 8 1 9
REMARK H PARENT
REMARK Flexibility Score: inf
ROOT
ATOM      1  C   UNL     1      -5.139  10.842  -9.075  1.00  0.00     0.006 C 
ENDROOT
BRANCH   1   2
ATOM      2  C   UNL     1      -5.812  10.217 -10.300  1.00  0.00     0.053 C 
BRANCH   2   3
ATOM      3  C   UNL     1      -7.289  10.104 -10.086  1.00  0.00     0.041 C 
ATOM      4  O   UNL     1      -7.848   8.977 -10.113  1.00  0.00    -0.550 OA
ATOM      5  O   UNL     1      -8.040  11.239  -9.809  1.00  0.00    -0.550 OA
ENDBRANCH   2   3
ENDBRANCH   1   2
BRANCH   1   6
ATOM      6  C   UNL     1      -5.325   9.960  -7.834  1.00  0.00     0.000 C 
BRANCH   6   7
ATOM      7  C   UNL     1      -4.003   9.286  -7.436  1.00  0.00    -0.000 C 
BRANCH   7   8
ATOM      8  C   UNL     1      -3.785   7.946  -8.155  1.00  0.00    -0.003 C 
ATOM      9  C   UNL     1      -5.078   7.148  -8.326  1.00  0.00     0.004 C 
ENDBRANCH   7   8
ENDBRANCH   6   7
ENDBRANCH   1   6
TORSDOF 5
ENDMDL
MODEL 9
REMARK VINA RESULT:    -4.049      1.998      3.228
REMARK INTER + INTRA:          -5.574
REMARK INTER:                  -5.218
REMARK INTRA:                  -0.356
REMARK UNBOUND:                -0.342
REMARK SMILES CCCCCCC(=O)[O-]
REMARK SMILES IDX 5 1 6 2 7 3 8 4 9 5 4 6 3 7 2 8 1 9
REMARK H PARENT
REMARK Flexibility Score: inf
ROOT
ATOM      1  C   UNL     1      -6.925   6.940  -9.510  1.00  0.00     0.006 C 
ENDROOT
BRANCH   1   2
ATOM      2  C   UNL     1      -6.665   8.082 -10.495  1.00  0.00     0.053 C 
BRANCH   2   3
ATOM      3  C   UNL     1      -7.166   9.378  -9.940  1.00  0.00     0.041 C 
ATOM      4  O   UNL     1      -7.639  10.256 -10.707  1.00  0.00    -0.550 OA
ATOM      5  O   UNL     1      -7.154   9.596  -8.568  1.00  0.00    -0.550 OA
ENDBRANCH   2   3
ENDBRANCH   1   2
BRANCH   1   6
ATOM      6  C   UNL     1      -5.616   6.242  -9.116  1.00  0.00     0.000 C 
BRANCH   6   7
ATOM      7  C   UNL     1      -4.998   6.895  -7.871  1.00  0.00    -0.000 C 
BRANCH   7   8
ATOM      8  C   UNL     1      -3.836   7.839  -8.215  1.00  0.00    -0.003 C 
ATOM      9  C   UNL     1      -3.801   9.083  -7.327  1.00  0.00     0.004 C 
ENDBRANCH   7   8
ENDBRANCH   6   7
ENDBRANCH   1   6
TORSDOF 5
ENDMDL
