MODEL 1
REMARK VINA RESULT:    -3.062      0.000      0.000
REMARK INTER + INTRA:          -3.151
REMARK INTER:                  -3.151
REMARK INTRA:                   0.000
REMARK UNBOUND:                 0.000
REMARK SMILES CC1(C)[C@@H]2CC[C@@]1(C)[C@@H](O)C2
REMARK SMILES IDX 1 1 2 2 4 3 5 4 6 5 7 6 9 7 11 8 8 9 3 10 10 11
REMARK H PARENT 10 12
REMARK Flexibility Score: inf
ROOT
ATOM      1  C   UNL     1     242.519 238.054 236.149  1.00  0.00     0.012 C 
ATOM      2  C   UNL     1     241.561 237.771 234.951  1.00  0.00    -0.025 C 
ATOM      3  C   UNL     1     241.384 236.275 234.641  1.00  0.00    -0.002 C 
ATOM      4  C   UNL     1     240.309 236.267 233.527  1.00  0.00     0.005 C 
ATOM      5  C   UNL     1     239.389 237.436 233.930  1.00  0.00     0.010 C 
ATOM      6  C   UNL     1     240.051 237.954 235.238  1.00  0.00    -0.001 C 
ATOM      7  C   UNL     1     239.784 236.896 236.351  1.00  0.00     0.121 C 
ATOM      8  C   UNL     1     240.691 235.721 235.911  1.00  0.00     0.036 C 
ATOM      9  C   UNL     1     239.612 239.371 235.624  1.00  0.00     0.015 C 
ATOM     10  C   UNL     1     242.123 238.601 233.754  1.00  0.00     0.012 C 
ENDROOT
BRANCH   7  11
ATOM     11  O   UNL     1     238.433 236.516 236.408  1.00  0.00    -0.393 OA
ATOM     12  H   UNL     1     238.068 236.900 237.248  1.00  0.00     0.210 HD
ENDBRANCH   7  11
TORSDOF 1
ENDMDL
MODEL 2
REMARK VINA RESULT:    -3.054     12.988     14.257
REMARK INTER + INTRA:          -3.144
REMARK INTER:                  -3.144
REMARK INTRA:                   0.000
REMARK UNBOUND:                 0.000
REMARK SMILES CC1(C)[C@@H]2CC[C@@]1(C)[C@@H](O)C2
REMARK SMILES IDX 1 1 2 2 4 3 5 4 6 5 7 6 9 7 11 8 8 9 3 10 10 11
REMARK H PARENT 10 12
REMARK Flexibility Score: inf
ROOT
ATOM      1  C   UNL     1     226.098 230.555 236.170  1.00  0.00     0.012 C 
ATOM      2  C   UNL     1     227.030 230.817 234.946  1.00  0.00    -0.025 C 
ATOM      3  C   UNL     1     227.247 232.310 234.644  1.00  0.00    -0.002 C 
ATOM      4  C   UNL     1     228.289 232.294 233.498  1.00  0.00     0.005 C 
ATOM      5  C   UNL     1     229.181 231.091 233.865  1.00  0.00     0.010 C 
ATOM      6  C   UNL     1     228.540 230.583 235.188  1.00  0.00    -0.001 C 
ATOM      7  C   UNL     1     228.874 231.621 236.301  1.00  0.00     0.121 C 
ATOM      8  C   UNL     1     227.994 232.829 235.898  1.00  0.00     0.036 C 
ATOM      9  C   UNL     1     228.944 229.148 235.549  1.00  0.00     0.015 C 
ATOM     10  C   UNL     1     226.407 230.018 233.760  1.00  0.00     0.012 C 
ENDROOT
BRANCH   7  11
ATOM     11  O   UNL     1     230.238 231.957 236.321  1.00  0.00    -0.393 OA
ATOM     12  H   UNL     1     230.293 232.924 236.105  1.00  0.00     0.210 HD
ENDBRANCH   7  11
TORSDOF 1
ENDMDL
MODEL 3
REMARK VINA RESULT:    -3.048      8.542     10.040
REMARK INTER + INTRA:          -3.137
REMARK INTER:                  -3.137
REMARK INTRA:                   0.000
REMARK UNBOUND:                 0.000
REMARK SMILES CC1(C)[C@@H]2CC[C@@]1(C)[C@@H](O)C2
REMARK SMILES IDX 1 1 2 2 4 3 5 4 6 5 7 6 9 7 11 8 8 9 3 10 10 11
REMARK H PARENT 10 12
REMARK Flexibility Score: inf
ROOT
ATOM      1  C   UNL     1     237.995 226.169 236.189  1.00  0.00     0.012 C 
ATOM      2  C   UNL     1     237.719 227.084 234.956  1.00  0.00    -0.025 C 
ATOM      3  C   UNL     1     236.223 227.260 234.640  1.00  0.00    -0.002 C 
ATOM      4  C   UNL     1     236.221 228.293 233.487  1.00  0.00     0.005 C 
ATOM      5  C   UNL     1     237.397 229.219 233.856  1.00  0.00     0.010 C 
ATOM      6  C   UNL     1     237.911 228.602 235.187  1.00  0.00    -0.001 C 
ATOM      7  C   UNL     1     236.855 228.917 236.290  1.00  0.00     0.121 C 
ATOM      8  C   UNL     1     235.675 228.002 235.884  1.00  0.00     0.036 C 
ATOM      9  C   UNL     1     239.332 229.047 235.557  1.00  0.00     0.015 C 
ATOM     10  C   UNL     1     238.544 226.473 233.780  1.00  0.00     0.012 C 
ENDROOT
BRANCH   7  11
ATOM     11  O   UNL     1     236.484 230.272 236.297  1.00  0.00    -0.393 OA
ATOM     12  H   UNL     1     235.495 230.293 236.216  1.00  0.00     0.210 HD
ENDBRANCH   7  11
TORSDOF 1
ENDMDL
MODEL 4
REMARK VINA RESULT:    -3.036      9.007     10.314
REMARK INTER + INTRA:          -3.125
REMARK INTER:                  -3.125
REMARK INTRA:                   0.000
REMARK UNBOUND:                 0.000
REMARK SMILES CC1(C)[C@@H]2CC[C@@]1(C)[C@@H](O)C2
REMARK SMILES IDX 1 1 2 2 4 3 5 4 6 5 7 6 9 7 11 8 8 9 3 10 10 11
REMARK H PARENT 10 12
REMARK Flexibility Score: inf
ROOT
ATOM      1  C   UNL     1     231.368 238.516 233.515  1.00  0.00     0.012 C 
ATOM      2  C   UNL     1     231.511 239.264 234.877  1.00  0.00    -0.025 C 
ATOM      3  C   UNL     1     232.589 240.362 234.869  1.00  0.00    -0.002 C 
ATOM      4  C   UNL     1     232.437 241.022 236.261  1.00  0.00     0.005 C 
ATOM      5  C   UNL     1     230.916 240.957 236.505  1.00  0.00     0.010 C 
ATOM      6  C   UNL     1     230.392 240.281 235.208  1.00  0.00    -0.001 C 
ATOM      7  C   UNL     1     230.518 241.318 234.052  1.00  0.00     0.121 C 
ATOM      8  C   UNL     1     232.051 241.391 233.844  1.00  0.00     0.036 C 
ATOM      9  C   UNL     1     228.981 239.696 235.352  1.00  0.00     0.015 C 
ATOM     10  C   UNL     1     231.750 238.155 235.948  1.00  0.00     0.012 C 
ENDROOT
BRANCH   7  11
ATOM     11  O   UNL     1     229.981 242.569 234.401  1.00  0.00    -0.393 OA
ATOM     12  H   UNL     1     229.005 242.431 234.521  1.00  0.00     0.210 HD
ENDBRANCH   7  11
TORSDOF 1
ENDMDL
MODEL 5
REMARK VINA RESULT:    -3.029      8.789     10.273
REMARK INTER + INTRA:          -3.118
REMARK INTER:                  -3.118
REMARK INTRA:                   0.000
REMARK UNBOUND:                 0.000
REMARK SMILES CC1(C)[C@@H]2CC[C@@]1(C)[C@@H](O)C2
REMARK SMILES IDX 1 1 2 2 4 3 5 4 6 5 7 6 9 7 11 8 8 9 3 10 10 11
REMARK H PARENT 10 12
REMARK Flexibility Score: inf
ROOT
ATOM      1  C   UNL     1     230.343 242.646 236.139  1.00  0.00     0.012 C 
ATOM      2  C   UNL     1     230.656 241.701 234.938  1.00  0.00    -0.025 C 
ATOM      3  C   UNL     1     232.160 241.539 234.654  1.00  0.00    -0.002 C 
ATOM      4  C   UNL     1     232.198 240.474 233.531  1.00  0.00     0.005 C 
ATOM      5  C   UNL     1     231.029 239.541 233.904  1.00  0.00     0.010 C 
ATOM      6  C   UNL     1     230.481 240.187 235.208  1.00  0.00    -0.001 C 
ATOM      7  C   UNL     1     231.519 239.919 236.338  1.00  0.00     0.121 C 
ATOM      8  C   UNL     1     232.695 240.839 235.929  1.00  0.00     0.036 C 
ATOM      9  C   UNL     1     229.060 239.733 235.563  1.00  0.00     0.015 C 
ATOM     10  C   UNL     1     229.845 242.267 233.730  1.00  0.00     0.012 C 
ENDROOT
BRANCH   7  11
ATOM     11  O   UNL     1     231.909 238.570 236.390  1.00  0.00    -0.393 OA
ATOM     12  H   UNL     1     232.805 238.553 236.818  1.00  0.00     0.210 HD
ENDBRANCH   7  11
TORSDOF 1
ENDMDL
MODEL 6
REMARK VINA RESULT:    -3.025      1.261      2.384
REMARK INTER + INTRA:          -3.113
REMARK INTER:                  -3.113
REMARK INTRA:                   0.000
REMARK UNBOUND:                 0.000
REMARK SMILES CC1(C)[C@@H]2CC[C@@]1(C)[C@@H](O)C2
REMARK SMILES IDX 1 1 2 2 4 3 5 4 6 5 7 6 9 7 11 8 8 9 3 10 10 11
REMARK H PARENT 10 12
REMARK Flexibility Score: inf
ROOT
ATOM      1  C   UNL     1     242.554 238.484 233.741  1.00  0.00     0.012 C 
ATOM      2  C   UNL     1     241.319 238.492 234.695  1.00  0.00    -0.025 C 
ATOM      3  C   UNL     1     240.088 237.771 234.119  1.00  0.00    -0.002 C 
ATOM      4  C   UNL     1     239.074 237.807 235.289  1.00  0.00     0.005 C 
ATOM      5  C   UNL     1     239.976 237.651 236.529  1.00  0.00     0.010 C 
ATOM      6  C   UNL     1     241.395 237.528 235.904  1.00  0.00    -0.001 C 
ATOM      7  C   UNL     1     241.489 236.130 235.222  1.00  0.00     0.121 C 
ATOM      8  C   UNL     1     240.554 236.298 233.999  1.00  0.00     0.036 C 
ATOM      9  C   UNL     1     242.526 237.799 236.903  1.00  0.00     0.015 C 
ATOM     10  C   UNL     1     241.063 239.991 235.046  1.00  0.00     0.012 C 
ENDROOT
BRANCH   7  11
ATOM     11  O   UNL     1     241.056 235.097 236.069  1.00  0.00    -0.393 OA
ATOM     12  H   UNL     1     240.653 235.536 236.863  1.00  0.00     0.210 HD
ENDBRANCH   7  11
TORSDOF 1
ENDMDL
MODEL 7
REMARK VINA RESULT:    -3.014      9.175     10.503
REMARK INTER + INTRA:          -3.102
REMARK INTER:                  -3.102
REMARK INTRA:                   0.000
REMARK UNBOUND:                 0.000
REMARK SMILES CC1(C)[C@@H]2CC[C@@]1(C)[C@@H](O)C2
REMARK SMILES IDX 1 1 2 2 4 3 5 4 6 5 7 6 9 7 11 8 8 9 3 10 10 11
REMARK H PARENT 10 12
REMARK Flexibility Score: inf
ROOT
ATOM      1  C   UNL     1     229.255 241.843 234.506  1.00  0.00     0.012 C 
ATOM      2  C   UNL     1     229.952 240.544 235.018  1.00  0.00    -0.025 C 
ATOM      3  C   UNL     1     231.010 239.986 234.049  1.00  0.00    -0.002 C 
ATOM      4  C   UNL     1     231.628 238.806 234.838  1.00  0.00     0.005 C 
ATOM      5  C   UNL     1     231.611 239.319 236.291  1.00  0.00     0.010 C 
ATOM      6  C   UNL     1     230.997 240.740 236.143  1.00  0.00    -0.001 C 
ATOM      7  C   UNL     1     232.068 241.646 235.463  1.00  0.00     0.121 C 
ATOM      8  C   UNL     1     232.091 241.095 234.016  1.00  0.00     0.036 C 
ATOM      9  C   UNL     1     230.460 241.312 237.461  1.00  0.00     0.015 C 
ATOM     10  C   UNL     1     228.800 239.542 235.338  1.00  0.00     0.012 C 
ENDROOT
BRANCH   7  11
ATOM     11  O   UNL     1     233.324 241.537 236.081  1.00  0.00    -0.393 OA
ATOM     12  H   UNL     1     233.260 242.034 236.938  1.00  0.00     0.210 HD
ENDBRANCH   7  11
TORSDOF 1
ENDMDL
MODEL 8
REMARK VINA RESULT:    -3.008     13.250     14.476
REMARK INTER + INTRA:          -3.096
REMARK INTER:                  -3.096
REMARK INTRA:                   0.000
REMARK UNBOUND:                 0.000
REMARK SMILES CC1(C)[C@@H]2CC[C@@]1(C)[C@@H](O)C2
REMARK SMILES IDX 1 1 2 2 4 3 5 4 6 5 7 6 9 7 11 8 8 9 3 10 10 11
REMARK H PARENT 10 12
REMARK Flexibility Score: inf
ROOT
ATOM      1  C   UNL     1     226.675 229.091 234.658  1.00  0.00     0.012 C 
ATOM      2  C   UNL     1     227.956 229.868 235.093  1.00  0.00    -0.025 C 
ATOM      3  C   UNL     1     228.437 230.899 234.056  1.00  0.00    -0.002 C 
ATOM      4  C   UNL     1     229.612 231.605 234.775  1.00  0.00     0.005 C 
ATOM      5  C   UNL     1     229.145 231.639 236.243  1.00  0.00     0.010 C 
ATOM      6  C   UNL     1     227.749 230.959 236.172  1.00  0.00    -0.001 C 
ATOM      7  C   UNL     1     226.776 231.954 235.471  1.00  0.00     0.121 C 
ATOM      8  C   UNL     1     227.280 231.929 234.007  1.00  0.00     0.036 C 
ATOM      9  C   UNL     1     227.242 230.464 237.532  1.00  0.00     0.015 C 
ATOM     10  C   UNL     1     229.019 228.777 235.435  1.00  0.00     0.012 C 
ENDROOT
BRANCH   7  11
ATOM     11  O   UNL     1     226.848 233.243 236.023  1.00  0.00    -0.393 OA
ATOM     12  H   UNL     1     227.165 233.842 235.298  1.00  0.00     0.210 HD
ENDBRANCH   7  11
TORSDOF 1
ENDMDL
MODEL 9
REMARK VINA RESULT:    -2.963      8.767     10.485
REMARK INTER + INTRA:          -3.050
REMARK INTER:                  -3.050
REMARK INTRA:                   0.000
REMARK UNBOUND:                 0.000
REMARK SMILES CC1(C)[C@@H]2CC[C@@]1(C)[C@@H](O)C2
REMARK SMILES IDX 1 1 2 2 4 3 5 4 6 5 7 6 9 7 11 8 8 9 3 10 10 11
REMARK H PARENT 10 12
REMARK Flexibility Score: inf
ROOT
ATOM      1  C   UNL     1     235.947 228.550 236.477  1.00  0.00     0.012 C 
ATOM      2  C   UNL     1     236.832 227.472 235.778  1.00  0.00    -0.025 C 
ATOM      3  C   UNL     1     236.941 227.655 234.254  1.00  0.00    -0.002 C 
ATOM      4  C   UNL     1     237.956 226.564 233.835  1.00  0.00     0.005 C 
ATOM      5  C   UNL     1     238.936 226.534 235.025  1.00  0.00     0.010 C 
ATOM      6  C   UNL     1     238.360 227.628 235.967  1.00  0.00    -0.001 C 
ATOM      7  C   UNL     1     238.647 229.012 235.310  1.00  0.00     0.121 C 
ATOM      8  C   UNL     1     237.678 229.009 234.103  1.00  0.00     0.036 C 
ATOM      9  C   UNL     1     238.869 227.519 237.410  1.00  0.00     0.015 C 
ATOM     10  C   UNL     1     236.239 226.093 236.206  1.00  0.00     0.012 C 
ENDROOT
BRANCH   7  11
ATOM     11  O   UNL     1     239.985 229.138 234.902  1.00  0.00    -0.393 OA
ATOM     12  H   UNL     1     240.182 230.111 234.882  1.00  0.00     0.210 HD
ENDBRANCH   7  11
TORSDOF 1
ENDMDL
