MODEL 1
REMARK VINA RESULT:    -3.802      0.000      0.000
REMARK INTER + INTRA:          -4.135
REMARK INTER:                  -4.135
REMARK INTRA:                   0.000
REMARK UNBOUND:                 0.000
REMARK SMILES Oc1cccc(O)c1O
REMARK SMILES IDX 4 1 5 2 6 3 8 4 2 5 3 6 7 7 1 9 9 11
REMARK H PARENT 7 8 1 10 9 12
REMARK Flexibility Score: inf
ROOT
ATOM      1  C   UNL     1       0.353   0.357   0.194  1.00  0.00     0.008 A 
ATOM      2  C   UNL     1       0.375  -1.025   0.379  1.00  0.00     0.050 A 
ATOM      3  C   UNL     1      -0.816  -1.741   0.555  1.00  0.00     0.161 A 
ATOM      4  C   UNL     1      -2.054  -1.050   0.544  1.00  0.00     0.200 A 
ATOM      5  C   UNL     1      -2.064   0.347   0.357  1.00  0.00     0.161 A 
ATOM      6  C   UNL     1      -0.863   1.040   0.183  1.00  0.00     0.050 A 
ENDROOT
BRANCH   3   7
ATOM      7  O   UNL     1      -0.723  -3.123   0.736  1.00  0.00    -0.504 OA
ATOM      8  H   UNL     1      -0.210  -3.740   0.124  1.00  0.00     0.293 HD
ENDBRANCH   3   7
BRANCH   5   9
ATOM      9  O   UNL     1      -3.261   1.064   0.340  1.00  0.00    -0.504 OA
ATOM     10  H   UNL     1      -3.760   1.263  -0.518  1.00  0.00     0.293 HD
ENDBRANCH   5   9
BRANCH   4  11
ATOM     11  O   UNL     1      -3.275  -1.706   0.715  1.00  0.00    -0.502 OA
ATOM     12  H   UNL     1      -4.023  -1.698   0.037  1.00  0.00     0.293 HD
ENDBRANCH   4  11
TORSDOF 3
ENDMDL
MODEL 2
REMARK VINA RESULT:    -3.779      0.041      2.825
REMARK INTER + INTRA:          -4.111
REMARK INTER:                  -4.111
REMARK INTRA:                   0.000
REMARK UNBOUND:                 0.000
REMARK SMILES Oc1cccc(O)c1O
REMARK SMILES IDX 4 1 5 2 6 3 8 4 2 5 3 6 7 7 1 9 9 11
REMARK H PARENT 7 8 1 10 9 12
REMARK Flexibility Score: inf
ROOT
ATOM      1  C   UNL     1       0.354   0.365   0.193  1.00  0.00     0.008 A 
ATOM      2  C   UNL     1      -0.863   1.047   0.180  1.00  0.00     0.050 A 
ATOM      3  C   UNL     1      -2.069   0.359   0.358  1.00  0.00     0.161 A 
ATOM      4  C   UNL     1      -2.049  -1.045   0.556  1.00  0.00     0.200 A 
ATOM      5  C   UNL     1      -0.814  -1.724   0.568  1.00  0.00     0.161 A 
ATOM      6  C   UNL     1       0.377  -1.015   0.387  1.00  0.00     0.050 A 
ENDROOT
BRANCH   3   7
ATOM      7  O   UNL     1      -3.252   1.102   0.333  1.00  0.00    -0.504 OA
ATOM      8  H   UNL     1      -3.869   1.211   1.124  1.00  0.00     0.293 HD
ENDBRANCH   3   7
BRANCH   5   9
ATOM      9  O   UNL     1      -0.751  -3.104   0.760  1.00  0.00    -0.504 OA
ATOM     10  H   UNL     1      -1.517  -3.719   0.512  1.00  0.00     0.293 HD
ENDBRANCH   5   9
BRANCH   4  11
ATOM     11  O   UNL     1      -3.218  -1.789   0.740  1.00  0.00    -0.502 OA
ATOM     12  H   UNL     1      -3.943  -1.886   0.044  1.00  0.00     0.293 HD
ENDBRANCH   4  11
TORSDOF 3
ENDMDL
MODEL 3
REMARK VINA RESULT:    -3.703      1.155      2.760
REMARK INTER + INTRA:          -4.027
REMARK INTER:                  -4.027
REMARK INTRA:                   0.000
REMARK UNBOUND:                 0.000
REMARK SMILES Oc1cccc(O)c1O
REMARK SMILES IDX 4 1 5 2 6 3 8 4 2 5 3 6 7 7 1 9 9 11
REMARK H PARENT 7 8 1 10 9 12
REMARK Flexibility Score: inf
ROOT
ATOM      1  C   UNL     1      -1.613   1.524   0.384  1.00  0.00     0.008 A 
ATOM      2  C   UNL     1      -2.763   0.735   0.426  1.00  0.00     0.050 A 
ATOM      3  C   UNL     1      -2.670  -0.660   0.501  1.00  0.00     0.161 A 
ATOM      4  C   UNL     1      -1.393  -1.273   0.536  1.00  0.00     0.200 A 
ATOM      5  C   UNL     1      -0.237  -0.467   0.493  1.00  0.00     0.161 A 
ATOM      6  C   UNL     1      -0.355   0.923   0.417  1.00  0.00     0.050 A 
ENDROOT
BRANCH   3   7
ATOM      7  O   UNL     1      -3.861  -1.390   0.540  1.00  0.00    -0.504 OA
ATOM      8  H   UNL     1      -4.040  -2.147   1.183  1.00  0.00     0.293 HD
ENDBRANCH   3   7
BRANCH   5   9
ATOM      9  O   UNL     1       1.038  -1.032   0.524  1.00  0.00    -0.504 OA
ATOM     10  H   UNL     1       1.399  -1.595  -0.236  1.00  0.00     0.293 HD
ENDBRANCH   5   9
BRANCH   4  11
ATOM     11  O   UNL     1      -1.233  -2.659   0.610  1.00  0.00    -0.502 OA
ATOM     12  H   UNL     1      -0.912  -3.150   1.432  1.00  0.00     0.293 HD
ENDBRANCH   4  11
TORSDOF 3
ENDMDL
MODEL 4
REMARK VINA RESULT:    -3.672      1.175      2.004
REMARK INTER + INTRA:          -3.994
REMARK INTER:                  -3.994
REMARK INTRA:                   0.000
REMARK UNBOUND:                 0.000
REMARK SMILES Oc1cccc(O)c1O
REMARK SMILES IDX 4 1 5 2 6 3 8 4 2 5 3 6 7 7 1 9 9 11
REMARK H PARENT 7 8 1 10 9 12
REMARK Flexibility Score: inf
ROOT
ATOM      1  C   UNL     1      -1.620   1.544   0.379  1.00  0.00     0.008 A 
ATOM      2  C   UNL     1      -0.361   0.942   0.409  1.00  0.00     0.050 A 
ATOM      3  C   UNL     1      -0.237  -0.450   0.483  1.00  0.00     0.161 A 
ATOM      4  C   UNL     1      -1.404  -1.254   0.526  1.00  0.00     0.200 A 
ATOM      5  C   UNL     1      -2.670  -0.636   0.494  1.00  0.00     0.161 A 
ATOM      6  C   UNL     1      -2.770   0.756   0.421  1.00  0.00     0.050 A 
ENDROOT
BRANCH   3   7
ATOM      7  O   UNL     1       1.052  -0.987   0.511  1.00  0.00    -0.504 OA
ATOM      8  H   UNL     1       1.306  -1.826   1.012  1.00  0.00     0.293 HD
ENDBRANCH   3   7
BRANCH   5   9
ATOM      9  O   UNL     1      -3.843  -1.392   0.534  1.00  0.00    -0.504 OA
ATOM     10  H   UNL     1      -3.848  -2.390   0.366  1.00  0.00     0.293 HD
ENDBRANCH   5   9
BRANCH   4  11
ATOM     11  O   UNL     1      -1.347  -2.648   0.600  1.00  0.00    -0.502 OA
ATOM     12  H   UNL     1      -0.586  -3.162   1.020  1.00  0.00     0.293 HD
ENDBRANCH   4  11
TORSDOF 3
ENDMDL
MODEL 5
REMARK VINA RESULT:    -3.662      1.678      3.653
REMARK INTER + INTRA:          -3.983
REMARK INTER:                  -3.983
REMARK INTRA:                   0.000
REMARK UNBOUND:                 0.000
REMARK SMILES Oc1cccc(O)c1O
REMARK SMILES IDX 4 1 5 2 6 3 8 4 2 5 3 6 7 7 1 9 9 11
REMARK H PARENT 7 8 1 10 9 12
REMARK Flexibility Score: inf
ROOT
ATOM      1  C   UNL     1      -3.552  -0.040   0.350  1.00  0.00     0.008 A 
ATOM      2  C   UNL     1      -2.819   1.143   0.448  1.00  0.00     0.050 A 
ATOM      3  C   UNL     1      -1.426   1.110   0.587  1.00  0.00     0.161 A 
ATOM      4  C   UNL     1      -0.757  -0.140   0.628  1.00  0.00     0.200 A 
ATOM      5  C   UNL     1      -1.508  -1.328   0.528  1.00  0.00     0.161 A 
ATOM      6  C   UNL     1      -2.897  -1.271   0.390  1.00  0.00     0.050 A 
ENDROOT
BRANCH   3   7
ATOM      7  O   UNL     1      -0.753   2.331   0.681  1.00  0.00    -0.504 OA
ATOM      8  H   UNL     1       0.131   2.526   0.234  1.00  0.00     0.293 HD
ENDBRANCH   3   7
BRANCH   5   9
ATOM      9  O   UNL     1      -0.887  -2.578   0.564  1.00  0.00    -0.504 OA
ATOM     10  H   UNL     1      -1.372  -3.429   0.309  1.00  0.00     0.293 HD
ENDBRANCH   5   9
BRANCH   4  11
ATOM     11  O   UNL     1       0.630  -0.239   0.765  1.00  0.00    -0.502 OA
ATOM     12  H   UNL     1       1.286  -0.095   0.012  1.00  0.00     0.293 HD
ENDBRANCH   4  11
TORSDOF 3
ENDMDL
MODEL 6
REMARK VINA RESULT:    -3.631      1.693      2.593
REMARK INTER + INTRA:          -3.949
REMARK INTER:                  -3.949
REMARK INTRA:                   0.000
REMARK UNBOUND:                 0.000
REMARK SMILES Oc1cccc(O)c1O
REMARK SMILES IDX 4 1 5 2 6 3 8 4 2 5 3 6 7 7 1 9 9 11
REMARK H PARENT 7 8 1 10 9 12
REMARK Flexibility Score: inf
ROOT
ATOM      1  C   UNL     1      -3.588  -0.045   0.368  1.00  0.00     0.008 A 
ATOM      2  C   UNL     1      -2.940  -1.279   0.420  1.00  0.00     0.050 A 
ATOM      3  C   UNL     1      -1.546  -1.350   0.534  1.00  0.00     0.161 A 
ATOM      4  C   UNL     1      -0.790  -0.152   0.598  1.00  0.00     0.200 A 
ATOM      5  C   UNL     1      -1.455   1.089   0.544  1.00  0.00     0.161 A 
ATOM      6  C   UNL     1      -2.847   1.135   0.430  1.00  0.00     0.050 A 
ENDROOT
BRANCH   3   7
ATOM      7  O   UNL     1      -0.961  -2.617   0.581  1.00  0.00    -0.504 OA
ATOM      8  H   UNL     1      -0.300  -2.910   1.286  1.00  0.00     0.293 HD
ENDBRANCH   3   7
BRANCH   5   9
ATOM      9  O   UNL     1      -0.746   2.290   0.603  1.00  0.00    -0.504 OA
ATOM     10  H   UNL     1      -0.900   2.973   1.335  1.00  0.00     0.293 HD
ENDBRANCH   5   9
BRANCH   4  11
ATOM     11  O   UNL     1       0.603  -0.156   0.712  1.00  0.00    -0.502 OA
ATOM     12  H   UNL     1       1.166   0.677   0.812  1.00  0.00     0.293 HD
ENDBRANCH   4  11
TORSDOF 3
ENDMDL
MODEL 7
REMARK VINA RESULT:    -3.553     10.402     11.406
REMARK INTER + INTRA:          -3.864
REMARK INTER:                  -3.864
REMARK INTRA:                   0.000
REMARK UNBOUND:                 0.000
REMARK SMILES Oc1cccc(O)c1O
REMARK SMILES IDX 4 1 5 2 6 3 8 4 2 5 3 6 7 7 1 9 9 11
REMARK H PARENT 7 8 1 10 9 12
REMARK Flexibility Score: inf
ROOT
ATOM      1  C   UNL     1      -6.710  -0.862  -9.761  1.00  0.00     0.008 A 
ATOM      2  C   UNL     1      -7.889  -0.138  -9.583  1.00  0.00     0.050 A 
ATOM      3  C   UNL     1      -7.860   1.152  -9.040  1.00  0.00     0.161 A 
ATOM      4  C   UNL     1      -6.617   1.726  -8.671  1.00  0.00     0.200 A 
ATOM      5  C   UNL     1      -5.432   0.986  -8.856  1.00  0.00     0.161 A 
ATOM      6  C   UNL     1      -5.486  -0.300  -9.399  1.00  0.00     0.050 A 
ENDROOT
BRANCH   3   7
ATOM      7  O   UNL     1      -9.076   1.821  -8.887  1.00  0.00    -0.504 OA
ATOM      8  H   UNL     1      -9.753   1.940  -9.626  1.00  0.00     0.293 HD
ENDBRANCH   3   7
BRANCH   5   9
ATOM      9  O   UNL     1      -4.189   1.515  -8.505  1.00  0.00    -0.504 OA
ATOM     10  H   UNL     1      -3.323   1.168  -8.898  1.00  0.00     0.293 HD
ENDBRANCH   5   9
BRANCH   4  11
ATOM     11  O   UNL     1      -6.521   3.008  -8.124  1.00  0.00    -0.502 OA
ATOM     12  H   UNL     1      -7.095   3.345  -7.364  1.00  0.00     0.293 HD
ENDBRANCH   4  11
TORSDOF 3
ENDMDL
