MODEL 1
REMARK VINA RESULT:    -4.571      0.000      0.000
REMARK INTER + INTRA:         -10.020
REMARK INTER:                  -8.579
REMARK INTRA:                  -1.441
REMARK UNBOUND:                -1.441
REMARK SMILES O=C([O-])CCCCCCCCCCCCCCC(=O)[O-]
REMARK SMILES IDX 10 1 9 2 8 3 7 4 6 5 5 6 4 7 2 8 1 9 3 10 11 11 12 12 13 13
REMARK SMILES IDX 14 14 15 15 16 16 17 17 18 18 19 19 20 20
REMARK H PARENT
REMARK Flexibility Score: inf
ROOT
ATOM      1  C   UNL     1      44.436  26.420   2.391  1.00  0.00     0.000 C 
ENDROOT
BRANCH   1   2
ATOM      2  C   UNL     1      45.163  27.766   2.227  1.00  0.00     0.000 C 
BRANCH   2   3
ATOM      3  C   UNL     1      44.197  28.962   2.262  1.00  0.00     0.000 C 
BRANCH   3   4
ATOM      4  C   UNL     1      42.760  28.568   1.875  1.00  0.00     0.000 C 
BRANCH   4   5
ATOM      5  C   UNL     1      42.318  29.185   0.538  1.00  0.00     0.000 C 
BRANCH   5   6
ATOM      6  C   UNL     1      43.461  29.265  -0.486  1.00  0.00     0.006 C 
BRANCH   6   7
ATOM      7  C   UNL     1      43.280  28.217  -1.590  1.00  0.00     0.053 C 
BRANCH   7   8
ATOM      8  C   UNL     1      44.221  27.073  -1.385  1.00  0.00     0.041 C 
ATOM      9  O   UNL     1      45.452  27.284  -1.227  1.00  0.00    -0.550 OA
ATOM     10  O   UNL     1      43.733  25.774  -1.320  1.00  0.00    -0.550 OA
ENDBRANCH   7   8
ENDBRANCH   6   7
ENDBRANCH   5   6
ENDBRANCH   4   5
ENDBRANCH   3   4
ENDBRANCH   2   3
ENDBRANCH   1   2
BRANCH   1  11
ATOM     11  C   UNL     1      44.985  25.580   3.560  1.00  0.00     0.000 C 
BRANCH  11  12
ATOM     12  C   UNL     1      46.520  25.486   3.633  1.00  0.00     0.000 C 
BRANCH  12  13
ATOM     13  C   UNL     1      47.089  25.979   4.972  1.00  0.00     0.000 C 
BRANCH  13  14
ATOM     14  C   UNL     1      45.967  26.218   5.990  1.00  0.00     0.000 C 
BRANCH  14  15
ATOM     15  C   UNL     1      45.995  27.664   6.508  1.00  0.00     0.000 C 
BRANCH  15  16
ATOM     16  C   UNL     1      45.479  27.786   7.951  1.00  0.00     0.006 C 
BRANCH  16  17
ATOM     17  C   UNL     1      45.269  26.420   8.618  1.00  0.00     0.053 C 
BRANCH  17  18
ATOM     18  C   UNL     1      46.203  26.257   9.776  1.00  0.00     0.041 C 
ATOM     19  O   UNL     1      46.759  27.263  10.290  1.00  0.00    -0.550 OA
ATOM     20  O   UNL     1      46.426  24.996  10.315  1.00  0.00    -0.550 OA
ENDBRANCH  17  18
ENDBRANCH  16  17
ENDBRANCH  15  16
ENDBRANCH  14  15
ENDBRANCH  13  14
ENDBRANCH  12  13
ENDBRANCH  11  12
ENDBRANCH   1  11
TORSDOF 15
ENDMDL
MODEL 2
REMARK VINA RESULT:    -4.330      1.012      1.680
REMARK INTER + INTRA:          -9.567
REMARK INTER:                  -8.586
REMARK INTRA:                  -0.981
REMARK UNBOUND:                -1.441
REMARK SMILES O=C([O-])CCCCCCCCCCCCCCC(=O)[O-]
REMARK SMILES IDX 10 1 9 2 8 3 7 4 6 5 5 6 4 7 2 8 1 9 3 10 11 11 12 12 13 13
REMARK SMILES IDX 14 14 15 15 16 16 17 17 18 18 19 19 20 20
REMARK H PARENT
REMARK Flexibility Score: inf
ROOT
ATOM      1  C   UNL     1      43.729  26.844   1.317  1.00  0.00     0.000 C 
ENDROOT
BRANCH   1   2
ATOM      2  C   UNL     1      42.377  27.579   1.348  1.00  0.00     0.000 C 
BRANCH   2   3
ATOM      3  C   UNL     1      42.542  29.107   1.400  1.00  0.00     0.000 C 
BRANCH   3   4
ATOM      4  C   UNL     1      43.293  29.658   0.173  1.00  0.00     0.000 C 
BRANCH   4   5
ATOM      5  C   UNL     1      42.368  29.882  -1.033  1.00  0.00     0.000 C 
BRANCH   5   6
ATOM      6  C   UNL     1      42.640  28.900  -2.183  1.00  0.00     0.006 C 
BRANCH   6   7
ATOM      7  C   UNL     1      44.049  28.307  -2.073  1.00  0.00     0.053 C 
BRANCH   7   8
ATOM      8  C   UNL     1      44.071  26.906  -2.596  1.00  0.00     0.041 C 
ATOM      9  O   UNL     1      43.978  25.932  -1.805  1.00  0.00    -0.550 OA
ATOM     10  O   UNL     1      44.145  26.676  -3.964  1.00  0.00    -0.550 OA
ENDBRANCH   7   8
ENDBRANCH   6   7
ENDBRANCH   5   6
ENDBRANCH   4   5
ENDBRANCH   3   4
ENDBRANCH   2   3
ENDBRANCH   1   2
BRANCH   1  11
ATOM     11  C   UNL     1      44.541  27.027   2.613  1.00  0.00     0.000 C 
BRANCH  11  12
ATOM     12  C   UNL     1      44.965  25.721   3.308  1.00  0.00     0.000 C 
BRANCH  12  13
ATOM     13  C   UNL     1      46.489  25.580   3.443  1.00  0.00     0.000 C 
BRANCH  13  14
ATOM     14  C   UNL     1      46.974  26.132   4.790  1.00  0.00     0.000 C 
BRANCH  14  15
ATOM     15  C   UNL     1      45.885  25.990   5.864  1.00  0.00     0.000 C 
BRANCH  15  16
ATOM     16  C   UNL     1      46.243  26.723   7.168  1.00  0.00     0.006 C 
BRANCH  16  17
ATOM     17  C   UNL     1      45.347  26.306   8.342  1.00  0.00     0.053 C 
BRANCH  17  18
ATOM     18  C   UNL     1      46.138  26.262   9.612  1.00  0.00     0.041 C 
ATOM     19  O   UNL     1      46.589  27.324  10.116  1.00  0.00    -0.550 OA
ATOM     20  O   UNL     1      46.341  25.051  10.262  1.00  0.00    -0.550 OA
ENDBRANCH  17  18
ENDBRANCH  16  17
ENDBRANCH  15  16
ENDBRANCH  14  15
ENDBRANCH  13  14
ENDBRANCH  12  13
ENDBRANCH  11  12
ENDBRANCH   1  11
TORSDOF 15
ENDMDL
MODEL 3
REMARK VINA RESULT:    -4.253      0.782      8.686
REMARK INTER + INTRA:          -9.424
REMARK INTER:                  -8.045
REMARK INTRA:                  -1.379
REMARK UNBOUND:                -1.441
REMARK SMILES O=C([O-])CCCCCCCCCCCCCCC(=O)[O-]
REMARK SMILES IDX 10 1 9 2 8 3 7 4 6 5 5 6 4 7 2 8 1 9 3 10 11 11 12 12 13 13
REMARK SMILES IDX 14 14 15 15 16 16 17 17 18 18 19 19 20 20
REMARK H PARENT
REMARK Flexibility Score: inf
ROOT
ATOM      1  C   UNL     1      45.816  26.889   2.204  1.00  0.00     0.000 C 
ENDROOT
BRANCH   1   2
ATOM      2  C   UNL     1      46.053  25.605   3.018  1.00  0.00     0.000 C 
BRANCH   2   3
ATOM      3  C   UNL     1      45.407  25.667   4.412  1.00  0.00     0.000 C 
BRANCH   3   4
ATOM      4  C   UNL     1      46.388  26.154   5.494  1.00  0.00     0.000 C 
BRANCH   4   5
ATOM      5  C   UNL     1      45.957  27.488   6.124  1.00  0.00     0.000 C 
BRANCH   5   6
ATOM      6  C   UNL     1      45.734  27.386   7.641  1.00  0.00     0.006 C 
BRANCH   6   7
ATOM      7  C   UNL     1      46.229  26.037   8.176  1.00  0.00     0.053 C 
BRANCH   7   8
ATOM      8  C   UNL     1      46.438  26.105   9.655  1.00  0.00     0.041 C 
ATOM      9  O   UNL     1      46.616  27.216  10.220  1.00  0.00    -0.550 OA
ATOM     10  O   UNL     1      46.390  24.945  10.418  1.00  0.00    -0.550 OA
ENDBRANCH   7   8
ENDBRANCH   6   7
ENDBRANCH   5   6
ENDBRANCH   4   5
ENDBRANCH   3   4
ENDBRANCH   2   3
ENDBRANCH   1   2
BRANCH   1  11
ATOM     11  C   UNL     1      44.489  27.588   2.559  1.00  0.00     0.000 C 
BRANCH  11  12
ATOM     12  C   UNL     1      43.263  27.101   1.766  1.00  0.00     0.000 C 
BRANCH  12  13
ATOM     13  C   UNL     1      42.436  28.253   1.173  1.00  0.00     0.000 C 
BRANCH  13  14
ATOM     14  C   UNL     1      43.314  29.485   0.920  1.00  0.00     0.000 C 
BRANCH  14  15
ATOM     15  C   UNL     1      43.251  29.911  -0.554  1.00  0.00     0.000 C 
BRANCH  15  16
ATOM     16  C   UNL     1      42.669  28.816  -1.462  1.00  0.00     0.006 C 
BRANCH  16  17
ATOM     17  C   UNL     1      43.714  28.227  -2.419  1.00  0.00     0.053 C 
BRANCH  17  18
ATOM     18  C   UNL     1      44.473  27.126  -1.749  1.00  0.00     0.041 C 
ATOM     19  O   UNL     1      45.629  27.336  -1.297  1.00  0.00    -0.550 OA
ATOM     20  O   UNL     1      43.886  25.877  -1.586  1.00  0.00    -0.550 OA
ENDBRANCH  17  18
ENDBRANCH  16  17
ENDBRANCH  15  16
ENDBRANCH  14  15
ENDBRANCH  13  14
ENDBRANCH  12  13
ENDBRANCH  11  12
ENDBRANCH   1  11
TORSDOF 15
ENDMDL
MODEL 4
REMARK VINA RESULT:    -4.244      2.176      3.101
REMARK INTER + INTRA:          -9.407
REMARK INTER:                  -8.124
REMARK INTRA:                  -1.282
REMARK UNBOUND:                -1.441
REMARK SMILES O=C([O-])CCCCCCCCCCCCCCC(=O)[O-]
REMARK SMILES IDX 10 1 9 2 8 3 7 4 6 5 5 6 4 7 2 8 1 9 3 10 11 11 12 12 13 13
REMARK SMILES IDX 14 14 15 15 16 16 17 17 18 18 19 19 20 20
REMARK H PARENT
REMARK Flexibility Score: inf
ROOT
ATOM      1  C   UNL     1      42.816  27.776   1.946  1.00  0.00     0.000 C 
ENDROOT
BRANCH   1   2
ATOM      2  C   UNL     1      42.463  27.802   0.448  1.00  0.00     0.000 C 
BRANCH   2   3
ATOM      3  C   UNL     1      43.039  26.595  -0.311  1.00  0.00     0.000 C 
BRANCH   3   4
ATOM      4  C   UNL     1      44.036  27.013  -1.408  1.00  0.00     0.000 C 
BRANCH   4   5
ATOM      5  C   UNL     1      43.923  28.502  -1.772  1.00  0.00     0.000 C 
BRANCH   5   6
ATOM      6  C   UNL     1      43.567  28.727  -3.250  1.00  0.00     0.006 C 
BRANCH   6   7
ATOM      7  C   UNL     1      43.770  27.444  -4.063  1.00  0.00     0.053 C 
BRANCH   7   8
ATOM      8  C   UNL     1      42.949  27.479  -5.313  1.00  0.00     0.041 C 
ATOM      9  O   UNL     1      43.439  27.089  -6.405  1.00  0.00    -0.550 OA
ATOM     10  O   UNL     1      41.625  27.899  -5.263  1.00  0.00    -0.550 OA
ENDBRANCH   7   8
ENDBRANCH   6   7
ENDBRANCH   5   6
ENDBRANCH   4   5
ENDBRANCH   3   4
ENDBRANCH   2   3
ENDBRANCH   1   2
BRANCH   1  11
ATOM     11  C   UNL     1      44.166  28.449   2.255  1.00  0.00     0.000 C 
BRANCH  11  12
ATOM     12  C   UNL     1      45.327  27.480   2.547  1.00  0.00     0.000 C 
BRANCH  12  13
ATOM     13  C   UNL     1      44.851  26.102   3.031  1.00  0.00     0.000 C 
BRANCH  13  14
ATOM     14  C   UNL     1      45.701  25.611   4.209  1.00  0.00     0.000 C 
BRANCH  14  15
ATOM     15  C   UNL     1      46.716  26.681   4.638  1.00  0.00     0.000 C 
BRANCH  15  16
ATOM     16  C   UNL     1      46.682  26.956   6.150  1.00  0.00     0.006 C 
BRANCH  16  17
ATOM     17  C   UNL     1      45.574  26.173   6.867  1.00  0.00     0.053 C 
BRANCH  17  18
ATOM     18  C   UNL     1      45.527  26.545   8.316  1.00  0.00     0.041 C 
ATOM     19  O   UNL     1      45.189  27.708   8.662  1.00  0.00    -0.550 OA
ATOM     20  O   UNL     1      45.814  25.594   9.286  1.00  0.00    -0.550 OA
ENDBRANCH  17  18
ENDBRANCH  16  17
ENDBRANCH  15  16
ENDBRANCH  14  15
ENDBRANCH  13  14
ENDBRANCH  12  13
ENDBRANCH  11  12
ENDBRANCH   1  11
TORSDOF 15
ENDMDL
MODEL 5
REMARK VINA RESULT:    -4.178      2.227      9.626
REMARK INTER + INTRA:          -9.283
REMARK INTER:                  -8.279
REMARK INTRA:                  -1.004
REMARK UNBOUND:                -1.441
REMARK SMILES O=C([O-])CCCCCCCCCCCCCCC(=O)[O-]
REMARK SMILES IDX 10 1 9 2 8 3 7 4 6 5 5 6 4 7 2 8 1 9 3 10 11 11 12 12 13 13
REMARK SMILES IDX 14 14 15 15 16 16 17 17 18 18 19 19 20 20
REMARK H PARENT
REMARK Flexibility Score: inf
ROOT
ATOM      1  C   UNL     1      44.932  27.400   1.533  1.00  0.00     0.000 C 
ENDROOT
BRANCH   1   2
ATOM      2  C   UNL     1      45.905  26.447   2.249  1.00  0.00     0.000 C 
BRANCH   2   3
ATOM      3  C   UNL     1      45.211  25.614   3.341  1.00  0.00     0.000 C 
BRANCH   3   4
ATOM      4  C   UNL     1      45.815  25.855   4.736  1.00  0.00     0.000 C 
BRANCH   4   5
ATOM      5  C   UNL     1      46.149  27.334   4.987  1.00  0.00     0.000 C 
BRANCH   5   6
ATOM      6  C   UNL     1      46.879  27.562   6.320  1.00  0.00     0.006 C 
BRANCH   6   7
ATOM      7  C   UNL     1      46.609  26.410   7.294  1.00  0.00     0.053 C 
BRANCH   7   8
ATOM      8  C   UNL     1      45.616  26.824   8.334  1.00  0.00     0.041 C 
ATOM      9  O   UNL     1      45.098  27.970   8.295  1.00  0.00    -0.550 OA
ATOM     10  O   UNL     1      45.226  25.926   9.319  1.00  0.00    -0.550 OA
ENDBRANCH   7   8
ENDBRANCH   6   7
ENDBRANCH   5   6
ENDBRANCH   4   5
ENDBRANCH   3   4
ENDBRANCH   2   3
ENDBRANCH   1   2
BRANCH   1  11
ATOM     11  C   UNL     1      43.467  27.197   1.963  1.00  0.00     0.000 C 
BRANCH  11  12
ATOM     12  C   UNL     1      42.416  27.631   0.926  1.00  0.00     0.000 C 
BRANCH  12  13
ATOM     13  C   UNL     1      42.282  29.157   0.808  1.00  0.00     0.000 C 
BRANCH  13  14
ATOM     14  C   UNL     1      42.517  29.617  -0.636  1.00  0.00     0.000 C 
BRANCH  14  15
ATOM     15  C   UNL     1      42.941  28.440  -1.526  1.00  0.00     0.000 C 
BRANCH  15  16
ATOM     16  C   UNL     1      42.919  28.792  -3.023  1.00  0.00     0.006 C 
BRANCH  16  17
ATOM     17  C   UNL     1      43.587  27.717  -3.890  1.00  0.00     0.053 C 
BRANCH  17  18
ATOM     18  C   UNL     1      42.900  27.616  -5.216  1.00  0.00     0.041 C 
ATOM     19  O   UNL     1      43.527  27.197  -6.225  1.00  0.00    -0.550 OA
ATOM     20  O   UNL     1      41.555  27.944  -5.328  1.00  0.00    -0.550 OA
ENDBRANCH  17  18
ENDBRANCH  16  17
ENDBRANCH  15  16
ENDBRANCH  14  15
ENDBRANCH  13  14
ENDBRANCH  12  13
ENDBRANCH  11  12
ENDBRANCH   1  11
TORSDOF 15
ENDMDL
MODEL 6
REMARK VINA RESULT:    -4.055      1.790      8.663
REMARK INTER + INTRA:          -9.051
REMARK INTER:                  -7.892
REMARK INTRA:                  -1.160
REMARK UNBOUND:                -1.441
REMARK SMILES O=C([O-])CCCCCCCCCCCCCCC(=O)[O-]
REMARK SMILES IDX 10 1 9 2 8 3 7 4 6 5 5 6 4 7 2 8 1 9 3 10 11 11 12 12 13 13
REMARK SMILES IDX 14 14 15 15 16 16 17 17 18 18 19 19 20 20
REMARK H PARENT
REMARK Flexibility Score: inf
ROOT
ATOM      1  C   UNL     1      44.725  26.543   2.039  1.00  0.00     0.000 C 
ENDROOT
BRANCH   1   2
ATOM      2  C   UNL     1      44.852  25.652   3.287  1.00  0.00     0.000 C 
BRANCH   2   3
ATOM      3  C   UNL     1      46.307  25.246   3.572  1.00  0.00     0.000 C 
BRANCH   3   4
ATOM      4  C   UNL     1      46.959  26.121   4.659  1.00  0.00     0.000 C 
BRANCH   4   5
ATOM      5  C   UNL     1      46.018  26.388   5.845  1.00  0.00     0.000 C 
BRANCH   5   6
ATOM      6  C   UNL     1      46.192  27.795   6.437  1.00  0.00     0.006 C 
BRANCH   6   7
ATOM      7  C   UNL     1      45.485  27.908   7.793  1.00  0.00     0.053 C 
BRANCH   7   8
ATOM      8  C   UNL     1      45.489  29.326   8.269  1.00  0.00     0.041 C 
ATOM      9  O   UNL     1      44.495  29.790   8.887  1.00  0.00    -0.550 OA
ATOM     10  O   UNL     1      46.610  30.122   8.072  1.00  0.00    -0.550 OA
ENDBRANCH   7   8
ENDBRANCH   6   7
ENDBRANCH   5   6
ENDBRANCH   4   5
ENDBRANCH   3   4
ENDBRANCH   2   3
ENDBRANCH   1   2
BRANCH   1  11
ATOM     11  C   UNL     1      43.928  27.834   2.302  1.00  0.00     0.000 C 
BRANCH  11  12
ATOM     12  C   UNL     1      42.500  27.850   1.727  1.00  0.00     0.000 C 
BRANCH  12  13
ATOM     13  C   UNL     1      41.968  29.270   1.481  1.00  0.00     0.000 C 
BRANCH  13  14
ATOM     14  C   UNL     1      42.870  30.032   0.503  1.00  0.00     0.000 C 
BRANCH  14  15
ATOM     15  C   UNL     1      42.230  30.103  -0.892  1.00  0.00     0.000 C 
BRANCH  15  16
ATOM     16  C   UNL     1      43.101  29.451  -1.977  1.00  0.00     0.006 C 
BRANCH  16  17
ATOM     17  C   UNL     1      44.115  28.455  -1.399  1.00  0.00     0.053 C 
BRANCH  17  18
ATOM     18  C   UNL     1      44.014  27.139  -2.103  1.00  0.00     0.041 C 
ATOM     19  O   UNL     1      44.113  26.064  -1.455  1.00  0.00    -0.550 OA
ATOM     20  O   UNL     1      43.768  27.099  -3.469  1.00  0.00    -0.550 OA
ENDBRANCH  17  18
ENDBRANCH  16  17
ENDBRANCH  15  16
ENDBRANCH  14  15
ENDBRANCH  13  14
ENDBRANCH  12  13
ENDBRANCH  11  12
ENDBRANCH   1  11
TORSDOF 15
ENDMDL
MODEL 7
REMARK VINA RESULT:    -4.044      3.652      9.090
REMARK INTER + INTRA:          -9.030
REMARK INTER:                  -7.071
REMARK INTRA:                  -1.959
REMARK UNBOUND:                -1.441
REMARK SMILES O=C([O-])CCCCCCCCCCCCCCC(=O)[O-]
REMARK SMILES IDX 10 1 9 2 8 3 7 4 6 5 5 6 4 7 2 8 1 9 3 10 11 11 12 12 13 13
REMARK SMILES IDX 14 14 15 15 16 16 17 17 18 18 19 19 20 20
REMARK H PARENT
REMARK Flexibility Score: inf
ROOT
ATOM      1  C   UNL     1      43.837  27.076  -1.502  1.00  0.00     0.000 C 
ENDROOT
BRANCH   1   2
ATOM      2  C   UNL     1      43.251  26.563  -0.174  1.00  0.00     0.000 C 
BRANCH   2   3
ATOM      3  C   UNL     1      42.358  27.609   0.515  1.00  0.00     0.000 C 
BRANCH   3   4
ATOM      4  C   UNL     1      42.777  27.869   1.973  1.00  0.00     0.000 C 
BRANCH   4   5
ATOM      5  C   UNL     1      43.889  28.925   2.087  1.00  0.00     0.000 C 
BRANCH   5   6
ATOM      6  C   UNL     1      45.290  28.303   2.195  1.00  0.00     0.006 C 
BRANCH   6   7
ATOM      7  C   UNL     1      45.336  27.246   3.305  1.00  0.00     0.053 C 
BRANCH   7   8
ATOM      8  C   UNL     1      45.802  25.934   2.760  1.00  0.00     0.041 C 
ATOM      9  O   UNL     1      45.305  24.858   3.184  1.00  0.00    -0.550 OA
ATOM     10  O   UNL     1      46.754  25.900   1.748  1.00  0.00    -0.550 OA
ENDBRANCH   7   8
ENDBRANCH   6   7
ENDBRANCH   5   6
ENDBRANCH   4   5
ENDBRANCH   3   4
ENDBRANCH   2   3
ENDBRANCH   1   2
BRANCH   1  11
ATOM     11  C   UNL     1      43.460  28.540  -1.798  1.00  0.00     0.000 C 
BRANCH  11  12
ATOM     12  C   UNL     1      44.649  29.483  -2.052  1.00  0.00     0.000 C 
BRANCH  12  13
ATOM     13  C   UNL     1      45.988  28.739  -2.177  1.00  0.00     0.000 C 
BRANCH  13  14
ATOM     14  C   UNL     1      46.454  28.690  -3.638  1.00  0.00     0.000 C 
BRANCH  14  15
ATOM     15  C   UNL     1      46.388  27.257  -4.187  1.00  0.00     0.000 C 
BRANCH  15  16
ATOM     16  C   UNL     1      45.580  27.159  -5.491  1.00  0.00     0.006 C 
BRANCH  16  17
ATOM     17  C   UNL     1      44.405  28.144  -5.531  1.00  0.00     0.053 C 
BRANCH  17  18
ATOM     18  C   UNL     1      43.119  27.435  -5.243  1.00  0.00     0.041 C 
ATOM     19  O   UNL     1      43.130  26.294  -4.711  1.00  0.00    -0.550 OA
ATOM     20  O   UNL     1      41.907  28.052  -5.524  1.00  0.00    -0.550 OA
ENDBRANCH  17  18
ENDBRANCH  16  17
ENDBRANCH  15  16
ENDBRANCH  14  15
ENDBRANCH  13  14
ENDBRANCH  12  13
ENDBRANCH  11  12
ENDBRANCH   1  11
TORSDOF 15
ENDMDL
MODEL 8
REMARK VINA RESULT:    -3.989      3.495      9.889
REMARK INTER + INTRA:          -8.928
REMARK INTER:                  -7.423
REMARK INTRA:                  -1.506
REMARK UNBOUND:                -1.441
REMARK SMILES O=C([O-])CCCCCCCCCCCCCCC(=O)[O-]
REMARK SMILES IDX 10 1 9 2 8 3 7 4 6 5 5 6 4 7 2 8 1 9 3 10 11 11 12 12 13 13
REMARK SMILES IDX 14 14 15 15 16 16 17 17 18 18 19 19 20 20
REMARK H PARENT
REMARK Flexibility Score: inf
ROOT
ATOM      1  C   UNL     1      42.333  29.534  -1.329  1.00  0.00     0.000 C 
ENDROOT
BRANCH   1   2
ATOM      2  C   UNL     1      43.010  29.558   0.053  1.00  0.00     0.000 C 
BRANCH   2   3
ATOM      3  C   UNL     1      42.213  28.777   1.110  1.00  0.00     0.000 C 
BRANCH   3   4
ATOM      4  C   UNL     1      42.829  27.398   1.410  1.00  0.00     0.000 C 
BRANCH   4   5
ATOM      5  C   UNL     1      44.291  27.292   0.948  1.00  0.00     0.000 C 
BRANCH   5   6
ATOM      6  C   UNL     1      45.269  27.080   2.114  1.00  0.00     0.006 C 
BRANCH   6   7
ATOM      7  C   UNL     1      44.776  25.967   3.046  1.00  0.00     0.053 C 
BRANCH   7   8
ATOM      8  C   UNL     1      45.860  25.557   3.992  1.00  0.00     0.041 C 
ATOM      9  O   UNL     1      46.797  24.814   3.599  1.00  0.00    -0.550 OA
ATOM     10  O   UNL     1      45.860  26.033   5.297  1.00  0.00    -0.550 OA
ENDBRANCH   7   8
ENDBRANCH   6   7
ENDBRANCH   5   6
ENDBRANCH   4   5
ENDBRANCH   3   4
ENDBRANCH   2   3
ENDBRANCH   1   2
BRANCH   1  11
ATOM     11  C   UNL     1      43.306  29.170  -2.467  1.00  0.00     0.000 C 
BRANCH  11  12
ATOM     12  C   UNL     1      43.752  27.697  -2.498  1.00  0.00     0.000 C 
BRANCH  12  13
ATOM     13  C   UNL     1      45.213  27.521  -2.939  1.00  0.00     0.000 C 
BRANCH  13  14
ATOM     14  C   UNL     1      45.445  28.134  -4.325  1.00  0.00     0.000 C 
BRANCH  14  15
ATOM     15  C   UNL     1      45.284  27.076  -5.428  1.00  0.00     0.000 C 
BRANCH  15  16
ATOM     16  C   UNL     1      44.296  27.508  -6.523  1.00  0.00     0.006 C 
BRANCH  16  17
ATOM     17  C   UNL     1      43.592  28.831  -6.193  1.00  0.00     0.053 C 
BRANCH  17  18
ATOM     18  C   UNL     1      42.116  28.618  -6.065  1.00  0.00     0.041 C 
ATOM     19  O   UNL     1      41.666  27.757  -5.264  1.00  0.00    -0.550 OA
ATOM     20  O   UNL     1      41.235  29.402  -6.800  1.00  0.00    -0.550 OA
ENDBRANCH  17  18
ENDBRANCH  16  17
ENDBRANCH  15  16
ENDBRANCH  14  15
ENDBRANCH  13  14
ENDBRANCH  12  13
ENDBRANCH  11  12
ENDBRANCH   1  11
TORSDOF 15
ENDMDL
MODEL 9
REMARK VINA RESULT:    -3.953      3.022      4.821
REMARK INTER + INTRA:          -8.860
REMARK INTER:                  -6.816
REMARK INTRA:                  -2.044
REMARK UNBOUND:                -1.441
REMARK SMILES O=C([O-])CCCCCCCCCCCCCCC(=O)[O-]
REMARK SMILES IDX 10 1 9 2 8 3 7 4 6 5 5 6 4 7 2 8 1 9 3 10 11 11 12 12 13 13
REMARK SMILES IDX 14 14 15 15 16 16 17 17 18 18 19 19 20 20
REMARK H PARENT
REMARK Flexibility Score: inf
ROOT
ATOM      1  C   UNL     1      42.383  27.503   0.610  1.00  0.00     0.000 C 
ENDROOT
BRANCH   1   2
ATOM      2  C   UNL     1      43.000  28.167  -0.634  1.00  0.00     0.000 C 
BRANCH   2   3
ATOM      3  C   UNL     1      43.955  27.227  -1.388  1.00  0.00     0.000 C 
BRANCH   3   4
ATOM      4  C   UNL     1      45.357  27.837  -1.569  1.00  0.00     0.000 C 
BRANCH   4   5
ATOM      5  C   UNL     1      45.706  28.085  -3.045  1.00  0.00     0.000 C 
BRANCH   5   6
ATOM      6  C   UNL     1      44.670  28.964  -3.762  1.00  0.00     0.006 C 
BRANCH   6   7
ATOM      7  C   UNL     1      44.318  28.383  -5.137  1.00  0.00     0.053 C 
BRANCH   7   8
ATOM      8  C   UNL     1      43.168  27.433  -5.026  1.00  0.00     0.041 C 
ATOM      9  O   UNL     1      43.365  26.236  -4.691  1.00  0.00    -0.550 OA
ATOM     10  O   UNL     1      41.872  27.882  -5.246  1.00  0.00    -0.550 OA
ENDBRANCH   7   8
ENDBRANCH   6   7
ENDBRANCH   5   6
ENDBRANCH   4   5
ENDBRANCH   3   4
ENDBRANCH   2   3
ENDBRANCH   1   2
BRANCH   1  11
ATOM     11  C   UNL     1      42.237  28.473   1.798  1.00  0.00     0.000 C 
BRANCH  11  12
ATOM     12  C   UNL     1      43.103  29.743   1.714  1.00  0.00     0.000 C 
BRANCH  12  13
ATOM     13  C   UNL     1      44.346  29.682   2.615  1.00  0.00     0.000 C 
BRANCH  13  14
ATOM     14  C   UNL     1      45.597  29.332   1.800  1.00  0.00     0.000 C 
BRANCH  14  15
ATOM     15  C   UNL     1      46.294  28.087   2.370  1.00  0.00     0.000 C 
BRANCH  15  16
ATOM     16  C   UNL     1      45.651  26.776   1.889  1.00  0.00     0.006 C 
BRANCH  16  17
ATOM     17  C   UNL     1      44.880  26.054   3.001  1.00  0.00     0.053 C 
BRANCH  17  18
ATOM     18  C   UNL     1      45.819  25.592   4.071  1.00  0.00     0.041 C 
ATOM     19  O   UNL     1      46.804  24.864   3.779  1.00  0.00    -0.550 OA
ATOM     20  O   UNL     1      45.630  26.000   5.385  1.00  0.00    -0.550 OA
ENDBRANCH  17  18
ENDBRANCH  16  17
ENDBRANCH  15  16
ENDBRANCH  14  15
ENDBRANCH  13  14
ENDBRANCH  12  13
ENDBRANCH  11  12
ENDBRANCH   1  11
TORSDOF 15
ENDMDL
