MODEL 1
REMARK VINA RESULT:    -8.359      0.000      0.000
REMARK INTER + INTRA:          -9.894
REMARK INTER:                  -9.580
REMARK INTRA:                  -0.314
REMARK UNBOUND:                -0.314
REMARK SMILES O=C1C[C@@H](c2ccc(O)cc2)Oc2cc(O)cc(O)c21
REMARK SMILES IDX 3 1 4 2 12 3 13 4 14 5 15 6 17 7 18 8 20 9 2 10 1 11 5 12
REMARK SMILES IDX 6 13 11 14 7 15 10 16 8 17 9 18 19 20 16 22
REMARK H PARENT 9 19 19 21 16 23
REMARK Flexibility Score: inf
ROOT
ATOM      1  C   UNL     1      34.806  25.358  21.076  1.00  0.00     0.131 C 
ATOM      2  C   UNL     1      34.686  25.003  19.585  1.00  0.00     0.211 C 
ATOM      3  O   UNL     1      33.623  25.743  18.976  1.00  0.00    -0.484 OA
ATOM      4  C   UNL     1      33.418  27.102  19.242  1.00  0.00     0.138 A 
ATOM      5  C   UNL     1      32.589  27.849  18.401  1.00  0.00     0.093 A 
ATOM      6  C   UNL     1      32.391  29.212  18.635  1.00  0.00     0.123 A 
ATOM      7  C   UNL     1      33.019  29.830  19.724  1.00  0.00     0.093 A 
ATOM      8  C   UNL     1      33.839  29.087  20.587  1.00  0.00     0.133 A 
ATOM      9  C   UNL     1      34.037  27.710  20.352  1.00  0.00     0.102 A 
ATOM     10  C   UNL     1      34.847  26.850  21.248  1.00  0.00     0.174 C 
ATOM     11  O   UNL     1      35.528  27.344  22.188  1.00  0.00    -0.294 OA
ENDROOT
BRANCH   2  12
ATOM     12  C   UNL     1      34.455  23.522  19.406  1.00  0.00    -0.007 A 
ATOM     13  C   UNL     1      34.841  22.620  20.411  1.00  0.00     0.011 A 
ATOM     14  C   UNL     1      33.801  23.034  18.260  1.00  0.00     0.011 A 
ATOM     15  C   UNL     1      34.601  21.251  20.261  1.00  0.00     0.046 A 
ATOM     16  C   UNL     1      33.562  21.664  18.113  1.00  0.00     0.046 A 
ATOM     17  C   UNL     1      33.962  20.770  19.111  1.00  0.00     0.115 A 
BRANCH  17  18
ATOM     18  O   UNL     1      33.718  19.407  18.951  1.00  0.00    -0.508 OA
ATOM     19  H   UNL     1      34.236  18.852  18.279  1.00  0.00     0.293 HD
ENDBRANCH  17  18
ENDBRANCH   2  12
BRANCH   8  20
ATOM     20  O   UNL     1      34.443  29.717  21.676  1.00  0.00    -0.507 OA
ATOM     21  H   UNL     1      33.899  30.215  22.372  1.00  0.00     0.293 HD
ENDBRANCH   8  20
BRANCH   6  22
ATOM     22  O   UNL     1      31.569  29.942  17.781  1.00  0.00    -0.508 OA
ATOM     23  H   UNL     1      30.585  29.723  17.675  1.00  0.00     0.293 HD
ENDBRANCH   6  22
TORSDOF 4
ENDMDL
MODEL 2
REMARK VINA RESULT:    -8.287      0.206      1.102
REMARK INTER + INTRA:          -9.812
REMARK INTER:                  -9.505
REMARK INTRA:                  -0.307
REMARK UNBOUND:                -0.314
REMARK SMILES O=C1C[C@@H](c2ccc(O)cc2)Oc2cc(O)cc(O)c21
REMARK SMILES IDX 3 1 4 2 12 3 13 4 14 5 15 6 17 7 18 8 20 9 2 10 1 11 5 12
REMARK SMILES IDX 6 13 11 14 7 15 10 16 8 17 9 18 19 20 16 22
REMARK H PARENT 9 19 19 21 16 23
REMARK Flexibility Score: inf
ROOT
ATOM      1  C   UNL     1      34.776  25.569  21.053  1.00  0.00     0.131 C 
ATOM      2  C   UNL     1      34.656  25.185  19.568  1.00  0.00     0.211 C 
ATOM      3  O   UNL     1      33.604  25.924  18.942  1.00  0.00    -0.484 OA
ATOM      4  C   UNL     1      33.412  27.290  19.180  1.00  0.00     0.138 A 
ATOM      5  C   UNL     1      32.593  28.029  18.322  1.00  0.00     0.093 A 
ATOM      6  C   UNL     1      32.409  29.398  18.529  1.00  0.00     0.123 A 
ATOM      7  C   UNL     1      33.041  30.030  19.607  1.00  0.00     0.093 A 
ATOM      8  C   UNL     1      33.850  29.297  20.487  1.00  0.00     0.133 A 
ATOM      9  C   UNL     1      34.034  27.913  20.280  1.00  0.00     0.102 A 
ATOM     10  C   UNL     1      34.832  27.063  21.196  1.00  0.00     0.174 C 
ATOM     11  O   UNL     1      35.516  27.568  22.127  1.00  0.00    -0.294 OA
ENDROOT
BRANCH   2  12
ATOM     12  C   UNL     1      34.410  23.704  19.418  1.00  0.00    -0.007 A 
ATOM     13  C   UNL     1      33.852  23.196  18.232  1.00  0.00     0.011 A 
ATOM     14  C   UNL     1      34.787  22.809  20.436  1.00  0.00     0.011 A 
ATOM     15  C   UNL     1      33.651  21.822  18.078  1.00  0.00     0.046 A 
ATOM     16  C   UNL     1      34.585  21.435  20.278  1.00  0.00     0.046 A 
ATOM     17  C   UNL     1      34.016  20.937  19.102  1.00  0.00     0.115 A 
BRANCH  17  18
ATOM     18  O   UNL     1      33.819  19.565  18.959  1.00  0.00    -0.508 OA
ATOM     19  H   UNL     1      32.945  19.190  18.610  1.00  0.00     0.293 HD
ENDBRANCH  17  18
ENDBRANCH   2  12
BRANCH   8  20
ATOM     20  O   UNL     1      34.457  29.942  21.565  1.00  0.00    -0.507 OA
ATOM     21  H   UNL     1      34.370  30.942  21.705  1.00  0.00     0.293 HD
ENDBRANCH   8  20
BRANCH   6  22
ATOM     22  O   UNL     1      31.597  30.120  17.658  1.00  0.00    -0.508 OA
ATOM     23  H   UNL     1      31.863  31.040  17.326  1.00  0.00     0.293 HD
ENDBRANCH   6  22
TORSDOF 4
ENDMDL
MODEL 3
REMARK VINA RESULT:    -8.282      2.557      5.962
REMARK INTER + INTRA:          -9.806
REMARK INTER:                  -9.501
REMARK INTRA:                  -0.305
REMARK UNBOUND:                -0.314
REMARK SMILES O=C1C[C@@H](c2ccc(O)cc2)Oc2cc(O)cc(O)c21
REMARK SMILES IDX 3 1 4 2 12 3 13 4 14 5 15 6 17 7 18 8 20 9 2 10 1 11 5 12
REMARK SMILES IDX 6 13 11 14 7 15 10 16 8 17 9 18 19 20 16 22
REMARK H PARENT 9 19 19 21 16 23
REMARK Flexibility Score: inf
ROOT
ATOM      1  C   UNL     1      34.739  25.567  20.591  1.00  0.00     0.131 C 
ATOM      2  C   UNL     1      33.780  26.756  20.766  1.00  0.00     0.211 C 
ATOM      3  O   UNL     1      33.670  27.497  19.547  1.00  0.00    -0.484 OA
ATOM      4  C   UNL     1      33.551  26.866  18.303  1.00  0.00     0.138 A 
ATOM      5  C   UNL     1      33.131  27.607  17.195  1.00  0.00     0.093 A 
ATOM      6  C   UNL     1      32.982  26.990  15.951  1.00  0.00     0.123 A 
ATOM      7  C   UNL     1      33.265  25.625  15.812  1.00  0.00     0.093 A 
ATOM      8  C   UNL     1      33.707  24.875  16.912  1.00  0.00     0.133 A 
ATOM      9  C   UNL     1      33.859  25.498  18.169  1.00  0.00     0.102 A 
ATOM     10  C   UNL     1      34.368  24.784  19.364  1.00  0.00     0.174 C 
ATOM     11  O   UNL     1      34.548  23.536  19.351  1.00  0.00    -0.294 OA
ENDROOT
BRANCH   2  12
ATOM     12  C   UNL     1      34.248  27.659  21.881  1.00  0.00    -0.007 A 
ATOM     13  C   UNL     1      34.002  27.315  23.221  1.00  0.00     0.011 A 
ATOM     14  C   UNL     1      34.983  28.824  21.597  1.00  0.00     0.011 A 
ATOM     15  C   UNL     1      34.460  28.134  24.257  1.00  0.00     0.046 A 
ATOM     16  C   UNL     1      35.441  29.641  22.635  1.00  0.00     0.046 A 
ATOM     17  C   UNL     1      35.180  29.300  23.966  1.00  0.00     0.115 A 
BRANCH  17  18
ATOM     18  O   UNL     1      35.642  30.124  24.990  1.00  0.00    -0.508 OA
ATOM     19  H   UNL     1      36.279  30.890  24.806  1.00  0.00     0.293 HD
ENDBRANCH  17  18
ENDBRANCH   2  12
BRANCH   8  20
ATOM     20  O   UNL     1      33.999  23.520  16.749  1.00  0.00    -0.507 OA
ATOM     21  H   UNL     1      34.902  23.207  16.411  1.00  0.00     0.293 HD
ENDBRANCH   8  20
BRANCH   6  22
ATOM     22  O   UNL     1      32.553  27.741  14.859  1.00  0.00    -0.508 OA
ATOM     23  H   UNL     1      31.734  28.335  14.914  1.00  0.00     0.293 HD
ENDBRANCH   6  22
TORSDOF 4
ENDMDL
MODEL 4
REMARK VINA RESULT:    -7.558      2.056      2.672
REMARK INTER + INTRA:          -8.977
REMARK INTER:                  -8.657
REMARK INTRA:                  -0.319
REMARK UNBOUND:                -0.314
REMARK SMILES O=C1C[C@@H](c2ccc(O)cc2)Oc2cc(O)cc(O)c21
REMARK SMILES IDX 3 1 4 2 12 3 13 4 14 5 15 6 17 7 18 8 20 9 2 10 1 11 5 12
REMARK SMILES IDX 6 13 11 14 7 15 10 16 8 17 9 18 19 20 16 22
REMARK H PARENT 9 19 19 21 16 23
REMARK Flexibility Score: inf
ROOT
ATOM      1  C   UNL     1      33.846  25.463  19.857  1.00  0.00     0.131 C 
ATOM      2  C   UNL     1      34.389  24.452  18.834  1.00  0.00     0.211 C 
ATOM      3  O   UNL     1      33.669  24.549  17.601  1.00  0.00    -0.484 OA
ATOM      4  C   UNL     1      33.328  25.784  17.036  1.00  0.00     0.138 A 
ATOM      5  C   UNL     1      32.918  25.839  15.701  1.00  0.00     0.093 A 
ATOM      6  C   UNL     1      32.597  27.064  15.112  1.00  0.00     0.123 A 
ATOM      7  C   UNL     1      32.678  28.241  15.866  1.00  0.00     0.093 A 
ATOM      8  C   UNL     1      33.069  28.198  17.213  1.00  0.00     0.133 A 
ATOM      9  C   UNL     1      33.391  26.960  17.809  1.00  0.00     0.102 A 
ATOM     10  C   UNL     1      33.763  26.829  19.238  1.00  0.00     0.174 C 
ATOM     11  O   UNL     1      33.959  27.845  19.958  1.00  0.00    -0.294 OA
ENDROOT
BRANCH   2  12
ATOM     12  C   UNL     1      34.302  23.046  19.374  1.00  0.00    -0.007 A 
ATOM     13  C   UNL     1      34.731  22.764  20.683  1.00  0.00     0.011 A 
ATOM     14  C   UNL     1      33.742  22.015  18.600  1.00  0.00     0.011 A 
ATOM     15  C   UNL     1      34.625  21.468  21.197  1.00  0.00     0.046 A 
ATOM     16  C   UNL     1      33.636  20.720  19.117  1.00  0.00     0.046 A 
ATOM     17  C   UNL     1      34.078  20.443  20.414  1.00  0.00     0.115 A 
BRANCH  17  18
ATOM     18  O   UNL     1      33.967  19.148  20.917  1.00  0.00    -0.508 OA
ATOM     19  H   UNL     1      33.940  18.342  20.302  1.00  0.00     0.293 HD
ENDBRANCH  17  18
ENDBRANCH   2  12
BRANCH   8  20
ATOM     20  O   UNL     1      33.127  29.380  17.952  1.00  0.00    -0.507 OA
ATOM     21  H   UNL     1      33.853  30.070  17.797  1.00  0.00     0.293 HD
ENDBRANCH   8  20
BRANCH   6  22
ATOM     22  O   UNL     1      32.201  27.101  13.778  1.00  0.00    -0.508 OA
ATOM     23  H   UNL     1      31.384  26.595  13.453  1.00  0.00     0.293 HD
ENDBRANCH   6  22
TORSDOF 4
ENDMDL
MODEL 5
REMARK VINA RESULT:    -7.009      2.299      7.250
REMARK INTER + INTRA:          -8.347
REMARK INTER:                  -8.059
REMARK INTRA:                  -0.288
REMARK UNBOUND:                -0.314
REMARK SMILES O=C1C[C@@H](c2ccc(O)cc2)Oc2cc(O)cc(O)c21
REMARK SMILES IDX 3 1 4 2 12 3 13 4 14 5 15 6 17 7 18 8 20 9 2 10 1 11 5 12
REMARK SMILES IDX 6 13 11 14 7 15 10 16 8 17 9 18 19 20 16 22
REMARK H PARENT 9 19 19 21 16 23
REMARK Flexibility Score: inf
ROOT
ATOM      1  C   UNL     1      34.149  24.983  19.060  1.00  0.00     0.131 C 
ATOM      2  C   UNL     1      35.189  24.910  20.190  1.00  0.00     0.211 C 
ATOM      3  O   UNL     1      34.878  23.842  21.090  1.00  0.00    -0.484 OA
ATOM      4  C   UNL     1      34.462  22.585  20.636  1.00  0.00     0.138 A 
ATOM      5  C   UNL     1      34.479  21.497  21.512  1.00  0.00     0.093 A 
ATOM      6  C   UNL     1      34.092  20.230  21.071  1.00  0.00     0.123 A 
ATOM      7  C   UNL     1      33.675  20.051  19.746  1.00  0.00     0.093 A 
ATOM      8  C   UNL     1      33.635  21.139  18.860  1.00  0.00     0.133 A 
ATOM      9  C   UNL     1      34.024  22.420  19.307  1.00  0.00     0.102 A 
ATOM     10  C   UNL     1      33.960  23.625  18.445  1.00  0.00     0.174 C 
ATOM     11  O   UNL     1      33.696  23.536  17.216  1.00  0.00    -0.294 OA
ENDROOT
BRANCH   2  12
ATOM     12  C   UNL     1      35.254  26.218  20.941  1.00  0.00    -0.007 A 
ATOM     13  C   UNL     1      34.221  27.161  20.809  1.00  0.00     0.011 A 
ATOM     14  C   UNL     1      36.317  26.484  21.822  1.00  0.00     0.011 A 
ATOM     15  C   UNL     1      34.263  28.360  21.526  1.00  0.00     0.046 A 
ATOM     16  C   UNL     1      36.357  27.684  22.538  1.00  0.00     0.046 A 
ATOM     17  C   UNL     1      35.333  28.625  22.392  1.00  0.00     0.115 A 
BRANCH  17  18
ATOM     18  O   UNL     1      35.386  29.817  23.111  1.00  0.00    -0.508 OA
ATOM     19  H   UNL     1      34.563  30.200  23.562  1.00  0.00     0.293 HD
ENDBRANCH  17  18
ENDBRANCH   2  12
BRANCH   8  20
ATOM     20  O   UNL     1      33.201  20.944  17.548  1.00  0.00    -0.507 OA
ATOM     21  H   UNL     1      32.229  20.754  17.332  1.00  0.00     0.293 HD
ENDBRANCH   8  20
BRANCH   6  22
ATOM     22  O   UNL     1      34.125  19.155  21.956  1.00  0.00    -0.508 OA
ATOM     23  H   UNL     1      34.710  18.345  21.784  1.00  0.00     0.293 HD
ENDBRANCH   6  22
TORSDOF 4
ENDMDL
MODEL 6
REMARK VINA RESULT:    -6.943      1.854      3.318
REMARK INTER + INTRA:          -8.271
REMARK INTER:                  -7.971
REMARK INTRA:                  -0.300
REMARK UNBOUND:                -0.314
REMARK SMILES O=C1C[C@@H](c2ccc(O)cc2)Oc2cc(O)cc(O)c21
REMARK SMILES IDX 3 1 4 2 12 3 13 4 14 5 15 6 17 7 18 8 20 9 2 10 1 11 5 12
REMARK SMILES IDX 6 13 11 14 7 15 10 16 8 17 9 18 19 20 16 22
REMARK H PARENT 9 19 19 21 16 23
REMARK Flexibility Score: inf
ROOT
ATOM      1  C   UNL     1      33.564  24.873  16.335  1.00  0.00     0.131 C 
ATOM      2  C   UNL     1      32.802  24.518  17.623  1.00  0.00     0.211 C 
ATOM      3  O   UNL     1      33.006  25.523  18.620  1.00  0.00    -0.484 OA
ATOM      4  C   UNL     1      32.976  26.889  18.316  1.00  0.00     0.138 A 
ATOM      5  C   UNL     1      32.860  27.821  19.350  1.00  0.00     0.093 A 
ATOM      6  C   UNL     1      32.803  29.187  19.064  1.00  0.00     0.123 A 
ATOM      7  C   UNL     1      32.872  29.624  17.735  1.00  0.00     0.093 A 
ATOM      8  C   UNL     1      33.007  28.699  16.688  1.00  0.00     0.133 A 
ATOM      9  C   UNL     1      33.067  27.319  16.977  1.00  0.00     0.102 A 
ATOM     10  C   UNL     1      33.260  26.287  15.931  1.00  0.00     0.174 C 
ATOM     11  O   UNL     1      33.228  26.585  14.706  1.00  0.00    -0.294 OA
ENDROOT
BRANCH   2  12
ATOM     12  C   UNL     1      33.238  23.171  18.147  1.00  0.00    -0.007 A 
ATOM     13  C   UNL     1      34.267  23.083  19.100  1.00  0.00     0.011 A 
ATOM     14  C   UNL     1      32.585  21.997  17.733  1.00  0.00     0.011 A 
ATOM     15  C   UNL     1      34.653  21.840  19.610  1.00  0.00     0.046 A 
ATOM     16  C   UNL     1      32.973  20.755  18.245  1.00  0.00     0.046 A 
ATOM     17  C   UNL     1      34.007  20.672  19.183  1.00  0.00     0.115 A 
BRANCH  17  18
ATOM     18  O   UNL     1      34.383  19.428  19.684  1.00  0.00    -0.508 OA
ATOM     19  H   UNL     1      34.093  19.118  20.604  1.00  0.00     0.293 HD
ENDBRANCH  17  18
ENDBRANCH   2  12
BRANCH   8  20
ATOM     20  O   UNL     1      33.090  29.155  15.372  1.00  0.00    -0.507 OA
ATOM     21  H   UNL     1      33.861  29.733  15.057  1.00  0.00     0.293 HD
ENDBRANCH   8  20
BRANCH   6  22
ATOM     22  O   UNL     1      32.678  30.102  20.106  1.00  0.00    -0.508 OA
ATOM     23  H   UNL     1      32.136  30.952  20.004  1.00  0.00     0.293 HD
ENDBRANCH   6  22
TORSDOF 4
ENDMDL
MODEL 7
REMARK VINA RESULT:    -6.798      2.647      5.030
REMARK INTER + INTRA:          -8.105
REMARK INTER:                  -7.791
REMARK INTRA:                  -0.314
REMARK UNBOUND:                -0.314
REMARK SMILES O=C1C[C@@H](c2ccc(O)cc2)Oc2cc(O)cc(O)c21
REMARK SMILES IDX 3 1 4 2 12 3 13 4 14 5 15 6 17 7 18 8 20 9 2 10 1 11 5 12
REMARK SMILES IDX 6 13 11 14 7 15 10 16 8 17 9 18 19 20 16 22
REMARK H PARENT 9 19 19 21 16 23
REMARK Flexibility Score: inf
ROOT
ATOM      1  C   UNL     1      34.152  24.786  19.692  1.00  0.00     0.131 C 
ATOM      2  C   UNL     1      34.459  26.202  19.176  1.00  0.00     0.211 C 
ATOM      3  O   UNL     1      33.993  27.187  20.103  1.00  0.00    -0.484 OA
ATOM      4  C   UNL     1      34.171  27.049  21.485  1.00  0.00     0.138 A 
ATOM      5  C   UNL     1      33.993  28.159  22.314  1.00  0.00     0.093 A 
ATOM      6  C   UNL     1      34.190  28.047  23.693  1.00  0.00     0.123 A 
ATOM      7  C   UNL     1      34.557  26.814  24.246  1.00  0.00     0.093 A 
ATOM      8  C   UNL     1      34.720  25.687  23.426  1.00  0.00     0.133 A 
ATOM      9  C   UNL     1      34.519  25.799  22.034  1.00  0.00     0.102 A 
ATOM     10  C   UNL     1      34.622  24.643  21.112  1.00  0.00     0.174 C 
ATOM     11  O   UNL     1      35.047  23.525  21.511  1.00  0.00    -0.294 OA
ENDROOT
BRANCH   2  12
ATOM     12  C   UNL     1      33.829  26.425  17.823  1.00  0.00    -0.007 A 
ATOM     13  C   UNL     1      33.259  27.669  17.504  1.00  0.00     0.011 A 
ATOM     14  C   UNL     1      33.854  25.413  16.846  1.00  0.00     0.011 A 
ATOM     15  C   UNL     1      32.701  27.888  16.241  1.00  0.00     0.046 A 
ATOM     16  C   UNL     1      33.297  25.635  15.584  1.00  0.00     0.046 A 
ATOM     17  C   UNL     1      32.718  26.871  15.278  1.00  0.00     0.115 A 
BRANCH  17  18
ATOM     18  O   UNL     1      32.165  27.078  14.016  1.00  0.00    -0.508 OA
ATOM     19  H   UNL     1      32.583  27.722  13.355  1.00  0.00     0.293 HD
ENDBRANCH  17  18
ENDBRANCH   2  12
BRANCH   8  20
ATOM     20  O   UNL     1      35.069  24.463  23.999  1.00  0.00    -0.507 OA
ATOM     21  H   UNL     1      35.278  24.378  24.987  1.00  0.00     0.293 HD
ENDBRANCH   8  20
BRANCH   6  22
ATOM     22  O   UNL     1      34.019  29.166  24.503  1.00  0.00    -0.508 OA
ATOM     23  H   UNL     1      34.404  30.069  24.250  1.00  0.00     0.293 HD
ENDBRANCH   6  22
TORSDOF 4
ENDMDL
MODEL 8
REMARK VINA RESULT:    -6.245      3.193      5.328
REMARK INTER + INTRA:          -7.471
REMARK INTER:                  -7.152
REMARK INTRA:                  -0.319
REMARK UNBOUND:                -0.314
REMARK SMILES O=C1C[C@@H](c2ccc(O)cc2)Oc2cc(O)cc(O)c21
REMARK SMILES IDX 3 1 4 2 12 3 13 4 14 5 15 6 17 7 18 8 20 9 2 10 1 11 5 12
REMARK SMILES IDX 6 13 11 14 7 15 10 16 8 17 9 18 19 20 16 22
REMARK H PARENT 9 19 19 21 16 23
REMARK Flexibility Score: inf
ROOT
ATOM      1  C   UNL     1      33.995  28.876  19.939  1.00  0.00     0.131 C 
ATOM      2  C   UNL     1      33.160  27.621  19.635  1.00  0.00     0.211 C 
ATOM      3  O   UNL     1      33.729  26.473  20.270  1.00  0.00    -0.484 OA
ATOM      4  C   UNL     1      34.212  26.514  21.583  1.00  0.00     0.138 A 
ATOM      5  C   UNL     1      34.458  25.318  22.263  1.00  0.00     0.093 A 
ATOM      6  C   UNL     1      34.917  25.337  23.582  1.00  0.00     0.123 A 
ATOM      7  C   UNL     1      35.140  26.563  24.223  1.00  0.00     0.093 A 
ATOM      8  C   UNL     1      34.915  27.771  23.546  1.00  0.00     0.133 A 
ATOM      9  C   UNL     1      34.454  27.751  22.213  1.00  0.00     0.102 A 
ATOM     10  C   UNL     1      34.243  28.984  21.417  1.00  0.00     0.174 C 
ATOM     11  O   UNL     1      34.320  30.125  21.947  1.00  0.00    -0.294 OA
ENDROOT
BRANCH   2  12
ATOM     12  C   UNL     1      33.061  27.394  18.146  1.00  0.00    -0.007 A 
ATOM     13  C   UNL     1      32.729  28.457  17.289  1.00  0.00     0.011 A 
ATOM     14  C   UNL     1      33.352  26.134  17.594  1.00  0.00     0.011 A 
ATOM     15  C   UNL     1      32.666  28.257  15.907  1.00  0.00     0.046 A 
ATOM     16  C   UNL     1      33.289  25.937  16.211  1.00  0.00     0.046 A 
ATOM     17  C   UNL     1      32.945  26.995  15.365  1.00  0.00     0.115 A 
BRANCH  17  18
ATOM     18  O   UNL     1      32.884  26.784  13.989  1.00  0.00    -0.508 OA
ATOM     19  H   UNL     1      32.090  26.324  13.558  1.00  0.00     0.293 HD
ENDBRANCH  17  18
ENDBRANCH   2  12
BRANCH   8  20
ATOM     20  O   UNL     1      35.159  28.981  24.197  1.00  0.00    -0.507 OA
ATOM     21  H   UNL     1      35.238  29.853  23.686  1.00  0.00     0.293 HD
ENDBRANCH   8  20
BRANCH   6  22
ATOM     22  O   UNL     1      35.148  24.136  24.246  1.00  0.00    -0.508 OA
ATOM     23  H   UNL     1      35.277  23.267  23.741  1.00  0.00     0.293 HD
ENDBRANCH   6  22
TORSDOF 4
ENDMDL
MODEL 9
REMARK VINA RESULT:    -6.017      2.955      4.751
REMARK INTER + INTRA:          -7.210
REMARK INTER:                  -6.928
REMARK INTRA:                  -0.281
REMARK UNBOUND:                -0.314
REMARK SMILES O=C1C[C@@H](c2ccc(O)cc2)Oc2cc(O)cc(O)c21
REMARK SMILES IDX 3 1 4 2 12 3 13 4 14 5 15 6 17 7 18 8 20 9 2 10 1 11 5 12
REMARK SMILES IDX 6 13 11 14 7 15 10 16 8 17 9 18 19 20 16 22
REMARK H PARENT 9 19 19 21 16 23
REMARK Flexibility Score: inf
ROOT
ATOM      1  C   UNL     1      33.795  27.525  22.199  1.00  0.00     0.131 C 
ATOM      2  C   UNL     1      34.891  26.635  21.591  1.00  0.00     0.211 C 
ATOM      3  O   UNL     1      36.084  27.391  21.365  1.00  0.00    -0.484 OA
ATOM      4  C   UNL     1      36.571  28.308  22.303  1.00  0.00     0.138 A 
ATOM      5  C   UNL     1      37.882  28.778  22.188  1.00  0.00     0.093 A 
ATOM      6  C   UNL     1      38.395  29.675  23.128  1.00  0.00     0.123 A 
ATOM      7  C   UNL     1      37.586  30.113  24.185  1.00  0.00     0.093 A 
ATOM      8  C   UNL     1      36.262  29.664  24.301  1.00  0.00     0.133 A 
ATOM      9  C   UNL     1      35.744  28.760  23.350  1.00  0.00     0.102 A 
ATOM     10  C   UNL     1      34.341  28.281  23.377  1.00  0.00     0.174 C 
ATOM     11  O   UNL     1      33.580  28.544  24.348  1.00  0.00    -0.294 OA
ENDROOT
BRANCH   2  12
ATOM     12  C   UNL     1      34.418  26.013  20.299  1.00  0.00    -0.007 A 
ATOM     13  C   UNL     1      34.765  24.688  19.984  1.00  0.00     0.011 A 
ATOM     14  C   UNL     1      33.582  26.730  19.425  1.00  0.00     0.011 A 
ATOM     15  C   UNL     1      34.304  24.100  18.803  1.00  0.00     0.046 A 
ATOM     16  C   UNL     1      33.122  26.138  18.245  1.00  0.00     0.046 A 
ATOM     17  C   UNL     1      33.482  24.825  17.930  1.00  0.00     0.115 A 
BRANCH  17  18
ATOM     18  O   UNL     1      33.016  24.248  16.749  1.00  0.00    -0.508 OA
ATOM     19  H   UNL     1      32.973  23.242  16.633  1.00  0.00     0.293 HD
ENDBRANCH  17  18
ENDBRANCH   2  12
BRANCH   8  20
ATOM     20  O   UNL     1      35.467  30.125  25.352  1.00  0.00    -0.507 OA
ATOM     21  H   UNL     1      35.010  31.028  25.317  1.00  0.00     0.293 HD
ENDBRANCH   8  20
BRANCH   6  22
ATOM     22  O   UNL     1      39.706  30.125  23.004  1.00  0.00    -0.508 OA
ATOM     23  H   UNL     1      40.439  29.528  22.637  1.00  0.00     0.293 HD
ENDBRANCH   6  22
TORSDOF 4
ENDMDL
