MODEL 1
REMARK VINA RESULT:    -9.526      0.000      0.000
REMARK INTER + INTRA:         -11.745
REMARK INTER:                 -11.475
REMARK INTRA:                  -0.269
REMARK UNBOUND:                -0.269
REMARK SMILES O=c1c(O)c(-c2ccc(O)c(O)c2)oc2cc(O)cc(O)c12
REMARK SMILES IDX 5 1 3 2 2 3 1 4 22 5 20 6 19 7 17 8 16 9 15 10 14 11 6 12
REMARK SMILES IDX 7 13 8 14 9 15 13 16 11 17 10 18 12 20 4 22 21 24 18 26
REMARK H PARENT 10 19 12 21 4 23 21 25 18 27
REMARK Flexibility Score: inf
ROOT
ATOM      1  C   UNL     1       8.026  -6.946 -10.265  1.00  0.00     0.180 A 
ATOM      2  C   UNL     1       8.611  -8.181 -10.596  1.00  0.00     0.208 A 
ATOM      3  C   UNL     1       9.876  -8.193 -11.207  1.00  0.00     0.238 A 
ATOM      4  O   UNL     1      10.418  -9.302 -11.451  1.00  0.00    -0.285 OA
ATOM      5  C   UNL     1      10.531  -6.972 -11.496  1.00  0.00     0.111 A 
ATOM      6  C   UNL     1      11.796  -6.864 -12.149  1.00  0.00     0.134 A 
ATOM      7  C   UNL     1      12.410  -5.611 -12.265  1.00  0.00     0.093 A 
ATOM      8  C   UNL     1      11.777  -4.455 -11.811  1.00  0.00     0.123 A 
ATOM      9  C   UNL     1      10.514  -4.540 -11.223  1.00  0.00     0.094 A 
ATOM     10  C   UNL     1       9.892  -5.781 -11.060  1.00  0.00     0.146 A 
ATOM     11  O   UNL     1       8.695  -5.820 -10.488  1.00  0.00    -0.452 OA
ENDROOT
BRANCH   1  12
ATOM     12  C   UNL     1       6.687  -6.851  -9.641  1.00  0.00     0.025 A 
ATOM     13  C   UNL     1       6.537  -6.605  -8.266  1.00  0.00     0.016 A 
ATOM     14  C   UNL     1       5.263  -6.543  -7.694  1.00  0.00     0.051 A 
ATOM     15  C   UNL     1       4.124  -6.739  -8.482  1.00  0.00     0.157 A 
ATOM     16  C   UNL     1       5.542  -7.069 -10.425  1.00  0.00     0.062 A 
ATOM     17  C   UNL     1       4.263  -7.006  -9.853  1.00  0.00     0.158 A 
BRANCH  15  18
ATOM     18  O   UNL     1       2.866  -6.669  -7.883  1.00  0.00    -0.504 OA
ATOM     19  H   UNL     1       2.447  -7.466  -7.420  1.00  0.00     0.293 HD
ENDBRANCH  15  18
BRANCH  17  20
ATOM     20  O   UNL     1       3.131  -7.210 -10.643  1.00  0.00    -0.504 OA
ATOM     21  H   UNL     1       2.408  -7.866 -10.373  1.00  0.00     0.293 HD
ENDBRANCH  17  20
ENDBRANCH   1  12
BRANCH   2  22
ATOM     22  O   UNL     1       7.958  -9.375 -10.283  1.00  0.00    -0.502 OA
ATOM     23  H   UNL     1       8.031  -9.813  -9.372  1.00  0.00     0.293 HD
ENDBRANCH   2  22
BRANCH   6  24
ATOM     24  O   UNL     1      12.473  -7.945 -12.721  1.00  0.00    -0.507 OA
ATOM     25  H   UNL     1      12.493  -8.152 -13.709  1.00  0.00     0.293 HD
ENDBRANCH   6  24
BRANCH   8  26
ATOM     26  O   UNL     1      12.410  -3.223 -11.957  1.00  0.00    -0.508 OA
ATOM     27  H   UNL     1      11.913  -2.409 -12.303  1.00  0.00     0.293 HD
ENDBRANCH   8  26
TORSDOF 6
ENDMDL
MODEL 2
REMARK VINA RESULT:    -8.901      4.416     10.146
REMARK INTER + INTRA:         -10.992
REMARK INTER:                 -10.669
REMARK INTRA:                  -0.323
REMARK UNBOUND:                -0.269
REMARK SMILES O=c1c(O)c(-c2ccc(O)c(O)c2)oc2cc(O)cc(O)c12
REMARK SMILES IDX 5 1 3 2 2 3 1 4 22 5 20 6 19 7 17 8 16 9 15 10 14 11 6 12
REMARK SMILES IDX 7 13 8 14 9 15 13 16 11 17 10 18 12 20 4 22 21 24 18 26
REMARK H PARENT 10 19 12 21 4 23 21 25 18 27
REMARK Flexibility Score: inf
ROOT
ATOM      1  C   UNL     1       1.482  -6.426  -8.260  1.00  0.00     0.180 A 
ATOM      2  C   UNL     1       0.771  -7.514  -7.727  1.00  0.00     0.208 A 
ATOM      3  C   UNL     1      -0.497  -7.290  -7.167  1.00  0.00     0.238 A 
ATOM      4  O   UNL     1      -1.153  -8.276  -6.741  1.00  0.00    -0.285 OA
ATOM      5  C   UNL     1      -1.031  -5.980  -7.133  1.00  0.00     0.111 A 
ATOM      6  C   UNL     1      -2.289  -5.631  -6.554  1.00  0.00     0.134 A 
ATOM      7  C   UNL     1      -2.775  -4.325  -6.693  1.00  0.00     0.093 A 
ATOM      8  C   UNL     1      -2.023  -3.340  -7.332  1.00  0.00     0.123 A 
ATOM      9  C   UNL     1      -0.766  -3.655  -7.849  1.00  0.00     0.094 A 
ATOM     10  C   UNL     1      -0.269  -4.958  -7.759  1.00  0.00     0.146 A 
ATOM     11  O   UNL     1       0.927  -5.219  -8.272  1.00  0.00    -0.452 OA
ENDROOT
BRANCH   1  12
ATOM     12  C   UNL     1       2.834  -6.578  -8.845  1.00  0.00     0.025 A 
ATOM     13  C   UNL     1       3.012  -6.886 -10.204  1.00  0.00     0.016 A 
ATOM     14  C   UNL     1       4.297  -7.050 -10.729  1.00  0.00     0.051 A 
ATOM     15  C   UNL     1       5.420  -6.921  -9.905  1.00  0.00     0.157 A 
ATOM     16  C   UNL     1       3.963  -6.470  -8.015  1.00  0.00     0.062 A 
ATOM     17  C   UNL     1       5.253  -6.633  -8.541  1.00  0.00     0.158 A 
BRANCH  15  18
ATOM     18  O   UNL     1       6.689  -7.087 -10.458  1.00  0.00    -0.504 OA
ATOM     19  H   UNL     1       6.882  -7.794 -11.157  1.00  0.00     0.293 HD
ENDBRANCH  15  18
BRANCH  17  20
ATOM     20  O   UNL     1       6.368  -6.511  -7.711  1.00  0.00    -0.504 OA
ATOM     21  H   UNL     1       6.421  -6.990  -6.821  1.00  0.00     0.293 HD
ENDBRANCH  17  20
ENDBRANCH   1  12
BRANCH   2  22
ATOM     22  O   UNL     1       1.306  -8.803  -7.791  1.00  0.00    -0.502 OA
ATOM     23  H   UNL     1       1.236  -9.381  -8.621  1.00  0.00     0.293 HD
ENDBRANCH   2  22
BRANCH   6  24
ATOM     24  O   UNL     1      -3.080  -6.515  -5.815  1.00  0.00    -0.507 OA
ATOM     25  H   UNL     1      -3.985  -6.292  -5.430  1.00  0.00     0.293 HD
ENDBRANCH   6  24
BRANCH   8  26
ATOM     26  O   UNL     1      -2.531  -2.048  -7.437  1.00  0.00    -0.508 OA
ATOM     27  H   UNL     1      -2.149  -1.282  -6.893  1.00  0.00     0.293 HD
ENDBRANCH   8  26
TORSDOF 6
ENDMDL
MODEL 3
REMARK VINA RESULT:    -8.777      4.348     10.524
REMARK INTER + INTRA:         -10.842
REMARK INTER:                 -10.511
REMARK INTRA:                  -0.331
REMARK UNBOUND:                -0.269
REMARK SMILES O=c1c(O)c(-c2ccc(O)c(O)c2)oc2cc(O)cc(O)c12
REMARK SMILES IDX 5 1 3 2 2 3 1 4 22 5 20 6 19 7 17 8 16 9 15 10 14 11 6 12
REMARK SMILES IDX 7 13 8 14 9 15 13 16 11 17 10 18 12 20 4 22 21 24 18 26
REMARK H PARENT 10 19 12 21 4 23 21 25 18 27
REMARK Flexibility Score: inf
ROOT
ATOM      1  C   UNL     1       1.595  -6.389  -8.183  1.00  0.00     0.180 A 
ATOM      2  C   UNL     1       0.947  -5.143  -8.126  1.00  0.00     0.208 A 
ATOM      3  C   UNL     1      -0.321  -5.061  -7.527  1.00  0.00     0.238 A 
ATOM      4  O   UNL     1      -0.872  -3.934  -7.429  1.00  0.00    -0.285 OA
ATOM      5  C   UNL     1      -0.932  -6.228  -7.009  1.00  0.00     0.111 A 
ATOM      6  C   UNL     1      -2.231  -6.270  -6.417  1.00  0.00     0.134 A 
ATOM      7  C   UNL     1      -2.680  -7.454  -5.820  1.00  0.00     0.093 A 
ATOM      8  C   UNL     1      -1.908  -8.614  -5.850  1.00  0.00     0.123 A 
ATOM      9  C   UNL     1      -0.662  -8.601  -6.478  1.00  0.00     0.094 A 
ATOM     10  C   UNL     1      -0.170  -7.426  -7.051  1.00  0.00     0.146 A 
ATOM     11  O   UNL     1       1.024  -7.453  -7.630  1.00  0.00    -0.452 OA
ENDROOT
BRANCH   1  12
ATOM     12  C   UNL     1       2.920  -6.559  -8.820  1.00  0.00     0.025 A 
ATOM     13  C   UNL     1       3.042  -6.858 -10.188  1.00  0.00     0.016 A 
ATOM     14  C   UNL     1       4.303  -7.038 -10.762  1.00  0.00     0.051 A 
ATOM     15  C   UNL     1       5.458  -6.936  -9.980  1.00  0.00     0.157 A 
ATOM     16  C   UNL     1       4.081  -6.478  -8.033  1.00  0.00     0.062 A 
ATOM     17  C   UNL     1       5.347  -6.658  -8.609  1.00  0.00     0.158 A 
BRANCH  15  18
ATOM     18  O   UNL     1       6.702  -7.119 -10.583  1.00  0.00    -0.504 OA
ATOM     19  H   UNL     1       7.258  -7.951 -10.426  1.00  0.00     0.293 HD
ENDBRANCH  15  18
BRANCH  17  20
ATOM     20  O   UNL     1       6.495  -6.562  -7.821  1.00  0.00    -0.504 OA
ATOM     21  H   UNL     1       6.933  -5.669  -7.629  1.00  0.00     0.293 HD
ENDBRANCH  17  20
ENDBRANCH   1  12
BRANCH   2  22
ATOM     22  O   UNL     1       1.576  -3.999  -8.623  1.00  0.00    -0.502 OA
ATOM     23  H   UNL     1       2.539  -3.768  -8.404  1.00  0.00     0.293 HD
ENDBRANCH   2  22
BRANCH   6  24
ATOM     24  O   UNL     1      -3.121  -5.192  -6.413  1.00  0.00    -0.507 OA
ATOM     25  H   UNL     1      -3.124  -4.448  -7.095  1.00  0.00     0.293 HD
ENDBRANCH   6  24
BRANCH   8  26
ATOM     26  O   UNL     1      -2.394  -9.778  -5.260  1.00  0.00    -0.508 OA
ATOM     27  H   UNL     1      -2.147 -10.034  -4.311  1.00  0.00     0.293 HD
ENDBRANCH   8  26
TORSDOF 6
ENDMDL
MODEL 4
REMARK VINA RESULT:    -8.305      4.464     10.148
REMARK INTER + INTRA:         -10.274
REMARK INTER:                  -9.984
REMARK INTRA:                  -0.289
REMARK UNBOUND:                -0.269
REMARK SMILES O=c1c(O)c(-c2ccc(O)c(O)c2)oc2cc(O)cc(O)c12
REMARK SMILES IDX 5 1 3 2 2 3 1 4 22 5 20 6 19 7 17 8 16 9 15 10 14 11 6 12
REMARK SMILES IDX 7 13 8 14 9 15 13 16 11 17 10 18 12 20 4 22 21 24 18 26
REMARK H PARENT 10 19 12 21 4 23 21 25 18 27
REMARK Flexibility Score: inf
ROOT
ATOM      1  C   UNL     1       1.425  -6.429  -8.046  1.00  0.00     0.180 A 
ATOM      2  C   UNL     1       0.675  -7.538  -7.617  1.00  0.00     0.208 A 
ATOM      3  C   UNL     1      -0.659  -7.346  -7.223  1.00  0.00     0.238 A 
ATOM      4  O   UNL     1      -1.342  -8.350  -6.893  1.00  0.00    -0.285 OA
ATOM      5  C   UNL     1      -1.221  -6.048  -7.247  1.00  0.00     0.111 A 
ATOM      6  C   UNL     1      -2.550  -5.731  -6.831  1.00  0.00     0.134 A 
ATOM      7  C   UNL     1      -3.042  -4.434  -7.021  1.00  0.00     0.093 A 
ATOM      8  C   UNL     1      -2.236  -3.427  -7.549  1.00  0.00     0.123 A 
ATOM      9  C   UNL     1      -0.917  -3.710  -7.904  1.00  0.00     0.094 A 
ATOM     10  C   UNL     1      -0.407  -5.004  -7.761  1.00  0.00     0.146 A 
ATOM     11  O   UNL     1       0.850  -5.234  -8.120  1.00  0.00    -0.452 OA
ENDROOT
BRANCH   1  12
ATOM     12  C   UNL     1       2.844  -6.548  -8.454  1.00  0.00     0.025 A 
ATOM     13  C   UNL     1       3.886  -6.156  -7.596  1.00  0.00     0.016 A 
ATOM     14  C   UNL     1       5.216  -6.254  -8.011  1.00  0.00     0.051 A 
ATOM     15  C   UNL     1       5.526  -6.730  -9.289  1.00  0.00     0.157 A 
ATOM     16  C   UNL     1       3.157  -7.005  -9.744  1.00  0.00     0.062 A 
ATOM     17  C   UNL     1       4.492  -7.105 -10.162  1.00  0.00     0.158 A 
BRANCH  15  18
ATOM     18  O   UNL     1       6.864  -6.818  -9.674  1.00  0.00    -0.504 OA
ATOM     19  H   UNL     1       7.359  -6.034 -10.080  1.00  0.00     0.293 HD
ENDBRANCH  15  18
BRANCH  17  20
ATOM     20  O   UNL     1       4.793  -7.573 -11.441  1.00  0.00    -0.504 OA
ATOM     21  H   UNL     1       4.071  -7.915 -12.064  1.00  0.00     0.293 HD
ENDBRANCH  17  20
ENDBRANCH   1  12
BRANCH   2  22
ATOM     22  O   UNL     1       1.242  -8.815  -7.623  1.00  0.00    -0.502 OA
ATOM     23  H   UNL     1       0.960  -9.539  -6.973  1.00  0.00     0.293 HD
ENDBRANCH   2  22
BRANCH   6  24
ATOM     24  O   UNL     1      -3.409  -6.639  -6.207  1.00  0.00    -0.507 OA
ATOM     25  H   UNL     1      -3.732  -7.502  -6.621  1.00  0.00     0.293 HD
ENDBRANCH   6  24
BRANCH   8  26
ATOM     26  O   UNL     1      -2.754  -2.144  -7.709  1.00  0.00    -0.508 OA
ATOM     27  H   UNL     1      -2.156  -1.354  -7.925  1.00  0.00     0.293 HD
ENDBRANCH   8  26
TORSDOF 6
ENDMDL
MODEL 5
REMARK VINA RESULT:    -7.589      1.959      7.214
REMARK INTER + INTRA:          -9.412
REMARK INTER:                  -9.862
REMARK INTRA:                   0.450
REMARK UNBOUND:                -0.269
REMARK SMILES O=c1c(O)c(-c2ccc(O)c(O)c2)oc2cc(O)cc(O)c12
REMARK SMILES IDX 5 1 3 2 2 3 1 4 22 5 20 6 19 7 17 8 16 9 15 10 14 11 6 12
REMARK SMILES IDX 7 13 8 14 9 15 13 16 11 17 10 18 12 20 4 22 21 24 18 26
REMARK H PARENT 10 19 12 21 4 23 21 25 18 27
REMARK Flexibility Score: inf
ROOT
ATOM      1  C   UNL     1      11.296  -6.331 -12.115  1.00  0.00     0.180 A 
ATOM      2  C   UNL     1      11.423  -7.723 -12.261  1.00  0.00     0.208 A 
ATOM      3  C   UNL     1      10.439  -8.558 -11.708  1.00  0.00     0.238 A 
ATOM      4  O   UNL     1      10.529  -9.800 -11.889  1.00  0.00    -0.285 OA
ATOM      5  C   UNL     1       9.351  -7.993 -11.000  1.00  0.00     0.111 A 
ATOM      6  C   UNL     1       8.318  -8.746 -10.364  1.00  0.00     0.134 A 
ATOM      7  C   UNL     1       7.221  -8.079  -9.805  1.00  0.00     0.093 A 
ATOM      8  C   UNL     1       7.151  -6.686  -9.801  1.00  0.00     0.123 A 
ATOM      9  C   UNL     1       8.183  -5.938 -10.368  1.00  0.00     0.094 A 
ATOM     10  C   UNL     1       9.273  -6.576 -10.966  1.00  0.00     0.146 A 
ATOM     11  O   UNL     1      10.230  -5.828 -11.502  1.00  0.00    -0.452 OA
ENDROOT
BRANCH   1  12
ATOM     12  C   UNL     1      12.305  -5.387 -12.649  1.00  0.00     0.025 A 
ATOM     13  C   UNL     1      12.371  -4.057 -12.200  1.00  0.00     0.016 A 
ATOM     14  C   UNL     1      13.315  -3.177 -12.736  1.00  0.00     0.051 A 
ATOM     15  C   UNL     1      14.196  -3.606 -13.734  1.00  0.00     0.157 A 
ATOM     16  C   UNL     1      13.176  -5.809 -13.666  1.00  0.00     0.062 A 
ATOM     17  C   UNL     1      14.124  -4.927 -14.204  1.00  0.00     0.158 A 
BRANCH  15  18
ATOM     18  O   UNL     1      15.128  -2.705 -14.247  1.00  0.00    -0.504 OA
ATOM     19  H   UNL     1      15.486  -1.932 -13.701  1.00  0.00     0.293 HD
ENDBRANCH  15  18
BRANCH  17  20
ATOM     20  O   UNL     1      14.995  -5.360 -15.205  1.00  0.00    -0.504 OA
ATOM     21  H   UNL     1      15.907  -5.741 -14.986  1.00  0.00     0.293 HD
ENDBRANCH  17  20
ENDBRANCH   1  12
BRANCH   2  22
ATOM     22  O   UNL     1      12.492  -8.260 -12.982  1.00  0.00    -0.502 OA
ATOM     23  H   UNL     1      13.321  -7.723 -13.209  1.00  0.00     0.293 HD
ENDBRANCH   2  22
BRANCH   6  24
ATOM     24  O   UNL     1       8.336 -10.137 -10.231  1.00  0.00    -0.507 OA
ATOM     25  H   UNL     1       7.700 -10.766 -10.698  1.00  0.00     0.293 HD
ENDBRANCH   6  24
BRANCH   8  26
ATOM     26  O   UNL     1       6.052  -6.056  -9.222  1.00  0.00    -0.508 OA
ATOM     27  H   UNL     1       6.159  -5.413  -8.445  1.00  0.00     0.293 HD
ENDBRANCH   8  26
TORSDOF 6
ENDMDL
MODEL 6
REMARK VINA RESULT:    -7.229      2.782      4.973
REMARK INTER + INTRA:          -8.977
REMARK INTER:                  -9.301
REMARK INTRA:                   0.324
REMARK UNBOUND:                -0.269
REMARK SMILES O=c1c(O)c(-c2ccc(O)c(O)c2)oc2cc(O)cc(O)c12
REMARK SMILES IDX 5 1 3 2 2 3 1 4 22 5 20 6 19 7 17 8 16 9 15 10 14 11 6 12
REMARK SMILES IDX 7 13 8 14 9 15 13 16 11 17 10 18 12 20 4 22 21 24 18 26
REMARK H PARENT 10 19 12 21 4 23 21 25 18 27
REMARK Flexibility Score: inf
ROOT
ATOM      1  C   UNL     1      11.319  -6.920 -12.092  1.00  0.00     0.180 A 
ATOM      2  C   UNL     1      11.409  -5.689 -11.419  1.00  0.00     0.208 A 
ATOM      3  C   UNL     1      12.296  -4.712 -11.901  1.00  0.00     0.238 A 
ATOM      4  O   UNL     1      12.331  -3.593 -11.329  1.00  0.00    -0.285 OA
ATOM      5  C   UNL     1      13.094  -4.985 -13.038  1.00  0.00     0.111 A 
ATOM      6  C   UNL     1      14.056  -4.085 -13.589  1.00  0.00     0.134 A 
ATOM      7  C   UNL     1      14.694  -4.408 -14.793  1.00  0.00     0.093 A 
ATOM      8  C   UNL     1      14.455  -5.625 -15.431  1.00  0.00     0.123 A 
ATOM      9  C   UNL     1      13.562  -6.538 -14.870  1.00  0.00     0.094 A 
ATOM     10  C   UNL     1      12.882  -6.229 -13.689  1.00  0.00     0.146 A 
ATOM     11  O   UNL     1      12.033  -7.121 -13.194  1.00  0.00    -0.452 OA
ENDROOT
BRANCH   1  12
ATOM     12  C   UNL     1      10.426  -8.006 -11.630  1.00  0.00     0.025 A 
ATOM     13  C   UNL     1      10.730  -9.356 -11.875  1.00  0.00     0.016 A 
ATOM     14  C   UNL     1       9.860 -10.365 -11.451  1.00  0.00     0.051 A 
ATOM     15  C   UNL     1       8.670 -10.041 -10.791  1.00  0.00     0.157 A 
ATOM     16  C   UNL     1       9.220  -7.684 -10.986  1.00  0.00     0.062 A 
ATOM     17  C   UNL     1       8.346  -8.695 -10.560  1.00  0.00     0.158 A 
BRANCH  15  18
ATOM     18  O   UNL     1       7.823 -11.070 -10.378  1.00  0.00    -0.504 OA
ATOM     19  H   UNL     1       7.165 -10.951  -9.618  1.00  0.00     0.293 HD
ENDBRANCH  15  18
BRANCH  17  20
ATOM     20  O   UNL     1       7.157  -8.365  -9.908  1.00  0.00    -0.504 OA
ATOM     21  H   UNL     1       6.960  -7.416  -9.614  1.00  0.00     0.293 HD
ENDBRANCH  17  20
ENDBRANCH   1  12
BRANCH   2  22
ATOM     22  O   UNL     1      10.596  -5.431 -10.313  1.00  0.00    -0.502 OA
ATOM     23  H   UNL     1       9.615  -5.684 -10.287  1.00  0.00     0.293 HD
ENDBRANCH   2  22
BRANCH   6  24
ATOM     24  O   UNL     1      14.436  -2.884 -12.984  1.00  0.00    -0.507 OA
ATOM     25  H   UNL     1      15.387  -2.557 -12.904  1.00  0.00     0.293 HD
ENDBRANCH   6  24
BRANCH   8  26
ATOM     26  O   UNL     1      15.121  -5.920 -16.618  1.00  0.00    -0.508 OA
ATOM     27  H   UNL     1      15.805  -5.285 -17.014  1.00  0.00     0.293 HD
ENDBRANCH   8  26
TORSDOF 6
ENDMDL
MODEL 7
REMARK VINA RESULT:    -7.175      5.403     10.878
REMARK INTER + INTRA:          -8.912
REMARK INTER:                  -8.866
REMARK INTRA:                  -0.046
REMARK UNBOUND:                -0.269
REMARK SMILES O=c1c(O)c(-c2ccc(O)c(O)c2)oc2cc(O)cc(O)c12
REMARK SMILES IDX 5 1 3 2 2 3 1 4 22 5 20 6 19 7 17 8 16 9 15 10 14 11 6 12
REMARK SMILES IDX 7 13 8 14 9 15 13 16 11 17 10 18 12 20 4 22 21 24 18 26
REMARK H PARENT 10 19 12 21 4 23 21 25 18 27
REMARK Flexibility Score: inf
ROOT
ATOM      1  C   UNL     1       0.869  -4.512  -8.319  1.00  0.00     0.180 A 
ATOM      2  C   UNL     1       0.152  -4.436  -9.525  1.00  0.00     0.208 A 
ATOM      3  C   UNL     1      -1.196  -4.045  -9.492  1.00  0.00     0.238 A 
ATOM      4  O   UNL     1      -1.818  -3.925 -10.580  1.00  0.00    -0.285 OA
ATOM      5  C   UNL     1      -1.815  -3.751  -8.254  1.00  0.00     0.111 A 
ATOM      6  C   UNL     1      -3.186  -3.384  -8.098  1.00  0.00     0.134 A 
ATOM      7  C   UNL     1      -3.657  -2.989  -6.840  1.00  0.00     0.093 A 
ATOM      8  C   UNL     1      -2.827  -3.010  -5.721  1.00  0.00     0.123 A 
ATOM      9  C   UNL     1      -1.500  -3.423  -5.849  1.00  0.00     0.094 A 
ATOM     10  C   UNL     1      -0.991  -3.789  -7.098  1.00  0.00     0.146 A 
ATOM     11  O   UNL     1       0.279  -4.167  -7.179  1.00  0.00    -0.452 OA
ENDROOT
BRANCH   1  12
ATOM     12  C   UNL     1       2.286  -4.940  -8.269  1.00  0.00     0.025 A 
ATOM     13  C   UNL     1       3.280  -4.115  -7.716  1.00  0.00     0.016 A 
ATOM     14  C   UNL     1       4.614  -4.529  -7.703  1.00  0.00     0.051 A 
ATOM     15  C   UNL     1       4.978  -5.763  -8.251  1.00  0.00     0.157 A 
ATOM     16  C   UNL     1       2.657  -6.169  -8.838  1.00  0.00     0.062 A 
ATOM     17  C   UNL     1       3.996  -6.586  -8.825  1.00  0.00     0.158 A 
BRANCH  15  18
ATOM     18  O   UNL     1       6.318  -6.149  -8.220  1.00  0.00    -0.504 OA
ATOM     19  H   UNL     1       6.997  -5.785  -8.877  1.00  0.00     0.293 HD
ENDBRANCH  15  18
BRANCH  17  20
ATOM     20  O   UNL     1       4.353  -7.815  -9.380  1.00  0.00    -0.504 OA
ATOM     21  H   UNL     1       4.195  -8.020 -10.360  1.00  0.00     0.293 HD
ENDBRANCH  17  20
ENDBRANCH   1  12
BRANCH   2  22
ATOM     22  O   UNL     1       0.787  -4.708 -10.739  1.00  0.00    -0.502 OA
ATOM     23  H   UNL     1       1.698  -5.149 -10.791  1.00  0.00     0.293 HD
ENDBRANCH   2  22
BRANCH   6  24
ATOM     24  O   UNL     1      -4.125  -3.417  -9.134  1.00  0.00    -0.507 OA
ATOM     25  H   UNL     1      -4.585  -2.605  -9.517  1.00  0.00     0.293 HD
ENDBRANCH   6  24
BRANCH   8  26
ATOM     26  O   UNL     1      -3.334  -2.625  -4.482  1.00  0.00    -0.508 OA
ATOM     27  H   UNL     1      -2.854  -1.948  -3.900  1.00  0.00     0.293 HD
ENDBRANCH   8  26
TORSDOF 6
ENDMDL
MODEL 8
REMARK VINA RESULT:    -7.013      2.015      4.248
REMARK INTER + INTRA:          -8.718
REMARK INTER:                  -8.754
REMARK INTRA:                   0.036
REMARK UNBOUND:                -0.269
REMARK SMILES O=c1c(O)c(-c2ccc(O)c(O)c2)oc2cc(O)cc(O)c12
REMARK SMILES IDX 5 1 3 2 2 3 1 4 22 5 20 6 19 7 17 8 16 9 15 10 14 11 6 12
REMARK SMILES IDX 7 13 8 14 9 15 13 16 11 17 10 18 12 20 4 22 21 24 18 26
REMARK H PARENT 10 19 12 21 4 23 21 25 18 27
REMARK Flexibility Score: inf
ROOT
ATOM      1  C   UNL     1      10.449  -5.602 -11.688  1.00  0.00     0.180 A 
ATOM      2  C   UNL     1      11.085  -4.479 -11.133  1.00  0.00     0.208 A 
ATOM      3  C   UNL     1      12.279  -4.018 -11.710  1.00  0.00     0.238 A 
ATOM      4  O   UNL     1      12.815  -2.980 -11.243  1.00  0.00    -0.285 OA
ATOM      5  C   UNL     1      12.831  -4.695 -12.824  1.00  0.00     0.111 A 
ATOM      6  C   UNL     1      14.057  -4.340 -13.464  1.00  0.00     0.134 A 
ATOM      7  C   UNL     1      14.439  -4.999 -14.639  1.00  0.00     0.093 A 
ATOM      8  C   UNL     1      13.676  -6.043 -15.160  1.00  0.00     0.123 A 
ATOM      9  C   UNL     1      12.507  -6.438 -14.510  1.00  0.00     0.094 A 
ATOM     10  C   UNL     1      12.079  -5.776 -13.356  1.00  0.00     0.146 A 
ATOM     11  O   UNL     1      10.956  -6.176 -12.774  1.00  0.00    -0.452 OA
ENDROOT
BRANCH   1  12
ATOM     12  C   UNL     1       9.201  -6.162 -11.121  1.00  0.00     0.025 A 
ATOM     13  C   UNL     1       8.101  -5.340 -10.821  1.00  0.00     0.016 A 
ATOM     14  C   UNL     1       6.943  -5.886 -10.263  1.00  0.00     0.051 A 
ATOM     15  C   UNL     1       6.868  -7.255  -9.985  1.00  0.00     0.157 A 
ATOM     16  C   UNL     1       9.131  -7.532 -10.821  1.00  0.00     0.062 A 
ATOM     17  C   UNL     1       7.968  -8.082 -10.262  1.00  0.00     0.158 A 
BRANCH  15  18
ATOM     18  O   UNL     1       5.697  -7.771  -9.431  1.00  0.00    -0.504 OA
ATOM     19  H   UNL     1       4.780  -7.515  -9.777  1.00  0.00     0.293 HD
ENDBRANCH  15  18
BRANCH  17  20
ATOM     20  O   UNL     1       7.904  -9.447  -9.980  1.00  0.00    -0.504 OA
ATOM     21  H   UNL     1       7.161  -9.836  -9.412  1.00  0.00     0.293 HD
ENDBRANCH  17  20
ENDBRANCH   1  12
BRANCH   2  22
ATOM     22  O   UNL     1      10.513  -3.812 -10.047  1.00  0.00    -0.502 OA
ATOM     23  H   UNL     1      11.041  -3.183  -9.454  1.00  0.00     0.293 HD
ENDBRANCH   2  22
BRANCH   6  24
ATOM     24  O   UNL     1      14.940  -3.373 -12.975  1.00  0.00    -0.507 OA
ATOM     25  H   UNL     1      15.689  -3.557 -12.324  1.00  0.00     0.293 HD
ENDBRANCH   6  24
BRANCH   8  26
ATOM     26  O   UNL     1      14.096  -6.687 -16.321  1.00  0.00    -0.508 OA
ATOM     27  H   UNL     1      14.943  -7.244 -16.342  1.00  0.00     0.293 HD
ENDBRANCH   8  26
TORSDOF 6
ENDMDL
MODEL 9
REMARK VINA RESULT:    -6.814      4.163      7.400
REMARK INTER + INTRA:          -8.478
REMARK INTER:                  -8.193
REMARK INTRA:                  -0.285
REMARK UNBOUND:                -0.269
REMARK SMILES O=c1c(O)c(-c2ccc(O)c(O)c2)oc2cc(O)cc(O)c12
REMARK SMILES IDX 5 1 3 2 2 3 1 4 22 5 20 6 19 7 17 8 16 9 15 10 14 11 6 12
REMARK SMILES IDX 7 13 8 14 9 15 13 16 11 17 10 18 12 20 4 22 21 24 18 26
REMARK H PARENT 10 19 12 21 4 23 21 25 18 27
REMARK Flexibility Score: inf
ROOT
ATOM      1  C   UNL     1       1.562  -5.211  -8.823  1.00  0.00     0.180 A 
ATOM      2  C   UNL     1       2.287  -4.533  -7.828  1.00  0.00     0.208 A 
ATOM      3  C   UNL     1       3.665  -4.774  -7.705  1.00  0.00     0.238 A 
ATOM      4  O   UNL     1       4.319  -4.124  -6.849  1.00  0.00    -0.285 OA
ATOM      5  C   UNL     1       4.298  -5.702  -8.567  1.00  0.00     0.111 A 
ATOM      6  C   UNL     1       5.680  -6.055  -8.506  1.00  0.00     0.134 A 
ATOM      7  C   UNL     1       6.225  -6.885  -9.492  1.00  0.00     0.093 A 
ATOM      8  C   UNL     1       5.427  -7.429 -10.498  1.00  0.00     0.123 A 
ATOM      9  C   UNL     1       4.063  -7.139 -10.533  1.00  0.00     0.094 A 
ATOM     10  C   UNL     1       3.496  -6.284  -9.584  1.00  0.00     0.146 A 
ATOM     11  O   UNL     1       2.196  -6.026  -9.659  1.00  0.00    -0.452 OA
ENDROOT
BRANCH   1  12
ATOM     12  C   UNL     1       0.104  -5.027  -8.998  1.00  0.00     0.025 A 
ATOM     13  C   UNL     1      -0.818  -5.620  -8.118  1.00  0.00     0.016 A 
ATOM     14  C   UNL     1      -2.191  -5.454  -8.317  1.00  0.00     0.051 A 
ATOM     15  C   UNL     1      -2.664  -4.707  -9.401  1.00  0.00     0.157 A 
ATOM     16  C   UNL     1      -0.375  -4.296 -10.097  1.00  0.00     0.062 A 
ATOM     17  C   UNL     1      -1.752  -4.127 -10.297  1.00  0.00     0.158 A 
BRANCH  15  18
ATOM     18  O   UNL     1      -4.040  -4.556  -9.572  1.00  0.00    -0.504 OA
ATOM     19  H   UNL     1      -4.706  -4.877  -8.879  1.00  0.00     0.293 HD
ENDBRANCH  15  18
BRANCH  17  20
ATOM     20  O   UNL     1      -2.217  -3.387 -11.385  1.00  0.00    -0.504 OA
ATOM     21  H   UNL     1      -2.514  -3.835 -12.243  1.00  0.00     0.293 HD
ENDBRANCH  17  20
ENDBRANCH   1  12
BRANCH   2  22
ATOM     22  O   UNL     1       1.649  -3.604  -7.002  1.00  0.00    -0.502 OA
ATOM     23  H   UNL     1       2.039  -2.689  -6.808  1.00  0.00     0.293 HD
ENDBRANCH   2  22
BRANCH   6  24
ATOM     24  O   UNL     1       6.546  -5.640  -7.490  1.00  0.00    -0.507 OA
ATOM     25  H   UNL     1       6.898  -6.237  -6.756  1.00  0.00     0.293 HD
ENDBRANCH   6  24
BRANCH   8  26
ATOM     26  O   UNL     1       6.000  -8.265 -11.453  1.00  0.00    -0.508 OA
ATOM     27  H   UNL     1       6.316  -7.909 -12.348  1.00  0.00     0.293 HD
ENDBRANCH   8  26
TORSDOF 6
ENDMDL
