MODEL 1
REMARK VINA RESULT:    -7.911      0.000      0.000
REMARK INTER + INTRA:          -9.609
REMARK INTER:                  -9.298
REMARK INTRA:                  -0.311
REMARK UNBOUND:                -0.311
REMARK SMILES O=c1cc(-c2ccc(O)c(O)c2)oc2cc(O)cc(O)c12
REMARK SMILES IDX 4 1 3 2 2 3 1 4 21 5 19 6 18 7 16 8 15 9 14 10 13 11 5 12
REMARK SMILES IDX 6 13 7 14 8 15 12 16 10 17 9 18 11 20 20 22 17 24
REMARK H PARENT 9 19 11 21 20 23 17 25
REMARK Flexibility Score: inf
ROOT
ATOM      1  C   UNL     1     -37.788  12.868   8.895  1.00  0.00     0.138 A 
ATOM      2  C   UNL     1     -37.902  11.561   9.396  1.00  0.00     0.100 A 
ATOM      3  C   UNL     1     -38.981  11.232  10.218  1.00  0.00     0.197 A 
ATOM      4  O   UNL     1     -39.076  10.055  10.662  1.00  0.00    -0.289 OA
ATOM      5  C   UNL     1     -39.942  12.214  10.531  1.00  0.00     0.107 A 
ATOM      6  C   UNL     1     -41.064  11.965  11.358  1.00  0.00     0.134 A 
ATOM      7  C   UNL     1     -41.978  12.997  11.617  1.00  0.00     0.093 A 
ATOM      8  C   UNL     1     -41.794  14.267  11.067  1.00  0.00     0.123 A 
ATOM      9  C   UNL     1     -40.687  14.519  10.249  1.00  0.00     0.094 A 
ATOM     10  C   UNL     1     -39.764  13.505   9.980  1.00  0.00     0.146 A 
ATOM     11  O   UNL     1     -38.718  13.770   9.202  1.00  0.00    -0.456 OA
ENDROOT
BRANCH   1  12
ATOM     12  C   UNL     1     -36.664  13.274   8.016  1.00  0.00     0.021 A 
ATOM     13  C   UNL     1     -35.462  12.542   8.047  1.00  0.00     0.016 A 
ATOM     14  C   UNL     1     -34.392  12.898   7.224  1.00  0.00     0.051 A 
ATOM     15  C   UNL     1     -34.505  13.985   6.348  1.00  0.00     0.157 A 
ATOM     16  C   UNL     1     -36.774  14.357   7.122  1.00  0.00     0.062 A 
ATOM     17  C   UNL     1     -35.699  14.713   6.295  1.00  0.00     0.158 A 
BRANCH  15  18
ATOM     18  O   UNL     1     -33.438  14.343   5.527  1.00  0.00    -0.504 OA
ATOM     19  H   UNL     1     -32.500  14.454   5.894  1.00  0.00     0.293 HD
ENDBRANCH  15  18
BRANCH  17  20
ATOM     20  O   UNL     1     -35.812  15.787   5.414  1.00  0.00    -0.504 OA
ATOM     21  H   UNL     1     -35.032  16.409   5.233  1.00  0.00     0.293 HD
ENDBRANCH  17  20
ENDBRANCH   1  12
BRANCH   6  22
ATOM     22  O   UNL     1     -41.275  10.705  11.920  1.00  0.00    -0.507 OA
ATOM     23  H   UNL     1     -42.149  10.464  12.372  1.00  0.00     0.293 HD
ENDBRANCH   6  22
BRANCH   8  24
ATOM     24  O   UNL     1     -42.718  15.274  11.340  1.00  0.00    -0.508 OA
ATOM     25  H   UNL     1     -42.425  16.186  11.671  1.00  0.00     0.293 HD
ENDBRANCH   8  24
TORSDOF 5
ENDMDL
MODEL 2
REMARK VINA RESULT:    -7.902      5.500     11.674
REMARK INTER + INTRA:          -9.599
REMARK INTER:                  -9.288
REMARK INTRA:                  -0.311
REMARK UNBOUND:                -0.311
REMARK SMILES O=c1cc(-c2ccc(O)c(O)c2)oc2cc(O)cc(O)c12
REMARK SMILES IDX 4 1 3 2 2 3 1 4 21 5 19 6 18 7 16 8 15 9 14 10 13 11 5 12
REMARK SMILES IDX 6 13 7 14 8 15 12 16 10 17 9 18 11 20 20 22 17 24
REMARK H PARENT 9 19 11 21 20 23 17 25
REMARK Flexibility Score: inf
ROOT
ATOM      1  C   UNL     1     -32.195  14.992   3.117  1.00  0.00     0.138 A 
ATOM      2  C   UNL     1     -32.580  15.221   1.786  1.00  0.00     0.100 A 
ATOM      3  C   UNL     1     -31.600  15.399   0.808  1.00  0.00     0.197 A 
ATOM      4  O   UNL     1     -31.956  15.603  -0.385  1.00  0.00    -0.289 OA
ATOM      5  C   UNL     1     -30.239  15.344   1.170  1.00  0.00     0.107 A 
ATOM      6  C   UNL     1     -29.184  15.515   0.242  1.00  0.00     0.134 A 
ATOM      7  C   UNL     1     -27.854  15.440   0.682  1.00  0.00     0.093 A 
ATOM      8  C   UNL     1     -27.560  15.197   2.026  1.00  0.00     0.123 A 
ATOM      9  C   UNL     1     -28.599  15.027   2.946  1.00  0.00     0.094 A 
ATOM     10  C   UNL     1     -29.931  15.099   2.528  1.00  0.00     0.146 A 
ATOM     11  O   UNL     1     -30.901  14.936   3.423  1.00  0.00    -0.456 OA
ENDROOT
BRANCH   1  12
ATOM     12  C   UNL     1     -33.194  14.794   4.197  1.00  0.00     0.021 A 
ATOM     13  C   UNL     1     -34.501  15.286   4.029  1.00  0.00     0.016 A 
ATOM     14  C   UNL     1     -35.461  15.106   5.027  1.00  0.00     0.051 A 
ATOM     15  C   UNL     1     -35.136  14.423   6.205  1.00  0.00     0.157 A 
ATOM     16  C   UNL     1     -32.878  14.097   5.380  1.00  0.00     0.062 A 
ATOM     17  C   UNL     1     -33.844  13.916   6.381  1.00  0.00     0.158 A 
BRANCH  15  18
ATOM     18  O   UNL     1     -36.091  14.244   7.204  1.00  0.00    -0.504 OA
ATOM     19  H   UNL     1     -35.906  14.497   8.168  1.00  0.00     0.293 HD
ENDBRANCH  15  18
BRANCH  17  20
ATOM     20  O   UNL     1     -33.527  13.228   7.551  1.00  0.00    -0.504 OA
ATOM     21  H   UNL     1     -33.810  12.265   7.694  1.00  0.00     0.293 HD
ENDBRANCH  17  20
ENDBRANCH   1  12
BRANCH   6  22
ATOM     22  O   UNL     1     -29.446  15.758  -1.107  1.00  0.00    -0.507 OA
ATOM     23  H   UNL     1     -29.154  16.616  -1.560  1.00  0.00     0.293 HD
ENDBRANCH   6  22
BRANCH   8  24
ATOM     24  O   UNL     1     -26.230  15.127   2.435  1.00  0.00    -0.508 OA
ATOM     25  H   UNL     1     -25.690  15.963   2.626  1.00  0.00     0.293 HD
ENDBRANCH   8  24
TORSDOF 5
ENDMDL
MODEL 3
REMARK VINA RESULT:    -7.885      1.151      1.550
REMARK INTER + INTRA:          -9.578
REMARK INTER:                  -9.287
REMARK INTRA:                  -0.291
REMARK UNBOUND:                -0.311
REMARK SMILES O=c1cc(-c2ccc(O)c(O)c2)oc2cc(O)cc(O)c12
REMARK SMILES IDX 4 1 3 2 2 3 1 4 21 5 19 6 18 7 16 8 15 9 14 10 13 11 5 12
REMARK SMILES IDX 6 13 7 14 8 15 12 16 10 17 9 18 11 20 20 22 17 24
REMARK H PARENT 9 19 11 21 20 23 17 25
REMARK Flexibility Score: inf
ROOT
ATOM      1  C   UNL     1     -38.167  12.388   8.687  1.00  0.00     0.138 A 
ATOM      2  C   UNL     1     -38.438  11.079   9.119  1.00  0.00     0.100 A 
ATOM      3  C   UNL     1     -39.471  10.856  10.030  1.00  0.00     0.197 A 
ATOM      4  O   UNL     1     -39.706   9.677  10.411  1.00  0.00    -0.289 OA
ATOM      5  C   UNL     1     -40.229  11.946  10.502  1.00  0.00     0.107 A 
ATOM      6  C   UNL     1     -41.292  11.807  11.427  1.00  0.00     0.134 A 
ATOM      7  C   UNL     1     -42.002  12.943  11.843  1.00  0.00     0.093 A 
ATOM      8  C   UNL     1     -41.673  14.209  11.353  1.00  0.00     0.123 A 
ATOM      9  C   UNL     1     -40.624  14.351  10.439  1.00  0.00     0.094 A 
ATOM     10  C   UNL     1     -39.903  13.233  10.013  1.00  0.00     0.146 A 
ATOM     11  O   UNL     1     -38.909  13.394   9.145  1.00  0.00    -0.456 OA
ENDROOT
BRANCH   1  12
ATOM     12  C   UNL     1     -37.082  12.684   7.718  1.00  0.00     0.021 A 
ATOM     13  C   UNL     1     -36.516  13.971   7.687  1.00  0.00     0.016 A 
ATOM     14  C   UNL     1     -35.488  14.273   6.790  1.00  0.00     0.051 A 
ATOM     15  C   UNL     1     -35.003  13.293   5.916  1.00  0.00     0.157 A 
ATOM     16  C   UNL     1     -36.579  11.700   6.845  1.00  0.00     0.062 A 
ATOM     17  C   UNL     1     -35.546  12.005   5.946  1.00  0.00     0.158 A 
BRANCH  15  18
ATOM     18  O   UNL     1     -33.979  13.592   5.019  1.00  0.00    -0.504 OA
ATOM     19  H   UNL     1     -33.240  14.245   5.255  1.00  0.00     0.293 HD
ENDBRANCH  15  18
BRANCH  17  20
ATOM     20  O   UNL     1     -35.053  11.028   5.081  1.00  0.00    -0.504 OA
ATOM     21  H   UNL     1     -35.561  10.169   4.906  1.00  0.00     0.293 HD
ENDBRANCH  17  20
ENDBRANCH   1  12
BRANCH   6  22
ATOM     22  O   UNL     1     -41.644  10.556  11.933  1.00  0.00    -0.507 OA
ATOM     23  H   UNL     1     -41.849  10.417  12.915  1.00  0.00     0.293 HD
ENDBRANCH   6  22
BRANCH   8  24
ATOM     24  O   UNL     1     -42.396  15.320  11.783  1.00  0.00    -0.508 OA
ATOM     25  H   UNL     1     -42.672  15.430  12.752  1.00  0.00     0.293 HD
ENDBRANCH   8  24
TORSDOF 5
ENDMDL
MODEL 4
REMARK VINA RESULT:    -7.521      7.661     10.783
REMARK INTER + INTRA:          -9.151
REMARK INTER:                  -8.880
REMARK INTRA:                  -0.271
REMARK UNBOUND:                -0.311
REMARK SMILES O=c1cc(-c2ccc(O)c(O)c2)oc2cc(O)cc(O)c12
REMARK SMILES IDX 4 1 3 2 2 3 1 4 21 5 19 6 18 7 16 8 15 9 14 10 13 11 5 12
REMARK SMILES IDX 6 13 7 14 8 15 12 16 10 17 9 18 11 20 20 22 17 24
REMARK H PARENT 9 19 11 21 20 23 17 25
REMARK Flexibility Score: inf
ROOT
ATOM      1  C   UNL     1     -31.001  14.754   1.499  1.00  0.00     0.138 A 
ATOM      2  C   UNL     1     -31.639  15.482   2.516  1.00  0.00     0.100 A 
ATOM      3  C   UNL     1     -32.827  14.999   3.066  1.00  0.00     0.197 A 
ATOM      4  O   UNL     1     -33.392  15.660   3.980  1.00  0.00    -0.289 OA
ATOM      5  C   UNL     1     -33.367  13.786   2.596  1.00  0.00     0.107 A 
ATOM      6  C   UNL     1     -34.568  13.226   3.098  1.00  0.00     0.134 A 
ATOM      7  C   UNL     1     -35.037  12.010   2.579  1.00  0.00     0.093 A 
ATOM      8  C   UNL     1     -34.331  11.345   1.574  1.00  0.00     0.123 A 
ATOM      9  C   UNL     1     -33.146  11.893   1.075  1.00  0.00     0.094 A 
ATOM     10  C   UNL     1     -32.662  13.104   1.577  1.00  0.00     0.146 A 
ATOM     11  O   UNL     1     -31.533  13.606   1.084  1.00  0.00    -0.456 OA
ENDROOT
BRANCH   1  12
ATOM     12  C   UNL     1     -29.736  15.219   0.879  1.00  0.00     0.021 A 
ATOM     13  C   UNL     1     -29.669  15.383  -0.517  1.00  0.00     0.016 A 
ATOM     14  C   UNL     1     -28.492  15.826  -1.124  1.00  0.00     0.051 A 
ATOM     15  C   UNL     1     -27.365  16.124  -0.348  1.00  0.00     0.157 A 
ATOM     16  C   UNL     1     -28.601  15.532   1.654  1.00  0.00     0.062 A 
ATOM     17  C   UNL     1     -27.421  15.979   1.042  1.00  0.00     0.158 A 
BRANCH  15  18
ATOM     18  O   UNL     1     -26.189  16.565  -0.952  1.00  0.00    -0.504 OA
ATOM     19  H   UNL     1     -25.361  16.779  -0.408  1.00  0.00     0.293 HD
ENDBRANCH  15  18
BRANCH  17  20
ATOM     20  O   UNL     1     -26.300  16.286   1.812  1.00  0.00    -0.504 OA
ATOM     21  H   UNL     1     -25.841  15.585   2.383  1.00  0.00     0.293 HD
ENDBRANCH  17  20
ENDBRANCH   1  12
BRANCH   6  22
ATOM     22  O   UNL     1     -35.293  13.867   4.103  1.00  0.00    -0.507 OA
ATOM     23  H   UNL     1     -35.993  13.379   4.648  1.00  0.00     0.293 HD
ENDBRANCH   6  22
BRANCH   8  24
ATOM     24  O   UNL     1     -34.820  10.138   1.077  1.00  0.00    -0.508 OA
ATOM     25  H   UNL     1     -34.196   9.403   0.763  1.00  0.00     0.293 HD
ENDBRANCH   8  24
TORSDOF 5
ENDMDL
MODEL 5
REMARK VINA RESULT:    -7.435      6.250      9.627
REMARK INTER + INTRA:          -9.049
REMARK INTER:                  -8.772
REMARK INTRA:                  -0.277
REMARK UNBOUND:                -0.311
REMARK SMILES O=c1cc(-c2ccc(O)c(O)c2)oc2cc(O)cc(O)c12
REMARK SMILES IDX 4 1 3 2 2 3 1 4 21 5 19 6 18 7 16 8 15 9 14 10 13 11 5 12
REMARK SMILES IDX 6 13 7 14 8 15 12 16 10 17 9 18 11 20 20 22 17 24
REMARK H PARENT 9 19 11 21 20 23 17 25
REMARK Flexibility Score: inf
ROOT
ATOM      1  C   UNL     1     -31.414  14.257   1.979  1.00  0.00     0.138 A 
ATOM      2  C   UNL     1     -31.962  13.258   1.158  1.00  0.00     0.100 A 
ATOM      3  C   UNL     1     -33.218  12.732   1.462  1.00  0.00     0.197 A 
ATOM      4  O   UNL     1     -33.703  11.835   0.718  1.00  0.00    -0.289 OA
ATOM      5  C   UNL     1     -33.920  13.212   2.586  1.00  0.00     0.107 A 
ATOM      6  C   UNL     1     -35.196  12.731   2.966  1.00  0.00     0.134 A 
ATOM      7  C   UNL     1     -35.831  13.266   4.097  1.00  0.00     0.093 A 
ATOM      8  C   UNL     1     -35.217  14.268   4.851  1.00  0.00     0.123 A 
ATOM      9  C   UNL     1     -33.956  14.746   4.480  1.00  0.00     0.094 A 
ATOM     10  C   UNL     1     -33.307  14.226   3.358  1.00  0.00     0.146 A 
ATOM     11  O   UNL     1     -32.107  14.696   3.027  1.00  0.00    -0.456 OA
ENDROOT
BRANCH   1  12
ATOM     12  C   UNL     1     -30.084  14.855   1.703  1.00  0.00     0.021 A 
ATOM     13  C   UNL     1     -29.168  15.021   2.757  1.00  0.00     0.016 A 
ATOM     14  C   UNL     1     -27.907  15.573   2.522  1.00  0.00     0.051 A 
ATOM     15  C   UNL     1     -27.535  15.960   1.229  1.00  0.00     0.157 A 
ATOM     16  C   UNL     1     -29.697  15.234   0.402  1.00  0.00     0.062 A 
ATOM     17  C   UNL     1     -28.429  15.787   0.168  1.00  0.00     0.158 A 
BRANCH  15  18
ATOM     18  O   UNL     1     -26.278  16.513   0.992  1.00  0.00    -0.504 OA
ATOM     19  H   UNL     1     -26.172  17.443   0.603  1.00  0.00     0.293 HD
ENDBRANCH  15  18
BRANCH  17  20
ATOM     20  O   UNL     1     -28.051  16.164  -1.120  1.00  0.00    -0.504 OA
ATOM     21  H   UNL     1     -27.213  15.795  -1.556  1.00  0.00     0.293 HD
ENDBRANCH  17  20
ENDBRANCH   1  12
BRANCH   6  22
ATOM     22  O   UNL     1     -35.835  11.732   2.230  1.00  0.00    -0.507 OA
ATOM     23  H   UNL     1     -35.819  11.723   1.218  1.00  0.00     0.293 HD
ENDBRANCH   6  22
BRANCH   8  24
ATOM     24  O   UNL     1     -35.871  14.782   5.970  1.00  0.00    -0.508 OA
ATOM     25  H   UNL     1     -36.793  14.459   6.239  1.00  0.00     0.293 HD
ENDBRANCH   8  24
TORSDOF 5
ENDMDL
MODEL 6
REMARK VINA RESULT:    -7.336      2.718      7.782
REMARK INTER + INTRA:          -8.933
REMARK INTER:                  -8.616
REMARK INTRA:                  -0.317
REMARK UNBOUND:                -0.311
REMARK SMILES O=c1cc(-c2ccc(O)c(O)c2)oc2cc(O)cc(O)c12
REMARK SMILES IDX 4 1 3 2 2 3 1 4 21 5 19 6 18 7 16 8 15 9 14 10 13 11 5 12
REMARK SMILES IDX 6 13 7 14 8 15 12 16 10 17 9 18 11 20 20 22 17 24
REMARK H PARENT 9 19 11 21 20 23 17 25
REMARK Flexibility Score: inf
ROOT
ATOM      1  C   UNL     1     -36.921  11.886   7.537  1.00  0.00     0.138 A 
ATOM      2  C   UNL     1     -36.647  13.263   7.602  1.00  0.00     0.100 A 
ATOM      3  C   UNL     1     -35.970  13.878   6.548  1.00  0.00     0.197 A 
ATOM      4  O   UNL     1     -35.729  15.115   6.615  1.00  0.00    -0.289 OA
ATOM      5  C   UNL     1     -35.575  13.112   5.433  1.00  0.00     0.107 A 
ATOM      6  C   UNL     1     -34.884  13.658   4.324  1.00  0.00     0.134 A 
ATOM      7  C   UNL     1     -34.530  12.828   3.250  1.00  0.00     0.093 A 
ATOM      8  C   UNL     1     -34.853  11.469   3.263  1.00  0.00     0.123 A 
ATOM      9  C   UNL     1     -35.536  10.925   4.356  1.00  0.00     0.094 A 
ATOM     10  C   UNL     1     -35.896  11.735   5.437  1.00  0.00     0.146 A 
ATOM     11  O   UNL     1     -36.543  11.194   6.465  1.00  0.00    -0.456 OA
ENDROOT
BRANCH   1  12
ATOM     12  C   UNL     1     -37.639  11.180   8.627  1.00  0.00     0.021 A 
ATOM     13  C   UNL     1     -37.881  11.846   9.842  1.00  0.00     0.016 A 
ATOM     14  C   UNL     1     -38.561  11.206  10.880  1.00  0.00     0.051 A 
ATOM     15  C   UNL     1     -39.020   9.893  10.720  1.00  0.00     0.157 A 
ATOM     16  C   UNL     1     -38.116   9.863   8.469  1.00  0.00     0.062 A 
ATOM     17  C   UNL     1     -38.800   9.222   9.512  1.00  0.00     0.158 A 
BRANCH  15  18
ATOM     18  O   UNL     1     -39.697   9.251  11.755  1.00  0.00    -0.504 OA
ATOM     19  H   UNL     1     -40.697   9.087  11.714  1.00  0.00     0.293 HD
ENDBRANCH  15  18
BRANCH  17  20
ATOM     20  O   UNL     1     -39.267   7.918   9.353  1.00  0.00    -0.504 OA
ATOM     21  H   UNL     1     -39.944   7.516   9.992  1.00  0.00     0.293 HD
ENDBRANCH  17  20
ENDBRANCH   1  12
BRANCH   6  22
ATOM     22  O   UNL     1     -34.548  15.012   4.283  1.00  0.00    -0.507 OA
ATOM     23  H   UNL     1     -34.795  15.597   3.495  1.00  0.00     0.293 HD
ENDBRANCH   6  22
BRANCH   8  24
ATOM     24  O   UNL     1     -34.490  10.667   2.182  1.00  0.00    -0.508 OA
ATOM     25  H   UNL     1     -33.683  10.885   1.609  1.00  0.00     0.293 HD
ENDBRANCH   8  24
TORSDOF 5
ENDMDL
MODEL 7
REMARK VINA RESULT:    -7.314      1.897      3.349
REMARK INTER + INTRA:          -8.907
REMARK INTER:                  -8.644
REMARK INTRA:                  -0.263
REMARK UNBOUND:                -0.311
REMARK SMILES O=c1cc(-c2ccc(O)c(O)c2)oc2cc(O)cc(O)c12
REMARK SMILES IDX 4 1 3 2 2 3 1 4 21 5 19 6 18 7 16 8 15 9 14 10 13 11 5 12
REMARK SMILES IDX 6 13 7 14 8 15 12 16 10 17 9 18 11 20 20 22 17 24
REMARK H PARENT 9 19 11 21 20 23 17 25
REMARK Flexibility Score: inf
ROOT
ATOM      1  C   UNL     1     -36.630  13.017   7.828  1.00  0.00     0.138 A 
ATOM      2  C   UNL     1     -37.390  13.909   8.602  1.00  0.00     0.100 A 
ATOM      3  C   UNL     1     -38.429  13.418   9.394  1.00  0.00     0.197 A 
ATOM      4  O   UNL     1     -39.105  14.227  10.087  1.00  0.00    -0.289 OA
ATOM      5  C   UNL     1     -38.698  12.035   9.410  1.00  0.00     0.107 A 
ATOM      6  C   UNL     1     -39.733  11.456  10.183  1.00  0.00     0.134 A 
ATOM      7  C   UNL     1     -39.932  10.068  10.147  1.00  0.00     0.093 A 
ATOM      8  C   UNL     1     -39.120   9.251   9.356  1.00  0.00     0.123 A 
ATOM      9  C   UNL     1     -38.097   9.819   8.590  1.00  0.00     0.094 A 
ATOM     10  C   UNL     1     -37.882  11.199   8.611  1.00  0.00     0.146 A 
ATOM     11  O   UNL     1     -36.904  11.715   7.872  1.00  0.00    -0.456 OA
ENDROOT
BRANCH   1  12
ATOM     12  C   UNL     1     -35.513  13.482   6.969  1.00  0.00     0.021 A 
ATOM     13  C   UNL     1     -34.192  13.130   7.301  1.00  0.00     0.016 A 
ATOM     14  C   UNL     1     -33.124  13.549   6.504  1.00  0.00     0.051 A 
ATOM     15  C   UNL     1     -33.357  14.317   5.357  1.00  0.00     0.157 A 
ATOM     16  C   UNL     1     -35.740  14.244   5.805  1.00  0.00     0.062 A 
ATOM     17  C   UNL     1     -34.666  14.662   5.006  1.00  0.00     0.158 A 
BRANCH  15  18
ATOM     18  O   UNL     1     -32.293  14.737   4.561  1.00  0.00    -0.504 OA
ATOM     19  H   UNL     1     -32.088  15.721   4.425  1.00  0.00     0.293 HD
ENDBRANCH  15  18
BRANCH  17  20
ATOM     20  O   UNL     1     -34.895  15.419   3.857  1.00  0.00    -0.504 OA
ATOM     21  H   UNL     1     -34.789  16.427   3.856  1.00  0.00     0.293 HD
ENDBRANCH  17  20
ENDBRANCH   1  12
BRANCH   6  22
ATOM     22  O   UNL     1     -40.559  12.246  10.983  1.00  0.00    -0.507 OA
ATOM     23  H   UNL     1     -41.544  12.041  11.097  1.00  0.00     0.293 HD
ENDBRANCH   6  22
BRANCH   8  24
ATOM     24  O   UNL     1     -39.340   7.875   9.339  1.00  0.00    -0.508 OA
ATOM     25  H   UNL     1     -39.867   7.432   8.595  1.00  0.00     0.293 HD
ENDBRANCH   8  24
TORSDOF 5
ENDMDL
MODEL 8
REMARK VINA RESULT:    -7.255      2.685      7.509
REMARK INTER + INTRA:          -8.838
REMARK INTER:                  -8.569
REMARK INTRA:                  -0.269
REMARK UNBOUND:                -0.311
REMARK SMILES O=c1cc(-c2ccc(O)c(O)c2)oc2cc(O)cc(O)c12
REMARK SMILES IDX 4 1 3 2 2 3 1 4 21 5 19 6 18 7 16 8 15 9 14 10 13 11 5 12
REMARK SMILES IDX 6 13 7 14 8 15 12 16 10 17 9 18 11 20 20 22 17 24
REMARK H PARENT 9 19 11 21 20 23 17 25
REMARK Flexibility Score: inf
ROOT
ATOM      1  C   UNL     1     -38.144  11.504   8.130  1.00  0.00     0.138 A 
ATOM      2  C   UNL     1     -36.927  12.107   8.488  1.00  0.00     0.100 A 
ATOM      3  C   UNL     1     -35.968  12.356   7.504  1.00  0.00     0.197 A 
ATOM      4  O   UNL     1     -34.878  12.898   7.836  1.00  0.00    -0.289 OA
ATOM      5  C   UNL     1     -36.236  12.004   6.167  1.00  0.00     0.107 A 
ATOM      6  C   UNL     1     -35.319  12.220   5.110  1.00  0.00     0.134 A 
ATOM      7  C   UNL     1     -35.665  11.845   3.803  1.00  0.00     0.093 A 
ATOM      8  C   UNL     1     -36.905  11.261   3.534  1.00  0.00     0.123 A 
ATOM      9  C   UNL     1     -37.814  11.045   4.574  1.00  0.00     0.094 A 
ATOM     10  C   UNL     1     -37.489  11.410   5.883  1.00  0.00     0.146 A 
ATOM     11  O   UNL     1     -38.370  11.192   6.855  1.00  0.00    -0.456 OA
ENDROOT
BRANCH   1  12
ATOM     12  C   UNL     1     -39.200  11.217   9.132  1.00  0.00     0.021 A 
ATOM     13  C   UNL     1     -40.485  11.762   8.959  1.00  0.00     0.016 A 
ATOM     14  C   UNL     1     -41.498  11.501   9.884  1.00  0.00     0.051 A 
ATOM     15  C   UNL     1     -41.249  10.682  10.992  1.00  0.00     0.157 A 
ATOM     16  C   UNL     1     -38.961  10.383  10.243  1.00  0.00     0.062 A 
ATOM     17  C   UNL     1     -39.980  10.121  11.170  1.00  0.00     0.158 A 
BRANCH  15  18
ATOM     18  O   UNL     1     -42.257  10.421  11.918  1.00  0.00    -0.504 OA
ATOM     19  H   UNL     1     -42.104  10.529  12.914  1.00  0.00     0.293 HD
ENDBRANCH  15  18
BRANCH  17  20
ATOM     20  O   UNL     1     -39.738   9.298  12.270  1.00  0.00    -0.504 OA
ATOM     21  H   UNL     1     -39.133   8.488  12.203  1.00  0.00     0.293 HD
ENDBRANCH  17  20
ENDBRANCH   1  12
BRANCH   6  22
ATOM     22  O   UNL     1     -34.074  12.803   5.348  1.00  0.00    -0.507 OA
ATOM     23  H   UNL     1     -33.399  12.379   5.973  1.00  0.00     0.293 HD
ENDBRANCH   6  22
BRANCH   8  24
ATOM     24  O   UNL     1     -37.223  10.898   2.226  1.00  0.00    -0.508 OA
ATOM     25  H   UNL     1     -37.318   9.926   1.954  1.00  0.00     0.293 HD
ENDBRANCH   8  24
TORSDOF 5
ENDMDL
MODEL 9
REMARK VINA RESULT:    -7.133      3.340      8.578
REMARK INTER + INTRA:          -8.694
REMARK INTER:                  -8.399
REMARK INTRA:                  -0.296
REMARK UNBOUND:                -0.311
REMARK SMILES O=c1cc(-c2ccc(O)c(O)c2)oc2cc(O)cc(O)c12
REMARK SMILES IDX 4 1 3 2 2 3 1 4 21 5 19 6 18 7 16 8 15 9 14 10 13 11 5 12
REMARK SMILES IDX 6 13 7 14 8 15 12 16 10 17 9 18 11 20 20 22 17 24
REMARK H PARENT 9 19 11 21 20 23 17 25
REMARK Flexibility Score: inf
ROOT
ATOM      1  C   UNL     1     -35.373  12.431   5.268  1.00  0.00     0.138 A 
ATOM      2  C   UNL     1     -35.497  11.459   4.261  1.00  0.00     0.100 A 
ATOM      3  C   UNL     1     -34.944  11.700   3.002  1.00  0.00     0.197 A 
ATOM      4  O   UNL     1     -35.060  10.821   2.104  1.00  0.00    -0.289 OA
ATOM      5  C   UNL     1     -34.267  12.912   2.760  1.00  0.00     0.107 A 
ATOM      6  C   UNL     1     -33.680  13.236   1.513  1.00  0.00     0.134 A 
ATOM      7  C   UNL     1     -33.018  14.463   1.355  1.00  0.00     0.093 A 
ATOM      8  C   UNL     1     -32.932  15.368   2.415  1.00  0.00     0.123 A 
ATOM      9  C   UNL     1     -33.510  15.052   3.649  1.00  0.00     0.094 A 
ATOM     10  C   UNL     1     -34.175  13.836   3.827  1.00  0.00     0.146 A 
ATOM     11  O   UNL     1     -34.718  13.561   5.009  1.00  0.00    -0.456 OA
ENDROOT
BRANCH   1  12
ATOM     12  C   UNL     1     -35.938  12.228   6.624  1.00  0.00     0.021 A 
ATOM     13  C   UNL     1     -36.000  13.314   7.517  1.00  0.00     0.016 A 
ATOM     14  C   UNL     1     -36.535  13.152   8.797  1.00  0.00     0.051 A 
ATOM     15  C   UNL     1     -37.027  11.906   9.204  1.00  0.00     0.157 A 
ATOM     16  C   UNL     1     -36.448  10.981   7.037  1.00  0.00     0.062 A 
ATOM     17  C   UNL     1     -36.986  10.820   8.322  1.00  0.00     0.158 A 
BRANCH  15  18
ATOM     18  O   UNL     1     -37.560  11.740  10.481  1.00  0.00    -0.504 OA
ATOM     19  H   UNL     1     -37.515  10.850  10.964  1.00  0.00     0.293 HD
ENDBRANCH  15  18
BRANCH  17  20
ATOM     20  O   UNL     1     -37.487   9.584   8.728  1.00  0.00    -0.504 OA
ATOM     21  H   UNL     1     -37.974   9.472   9.610  1.00  0.00     0.293 HD
ENDBRANCH  17  20
ENDBRANCH   1  12
BRANCH   6  22
ATOM     22  O   UNL     1     -33.749  12.351   0.436  1.00  0.00    -0.507 OA
ATOM     23  H   UNL     1     -32.976  12.233  -0.207  1.00  0.00     0.293 HD
ENDBRANCH   6  22
BRANCH   8  24
ATOM     24  O   UNL     1     -32.268  16.579   2.231  1.00  0.00    -0.508 OA
ATOM     25  H   UNL     1     -31.259  16.645   2.300  1.00  0.00     0.293 HD
ENDBRANCH   8  24
TORSDOF 5
ENDMDL
