MODEL 1
REMARK VINA RESULT:    -4.666      0.000      0.000
REMARK INTER + INTRA:          -5.943
REMARK INTER:                  -5.757
REMARK INTRA:                  -0.186
REMARK UNBOUND:                -0.186
REMARK SMILES CCCCC=CC(C)=O
REMARK SMILES IDX 4 1 3 2 2 3 1 4 5 5 6 6 7 7 9 8 8 9
REMARK H PARENT
REMARK Flexibility Score: inf
ROOT
ATOM      1  C   UNL     1     -14.204 -13.822  28.726  1.00  0.00     0.027 C 
ENDROOT
BRANCH   1   2
ATOM      2  C   UNL     1     -14.712 -13.674  30.166  1.00  0.00     0.004 C 
BRANCH   2   3
ATOM      3  C   UNL     1     -14.144 -14.778  31.064  1.00  0.00    -0.003 C 
ATOM      4  C   UNL     1     -14.877 -14.830  32.402  1.00  0.00     0.004 C 
ENDBRANCH   2   3
ENDBRANCH   1   2
BRANCH   1   5
ATOM      5  C   UNL     1     -13.210 -14.942  28.612  1.00  0.00    -0.023 C 
ATOM      6  C   UNL     1     -13.266 -15.828  27.612  1.00  0.00     0.042 C 
BRANCH   6   7
ATOM      7  C   UNL     1     -12.308 -16.942  27.489  1.00  0.00     0.152 C 
ATOM      8  O   UNL     1     -12.193 -17.799  28.407  1.00  0.00    -0.295 OA
ATOM      9  C   UNL     1     -11.460 -17.057  26.263  1.00  0.00     0.093 C 
ENDBRANCH   6   7
ENDBRANCH   1   5
TORSDOF 4
ENDMDL
MODEL 2
REMARK VINA RESULT:    -4.489      2.277      3.092
REMARK INTER + INTRA:          -5.724
REMARK INTER:                  -5.579
REMARK INTRA:                  -0.145
REMARK UNBOUND:                -0.186
REMARK SMILES CCCCC=CC(C)=O
REMARK SMILES IDX 4 1 3 2 2 3 1 4 5 5 6 6 7 7 9 8 8 9
REMARK H PARENT
REMARK Flexibility Score: inf
ROOT
ATOM      1  C   UNL     1     -12.690 -15.444  28.898  1.00  0.00     0.027 C 
ENDROOT
BRANCH   1   2
ATOM      2  C   UNL     1     -13.655 -14.439  29.541  1.00  0.00     0.004 C 
BRANCH   2   3
ATOM      3  C   UNL     1     -14.389 -13.622  28.472  1.00  0.00    -0.003 C 
ATOM      4  C   UNL     1     -15.302 -12.578  29.107  1.00  0.00     0.004 C 
ENDBRANCH   2   3
ENDBRANCH   1   2
BRANCH   1   5
ATOM      5  C   UNL     1     -12.910 -16.829  29.435  1.00  0.00    -0.023 C 
ATOM      6  C   UNL     1     -13.276 -17.838  28.638  1.00  0.00     0.042 C 
BRANCH   6   7
ATOM      7  C   UNL     1     -13.510 -19.203  29.147  1.00  0.00     0.152 C 
ATOM      8  O   UNL     1     -14.008 -20.092  28.405  1.00  0.00    -0.295 OA
ATOM      9  C   UNL     1     -13.154 -19.536  30.561  1.00  0.00     0.093 C 
ENDBRANCH   6   7
ENDBRANCH   1   5
TORSDOF 4
ENDMDL
MODEL 3
REMARK VINA RESULT:    -4.373      2.312      2.835
REMARK INTER + INTRA:          -5.581
REMARK INTER:                  -5.313
REMARK INTRA:                  -0.267
REMARK UNBOUND:                -0.186
REMARK SMILES CCCCC=CC(C)=O
REMARK SMILES IDX 4 1 3 2 2 3 1 4 5 5 6 6 7 7 9 8 8 9
REMARK H PARENT
REMARK Flexibility Score: inf
ROOT
ATOM      1  C   UNL     1     -12.948 -15.797  28.302  1.00  0.00     0.027 C 
ENDROOT
BRANCH   1   2
ATOM      2  C   UNL     1     -13.226 -14.685  29.322  1.00  0.00     0.004 C 
BRANCH   2   3
ATOM      3  C   UNL     1     -13.470 -15.269  30.718  1.00  0.00    -0.003 C 
ATOM      4  C   UNL     1     -14.554 -14.491  31.458  1.00  0.00     0.004 C 
ENDBRANCH   2   3
ENDBRANCH   1   2
BRANCH   1   5
ATOM      5  C   UNL     1     -12.989 -17.152  28.950  1.00  0.00    -0.023 C 
ATOM      6  C   UNL     1     -13.637 -18.176  28.386  1.00  0.00     0.042 C 
BRANCH   6   7
ATOM      7  C   UNL     1     -13.700 -19.511  29.011  1.00  0.00     0.152 C 
ATOM      8  O   UNL     1     -14.100 -20.511  28.357  1.00  0.00    -0.295 OA
ATOM      9  C   UNL     1     -13.288 -19.680  30.438  1.00  0.00     0.093 C 
ENDBRANCH   6   7
ENDBRANCH   1   5
TORSDOF 4
ENDMDL
MODEL 4
REMARK VINA RESULT:    -4.193      3.212      5.135
REMARK INTER + INTRA:          -5.359
REMARK INTER:                  -5.184
REMARK INTRA:                  -0.175
REMARK UNBOUND:                -0.186
REMARK SMILES CCCCC=CC(C)=O
REMARK SMILES IDX 4 1 3 2 2 3 1 4 5 5 6 6 7 7 9 8 8 9
REMARK H PARENT
REMARK Flexibility Score: inf
ROOT
ATOM      1  C   UNL     1     -12.110 -17.489  30.151  1.00  0.00     0.027 C 
ENDROOT
BRANCH   1   2
ATOM      2  C   UNL     1     -12.511 -18.798  29.458  1.00  0.00     0.004 C 
BRANCH   2   3
ATOM      3  C   UNL     1     -13.331 -19.688  30.399  1.00  0.00    -0.003 C 
ATOM      4  C   UNL     1     -12.552 -20.009  31.672  1.00  0.00     0.004 C 
ENDBRANCH   2   3
ENDBRANCH   1   2
BRANCH   1   5
ATOM      5  C   UNL     1     -13.317 -16.666  30.498  1.00  0.00    -0.023 C 
ATOM      6  C   UNL     1     -13.204 -15.401  30.914  1.00  0.00     0.042 C 
BRANCH   6   7
ATOM      7  C   UNL     1     -14.375 -14.579  31.273  1.00  0.00     0.152 C 
ATOM      8  O   UNL     1     -14.814 -13.701  30.481  1.00  0.00    -0.295 OA
ATOM      9  C   UNL     1     -15.050 -14.787  32.590  1.00  0.00     0.093 C 
ENDBRANCH   6   7
ENDBRANCH   1   5
TORSDOF 4
ENDMDL
MODEL 5
REMARK VINA RESULT:    -4.149      2.647      3.771
REMARK INTER + INTRA:          -5.305
REMARK INTER:                  -5.074
REMARK INTRA:                  -0.231
REMARK UNBOUND:                -0.186
REMARK SMILES CCCCC=CC(C)=O
REMARK SMILES IDX 4 1 3 2 2 3 1 4 5 5 6 6 7 7 9 8 8 9
REMARK H PARENT
REMARK Flexibility Score: inf
ROOT
ATOM      1  C   UNL     1     -12.231 -16.276  27.670  1.00  0.00     0.027 C 
ENDROOT
BRANCH   1   2
ATOM      2  C   UNL     1     -12.484 -15.296  28.823  1.00  0.00     0.004 C 
BRANCH   2   3
ATOM      3  C   UNL     1     -11.434 -15.465  29.927  1.00  0.00    -0.003 C 
ATOM      4  C   UNL     1     -10.038 -15.123  29.415  1.00  0.00     0.004 C 
ENDBRANCH   2   3
ENDBRANCH   1   2
BRANCH   1   5
ATOM      5  C   UNL     1     -12.367 -17.700  28.127  1.00  0.00    -0.023 C 
ATOM      6  C   UNL     1     -13.519 -18.172  28.613  1.00  0.00     0.042 C 
BRANCH   6   7
ATOM      7  C   UNL     1     -13.670 -19.563  29.078  1.00  0.00     0.152 C 
ATOM      8  O   UNL     1     -14.227 -20.430  28.351  1.00  0.00    -0.295 OA
ATOM      9  C   UNL     1     -13.159 -19.951  30.429  1.00  0.00     0.093 C 
ENDBRANCH   6   7
ENDBRANCH   1   5
TORSDOF 4
ENDMDL
MODEL 6
REMARK VINA RESULT:    -4.123      2.029      4.979
REMARK INTER + INTRA:          -5.273
REMARK INTER:                  -5.105
REMARK INTRA:                  -0.169
REMARK UNBOUND:                -0.186
REMARK SMILES CCCCC=CC(C)=O
REMARK SMILES IDX 4 1 3 2 2 3 1 4 5 5 6 6 7 7 9 8 8 9
REMARK H PARENT
REMARK Flexibility Score: inf
ROOT
ATOM      1  C   UNL     1     -12.477 -15.134  28.844  1.00  0.00     0.027 C 
ENDROOT
BRANCH   1   2
ATOM      2  C   UNL     1     -13.126 -16.052  27.800  1.00  0.00     0.004 C 
BRANCH   2   3
ATOM      3  C   UNL     1     -12.202 -17.223  27.448  1.00  0.00    -0.003 C 
ATOM      4  C   UNL     1     -11.474 -16.973  26.131  1.00  0.00     0.004 C 
ENDBRANCH   2   3
ENDBRANCH   1   2
BRANCH   1   5
ATOM      5  C   UNL     1     -13.384 -14.924  30.023  1.00  0.00    -0.023 C 
ATOM      6  C   UNL     1     -13.550 -15.868  30.954  1.00  0.00     0.042 C 
BRANCH   6   7
ATOM      7  C   UNL     1     -14.446 -15.686  32.112  1.00  0.00     0.152 C 
ATOM      8  O   UNL     1     -14.815 -16.674  32.803  1.00  0.00    -0.295 OA
ATOM      9  C   UNL     1     -14.924 -14.316  32.470  1.00  0.00     0.093 C 
ENDBRANCH   6   7
ENDBRANCH   1   5
TORSDOF 4
ENDMDL
MODEL 7
REMARK VINA RESULT:    -4.039      3.196      4.203
REMARK INTER + INTRA:          -5.169
REMARK INTER:                  -4.883
REMARK INTRA:                  -0.286
REMARK UNBOUND:                -0.186
REMARK SMILES CCCCC=CC(C)=O
REMARK SMILES IDX 4 1 3 2 2 3 1 4 5 5 6 6 7 7 9 8 8 9
REMARK H PARENT
REMARK Flexibility Score: inf
ROOT
ATOM      1  C   UNL     1     -13.883 -19.761  29.631  1.00  0.00     0.027 C 
ENDROOT
BRANCH   1   2
ATOM      2  C   UNL     1     -13.421 -19.098  30.935  1.00  0.00     0.004 C 
BRANCH   2   3
ATOM      3  C   UNL     1     -12.111 -19.719  31.432  1.00  0.00    -0.003 C 
ATOM      4  C   UNL     1     -10.914 -18.846  31.066  1.00  0.00     0.004 C 
ENDBRANCH   2   3
ENDBRANCH   1   2
BRANCH   1   5
ATOM      5  C   UNL     1     -13.510 -18.930  28.436  1.00  0.00    -0.023 C 
ATOM      6  C   UNL     1     -13.295 -17.614  28.540  1.00  0.00     0.042 C 
BRANCH   6   7
ATOM      7  C   UNL     1     -12.940 -16.778  27.377  1.00  0.00     0.152 C 
ATOM      8  O   UNL     1     -13.708 -15.857  26.987  1.00  0.00    -0.295 OA
ATOM      9  C   UNL     1     -11.657 -17.026  26.651  1.00  0.00     0.093 C 
ENDBRANCH   6   7
ENDBRANCH   1   5
TORSDOF 4
ENDMDL
MODEL 8
REMARK VINA RESULT:    -4.024      2.489      4.497
REMARK INTER + INTRA:          -5.150
REMARK INTER:                  -4.957
REMARK INTRA:                  -0.193
REMARK UNBOUND:                -0.186
REMARK SMILES CCCCC=CC(C)=O
REMARK SMILES IDX 4 1 3 2 2 3 1 4 5 5 6 6 7 7 9 8 8 9
REMARK H PARENT
REMARK Flexibility Score: inf
ROOT
ATOM      1  C   UNL     1     -11.899 -15.844  28.479  1.00  0.00     0.027 C 
ENDROOT
BRANCH   1   2
ATOM      2  C   UNL     1     -11.641 -17.250  29.035  1.00  0.00     0.004 C 
BRANCH   2   3
ATOM      3  C   UNL     1     -12.780 -18.206  28.660  1.00  0.00    -0.003 C 
ATOM      4  C   UNL     1     -13.196 -19.061  29.853  1.00  0.00     0.004 C 
ENDBRANCH   2   3
ENDBRANCH   1   2
BRANCH   1   5
ATOM      5  C   UNL     1     -12.875 -15.090  29.336  1.00  0.00    -0.023 C 
ATOM      6  C   UNL     1     -13.773 -14.255  28.804  1.00  0.00     0.042 C 
BRANCH   6   7
ATOM      7  C   UNL     1     -14.731 -13.496  29.629  1.00  0.00     0.152 C 
ATOM      8  O   UNL     1     -14.943 -13.815  30.830  1.00  0.00    -0.295 OA
ATOM      9  C   UNL     1     -15.463 -12.335  29.035  1.00  0.00     0.093 C 
ENDBRANCH   6   7
ENDBRANCH   1   5
TORSDOF 4
ENDMDL
MODEL 9
REMARK VINA RESULT:    -3.997      1.423      2.010
REMARK INTER + INTRA:          -5.118
REMARK INTER:                  -4.900
REMARK INTRA:                  -0.217
REMARK UNBOUND:                -0.186
REMARK SMILES CCCCC=CC(C)=O
REMARK SMILES IDX 4 1 3 2 2 3 1 4 5 5 6 6 7 7 9 8 8 9
REMARK H PARENT
REMARK Flexibility Score: inf
ROOT
ATOM      1  C   UNL     1     -12.707 -15.568  30.860  1.00  0.00     0.027 C 
ENDROOT
BRANCH   1   2
ATOM      2  C   UNL     1     -14.036 -15.730  31.608  1.00  0.00     0.004 C 
BRANCH   2   3
ATOM      3  C   UNL     1     -14.682 -14.368  31.881  1.00  0.00    -0.003 C 
ATOM      4  C   UNL     1     -14.988 -13.633  30.579  1.00  0.00     0.004 C 
ENDBRANCH   2   3
ENDBRANCH   1   2
BRANCH   1   5
ATOM      5  C   UNL     1     -12.732 -16.288  29.542  1.00  0.00    -0.023 C 
ATOM      6  C   UNL     1     -12.825 -15.625  28.385  1.00  0.00     0.042 C 
BRANCH   6   7
ATOM      7  C   UNL     1     -12.864 -16.314  27.081  1.00  0.00     0.152 C 
ATOM      8  O   UNL     1     -13.925 -16.346  26.400  1.00  0.00    -0.295 OA
ATOM      9  C   UNL     1     -11.633 -16.985  26.561  1.00  0.00     0.093 C 
ENDBRANCH   6   7
ENDBRANCH   1   5
TORSDOF 4
ENDMDL
