MODEL 1
REMARK VINA RESULT:    -3.495      0.000      0.000
REMARK INTER + INTRA:          -4.663
REMARK INTER:                  -4.925
REMARK INTRA:                   0.262
REMARK UNBOUND:                 0.262
REMARK SMILES CC1=CCC(=C(C)C)C(=O)CC(C)=CCC1
REMARK SMILES IDX 12 1 14 2 13 3 15 4 16 5 2 6 1 7 3 8 11 10 9 11 10 12 5 13
REMARK SMILES IDX 6 14 7 15 8 16 4 17
REMARK H PARENT
REMARK Flexibility Score: 60.00
ROOT
ATOM      1  C   UNL     1      -8.483  -5.146   3.328  1.00  0.00    -0.070 C 
ATOM      2  C   UNL     1      -9.124  -4.694   4.428  1.00  0.00    -0.027 C 
ATOM      3  C   UNL     1      -9.101  -6.299   2.576  1.00  0.00     0.039 C 
ENDROOT
BRANCH   2   4
ATOM      4  C   UNL     1      -8.618  -3.619   5.365  1.00  0.00     0.032 C 
BRANCH   4   5
ATOM      5  C   UNL     1      -7.795  -4.139   6.563  1.00  0.00     0.034 C 
BRANCH   5   6
ATOM      6  C   UNL     1      -6.590  -3.272   6.881  1.00  0.00    -0.077 C 
ATOM      7  C   UNL     1      -6.831  -1.974   7.609  1.00  0.00     0.039 C 
ATOM      8  C   UNL     1      -5.322  -3.555   6.493  1.00  0.00    -0.023 CG0
ATOM      9  G   UNL     1      -4.843  -4.800   5.773  1.00  0.00     0.000 G0
ENDBRANCH   5   6
ENDBRANCH   4   5
ENDBRANCH   2   4
BRANCH   1  10
ATOM     10  C   UNL     1      -7.140  -4.617   2.872  1.00  0.00     0.111 C 
BRANCH  10  11
ATOM     11  C   UNL     1      -6.000  -5.361   3.519  1.00  0.00     0.163 C 
ATOM     12  O   UNL     1      -6.015  -6.621   3.478  1.00  0.00    -0.294 OA
BRANCH  11  13
ATOM     13  C   UNL     1      -4.902  -4.664   4.252  1.00  0.00    -0.002 C 
ATOM     14  C   UNL     1      -3.921  -3.997   3.571  1.00  0.00    -0.069 C 
ATOM     15  C   UNL     1      -2.713  -3.417   4.273  1.00  0.00     0.039 C 
ATOM     16  C   UNL     1      -3.996  -3.808   2.071  1.00  0.00     0.039 C 
BRANCH  13  17
ATOM     17  C   UNL     1      -4.873  -4.809   5.765  1.00  0.00     0.066 CG0
ATOM     18  G   UNL     1      -5.324  -3.547   6.473  1.00  0.00     0.000 G0
ENDBRANCH  13  17
ENDBRANCH  11  13
ENDBRANCH  10  11
ENDBRANCH   1  10
TORSDOF 0
ENDMDL
MODEL 2
REMARK VINA RESULT:    -2.806      1.685      4.021
REMARK INTER + INTRA:          -3.692
REMARK INTER:                  -3.987
REMARK INTRA:                   0.295
REMARK UNBOUND:                 0.262
REMARK SMILES CC1=CCC(=C(C)C)C(=O)CC(C)=CCC1
REMARK SMILES IDX 12 1 14 2 13 3 15 4 16 5 2 6 1 7 3 8 11 10 9 11 10 12 5 13
REMARK SMILES IDX 6 14 7 15 8 16 4 17
REMARK H PARENT
REMARK Flexibility Score: 60.00
ROOT
ATOM      1  C   UNL     1      -4.237  -3.924   5.335  1.00  0.00    -0.070 C 
ATOM      2  C   UNL     1      -4.632  -3.138   6.360  1.00  0.00    -0.027 C 
ATOM      3  C   UNL     1      -3.035  -3.487   4.535  1.00  0.00     0.039 C 
ENDROOT
BRANCH   2   4
ATOM      4  C   UNL     1      -5.864  -3.354   7.214  1.00  0.00     0.032 C 
BRANCH   4   5
ATOM      5  C   UNL     1      -7.155  -2.712   6.663  1.00  0.00     0.034 C 
BRANCH   5   6
ATOM      6  C   UNL     1      -8.279  -3.713   6.458  1.00  0.00    -0.077 C 
ATOM      7  C   UNL     1      -9.044  -4.167   7.675  1.00  0.00     0.039 C 
ATOM      8  C   UNL     1      -8.592  -4.275   5.266  1.00  0.00    -0.023 CG0
ATOM      9  G   UNL     1      -7.977  -3.962   3.917  1.00  0.00     0.000 G0
ENDBRANCH   5   6
ENDBRANCH   4   5
ENDBRANCH   2   4
BRANCH   1  10
ATOM     10  C   UNL     1      -4.991  -5.162   4.897  1.00  0.00     0.111 C 
BRANCH  10  11
ATOM     11  C   UNL     1      -5.649  -4.967   3.555  1.00  0.00     0.163 C 
ATOM     12  O   UNL     1      -4.920  -4.640   2.579  1.00  0.00    -0.294 OA
BRANCH  11  13
ATOM     13  C   UNL     1      -7.124  -5.086   3.361  1.00  0.00    -0.002 C 
ATOM     14  C   UNL     1      -7.653  -6.126   2.648  1.00  0.00    -0.069 C 
ATOM     15  C   UNL     1      -9.124  -6.192   2.300  1.00  0.00     0.039 C 
ATOM     16  C   UNL     1      -6.787  -7.271   2.168  1.00  0.00     0.039 C 
BRANCH  13  17
ATOM     17  C   UNL     1      -7.991  -3.961   3.904  1.00  0.00     0.066 CG0
ATOM     18  G   UNL     1      -8.572  -4.287   5.265  1.00  0.00     0.000 G0
ENDBRANCH  13  17
ENDBRANCH  11  13
ENDBRANCH  10  11
ENDBRANCH   1  10
TORSDOF 0
ENDMDL
MODEL 3
REMARK VINA RESULT:    -2.667      1.930      4.566
REMARK INTER + INTRA:          -3.497
REMARK INTER:                  -4.465
REMARK INTRA:                   0.968
REMARK UNBOUND:                 0.262
REMARK SMILES CC1=CCC(=C(C)C)C(=O)CC(C)=CCC1
REMARK SMILES IDX 12 1 14 2 13 3 15 4 16 5 2 6 1 7 3 8 11 10 9 11 10 12 5 13
REMARK SMILES IDX 6 14 7 15 8 16 4 17
REMARK H PARENT
REMARK Flexibility Score: 60.00
ROOT
ATOM      1  C   UNL     1      -3.804  -5.382   3.195  1.00  0.00    -0.070 C 
ATOM      2  C   UNL     1      -4.611  -6.203   2.488  1.00  0.00    -0.027 C 
ATOM      3  C   UNL     1      -2.781  -4.574   2.436  1.00  0.00     0.039 C 
ENDROOT
BRANCH   2   4
ATOM      4  C   UNL     1      -5.627  -7.161   3.073  1.00  0.00     0.032 C 
BRANCH   4   5
ATOM      5  C   UNL     1      -7.086  -6.902   2.640  1.00  0.00     0.034 C 
BRANCH   5   6
ATOM      6  C   UNL     1      -7.474  -5.435   2.698  1.00  0.00    -0.077 C 
ATOM      7  C   UNL     1      -7.977  -4.792   1.431  1.00  0.00     0.039 C 
ATOM      8  C   UNL     1      -7.334  -4.651   3.794  1.00  0.00    -0.023 CG0
ATOM      9  G   UNL     1      -6.870  -5.080   5.172  1.00  0.00     0.000 G0
ENDBRANCH   5   6
ENDBRANCH   4   5
ENDBRANCH   2   4
BRANCH   1  10
ATOM     10  C   UNL     1      -3.814  -5.306   4.708  1.00  0.00     0.111 C 
BRANCH  10  11
ATOM     11  C   UNL     1      -4.518  -4.066   5.197  1.00  0.00     0.163 C 
ATOM     12  O   UNL     1      -3.898  -2.970   5.138  1.00  0.00    -0.294 OA
BRANCH  11  13
ATOM     13  C   UNL     1      -5.883  -4.105   5.800  1.00  0.00    -0.002 C 
ATOM     14  C   UNL     1      -6.178  -3.365   6.911  1.00  0.00    -0.069 C 
ATOM     15  C   UNL     1      -7.498  -3.501   7.637  1.00  0.00     0.039 C 
ATOM     16  C   UNL     1      -5.189  -2.366   7.474  1.00  0.00     0.039 C 
BRANCH  13  17
ATOM     17  C   UNL     1      -6.888  -5.067   5.186  1.00  0.00     0.066 CG0
ATOM     18  G   UNL     1      -7.319  -4.640   3.797  1.00  0.00     0.000 G0
ENDBRANCH  13  17
ENDBRANCH  11  13
ENDBRANCH  10  11
ENDBRANCH   1  10
TORSDOF 0
ENDMDL
MODEL 4
REMARK VINA RESULT:    -2.472      1.623      3.960
REMARK INTER + INTRA:          -3.223
REMARK INTER:                  -3.986
REMARK INTRA:                   0.764
REMARK UNBOUND:                 0.262
REMARK SMILES CC1=CCC(=C(C)C)C(=O)CC(C)=CCC1
REMARK SMILES IDX 12 1 14 2 13 3 15 4 16 5 2 6 1 7 3 8 11 10 9 11 10 12 5 13
REMARK SMILES IDX 6 14 7 15 8 16 4 17
REMARK H PARENT
REMARK Flexibility Score: 60.00
ROOT
ATOM      1  C   UNL     1      -8.145  -6.040   2.572  1.00  0.00    -0.070 C 
ATOM      2  C   UNL     1      -6.979  -6.603   2.186  1.00  0.00    -0.027 C 
ATOM      3  C   UNL     1      -9.022  -5.434   1.505  1.00  0.00     0.039 C 
ENDROOT
BRANCH   2   4
ATOM      4  C   UNL     1      -5.925  -7.173   3.112  1.00  0.00     0.032 C 
BRANCH   4   5
ATOM      5  C   UNL     1      -4.541  -6.498   3.012  1.00  0.00     0.034 C 
BRANCH   5   6
ATOM      6  C   UNL     1      -4.607  -4.985   3.118  1.00  0.00    -0.077 C 
ATOM      7  C   UNL     1      -3.976  -4.176   2.013  1.00  0.00     0.039 C 
ATOM      8  C   UNL     1      -5.133  -4.315   4.172  1.00  0.00    -0.023 CG0
ATOM      9  G   UNL     1      -5.832  -4.911   5.377  1.00  0.00     0.000 G0
ENDBRANCH   5   6
ENDBRANCH   4   5
ENDBRANCH   2   4
BRANCH   1  10
ATOM     10  C   UNL     1      -8.566  -5.907   4.021  1.00  0.00     0.111 C 
BRANCH  10  11
ATOM     11  C   UNL     1      -8.264  -4.534   4.564  1.00  0.00     0.163 C 
ATOM     12  O   UNL     1      -8.891  -3.554   4.080  1.00  0.00    -0.294 OA
BRANCH  11  13
ATOM     13  C   UNL     1      -7.216  -4.296   5.600  1.00  0.00    -0.002 C 
ATOM     14  C   UNL     1      -7.462  -3.476   6.667  1.00  0.00    -0.069 C 
ATOM     15  C   UNL     1      -6.376  -3.088   7.646  1.00  0.00     0.039 C 
ATOM     16  C   UNL     1      -8.843  -2.912   6.921  1.00  0.00     0.039 C 
BRANCH  13  17
ATOM     17  C   UNL     1      -5.850  -4.920   5.366  1.00  0.00     0.066 CG0
ATOM     18  G   UNL     1      -5.131  -4.306   4.181  1.00  0.00     0.000 G0
ENDBRANCH  13  17
ENDBRANCH  11  13
ENDBRANCH  10  11
ENDBRANCH   1  10
TORSDOF 0
ENDMDL
MODEL 5
REMARK VINA RESULT:    -2.431      1.929      3.925
REMARK INTER + INTRA:          -3.164
REMARK INTER:                  -3.587
REMARK INTRA:                   0.423
REMARK UNBOUND:                 0.262
REMARK SMILES CC1=CCC(=C(C)C)C(=O)CC(C)=CCC1
REMARK SMILES IDX 12 1 14 2 13 3 15 4 16 5 2 6 1 7 3 8 11 10 9 11 10 12 5 13
REMARK SMILES IDX 6 14 7 15 8 16 4 17
REMARK H PARENT
REMARK Flexibility Score: 60.00
ROOT
ATOM      1  C   UNL     1      -6.163  -3.756   6.684  1.00  0.00    -0.070 C 
ATOM      2  C   UNL     1      -7.480  -3.833   6.396  1.00  0.00    -0.027 C 
ATOM      3  C   UNL     1      -5.713  -2.690   7.652  1.00  0.00     0.039 C 
ENDROOT
BRANCH   2   4
ATOM      4  C   UNL     1      -8.110  -4.765   5.383  1.00  0.00     0.032 C 
BRANCH   4   5
ATOM      5  C   UNL     1      -8.036  -4.277   3.920  1.00  0.00     0.034 C 
BRANCH   5   6
ATOM      6  C   UNL     1      -7.306  -5.244   3.005  1.00  0.00    -0.077 C 
ATOM      7  C   UNL     1      -8.001  -6.535   2.652  1.00  0.00     0.039 C 
ATOM      8  C   UNL     1      -6.047  -5.055   2.542  1.00  0.00    -0.023 CG0
ATOM      9  G   UNL     1      -5.169  -3.837   2.751  1.00  0.00     0.000 G0
ENDBRANCH   5   6
ENDBRANCH   4   5
ENDBRANCH   2   4
BRANCH   1  10
ATOM     10  C   UNL     1      -5.114  -4.622   6.016  1.00  0.00     0.111 C 
BRANCH  10  11
ATOM     11  C   UNL     1      -4.199  -3.809   5.137  1.00  0.00     0.163 C 
ATOM     12  O   UNL     1      -3.630  -2.804   5.642  1.00  0.00    -0.294 OA
BRANCH  11  13
ATOM     13  C   UNL     1      -3.999  -4.115   3.690  1.00  0.00    -0.002 C 
ATOM     14  C   UNL     1      -2.785  -4.544   3.228  1.00  0.00    -0.069 C 
ATOM     15  C   UNL     1      -2.504  -4.711   1.751  1.00  0.00     0.039 C 
ATOM     16  C   UNL     1      -1.655  -4.874   4.180  1.00  0.00     0.039 C 
BRANCH  13  17
ATOM     17  C   UNL     1      -5.163  -3.840   2.752  1.00  0.00     0.066 CG0
ATOM     18  G   UNL     1      -6.038  -5.060   2.547  1.00  0.00     0.000 G0
ENDBRANCH  13  17
ENDBRANCH  11  13
ENDBRANCH  10  11
ENDBRANCH   1  10
TORSDOF 0
ENDMDL
MODEL 6
REMARK VINA RESULT:    -2.366      1.948      5.001
REMARK INTER + INTRA:          -3.073
REMARK INTER:                  -3.614
REMARK INTRA:                   0.541
REMARK UNBOUND:                 0.262
REMARK SMILES CC1=CCC(=C(C)C)C(=O)CC(C)=CCC1
REMARK SMILES IDX 12 1 14 2 13 3 15 4 16 5 2 6 1 7 3 8 11 10 9 11 10 12 5 13
REMARK SMILES IDX 6 14 7 15 8 16 4 17
REMARK H PARENT
REMARK Flexibility Score: 60.00
ROOT
ATOM      1  C   UNL     1      -4.300  -3.586   5.249  1.00  0.00    -0.070 C 
ATOM      2  C   UNL     1      -3.386  -3.273   4.304  1.00  0.00    -0.027 C 
ATOM      3  C   UNL     1      -4.947  -2.453   6.006  1.00  0.00     0.039 C 
ENDROOT
BRANCH   2   4
ATOM      4  C   UNL     1      -2.563  -4.265   3.510  1.00  0.00     0.032 C 
BRANCH   4   5
ATOM      5  C   UNL     1      -2.717  -4.156   1.978  1.00  0.00     0.034 C 
BRANCH   5   6
ATOM      6  C   UNL     1      -3.934  -3.352   1.557  1.00  0.00    -0.077 C 
ATOM      7  C   UNL     1      -3.712  -1.935   1.092  1.00  0.00     0.039 C 
ATOM      8  C   UNL     1      -5.211  -3.801   1.637  1.00  0.00    -0.023 CG0
ATOM      9  G   UNL     1      -5.670  -5.183   2.053  1.00  0.00     0.000 G0
ENDBRANCH   5   6
ENDBRANCH   4   5
ENDBRANCH   2   4
BRANCH   1  10
ATOM     10  C   UNL     1      -4.634  -5.009   5.644  1.00  0.00     0.111 C 
BRANCH  10  11
ATOM     11  C   UNL     1      -5.137  -5.810   4.470  1.00  0.00     0.163 C 
ATOM     12  O   UNL     1      -4.660  -6.963   4.291  1.00  0.00    -0.294 OA
BRANCH  11  13
ATOM     13  C   UNL     1      -6.121  -5.262   3.490  1.00  0.00    -0.002 C 
ATOM     14  C   UNL     1      -7.387  -4.928   3.884  1.00  0.00    -0.069 C 
ATOM     15  C   UNL     1      -8.453  -4.522   2.891  1.00  0.00     0.039 C 
ATOM     16  C   UNL     1      -7.786  -4.949   5.344  1.00  0.00     0.039 C 
BRANCH  13  17
ATOM     17  C   UNL     1      -5.686  -5.186   2.035  1.00  0.00     0.066 CG0
ATOM     18  G   UNL     1      -5.213  -3.800   1.647  1.00  0.00     0.000 G0
ENDBRANCH  13  17
ENDBRANCH  11  13
ENDBRANCH  10  11
ENDBRANCH   1  10
TORSDOF 0
ENDMDL
MODEL 7
REMARK VINA RESULT:    -2.265      2.077      4.416
REMARK INTER + INTRA:          -2.930
REMARK INTER:                  -3.455
REMARK INTRA:                   0.525
REMARK UNBOUND:                 0.262
REMARK SMILES CC1=CCC(=C(C)C)C(=O)CC(C)=CCC1
REMARK SMILES IDX 12 1 14 2 13 3 15 4 16 5 2 6 1 7 3 8 11 10 9 11 10 12 5 13
REMARK SMILES IDX 6 14 7 15 8 16 4 17
REMARK H PARENT
REMARK Flexibility Score: 60.00
ROOT
ATOM      1  C   UNL     1      -3.695  -3.649   2.187  1.00  0.00    -0.070 C 
ATOM      2  C   UNL     1      -4.708  -4.354   1.638  1.00  0.00    -0.027 C 
ATOM      3  C   UNL     1      -2.300  -3.901   1.673  1.00  0.00     0.039 C 
ENDROOT
BRANCH   2   4
ATOM      4  C   UNL     1      -6.155  -4.314   2.083  1.00  0.00     0.032 C 
BRANCH   4   5
ATOM      5  C   UNL     1      -6.663  -5.608   2.753  1.00  0.00     0.034 C 
BRANCH   5   6
ATOM      6  C   UNL     1      -5.628  -6.260   3.653  1.00  0.00    -0.077 C 
ATOM      7  C   UNL     1      -5.044  -7.578   3.211  1.00  0.00     0.039 C 
ATOM      8  C   UNL     1      -5.247  -5.770   4.857  1.00  0.00    -0.023 CG0
ATOM      9  G   UNL     1      -5.682  -4.465   5.493  1.00  0.00     0.000 G0
ENDBRANCH   5   6
ENDBRANCH   4   5
ENDBRANCH   2   4
BRANCH   1  10
ATOM     10  C   UNL     1      -3.880  -2.694   3.348  1.00  0.00     0.111 C 
BRANCH  10  11
ATOM     11  C   UNL     1      -3.522  -3.339   4.662  1.00  0.00     0.163 C 
ATOM     12  O   UNL     1      -2.351  -3.785   4.804  1.00  0.00    -0.294 OA
BRANCH  11  13
ATOM     13  C   UNL     1      -4.514  -3.520   5.762  1.00  0.00    -0.002 C 
ATOM     14  C   UNL     1      -4.324  -2.928   6.980  1.00  0.00    -0.069 C 
ATOM     15  C   UNL     1      -5.224  -3.218   8.161  1.00  0.00     0.039 C 
ATOM     16  C   UNL     1      -3.193  -1.947   7.208  1.00  0.00     0.039 C 
BRANCH  13  17
ATOM     17  C   UNL     1      -5.681  -4.459   5.500  1.00  0.00     0.066 CG0
ATOM     18  G   UNL     1      -5.240  -5.762   4.863  1.00  0.00     0.000 G0
ENDBRANCH  13  17
ENDBRANCH  11  13
ENDBRANCH  10  11
ENDBRANCH   1  10
TORSDOF 0
ENDMDL
MODEL 8
REMARK VINA RESULT:    -2.229     13.718     15.546
REMARK INTER + INTRA:          -2.880
REMARK INTER:                  -3.392
REMARK INTRA:                   0.512
REMARK UNBOUND:                 0.262
REMARK SMILES CC1=CCC(=C(C)C)C(=O)CC(C)=CCC1
REMARK SMILES IDX 12 1 14 2 13 3 15 4 16 5 2 6 1 7 3 8 11 10 9 11 10 12 5 13
REMARK SMILES IDX 6 14 7 15 8 16 4 17
REMARK H PARENT
REMARK Flexibility Score: 60.00
ROOT
ATOM      1  C   UNL     1       7.553  -7.275   5.545  1.00  0.00    -0.070 C 
ATOM      2  C   UNL     1       7.213  -7.796   4.346  1.00  0.00    -0.027 C 
ATOM      3  C   UNL     1       6.443  -6.773   6.435  1.00  0.00     0.039 C 
ENDROOT
BRANCH   2   4
ATOM      4  C   UNL     1       8.182  -8.261   3.279  1.00  0.00     0.032 C 
BRANCH   4   5
ATOM      5  C   UNL     1       8.115  -7.471   1.954  1.00  0.00     0.034 C 
BRANCH   5   6
ATOM      6  C   UNL     1       9.269  -6.500   1.780  1.00  0.00    -0.077 C 
ATOM      7  C   UNL     1      10.394  -6.907   0.863  1.00  0.00     0.039 C 
ATOM      8  C   UNL     1       9.386  -5.325   2.445  1.00  0.00    -0.023 CG0
ATOM      9  G   UNL     1       8.380  -4.708   3.394  1.00  0.00     0.000 G0
ENDBRANCH   5   6
ENDBRANCH   4   5
ENDBRANCH   2   4
BRANCH   1  10
ATOM     10  C   UNL     1       8.987  -7.089   5.995  1.00  0.00     0.111 C 
BRANCH  10  11
ATOM     11  C   UNL     1       9.639  -5.918   5.306  1.00  0.00     0.163 C 
ATOM     12  O   UNL     1      10.890  -5.941   5.153  1.00  0.00    -0.294 OA
BRANCH  11  13
ATOM     13  C   UNL     1       8.868  -4.720   4.862  1.00  0.00    -0.002 C 
ATOM     14  C   UNL     1       8.548  -3.727   5.746  1.00  0.00    -0.069 C 
ATOM     15  C   UNL     1       7.636  -2.581   5.368  1.00  0.00     0.039 C 
ATOM     16  C   UNL     1       9.094  -3.727   7.158  1.00  0.00     0.039 C 
BRANCH  13  17
ATOM     17  C   UNL     1       8.378  -4.702   3.423  1.00  0.00     0.066 CG0
ATOM     18  G   UNL     1       9.380  -5.314   2.465  1.00  0.00     0.000 G0
ENDBRANCH  13  17
ENDBRANCH  11  13
ENDBRANCH  10  11
ENDBRANCH   1  10
TORSDOF 0
ENDMDL
MODEL 9
REMARK VINA RESULT:    -2.150     13.173     15.188
REMARK INTER + INTRA:          -2.768
REMARK INTER:                  -3.354
REMARK INTRA:                   0.586
REMARK UNBOUND:                 0.262
REMARK SMILES CC1=CCC(=C(C)C)C(=O)CC(C)=CCC1
REMARK SMILES IDX 12 1 14 2 13 3 15 4 16 5 2 6 1 7 3 8 11 10 9 11 10 12 5 13
REMARK SMILES IDX 6 14 7 15 8 16 4 17
REMARK H PARENT
REMARK Flexibility Score: 60.00
ROOT
ATOM      1  C   UNL     1       8.393  -3.451   5.696  1.00  0.00    -0.070 C 
ATOM      2  C   UNL     1       8.266  -4.097   6.876  1.00  0.00    -0.027 C 
ATOM      3  C   UNL     1       7.493  -2.269   5.440  1.00  0.00     0.039 C 
ENDROOT
BRANCH   2   4
ATOM      4  C   UNL     1       9.006  -5.356   7.278  1.00  0.00     0.032 C 
BRANCH   4   5
ATOM      5  C   UNL     1       8.102  -6.521   7.733  1.00  0.00     0.034 C 
BRANCH   5   6
ATOM      6  C   UNL     1       7.303  -7.135   6.598  1.00  0.00    -0.077 C 
ATOM      7  C   UNL     1       5.846  -7.432   6.845  1.00  0.00     0.039 C 
ATOM      8  C   UNL     1       7.829  -7.497   5.402  1.00  0.00    -0.023 CG0
ATOM      9  G   UNL     1       9.252  -7.281   4.927  1.00  0.00     0.000 G0
ENDBRANCH   5   6
ENDBRANCH   4   5
ENDBRANCH   2   4
BRANCH   1  10
ATOM     10  C   UNL     1       9.322  -3.911   4.592  1.00  0.00     0.111 C 
BRANCH  10  11
ATOM     11  C   UNL     1       8.713  -5.024   3.779  1.00  0.00     0.163 C 
ATOM     12  O   UNL     1       7.615  -4.803   3.201  1.00  0.00    -0.294 OA
BRANCH  11  13
ATOM     13  C   UNL     1       9.329  -6.380   3.689  1.00  0.00    -0.002 C 
ATOM     14  C   UNL     1       9.857  -6.831   2.511  1.00  0.00    -0.069 C 
ATOM     15  C   UNL     1      10.344  -8.254   2.345  1.00  0.00     0.039 C 
ATOM     16  C   UNL     1       9.979  -5.922   1.307  1.00  0.00     0.039 C 
BRANCH  13  17
ATOM     17  C   UNL     1       9.257  -7.261   4.926  1.00  0.00     0.066 CG0
ATOM     18  G   UNL     1       7.832  -7.489   5.388  1.00  0.00     0.000 G0
ENDBRANCH  13  17
ENDBRANCH  11  13
ENDBRANCH  10  11
ENDBRANCH   1  10
TORSDOF 0
ENDMDL
