MODEL 1
REMARK VINA RESULT:    -3.677      0.000      0.000
REMARK INTER + INTRA:          -6.015
REMARK INTER:                  -5.612
REMARK INTRA:                  -0.403
REMARK UNBOUND:                -0.403
REMARK SMILES CC1=CCC[C@H](C)C(=O)C[C@H](C(C)C)C(=O)C1
REMARK SMILES IDX 8 1 9 2 6 3 7 4 5 5 4 6 3 7 2 8 1 9 10 11 11 12 15 13 16 14
REMARK SMILES IDX 17 15 12 17 13 18 14 19
REMARK H PARENT
REMARK Flexibility Score: 70.00
ROOT
ATOM      1  C   UNL     1      -8.006  -5.154  18.412  1.00  0.00     0.136 C 
ATOM      2  O   UNL     1      -7.809  -4.020  18.001  1.00  0.00    -0.299 OA
ENDROOT
BRANCH   1   3
ATOM      3  C   UNL     1      -9.292  -5.443  19.168  1.00  0.00     0.053 C 
ATOM      4  C   UNL     1      -9.236  -4.867  20.589  1.00  0.00     0.016 C 
BRANCH   3   5
ATOM      5  C   UNL     1     -10.524  -4.922  18.404  1.00  0.00     0.015 C 
BRANCH   5   6
ATOM      6  C   UNL     1     -11.133  -6.002  17.491  1.00  0.00     0.028 C 
BRANCH   6   7
ATOM      7  C   UNL     1     -10.673  -5.832  16.067  1.00  0.00    -0.028 C 
ATOM      8  C   UNL     1      -9.872  -6.704  15.410  1.00  0.00    -0.070 CG0
ATOM      9  C   UNL     1      -9.466  -6.366  13.997  1.00  0.00     0.039 C 
ATOM     10  G   UNL     1      -9.373  -8.000  16.029  1.00  0.00     0.000 G0
ENDBRANCH   6   7
ENDBRANCH   5   6
ENDBRANCH   3   5
ENDBRANCH   1   3
BRANCH   1  11
ATOM     11  C   UNL     1      -6.974  -6.222  18.121  1.00  0.00     0.087 C 
BRANCH  11  12
ATOM     12  C   UNL     1      -7.610  -7.632  17.978  1.00  0.00     0.066 C 
BRANCH  12  13
ATOM     13  C   UNL     1      -7.937  -7.889  16.516  1.00  0.00     0.140 C 
ATOM     14  O   UNL     1      -7.028  -8.100  15.724  1.00  0.00    -0.299 OA
BRANCH  13  15
ATOM     15  C   UNL     1      -9.367  -8.002  16.048  1.00  0.00     0.106 CG0
ATOM     16  G   UNL     1      -9.868  -6.716  15.409  1.00  0.00     0.000 G0
ENDBRANCH  13  15
ENDBRANCH  12  13
BRANCH  12  17
ATOM     17  C   UNL     1      -6.688  -8.765  18.541  1.00  0.00    -0.006 C 
ATOM     18  C   UNL     1      -7.473 -10.076  18.751  1.00  0.00     0.008 C 
ATOM     19  C   UNL     1      -6.030  -8.371  19.879  1.00  0.00     0.008 C 
ENDBRANCH  12  17
ENDBRANCH  11  12
ENDBRANCH   1  11
TORSDOF 1
ENDMDL
MODEL 2
REMARK VINA RESULT:    -3.625      1.770      3.969
REMARK INTER + INTRA:          -5.936
REMARK INTER:                  -5.614
REMARK INTRA:                  -0.322
REMARK UNBOUND:                -0.403
REMARK SMILES CC1=CCC[C@H](C)C(=O)C[C@H](C(C)C)C(=O)C1
REMARK SMILES IDX 8 1 9 2 6 3 7 4 5 5 4 6 3 7 2 8 1 9 10 11 11 12 15 13 16 14
REMARK SMILES IDX 17 15 12 17 13 18 14 19
REMARK H PARENT
REMARK Flexibility Score: 70.00
ROOT
ATOM      1  C   UNL     1     -10.674  -4.765  17.074  1.00  0.00     0.136 C 
ATOM      2  O   UNL     1     -11.183  -3.986  16.281  1.00  0.00    -0.299 OA
ENDROOT
BRANCH   1   3
ATOM      3  C   UNL     1     -11.286  -6.145  17.236  1.00  0.00     0.053 C 
ATOM      4  C   UNL     1     -12.739  -6.050  17.719  1.00  0.00     0.016 C 
BRANCH   3   5
ATOM      5  C   UNL     1     -11.185  -6.963  15.934  1.00  0.00     0.015 C 
BRANCH   5   6
ATOM      6  C   UNL     1      -9.723  -7.164  15.494  1.00  0.00     0.028 C 
BRANCH   6   7
ATOM      7  C   UNL     1      -9.033  -8.191  16.354  1.00  0.00    -0.028 C 
ATOM      8  C   UNL     1      -8.040  -7.915  17.232  1.00  0.00    -0.070 CG0
ATOM      9  C   UNL     1      -7.423  -9.066  17.987  1.00  0.00     0.039 C 
ATOM     10  G   UNL     1      -7.529  -6.506  17.490  1.00  0.00     0.000 G0
ENDBRANCH   6   7
ENDBRANCH   5   6
ENDBRANCH   3   5
ENDBRANCH   1   3
BRANCH   1  11
ATOM     11  C   UNL     1      -9.440  -4.326  17.832  1.00  0.00     0.087 C 
BRANCH  11  12
ATOM     12  C   UNL     1      -9.175  -5.205  19.086  1.00  0.00     0.066 C 
BRANCH  12  13
ATOM     13  C   UNL     1      -7.897  -6.001  18.879  1.00  0.00     0.140 C 
ATOM     14  O   UNL     1      -7.223  -6.320  19.849  1.00  0.00    -0.299 OA
BRANCH  13  15
ATOM     15  C   UNL     1      -7.507  -6.502  17.510  1.00  0.00     0.106 CG0
ATOM     16  G   UNL     1      -8.035  -7.902  17.236  1.00  0.00     0.000 G0
ENDBRANCH  13  15
ENDBRANCH  12  13
BRANCH  12  17
ATOM     17  C   UNL     1      -9.089  -4.362  20.402  1.00  0.00    -0.006 C 
ATOM     18  C   UNL     1     -10.097  -4.862  21.457  1.00  0.00     0.008 C 
ATOM     19  C   UNL     1      -9.349  -2.862  20.153  1.00  0.00     0.008 C 
ENDBRANCH  12  17
ENDBRANCH  11  12
ENDBRANCH   1  11
TORSDOF 1
ENDMDL
MODEL 3
REMARK VINA RESULT:    -3.572      1.379      1.645
REMARK INTER + INTRA:          -5.855
REMARK INTER:                  -5.860
REMARK INTRA:                   0.006
REMARK UNBOUND:                -0.403
REMARK SMILES CC1=CCC[C@H](C)C(=O)C[C@H](C(C)C)C(=O)C1
REMARK SMILES IDX 8 1 9 2 6 3 7 4 5 5 4 6 3 7 2 8 1 9 10 11 11 12 15 13 16 14
REMARK SMILES IDX 17 15 12 17 13 18 14 19
REMARK H PARENT
REMARK Flexibility Score: 70.00
ROOT
ATOM      1  C   UNL     1      -8.466  -5.288  19.514  1.00  0.00     0.136 C 
ATOM      2  O   UNL     1      -7.897  -5.314  20.596  1.00  0.00    -0.299 OA
ENDROOT
BRANCH   1   3
ATOM      3  C   UNL     1      -9.847  -4.662  19.432  1.00  0.00     0.053 C 
ATOM      4  C   UNL     1      -9.794  -3.302  18.724  1.00  0.00     0.016 C 
BRANCH   3   5
ATOM      5  C   UNL     1     -10.855  -5.606  18.750  1.00  0.00     0.015 C 
BRANCH   5   6
ATOM      6  C   UNL     1     -10.945  -5.350  17.234  1.00  0.00     0.028 C 
BRANCH   6   7
ATOM      7  C   UNL     1     -11.241  -6.623  16.485  1.00  0.00    -0.028 C 
ATOM      8  C   UNL     1     -10.302  -7.424  15.929  1.00  0.00    -0.070 CG0
ATOM      9  C   UNL     1     -10.767  -8.643  15.174  1.00  0.00     0.039 C 
ATOM     10  G   UNL     1      -8.810  -7.149  16.037  1.00  0.00     0.000 G0
ENDBRANCH   6   7
ENDBRANCH   5   6
ENDBRANCH   3   5
ENDBRANCH   1   3
BRANCH   1  11
ATOM     11  C   UNL     1      -7.753  -5.852  18.305  1.00  0.00     0.087 C 
BRANCH  11  12
ATOM     12  C   UNL     1      -7.611  -7.398  18.374  1.00  0.00     0.066 C 
BRANCH  12  13
ATOM     13  C   UNL     1      -8.111  -8.005  17.073  1.00  0.00     0.140 C 
ATOM     14  O   UNL     1      -8.042  -9.216  16.909  1.00  0.00    -0.299 OA
BRANCH  13  15
ATOM     15  C   UNL     1      -8.797  -7.155  16.032  1.00  0.00     0.106 CG0
ATOM     16  G   UNL     1     -10.286  -7.450  15.937  1.00  0.00     0.000 G0
ENDBRANCH  13  15
ENDBRANCH  12  13
BRANCH  12  17
ATOM     17  C   UNL     1      -6.141  -7.853  18.662  1.00  0.00    -0.006 C 
ATOM     18  C   UNL     1      -5.953  -8.243  20.142  1.00  0.00     0.008 C 
ATOM     19  C   UNL     1      -5.112  -6.759  18.312  1.00  0.00     0.008 C 
ENDBRANCH  12  17
ENDBRANCH  11  12
ENDBRANCH   1  11
TORSDOF 1
ENDMDL
MODEL 4
REMARK VINA RESULT:    -3.349      1.540      2.159
REMARK INTER + INTRA:          -5.514
REMARK INTER:                  -5.617
REMARK INTRA:                   0.103
REMARK UNBOUND:                -0.403
REMARK SMILES CC1=CCC[C@H](C)C(=O)C[C@H](C(C)C)C(=O)C1
REMARK SMILES IDX 8 1 9 2 6 3 7 4 5 5 4 6 3 7 2 8 1 9 10 11 11 12 15 13 16 14
REMARK SMILES IDX 17 15 12 17 13 18 14 19
REMARK H PARENT
REMARK Flexibility Score: 70.00
ROOT
ATOM      1  C   UNL     1      -8.302  -5.395  19.393  1.00  0.00     0.136 C 
ATOM      2  O   UNL     1      -7.517  -5.614  20.304  1.00  0.00    -0.299 OA
ENDROOT
BRANCH   1   3
ATOM      3  C   UNL     1      -9.602  -4.675  19.707  1.00  0.00     0.053 C 
ATOM      4  C   UNL     1      -9.837  -4.601  21.222  1.00  0.00     0.016 C 
BRANCH   3   5
ATOM      5  C   UNL     1      -9.641  -3.275  19.068  1.00  0.00     0.015 C 
BRANCH   5   6
ATOM      6  C   UNL     1     -10.391  -3.278  17.723  1.00  0.00     0.028 C 
BRANCH   6   7
ATOM      7  C   UNL     1     -11.414  -4.382  17.674  1.00  0.00    -0.028 C 
ATOM      8  C   UNL     1     -11.289  -5.513  16.941  1.00  0.00    -0.070 CG0
ATOM      9  C   UNL     1     -12.426  -6.504  16.968  1.00  0.00     0.039 C 
ATOM     10  G   UNL     1     -10.059  -5.826  16.104  1.00  0.00     0.000 G0
ENDBRANCH   6   7
ENDBRANCH   5   6
ENDBRANCH   3   5
ENDBRANCH   1   3
BRANCH   1  11
ATOM     11  C   UNL     1      -7.925  -5.823  17.991  1.00  0.00     0.087 C 
BRANCH  11  12
ATOM     12  C   UNL     1      -8.459  -7.240  17.645  1.00  0.00     0.066 C 
BRANCH  12  13
ATOM     13  C   UNL     1      -9.416  -7.142  16.468  1.00  0.00     0.140 C 
ATOM     14  O   UNL     1      -9.742  -8.159  15.871  1.00  0.00    -0.299 OA
BRANCH  13  15
ATOM     15  C   UNL     1     -10.061  -5.828  16.099  1.00  0.00     0.106 CG0
ATOM     16  G   UNL     1     -11.282  -5.525  16.953  1.00  0.00     0.000 G0
ENDBRANCH  13  15
ENDBRANCH  12  13
BRANCH  12  17
ATOM     17  C   UNL     1      -7.308  -8.255  17.333  1.00  0.00    -0.006 C 
ATOM     18  C   UNL     1      -7.418  -9.517  18.211  1.00  0.00     0.008 C 
ATOM     19  C   UNL     1      -5.912  -7.635  17.541  1.00  0.00     0.008 C 
ENDBRANCH  12  17
ENDBRANCH  11  12
ENDBRANCH   1  11
TORSDOF 1
ENDMDL
MODEL 5
REMARK VINA RESULT:    -3.316      1.890      4.798
REMARK INTER + INTRA:          -5.463
REMARK INTER:                  -5.078
REMARK INTRA:                  -0.385
REMARK UNBOUND:                -0.403
REMARK SMILES CC1=CCC[C@H](C)C(=O)C[C@H](C(C)C)C(=O)C1
REMARK SMILES IDX 8 1 9 2 6 3 7 4 5 5 4 6 3 7 2 8 1 9 10 11 11 12 15 13 16 14
REMARK SMILES IDX 17 15 12 17 13 18 14 19
REMARK H PARENT
REMARK Flexibility Score: 70.00
ROOT
ATOM      1  C   UNL     1      -9.798  -6.766  15.139  1.00  0.00     0.136 C 
ATOM      2  O   UNL     1     -10.164  -6.348  14.049  1.00  0.00    -0.299 OA
ENDROOT
BRANCH   1   3
ATOM      3  C   UNL     1     -10.001  -8.236  15.461  1.00  0.00     0.053 C 
ATOM      4  C   UNL     1     -11.434  -8.678  15.138  1.00  0.00     0.016 C 
BRANCH   3   5
ATOM      5  C   UNL     1      -8.969  -9.120  14.736  1.00  0.00     0.015 C 
BRANCH   5   6
ATOM      6  C   UNL     1      -7.534  -8.844  15.222  1.00  0.00     0.028 C 
BRANCH   6   7
ATOM      7  C   UNL     1      -7.326  -9.358  16.622  1.00  0.00    -0.028 C 
ATOM      8  C   UNL     1      -7.023  -8.580  17.688  1.00  0.00    -0.070 CG0
ATOM      9  C   UNL     1      -6.803  -9.256  19.018  1.00  0.00     0.039 C 
ATOM     10  G   UNL     1      -6.903  -7.067  17.603  1.00  0.00     0.000 G0
ENDBRANCH   6   7
ENDBRANCH   5   6
ENDBRANCH   3   5
ENDBRANCH   1   3
BRANCH   1  11
ATOM     11  C   UNL     1      -9.133  -5.804  16.099  1.00  0.00     0.087 C 
BRANCH  11  12
ATOM     12  C   UNL     1      -9.369  -6.197  17.583  1.00  0.00     0.066 C 
BRANCH  12  13
ATOM     13  C   UNL     1      -8.027  -6.345  18.282  1.00  0.00     0.140 C 
ATOM     14  O   UNL     1      -7.903  -5.956  19.435  1.00  0.00    -0.299 OA
BRANCH  13  15
ATOM     15  C   UNL     1      -6.880  -7.068  17.618  1.00  0.00     0.106 CG0
ATOM     16  G   UNL     1      -7.033  -8.579  17.690  1.00  0.00     0.000 G0
ENDBRANCH  13  15
ENDBRANCH  12  13
BRANCH  12  17
ATOM     17  C   UNL     1     -10.271  -5.166  18.341  1.00  0.00    -0.006 C 
ATOM     18  C   UNL     1     -11.714  -5.687  18.495  1.00  0.00     0.008 C 
ATOM     19  C   UNL     1     -10.320  -3.800  17.628  1.00  0.00     0.008 C 
ENDBRANCH  12  17
ENDBRANCH  11  12
ENDBRANCH   1  11
TORSDOF 1
ENDMDL
MODEL 6
REMARK VINA RESULT:    -3.299      1.477      3.916
REMARK INTER + INTRA:          -5.437
REMARK INTER:                  -5.468
REMARK INTRA:                   0.031
REMARK UNBOUND:                -0.403
REMARK SMILES CC1=CCC[C@H](C)C(=O)C[C@H](C(C)C)C(=O)C1
REMARK SMILES IDX 8 1 9 2 6 3 7 4 5 5 4 6 3 7 2 8 1 9 10 11 11 12 15 13 16 14
REMARK SMILES IDX 17 15 12 17 13 18 14 19
REMARK H PARENT
REMARK Flexibility Score: 70.00
ROOT
ATOM      1  C   UNL     1      -7.160  -6.581  18.242  1.00  0.00     0.136 C 
ATOM      2  O   UNL     1      -6.380  -5.644  18.141  1.00  0.00    -0.299 OA
ENDROOT
BRANCH   1   3
ATOM      3  C   UNL     1      -6.675  -7.975  17.883  1.00  0.00     0.053 C 
ATOM      4  C   UNL     1      -6.103  -8.692  19.112  1.00  0.00     0.016 C 
BRANCH   3   5
ATOM      5  C   UNL     1      -7.790  -8.806  17.222  1.00  0.00     0.015 C 
BRANCH   5   6
ATOM      6  C   UNL     1      -8.135  -8.288  15.814  1.00  0.00     0.028 C 
BRANCH   6   7
ATOM      7  C   UNL     1      -9.626  -8.236  15.604  1.00  0.00    -0.028 C 
ATOM      8  C   UNL     1     -10.368  -7.105  15.645  1.00  0.00    -0.070 CG0
ATOM      9  C   UNL     1     -11.860  -7.229  15.458  1.00  0.00     0.039 C 
ATOM     10  G   UNL     1      -9.766  -5.726  15.866  1.00  0.00     0.000 G0
ENDBRANCH   6   7
ENDBRANCH   5   6
ENDBRANCH   3   5
ENDBRANCH   1   3
BRANCH   1  11
ATOM     11  C   UNL     1      -8.558  -6.308  18.749  1.00  0.00     0.087 C 
BRANCH  11  12
ATOM     12  C   UNL     1      -9.094  -4.925  18.286  1.00  0.00     0.066 C 
BRANCH  12  13
ATOM     13  C   UNL     1     -10.137  -5.130  17.199  1.00  0.00     0.140 C 
ATOM     14  O   UNL     1     -11.278  -4.725  17.376  1.00  0.00    -0.299 OA
BRANCH  13  15
ATOM     15  C   UNL     1      -9.760  -5.719  15.862  1.00  0.00     0.106 CG0
ATOM     16  G   UNL     1     -10.366  -7.098  15.648  1.00  0.00     0.000 G0
ENDBRANCH  13  15
ENDBRANCH  12  13
BRANCH  12  17
ATOM     17  C   UNL     1      -9.689  -4.086  19.467  1.00  0.00    -0.006 C 
ATOM     18  C   UNL     1      -9.234  -2.615  19.396  1.00  0.00     0.008 C 
ATOM     19  C   UNL     1      -9.292  -4.654  20.844  1.00  0.00     0.008 C 
ENDBRANCH  12  17
ENDBRANCH  11  12
ENDBRANCH   1  11
TORSDOF 1
ENDMDL
MODEL 7
REMARK VINA RESULT:    -3.201      1.572      2.055
REMARK INTER + INTRA:          -5.289
REMARK INTER:                  -5.156
REMARK INTRA:                  -0.133
REMARK UNBOUND:                -0.403
REMARK SMILES CC1=CCC[C@H](C)C(=O)C[C@H](C(C)C)C(=O)C1
REMARK SMILES IDX 8 1 9 2 6 3 7 4 5 5 4 6 3 7 2 8 1 9 10 11 11 12 15 13 16 14
REMARK SMILES IDX 17 15 12 17 13 18 14 19
REMARK H PARENT
REMARK Flexibility Score: 70.00
ROOT
ATOM      1  C   UNL     1      -8.113  -5.733  17.661  1.00  0.00     0.136 C 
ATOM      2  O   UNL     1      -7.263  -4.857  17.749  1.00  0.00    -0.299 OA
ENDROOT
BRANCH   1   3
ATOM      3  C   UNL     1      -9.233  -5.767  18.687  1.00  0.00     0.053 C 
ATOM      4  C   UNL     1      -8.747  -5.256  20.049  1.00  0.00     0.016 C 
BRANCH   3   5
ATOM      5  C   UNL     1     -10.464  -4.978  18.204  1.00  0.00     0.015 C 
BRANCH   5   6
ATOM      6  C   UNL     1     -11.687  -5.891  18.001  1.00  0.00     0.028 C 
BRANCH   6   7
ATOM      7  C   UNL     1     -12.232  -5.766  16.602  1.00  0.00    -0.028 C 
ATOM      8  C   UNL     1     -12.117  -6.716  15.645  1.00  0.00    -0.070 CG0
ATOM      9  C   UNL     1     -12.682  -6.418  14.279  1.00  0.00     0.039 C 
ATOM     10  G   UNL     1     -11.453  -8.062  15.890  1.00  0.00     0.000 G0
ENDBRANCH   6   7
ENDBRANCH   5   6
ENDBRANCH   3   5
ENDBRANCH   1   3
BRANCH   1  11
ATOM     11  C   UNL     1      -8.023  -6.719  16.518  1.00  0.00     0.087 C 
BRANCH  11  12
ATOM     12  C   UNL     1      -8.949  -7.949  16.727  1.00  0.00     0.066 C 
BRANCH  12  13
ATOM     13  C   UNL     1      -9.957  -8.016  15.591  1.00  0.00     0.140 C 
ATOM     14  O   UNL     1      -9.559  -8.120  14.439  1.00  0.00    -0.299 OA
BRANCH  13  15
ATOM     15  C   UNL     1     -11.439  -8.074  15.870  1.00  0.00     0.106 CG0
ATOM     16  G   UNL     1     -12.121  -6.733  15.647  1.00  0.00     0.000 G0
ENDBRANCH  13  15
ENDBRANCH  12  13
BRANCH  12  17
ATOM     17  C   UNL     1      -8.150  -9.291  16.832  1.00  0.00    -0.006 C 
ATOM     18  C   UNL     1      -7.591  -9.504  18.253  1.00  0.00     0.008 C 
ATOM     19  C   UNL     1      -6.977  -9.351  15.833  1.00  0.00     0.008 C 
ENDBRANCH  12  17
ENDBRANCH  11  12
ENDBRANCH   1  11
TORSDOF 1
ENDMDL
MODEL 8
REMARK VINA RESULT:    -3.097      1.738      2.897
REMARK INTER + INTRA:          -5.130
REMARK INTER:                  -4.793
REMARK INTRA:                  -0.337
REMARK UNBOUND:                -0.403
REMARK SMILES CC1=CCC[C@H](C)C(=O)C[C@H](C(C)C)C(=O)C1
REMARK SMILES IDX 8 1 9 2 6 3 7 4 5 5 4 6 3 7 2 8 1 9 10 11 11 12 15 13 16 14
REMARK SMILES IDX 17 15 12 17 13 18 14 19
REMARK H PARENT
REMARK Flexibility Score: 70.00
ROOT
ATOM      1  C   UNL     1      -6.976  -5.794  17.421  1.00  0.00     0.136 C 
ATOM      2  O   UNL     1      -5.903  -5.207  17.385  1.00  0.00    -0.299 OA
ENDROOT
BRANCH   1   3
ATOM      3  C   UNL     1      -7.492  -6.286  18.761  1.00  0.00     0.053 C 
ATOM      4  C   UNL     1      -6.338  -6.740  19.663  1.00  0.00     0.016 C 
BRANCH   3   5
ATOM      5  C   UNL     1      -8.357  -5.220  19.458  1.00  0.00     0.015 C 
BRANCH   5   6
ATOM      6  C   UNL     1      -9.862  -5.473  19.248  1.00  0.00     0.028 C 
BRANCH   6   7
ATOM      7  C   UNL     1     -10.440  -4.507  18.247  1.00  0.00    -0.028 C 
ATOM      8  C   UNL     1     -11.003  -4.867  17.069  1.00  0.00    -0.070 CG0
ATOM      9  C   UNL     1     -11.497  -3.773  16.157  1.00  0.00     0.039 C 
ATOM     10  G   UNL     1     -11.161  -6.316  16.635  1.00  0.00     0.000 G0
ENDBRANCH   6   7
ENDBRANCH   5   6
ENDBRANCH   3   5
ENDBRANCH   1   3
BRANCH   1  11
ATOM     11  C   UNL     1      -7.748  -5.973  16.132  1.00  0.00     0.087 C 
BRANCH  11  12
ATOM     12  C   UNL     1      -8.716  -7.187  16.191  1.00  0.00     0.066 C 
BRANCH  12  13
ATOM     13  C   UNL     1     -10.081  -6.766  15.669  1.00  0.00     0.140 C 
ATOM     14  O   UNL     1     -10.332  -6.882  14.477  1.00  0.00    -0.299 OA
BRANCH  13  15
ATOM     15  C   UNL     1     -11.169  -6.315  16.614  1.00  0.00     0.106 CG0
ATOM     16  G   UNL     1     -10.982  -4.874  17.062  1.00  0.00     0.000 G0
ENDBRANCH  13  15
ENDBRANCH  12  13
BRANCH  12  17
ATOM     17  C   UNL     1      -8.181  -8.421  15.390  1.00  0.00    -0.006 C 
ATOM     18  C   UNL     1      -8.262  -9.713  16.227  1.00  0.00     0.008 C 
ATOM     19  C   UNL     1      -6.721  -8.229  14.930  1.00  0.00     0.008 C 
ENDBRANCH  12  17
ENDBRANCH  11  12
ENDBRANCH   1  11
TORSDOF 1
ENDMDL
MODEL 9
REMARK VINA RESULT:    -3.045      1.660      4.226
REMARK INTER + INTRA:          -5.050
REMARK INTER:                  -4.739
REMARK INTRA:                  -0.311
REMARK UNBOUND:                -0.403
REMARK SMILES CC1=CCC[C@H](C)C(=O)C[C@H](C(C)C)C(=O)C1
REMARK SMILES IDX 8 1 9 2 6 3 7 4 5 5 4 6 3 7 2 8 1 9 10 11 11 12 15 13 16 14
REMARK SMILES IDX 17 15 12 17 13 18 14 19
REMARK H PARENT
REMARK Flexibility Score: 70.00
ROOT
ATOM      1  C   UNL     1     -10.395  -5.647  18.186  1.00  0.00     0.136 C 
ATOM      2  O   UNL     1     -11.164  -5.635  19.136  1.00  0.00    -0.299 OA
ENDROOT
BRANCH   1   3
ATOM      3  C   UNL     1      -9.140  -4.794  18.254  1.00  0.00     0.053 C 
ATOM      4  C   UNL     1      -9.484  -3.334  18.573  1.00  0.00     0.016 C 
BRANCH   3   5
ATOM      5  C   UNL     1      -8.127  -5.361  19.265  1.00  0.00     0.015 C 
BRANCH   5   6
ATOM      6  C   UNL     1      -6.915  -6.005  18.566  1.00  0.00     0.028 C 
BRANCH   6   7
ATOM      7  C   UNL     1      -6.857  -7.486  18.833  1.00  0.00    -0.028 C 
ATOM      8  C   UNL     1      -7.089  -8.443  17.904  1.00  0.00    -0.070 CG0
ATOM      9  C   UNL     1      -7.034  -9.885  18.344  1.00  0.00     0.039 C 
ATOM     10  G   UNL     1      -7.397  -8.129  16.448  1.00  0.00     0.000 G0
ENDBRANCH   6   7
ENDBRANCH   5   6
ENDBRANCH   3   5
ENDBRANCH   1   3
BRANCH   1  11
ATOM     11  C   UNL     1     -10.715  -6.535  17.004  1.00  0.00     0.087 C 
BRANCH  11  12
ATOM     12  C   UNL     1      -9.525  -6.645  16.011  1.00  0.00     0.066 C 
BRANCH  12  13
ATOM     13  C   UNL     1      -8.870  -8.009  16.164  1.00  0.00     0.140 C 
ATOM     14  O   UNL     1      -9.532  -9.020  15.972  1.00  0.00    -0.299 OA
BRANCH  13  15
ATOM     15  C   UNL     1      -7.390  -8.134  16.434  1.00  0.00     0.106 CG0
ATOM     16  G   UNL     1      -7.095  -8.435  17.895  1.00  0.00     0.000 G0
ENDBRANCH  13  15
ENDBRANCH  12  13
BRANCH  12  17
ATOM     17  C   UNL     1      -9.960  -6.409  14.525  1.00  0.00    -0.006 C 
ATOM     18  C   UNL     1      -9.746  -4.941  14.104  1.00  0.00     0.008 C 
ATOM     19  C   UNL     1     -11.438  -6.776  14.284  1.00  0.00     0.008 C 
ENDBRANCH  12  17
ENDBRANCH  11  12
ENDBRANCH   1  11
TORSDOF 1
ENDMDL
