MODEL 1
REMARK VINA RESULT:    -5.652      0.000      0.000
REMARK INTER + INTRA:          -8.377
REMARK INTER:                  -7.635
REMARK INTRA:                  -0.742
REMARK UNBOUND:                -0.742
REMARK SMILES CC(=O)CCC=C(C)CCC=C(C)C
REMARK SMILES IDX 7 1 6 2 8 3 9 4 10 5 11 6 13 7 12 8 14 9 5 10 4 11 2 12 3 13
REMARK SMILES IDX 1 14
REMARK H PARENT
REMARK Flexibility Score: inf
ROOT
ATOM      1  C   UNL     1      25.943  49.606  16.756  1.00  0.00    -0.077 C 
ATOM      2  C   UNL     1      27.168  50.034  17.140  1.00  0.00    -0.028 C 
ATOM      3  C   UNL     1      25.695  49.020  15.386  1.00  0.00     0.039 C 
ENDROOT
BRANCH   1   4
ATOM      4  C   UNL     1      24.793  49.699  17.734  1.00  0.00     0.034 C 
BRANCH   4   5
ATOM      5  C   UNL     1      24.379  51.159  17.949  1.00  0.00     0.032 C 
BRANCH   5   6
ATOM      6  C   UNL     1      24.468  51.532  19.408  1.00  0.00    -0.028 C 
ATOM      7  C   UNL     1      25.247  52.771  21.382  1.00  0.00     0.039 C 
ATOM      8  C   UNL     1      25.225  52.541  19.892  1.00  0.00    -0.080 C 
ATOM      9  C   UNL     1      26.029  53.446  18.988  1.00  0.00     0.039 C 
ENDBRANCH   5   6
ENDBRANCH   4   5
ENDBRANCH   1   4
BRANCH   2  10
ATOM     10  C   UNL     1      28.390  50.030  16.255  1.00  0.00     0.035 C 
BRANCH  10  11
ATOM     11  C   UNL     1      29.594  49.434  16.991  1.00  0.00     0.079 C 
BRANCH  11  12
ATOM     12  C   UNL     1      30.376  48.522  16.082  1.00  0.00     0.130 C 
ATOM     13  O   UNL     1      31.558  48.751  15.874  1.00  0.00    -0.300 OA
ATOM     14  C   UNL     1      29.738  47.330  15.434  1.00  0.00     0.087 C 
ENDBRANCH  11  12
ENDBRANCH  10  11
ENDBRANCH   2  10
TORSDOF 6
ENDMDL
MODEL 2
REMARK VINA RESULT:    -5.641      9.155     10.188
REMARK INTER + INTRA:          -8.362
REMARK INTER:                  -7.673
REMARK INTRA:                  -0.689
REMARK UNBOUND:                -0.742
REMARK SMILES CC(=O)CCC=C(C)CCC=C(C)C
REMARK SMILES IDX 7 1 6 2 8 3 9 4 10 5 11 6 13 7 12 8 14 9 5 10 4 11 2 12 3 13
REMARK SMILES IDX 1 14
REMARK H PARENT
REMARK Flexibility Score: inf
ROOT
ATOM      1  C   UNL     1      25.396  54.998   9.944  1.00  0.00    -0.077 C 
ATOM      2  C   UNL     1      26.136  53.865   9.962  1.00  0.00    -0.028 C 
ATOM      3  C   UNL     1      23.945  54.996   9.522  1.00  0.00     0.039 C 
ENDROOT
BRANCH   1   4
ATOM      4  C   UNL     1      26.034  56.299  10.375  1.00  0.00     0.034 C 
BRANCH   4   5
ATOM      5  C   UNL     1      27.499  56.082  10.768  1.00  0.00     0.032 C 
BRANCH   5   6
ATOM      6  C   UNL     1      28.073  57.326  11.401  1.00  0.00    -0.028 C 
ATOM      7  C   UNL     1      29.814  58.927  12.068  1.00  0.00     0.039 C 
ATOM      8  C   UNL     1      29.379  57.673  11.353  1.00  0.00    -0.080 C 
ATOM      9  C   UNL     1      30.399  56.855  10.596  1.00  0.00     0.039 C 
ENDBRANCH   5   6
ENDBRANCH   4   5
ENDBRANCH   1   4
BRANCH   2  10
ATOM     10  C   UNL     1      25.635  52.511   9.525  1.00  0.00     0.035 C 
BRANCH  10  11
ATOM     11  C   UNL     1      26.073  52.206   8.089  1.00  0.00     0.079 C 
BRANCH  11  12
ATOM     12  C   UNL     1      25.018  52.640   7.107  1.00  0.00     0.130 C 
ATOM     13  O   UNL     1      23.929  52.085   7.111  1.00  0.00    -0.300 OA
ATOM     14  C   UNL     1      25.270  53.748   6.128  1.00  0.00     0.087 C 
ENDBRANCH  11  12
ENDBRANCH  10  11
ENDBRANCH   2  10
TORSDOF 6
ENDMDL
MODEL 3
REMARK VINA RESULT:    -5.602      8.167      9.926
REMARK INTER + INTRA:          -8.309
REMARK INTER:                  -7.481
REMARK INTRA:                  -0.828
REMARK UNBOUND:                -0.742
REMARK SMILES CC(=O)CCC=C(C)CCC=C(C)C
REMARK SMILES IDX 7 1 6 2 8 3 9 4 10 5 11 6 13 7 12 8 14 9 5 10 4 11 2 12 3 13
REMARK SMILES IDX 1 14
REMARK H PARENT
REMARK Flexibility Score: inf
ROOT
ATOM      1  C   UNL     1      27.176  52.254  10.027  1.00  0.00    -0.077 C 
ATOM      2  C   UNL     1      27.033  52.013   8.703  1.00  0.00    -0.028 C 
ATOM      3  C   UNL     1      26.010  52.172  10.985  1.00  0.00     0.039 C 
ENDROOT
BRANCH   1   4
ATOM      4  C   UNL     1      28.547  52.596  10.567  1.00  0.00     0.034 C 
BRANCH   4   5
ATOM      5  C   UNL     1      28.484  53.841  11.459  1.00  0.00     0.032 C 
BRANCH   5   6
ATOM      6  C   UNL     1      29.679  54.731  11.220  1.00  0.00    -0.028 C 
ATOM      7  C   UNL     1      30.884  56.778  10.589  1.00  0.00     0.039 C 
ATOM      8  C   UNL     1      29.602  56.023  10.829  1.00  0.00    -0.080 C 
ATOM      9  C   UNL     1      28.278  56.726  10.643  1.00  0.00     0.039 C 
ENDBRANCH   5   6
ENDBRANCH   4   5
ENDBRANCH   1   4
BRANCH   2  10
ATOM     10  C   UNL     1      25.720  51.697   8.031  1.00  0.00     0.035 C 
BRANCH  10  11
ATOM     11  C   UNL     1      25.233  52.888   7.200  1.00  0.00     0.079 C 
BRANCH  11  12
ATOM     12  C   UNL     1      24.384  53.809   8.037  1.00  0.00     0.130 C 
ATOM     13  O   UNL     1      23.293  53.428   8.431  1.00  0.00    -0.300 OA
ATOM     14  C   UNL     1      24.856  55.184   8.407  1.00  0.00     0.087 C 
ENDBRANCH  11  12
ENDBRANCH  10  11
ENDBRANCH   2  10
TORSDOF 6
ENDMDL
MODEL 4
REMARK VINA RESULT:    -5.581      3.019      6.693
REMARK INTER + INTRA:          -8.281
REMARK INTER:                  -7.693
REMARK INTRA:                  -0.588
REMARK UNBOUND:                -0.742
REMARK SMILES CC(=O)CCC=C(C)CCC=C(C)C
REMARK SMILES IDX 7 1 6 2 8 3 9 4 10 5 11 6 13 7 12 8 14 9 5 10 4 11 2 12 3 13
REMARK SMILES IDX 1 14
REMARK H PARENT
REMARK Flexibility Score: inf
ROOT
ATOM      1  C   UNL     1      27.219  51.718  17.133  1.00  0.00    -0.077 C 
ATOM      2  C   UNL     1      27.432  53.050  17.237  1.00  0.00    -0.028 C 
ATOM      3  C   UNL     1      25.917  51.082  17.562  1.00  0.00     0.039 C 
ENDROOT
BRANCH   1   4
ATOM      4  C   UNL     1      28.309  50.842  16.555  1.00  0.00     0.034 C 
BRANCH   4   5
ATOM      5  C   UNL     1      28.002  49.361  16.798  1.00  0.00     0.032 C 
BRANCH   5   6
ATOM      6  C   UNL     1      27.794  48.636  15.491  1.00  0.00    -0.028 C 
ATOM      7  C   UNL     1      28.360  47.164  13.607  1.00  0.00     0.039 C 
ATOM      8  C   UNL     1      28.688  47.784  14.940  1.00  0.00    -0.080 C 
ATOM      9  C   UNL     1      29.985  47.429  15.628  1.00  0.00     0.039 C 
ENDBRANCH   5   6
ENDBRANCH   4   5
ENDBRANCH   1   4
BRANCH   2  10
ATOM     10  C   UNL     1      26.447  54.029  17.825  1.00  0.00     0.035 C 
BRANCH  10  11
ATOM     11  C   UNL     1      26.643  54.154  19.340  1.00  0.00     0.079 C 
BRANCH  11  12
ATOM     12  C   UNL     1      25.357  53.870  20.069  1.00  0.00     0.130 C 
ATOM     13  O   UNL     1      24.344  54.481  19.762  1.00  0.00    -0.300 OA
ATOM     14  C   UNL     1      25.287  52.842  21.159  1.00  0.00     0.087 C 
ENDBRANCH  11  12
ENDBRANCH  10  11
ENDBRANCH   2  10
TORSDOF 6
ENDMDL
MODEL 5
REMARK VINA RESULT:    -5.542      3.038      6.281
REMARK INTER + INTRA:          -8.229
REMARK INTER:                  -7.271
REMARK INTRA:                  -0.958
REMARK UNBOUND:                -0.742
REMARK SMILES CC(=O)CCC=C(C)CCC=C(C)C
REMARK SMILES IDX 7 1 6 2 8 3 9 4 10 5 11 6 13 7 12 8 14 9 5 10 4 11 2 12 3 13
REMARK SMILES IDX 1 14
REMARK H PARENT
REMARK Flexibility Score: inf
ROOT
ATOM      1  C   UNL     1      27.208  53.818  17.625  1.00  0.00    -0.077 C 
ATOM      2  C   UNL     1      27.094  54.112  18.941  1.00  0.00    -0.028 C 
ATOM      3  C   UNL     1      26.003  53.742  16.717  1.00  0.00     0.039 C 
ENDROOT
BRANCH   1   4
ATOM      4  C   UNL     1      28.583  53.576  17.043  1.00  0.00     0.034 C 
BRANCH   4   5
ATOM      5  C   UNL     1      28.536  52.475  15.978  1.00  0.00     0.032 C 
BRANCH   5   6
ATOM      6  C   UNL     1      29.589  51.428  16.245  1.00  0.00    -0.028 C 
ATOM      7  C   UNL     1      30.489  49.260  16.974  1.00  0.00     0.039 C 
ATOM      8  C   UNL     1      29.329  50.188  16.717  1.00  0.00    -0.080 C 
ATOM      9  C   UNL     1      27.920  49.707  16.974  1.00  0.00     0.039 C 
ENDBRANCH   5   6
ENDBRANCH   4   5
ENDBRANCH   1   4
BRANCH   2  10
ATOM     10  C   UNL     1      25.785  54.341  19.655  1.00  0.00     0.035 C 
BRANCH  10  11
ATOM     11  C   UNL     1      25.386  53.106  20.469  1.00  0.00     0.079 C 
BRANCH  11  12
ATOM     12  C   UNL     1      24.475  52.212  19.669  1.00  0.00     0.130 C 
ATOM     13  O   UNL     1      23.379  52.626  19.323  1.00  0.00    -0.300 OA
ATOM     14  C   UNL     1      24.888  50.824  19.278  1.00  0.00     0.087 C 
ENDBRANCH  11  12
ENDBRANCH  10  11
ENDBRANCH   2  10
TORSDOF 6
ENDMDL
MODEL 6
REMARK VINA RESULT:    -5.492      8.334     10.223
REMARK INTER + INTRA:          -8.160
REMARK INTER:                  -7.377
REMARK INTRA:                  -0.783
REMARK UNBOUND:                -0.742
REMARK SMILES CC(=O)CCC=C(C)CCC=C(C)C
REMARK SMILES IDX 7 1 6 2 8 3 9 4 10 5 11 6 13 7 12 8 14 9 5 10 4 11 2 12 3 13
REMARK SMILES IDX 1 14
REMARK H PARENT
REMARK Flexibility Score: inf
ROOT
ATOM      1  C   UNL     1      28.159  54.299  10.886  1.00  0.00    -0.077 C 
ATOM      2  C   UNL     1      27.432  55.438  10.952  1.00  0.00    -0.028 C 
ATOM      3  C   UNL     1      29.665  54.305  11.011  1.00  0.00     0.039 C 
ENDROOT
BRANCH   1   4
ATOM      4  C   UNL     1      27.443  52.980  10.700  1.00  0.00     0.034 C 
BRANCH   4   5
ATOM      5  C   UNL     1      25.988  53.207  10.273  1.00  0.00     0.032 C 
BRANCH   5   6
ATOM      6  C   UNL     1      25.816  52.945   8.797  1.00  0.00    -0.028 C 
ATOM      7  C   UNL     1      25.067  53.373   6.496  1.00  0.00     0.039 C 
ATOM      8  C   UNL     1      25.200  53.789   7.939  1.00  0.00    -0.080 C 
ATOM      9  C   UNL     1      24.663  55.130   8.381  1.00  0.00     0.039 C 
ENDBRANCH   5   6
ENDBRANCH   4   5
ENDBRANCH   1   4
BRANCH   2  10
ATOM     10  C   UNL     1      28.021  56.820  11.100  1.00  0.00     0.035 C 
BRANCH  10  11
ATOM     11  C   UNL     1      27.498  57.501  12.368  1.00  0.00     0.079 C 
BRANCH  11  12
ATOM     12  C   UNL     1      28.510  58.479  12.904  1.00  0.00     0.130 C 
ATOM     13  O   UNL     1      28.330  58.990  13.999  1.00  0.00    -0.300 OA
ATOM     14  C   UNL     1      29.743  58.832  12.126  1.00  0.00     0.087 C 
ENDBRANCH  11  12
ENDBRANCH  10  11
ENDBRANCH   2  10
TORSDOF 6
ENDMDL
MODEL 7
REMARK VINA RESULT:    -5.445      8.367      9.588
REMARK INTER + INTRA:          -8.097
REMARK INTER:                  -7.418
REMARK INTRA:                  -0.679
REMARK UNBOUND:                -0.742
REMARK SMILES CC(=O)CCC=C(C)CCC=C(C)C
REMARK SMILES IDX 7 1 6 2 8 3 9 4 10 5 11 6 13 7 12 8 14 9 5 10 4 11 2 12 3 13
REMARK SMILES IDX 1 14
REMARK H PARENT
REMARK Flexibility Score: inf
ROOT
ATOM      1  C   UNL     1      27.593  54.325  10.720  1.00  0.00    -0.077 C 
ATOM      2  C   UNL     1      26.394  54.739  10.247  1.00  0.00    -0.028 C 
ATOM      3  C   UNL     1      27.935  52.860  10.856  1.00  0.00     0.039 C 
ENDROOT
BRANCH   1   4
ATOM      4  C   UNL     1      28.626  55.359  11.106  1.00  0.00     0.034 C 
BRANCH   4   5
ATOM      5  C   UNL     1      28.090  56.777  10.877  1.00  0.00     0.032 C 
BRANCH   5   6
ATOM      6  C   UNL     1      27.849  57.477  12.192  1.00  0.00    -0.028 C 
ATOM      7  C   UNL     1      28.315  59.007  14.058  1.00  0.00     0.039 C 
ATOM      8  C   UNL     1      28.662  58.424  12.712  1.00  0.00    -0.080 C 
ATOM      9  C   UNL     1      29.886  58.920  11.978  1.00  0.00     0.039 C 
ENDBRANCH   5   6
ENDBRANCH   4   5
ENDBRANCH   1   4
BRANCH   2  10
ATOM     10  C   UNL     1      25.265  53.817   9.860  1.00  0.00     0.035 C 
BRANCH  10  11
ATOM     11  C   UNL     1      24.925  53.967   8.373  1.00  0.00     0.079 C 
BRANCH  11  12
ATOM     12  C   UNL     1      24.946  52.627   7.684  1.00  0.00     0.130 C 
ATOM     13  O   UNL     1      24.077  52.358   6.869  1.00  0.00    -0.300 OA
ATOM     14  C   UNL     1      26.019  51.619   7.969  1.00  0.00     0.087 C 
ENDBRANCH  11  12
ENDBRANCH  10  11
ENDBRANCH   2  10
TORSDOF 6
ENDMDL
MODEL 8
REMARK VINA RESULT:    -5.414      2.919      6.379
REMARK INTER + INTRA:          -8.055
REMARK INTER:                  -7.133
REMARK INTRA:                  -0.922
REMARK UNBOUND:                -0.742
REMARK SMILES CC(=O)CCC=C(C)CCC=C(C)C
REMARK SMILES IDX 7 1 6 2 8 3 9 4 10 5 11 6 13 7 12 8 14 9 5 10 4 11 2 12 3 13
REMARK SMILES IDX 1 14
REMARK H PARENT
REMARK Flexibility Score: inf
ROOT
ATOM      1  C   UNL     1      29.287  51.281  16.193  1.00  0.00    -0.077 C 
ATOM      2  C   UNL     1      28.282  51.717  16.985  1.00  0.00    -0.028 C 
ATOM      3  C   UNL     1      29.569  51.902  14.844  1.00  0.00     0.039 C 
ENDROOT
BRANCH   1   4
ATOM      4  C   UNL     1      30.168  50.151  16.678  1.00  0.00     0.034 C 
BRANCH   4   5
ATOM      5  C   UNL     1      29.346  48.874  16.891  1.00  0.00     0.032 C 
BRANCH   5   6
ATOM      6  C   UNL     1      29.296  48.053  15.627  1.00  0.00    -0.028 C 
ATOM      7  C   UNL     1      28.309  47.090  13.592  1.00  0.00     0.039 C 
ATOM      8  C   UNL     1      28.228  47.987  14.801  1.00  0.00    -0.080 C 
ATOM      9  C   UNL     1      26.975  48.795  15.046  1.00  0.00     0.039 C 
ENDBRANCH   5   6
ENDBRANCH   4   5
ENDBRANCH   1   4
BRANCH   2  10
ATOM     10  C   UNL     1      27.311  52.809  16.609  1.00  0.00     0.035 C 
BRANCH  10  11
ATOM     11  C   UNL     1      27.570  54.075  17.432  1.00  0.00     0.079 C 
BRANCH  11  12
ATOM     12  C   UNL     1      26.728  54.081  18.681  1.00  0.00     0.130 C 
ATOM     13  O   UNL     1      26.996  54.860  19.582  1.00  0.00    -0.300 OA
ATOM     14  C   UNL     1      25.557  53.156  18.838  1.00  0.00     0.087 C 
ENDBRANCH  11  12
ENDBRANCH  10  11
ENDBRANCH   2  10
TORSDOF 6
ENDMDL
MODEL 9
REMARK VINA RESULT:    -5.375      2.042      3.058
REMARK INTER + INTRA:          -8.002
REMARK INTER:                  -7.294
REMARK INTRA:                  -0.708
REMARK UNBOUND:                -0.742
REMARK SMILES CC(=O)CCC=C(C)CCC=C(C)C
REMARK SMILES IDX 7 1 6 2 8 3 9 4 10 5 11 6 13 7 12 8 14 9 5 10 4 11 2 12 3 13
REMARK SMILES IDX 1 14
REMARK H PARENT
REMARK Flexibility Score: inf
ROOT
ATOM      1  C   UNL     1      28.540  53.060  16.706  1.00  0.00    -0.077 C 
ATOM      2  C   UNL     1      28.295  51.732  16.638  1.00  0.00    -0.028 C 
ATOM      3  C   UNL     1      29.941  53.620  16.607  1.00  0.00     0.039 C 
ENDROOT
BRANCH   1   4
ATOM      4  C   UNL     1      27.378  54.015  16.867  1.00  0.00     0.034 C 
BRANCH   4   5
ATOM      5  C   UNL     1      26.115  53.265  17.305  1.00  0.00     0.032 C 
BRANCH   5   6
ATOM      6  C   UNL     1      25.865  53.456  18.781  1.00  0.00    -0.028 C 
ATOM      7  C   UNL     1      25.155  52.842  21.052  1.00  0.00     0.039 C 
ATOM      8  C   UNL     1      25.395  52.493  19.605  1.00  0.00    -0.080 C 
ATOM      9  C   UNL     1      25.123  51.088  19.123  1.00  0.00     0.039 C 
ENDBRANCH   5   6
ENDBRANCH   4   5
ENDBRANCH   1   4
BRANCH   2  10
ATOM     10  C   UNL     1      29.360  50.671  16.514  1.00  0.00     0.035 C 
BRANCH  10  11
ATOM     11  C   UNL     1      28.833  49.312  16.983  1.00  0.00     0.079 C 
BRANCH  11  12
ATOM     12  C   UNL     1      28.697  48.363  15.822  1.00  0.00     0.130 C 
ATOM     13  O   UNL     1      27.687  48.395  15.135  1.00  0.00    -0.300 OA
ATOM     14  C   UNL     1      29.781  47.384  15.481  1.00  0.00     0.087 C 
ENDBRANCH  11  12
ENDBRANCH  10  11
ENDBRANCH   2  10
TORSDOF 6
ENDMDL
