MODEL 1
REMARK VINA RESULT:    -2.576      0.000      0.000
REMARK INTER + INTRA:          -3.097
REMARK INTER:                  -3.028
REMARK INTRA:                  -0.069
REMARK UNBOUND:                -0.069
REMARK SMILES CCCCC(=O)[O-]
REMARK SMILES IDX 4 1 5 2 6 3 7 4 3 5 2 6 1 7
REMARK H PARENT
REMARK Flexibility Score: inf
ROOT
ATOM      1  C   UNL     1     -20.503   3.041   0.302  1.00  0.00     0.053 C 
ENDROOT
BRANCH   1   2
ATOM      2  C   UNL     1     -20.189   4.098   1.312  1.00  0.00     0.041 C 
ATOM      3  O   UNL     1     -20.398   3.888   2.536  1.00  0.00    -0.550 OA
ATOM      4  O   UNL     1     -19.619   5.299   0.907  1.00  0.00    -0.550 OA
ENDBRANCH   1   2
BRANCH   1   5
ATOM      5  C   UNL     1     -19.930   3.422  -1.069  1.00  0.00     0.006 C 
BRANCH   5   6
ATOM      6  C   UNL     1     -21.016   3.552  -2.148  1.00  0.00    -0.003 C 
ATOM      7  C   UNL     1     -20.978   4.901  -2.865  1.00  0.00     0.004 C 
ENDBRANCH   5   6
ENDBRANCH   1   5
TORSDOF 3
ENDMDL
MODEL 2
REMARK VINA RESULT:    -2.491      2.440      3.866
REMARK INTER + INTRA:          -2.997
REMARK INTER:                  -2.958
REMARK INTRA:                  -0.038
REMARK UNBOUND:                -0.069
REMARK SMILES CCCCC(=O)[O-]
REMARK SMILES IDX 4 1 5 2 6 3 7 4 3 5 2 6 1 7
REMARK H PARENT
REMARK Flexibility Score: inf
ROOT
ATOM      1  C   UNL     1     -20.076   3.794  -0.210  1.00  0.00     0.053 C 
ENDROOT
BRANCH   1   2
ATOM      2  C   UNL     1     -20.604   3.781  -1.609  1.00  0.00     0.041 C 
ATOM      3  O   UNL     1     -20.537   4.817  -2.322  1.00  0.00    -0.550 OA
ATOM      4  O   UNL     1     -21.125   2.609  -2.145  1.00  0.00    -0.550 OA
ENDBRANCH   1   2
BRANCH   1   5
ATOM      5  C   UNL     1     -20.758   2.707   0.630  1.00  0.00     0.006 C 
BRANCH   5   6
ATOM      6  C   UNL     1     -20.701   3.001   2.137  1.00  0.00    -0.003 C 
ATOM      7  C   UNL     1     -20.408   4.470   2.441  1.00  0.00     0.004 C 
ENDBRANCH   5   6
ENDBRANCH   1   5
TORSDOF 3
ENDMDL
MODEL 3
REMARK VINA RESULT:    -2.264     16.161     16.823
REMARK INTER + INTRA:          -2.730
REMARK INTER:                  -2.697
REMARK INTRA:                  -0.033
REMARK UNBOUND:                -0.069
REMARK SMILES CCCCC(=O)[O-]
REMARK SMILES IDX 4 1 5 2 6 3 7 4 3 5 2 6 1 7
REMARK H PARENT
REMARK Flexibility Score: inf
ROOT
ATOM      1  C   UNL     1     -14.282  -6.147 -11.418  1.00  0.00     0.053 C 
ENDROOT
BRANCH   1   2
ATOM      2  C   UNL     1     -14.184  -7.555 -11.914  1.00  0.00     0.041 C 
ATOM      3  O   UNL     1     -13.057  -8.076 -12.125  1.00  0.00    -0.550 OA
ATOM      4  O   UNL     1     -15.337  -8.309 -12.097  1.00  0.00    -0.550 OA
ENDBRANCH   1   2
BRANCH   1   5
ATOM      5  C   UNL     1     -15.550  -5.475 -11.958  1.00  0.00     0.006 C 
BRANCH   5   6
ATOM      6  C   UNL     1     -15.541  -3.951 -11.763  1.00  0.00    -0.003 C 
ATOM      7  C   UNL     1     -14.128  -3.371 -11.708  1.00  0.00     0.004 C 
ENDBRANCH   5   6
ENDBRANCH   1   5
TORSDOF 3
ENDMDL
MODEL 4
REMARK VINA RESULT:    -2.218     17.064     17.591
REMARK INTER + INTRA:          -2.676
REMARK INTER:                  -2.639
REMARK INTRA:                  -0.038
REMARK UNBOUND:                -0.069
REMARK SMILES CCCCC(=O)[O-]
REMARK SMILES IDX 4 1 5 2 6 3 7 4 3 5 2 6 1 7
REMARK H PARENT
REMARK Flexibility Score: inf
ROOT
ATOM      1  C   UNL     1      -3.292   7.101   0.644  1.00  0.00     0.053 C 
ENDROOT
BRANCH   1   2
ATOM      2  C   UNL     1      -4.547   6.704   1.355  1.00  0.00     0.041 C 
ATOM      3  O   UNL     1      -4.533   6.493   2.596  1.00  0.00    -0.550 OA
ATOM      4  O   UNL     1      -5.744   6.614   0.654  1.00  0.00    -0.550 OA
ENDBRANCH   1   2
BRANCH   1   5
ATOM      5  C   UNL     1      -2.078   6.409   1.274  1.00  0.00     0.006 C 
BRANCH   5   6
ATOM      6  C   UNL     1      -0.875   6.342   0.320  1.00  0.00    -0.003 C 
ATOM      7  C   UNL     1      -1.230   6.755  -1.108  1.00  0.00     0.004 C 
ENDBRANCH   5   6
ENDBRANCH   1   5
TORSDOF 3
ENDMDL
MODEL 5
REMARK VINA RESULT:    -2.120     16.303     16.768
REMARK INTER + INTRA:          -2.561
REMARK INTER:                  -2.539
REMARK INTRA:                  -0.021
REMARK UNBOUND:                -0.069
REMARK SMILES CCCCC(=O)[O-]
REMARK SMILES IDX 4 1 5 2 6 3 7 4 3 5 2 6 1 7
REMARK H PARENT
REMARK Flexibility Score: inf
ROOT
ATOM      1  C   UNL     1      -4.122   6.507   2.560  1.00  0.00     0.053 C 
ENDROOT
BRANCH   1   2
ATOM      2  C   UNL     1      -2.822   5.940   3.035  1.00  0.00     0.041 C 
ATOM      3  O   UNL     1      -2.696   5.557   4.228  1.00  0.00    -0.550 OA
ATOM      4  O   UNL     1      -1.764   5.790   2.148  1.00  0.00    -0.550 OA
ENDBRANCH   1   2
BRANCH   1   5
ATOM      5  C   UNL     1      -4.304   6.245   1.060  1.00  0.00     0.006 C 
BRANCH   5   6
ATOM      6  C   UNL     1      -5.398   7.125   0.435  1.00  0.00    -0.003 C 
ATOM      7  C   UNL     1      -6.712   6.374   0.225  1.00  0.00     0.004 C 
ENDBRANCH   5   6
ENDBRANCH   1   5
TORSDOF 3
ENDMDL
MODEL 6
REMARK VINA RESULT:    -2.071      0.975      1.287
REMARK INTER + INTRA:          -2.504
REMARK INTER:                  -2.449
REMARK INTRA:                  -0.055
REMARK UNBOUND:                -0.069
REMARK SMILES CCCCC(=O)[O-]
REMARK SMILES IDX 4 1 5 2 6 3 7 4 3 5 2 6 1 7
REMARK H PARENT
REMARK Flexibility Score: inf
ROOT
ATOM      1  C   UNL     1     -19.649   3.744  -0.775  1.00  0.00     0.053 C 
ENDROOT
BRANCH   1   2
ATOM      2  C   UNL     1     -20.341   3.960   0.533  1.00  0.00     0.041 C 
ATOM      3  O   UNL     1     -21.121   3.082   0.990  1.00  0.00    -0.550 OA
ATOM      4  O   UNL     1     -20.088   5.108   1.273  1.00  0.00    -0.550 OA
ENDBRANCH   1   2
BRANCH   1   5
ATOM      5  C   UNL     1     -20.674   3.541  -1.897  1.00  0.00     0.006 C 
BRANCH   5   6
ATOM      6  C   UNL     1     -21.121   4.865  -2.537  1.00  0.00    -0.003 C 
ATOM      7  C   UNL     1     -21.125   4.810  -4.064  1.00  0.00     0.004 C 
ENDBRANCH   5   6
ENDBRANCH   1   5
TORSDOF 3
ENDMDL
MODEL 7
REMARK VINA RESULT:    -2.027     16.614     17.338
REMARK INTER + INTRA:          -2.452
REMARK INTER:                  -2.348
REMARK INTRA:                  -0.104
REMARK UNBOUND:                -0.069
REMARK SMILES CCCCC(=O)[O-]
REMARK SMILES IDX 4 1 5 2 6 3 7 4 3 5 2 6 1 7
REMARK H PARENT
REMARK Flexibility Score: inf
ROOT
ATOM      1  C   UNL     1      -3.435   6.441   1.086  1.00  0.00     0.053 C 
ENDROOT
BRANCH   1   2
ATOM      2  C   UNL     1      -4.858   6.618   1.513  1.00  0.00     0.041 C 
ATOM      3  O   UNL     1      -5.135   6.833   2.722  1.00  0.00    -0.550 OA
ATOM      4  O   UNL     1      -5.875   6.593   0.566  1.00  0.00    -0.550 OA
ENDBRANCH   1   2
BRANCH   1   5
ATOM      5  C   UNL     1      -2.482   6.948   2.176  1.00  0.00     0.006 C 
BRANCH   5   6
ATOM      6  C   UNL     1      -1.639   5.821   2.795  1.00  0.00    -0.003 C 
ATOM      7  C   UNL     1      -2.331   5.149   3.980  1.00  0.00     0.004 C 
ENDBRANCH   5   6
ENDBRANCH   1   5
TORSDOF 3
ENDMDL
MODEL 8
REMARK VINA RESULT:    -1.983     17.418     17.926
REMARK INTER + INTRA:          -2.400
REMARK INTER:                  -2.384
REMARK INTRA:                  -0.016
REMARK UNBOUND:                -0.069
REMARK SMILES CCCCC(=O)[O-]
REMARK SMILES IDX 4 1 5 2 6 3 7 4 3 5 2 6 1 7
REMARK H PARENT
REMARK Flexibility Score: inf
ROOT
ATOM      1  C   UNL     1      -2.051   5.757   3.243  1.00  0.00     0.053 C 
ENDROOT
BRANCH   1   2
ATOM      2  C   UNL     1      -2.089   4.968   4.513  1.00  0.00     0.041 C 
ATOM      3  O   UNL     1      -2.383   5.532   5.601  1.00  0.00    -0.550 OA
ATOM      4  O   UNL     1      -1.849   3.600   4.489  1.00  0.00    -0.550 OA
ENDBRANCH   1   2
BRANCH   1   5
ATOM      5  C   UNL     1      -3.448   6.287   2.899  1.00  0.00     0.006 C 
BRANCH   5   6
ATOM      6  C   UNL     1      -3.704   6.340   1.385  1.00  0.00    -0.003 C 
ATOM      7  C   UNL     1      -5.114   6.819   1.040  1.00  0.00     0.004 C 
ENDBRANCH   5   6
ENDBRANCH   1   5
TORSDOF 3
ENDMDL
