MODEL 1
REMARK VINA RESULT:    -5.083      0.000      0.000
REMARK INTER + INTRA:         -14.014
REMARK INTER:                 -11.027
REMARK INTRA:                  -2.987
REMARK UNBOUND:                -2.987
REMARK SMILES CCCCCCCCCCCCCCCCCCCCCC(=O)[O-]
REMARK SMILES IDX 12 1 11 2 10 3 9 4 8 5 7 6 6 7 5 8 4 9 3 10 2 11 1 12 13 13
REMARK SMILES IDX 14 14 15 15 16 16 17 17 18 18 19 19 20 20 21 21 22 22 23 23
REMARK SMILES IDX 24 24
REMARK H PARENT
REMARK Flexibility Score: inf
ROOT
ATOM      1  C   UNL     1      10.558   8.316  28.910  1.00  0.00     0.000 C 
ENDROOT
BRANCH   1   2
ATOM      2  C   UNL     1       9.730   9.557  29.286  1.00  0.00     0.000 C 
BRANCH   2   3
ATOM      3  C   UNL     1       9.006   9.384  30.638  1.00  0.00     0.000 C 
BRANCH   3   4
ATOM      4  C   UNL     1       8.664  10.714  31.331  1.00  0.00    -0.000 C 
BRANCH   4   5
ATOM      5  C   UNL     1       7.354  10.652  32.132  1.00  0.00    -0.000 C 
BRANCH   5   6
ATOM      6  C   UNL     1       6.113  10.967  31.276  1.00  0.00    -0.000 C 
BRANCH   6   7
ATOM      7  C   UNL     1       4.850  10.155  31.628  1.00  0.00    -0.000 C 
BRANCH   7   8
ATOM      8  C   UNL     1       4.052   9.624  30.420  1.00  0.00    -0.000 C 
BRANCH   8   9
ATOM      9  C   UNL     1       4.860   9.491  29.117  1.00  0.00    -0.000 C 
BRANCH   9  10
ATOM     10  C   UNL     1       5.739   8.231  29.087  1.00  0.00    -0.000 C 
BRANCH  10  11
ATOM     11  C   UNL     1       6.395   8.054  27.712  1.00  0.00    -0.003 C 
ATOM     12  C   UNL     1       6.882   9.389  27.158  1.00  0.00     0.004 C 
ENDBRANCH  10  11
ENDBRANCH   9  10
ENDBRANCH   8   9
ENDBRANCH   7   8
ENDBRANCH   6   7
ENDBRANCH   5   6
ENDBRANCH   4   5
ENDBRANCH   3   4
ENDBRANCH   2   3
ENDBRANCH   1   2
BRANCH   1  13
ATOM     13  C   UNL     1      10.719   8.147  27.391  1.00  0.00     0.000 C 
BRANCH  13  14
ATOM     14  C   UNL     1      11.752   7.071  27.021  1.00  0.00     0.000 C 
BRANCH  14  15
ATOM     15  C   UNL     1      12.298   6.384  28.281  1.00  0.00     0.000 C 
BRANCH  15  16
ATOM     16  C   UNL     1      12.553   4.880  28.075  1.00  0.00     0.000 C 
BRANCH  16  17
ATOM     17  C   UNL     1      11.479   3.954  28.675  1.00  0.00     0.000 C 
BRANCH  17  18
ATOM     18  C   UNL     1      10.530   3.339  27.623  1.00  0.00     0.000 C 
BRANCH  18  19
ATOM     19  C   UNL     1       9.055   3.684  27.896  1.00  0.00     0.000 C 
BRANCH  19  20
ATOM     20  C   UNL     1       8.625   5.023  27.264  1.00  0.00     0.006 C 
BRANCH  20  21
ATOM     21  C   UNL     1       9.094   5.202  25.812  1.00  0.00     0.053 C 
BRANCH  21  22
ATOM     22  C   UNL     1       8.272   6.204  25.062  1.00  0.00     0.041 C 
ATOM     23  O   UNL     1       8.827   7.187  24.502  1.00  0.00    -0.550 OA
ATOM     24  O   UNL     1       6.894   6.049  24.971  1.00  0.00    -0.550 OA
ENDBRANCH  21  22
ENDBRANCH  20  21
ENDBRANCH  19  20
ENDBRANCH  18  19
ENDBRANCH  17  18
ENDBRANCH  16  17
ENDBRANCH  15  16
ENDBRANCH  14  15
ENDBRANCH  13  14
ENDBRANCH   1  13
TORSDOF 20
ENDMDL
MODEL 2
REMARK VINA RESULT:    -5.060      1.469      3.682
REMARK INTER + INTRA:         -13.963
REMARK INTER:                 -10.500
REMARK INTRA:                  -3.463
REMARK UNBOUND:                -2.987
REMARK SMILES CCCCCCCCCCCCCCCCCCCCCC(=O)[O-]
REMARK SMILES IDX 12 1 11 2 10 3 9 4 8 5 7 6 6 7 5 8 4 9 3 10 2 11 1 12 13 13
REMARK SMILES IDX 14 14 15 15 16 16 17 17 18 18 19 19 20 20 21 21 22 22 23 23
REMARK SMILES IDX 24 24
REMARK H PARENT
REMARK Flexibility Score: inf
ROOT
ATOM      1  C   UNL     1       6.704   6.852  26.651  1.00  0.00     0.000 C 
ENDROOT
BRANCH   1   2
ATOM      2  C   UNL     1       6.344   7.656  27.913  1.00  0.00     0.000 C 
BRANCH   2   3
ATOM      3  C   UNL     1       6.139   9.155  27.607  1.00  0.00     0.000 C 
BRANCH   3   4
ATOM      4  C   UNL     1       5.572   9.956  28.791  1.00  0.00    -0.000 C 
BRANCH   4   5
ATOM      5  C   UNL     1       5.027   9.059  29.914  1.00  0.00    -0.000 C 
BRANCH   5   6
ATOM      6  C   UNL     1       4.978   9.771  31.278  1.00  0.00    -0.000 C 
BRANCH   6   7
ATOM      7  C   UNL     1       5.931  10.975  31.424  1.00  0.00    -0.000 C 
BRANCH   7   8
ATOM      8  C   UNL     1       7.107  10.767  32.400  1.00  0.00    -0.000 C 
BRANCH   8   9
ATOM      9  C   UNL     1       8.337  10.066  31.795  1.00  0.00    -0.000 C 
BRANCH   9  10
ATOM     10  C   UNL     1       8.774  10.680  30.457  1.00  0.00    -0.000 C 
BRANCH  10  11
ATOM     11  C   UNL     1       9.282   9.598  29.497  1.00  0.00    -0.003 C 
ATOM     12  C   UNL     1       9.263   8.223  30.158  1.00  0.00     0.004 C 
ENDBRANCH  10  11
ENDBRANCH   9  10
ENDBRANCH   8   9
ENDBRANCH   7   8
ENDBRANCH   6   7
ENDBRANCH   5   6
ENDBRANCH   4   5
ENDBRANCH   3   4
ENDBRANCH   2   3
ENDBRANCH   1   2
BRANCH   1  13
ATOM     13  C   UNL     1       7.078   5.395  26.963  1.00  0.00     0.000 C 
BRANCH  13  14
ATOM     14  C   UNL     1       7.660   5.221  28.374  1.00  0.00     0.000 C 
BRANCH  14  15
ATOM     15  C   UNL     1       9.062   4.597  28.313  1.00  0.00     0.000 C 
BRANCH  15  16
ATOM     16  C   UNL     1       9.661   4.618  26.896  1.00  0.00     0.000 C 
BRANCH  16  17
ATOM     17  C   UNL     1      10.819   5.616  26.699  1.00  0.00     0.000 C 
BRANCH  17  18
ATOM     18  C   UNL     1      10.451   7.074  27.051  1.00  0.00     0.000 C 
BRANCH  18  19
ATOM     19  C   UNL     1      10.522   8.005  25.828  1.00  0.00     0.000 C 
BRANCH  19  20
ATOM     20  C   UNL     1       9.219   8.013  25.004  1.00  0.00     0.006 C 
BRANCH  20  21
ATOM     21  C   UNL     1       9.375   7.438  23.588  1.00  0.00     0.053 C 
BRANCH  21  22
ATOM     22  C   UNL     1       8.215   6.584  23.182  1.00  0.00     0.041 C 
ATOM     23  O   UNL     1       7.055   7.074  23.133  1.00  0.00    -0.550 OA
ATOM     24  O   UNL     1       8.412   5.249  22.848  1.00  0.00    -0.550 OA
ENDBRANCH  21  22
ENDBRANCH  20  21
ENDBRANCH  19  20
ENDBRANCH  18  19
ENDBRANCH  17  18
ENDBRANCH  16  17
ENDBRANCH  15  16
ENDBRANCH  14  15
ENDBRANCH  13  14
ENDBRANCH   1  13
TORSDOF 20
ENDMDL
MODEL 3
REMARK VINA RESULT:    -4.938      1.903      5.338
REMARK INTER + INTRA:         -13.698
REMARK INTER:                 -10.639
REMARK INTRA:                  -3.060
REMARK UNBOUND:                -2.987
REMARK SMILES CCCCCCCCCCCCCCCCCCCCCC(=O)[O-]
REMARK SMILES IDX 12 1 11 2 10 3 9 4 8 5 7 6 6 7 5 8 4 9 3 10 2 11 1 12 13 13
REMARK SMILES IDX 14 14 15 15 16 16 17 17 18 18 19 19 20 20 21 21 22 22 23 23
REMARK SMILES IDX 24 24
REMARK H PARENT
REMARK Flexibility Score: inf
ROOT
ATOM      1  C   UNL     1      11.628   3.430  27.749  1.00  0.00     0.000 C 
ENDROOT
BRANCH   1   2
ATOM      2  C   UNL     1      11.989   4.225  29.015  1.00  0.00     0.000 C 
BRANCH   2   3
ATOM      3  C   UNL     1      12.615   5.596  28.681  1.00  0.00     0.000 C 
BRANCH   3   4
ATOM      4  C   UNL     1      12.988   5.760  27.198  1.00  0.00    -0.000 C 
BRANCH   4   5
ATOM      5  C   UNL     1      12.263   6.938  26.526  1.00  0.00    -0.000 C 
BRANCH   5   6
ATOM      6  C   UNL     1      10.790   7.058  26.956  1.00  0.00    -0.000 C 
BRANCH   6   7
ATOM      7  C   UNL     1      10.361   8.458  27.443  1.00  0.00    -0.000 C 
BRANCH   7   8
ATOM      8  C   UNL     1      10.712   8.779  28.910  1.00  0.00    -0.000 C 
BRANCH   8   9
ATOM      9  C   UNL     1       9.694   8.275  29.947  1.00  0.00    -0.000 C 
BRANCH   9  10
ATOM     10  C   UNL     1       8.770   9.388  30.465  1.00  0.00    -0.000 C 
BRANCH  10  11
ATOM     11  C   UNL     1       7.453   9.416  29.681  1.00  0.00    -0.003 C 
ATOM     12  C   UNL     1       6.531  10.519  30.192  1.00  0.00     0.004 C 
ENDBRANCH  10  11
ENDBRANCH   9  10
ENDBRANCH   8   9
ENDBRANCH   7   8
ENDBRANCH   6   7
ENDBRANCH   5   6
ENDBRANCH   4   5
ENDBRANCH   3   4
ENDBRANCH   2   3
ENDBRANCH   1   2
BRANCH   1  13
ATOM     13  C   UNL     1      10.140   3.048  27.691  1.00  0.00     0.000 C 
BRANCH  13  14
ATOM     14  C   UNL     1       9.271   3.912  28.618  1.00  0.00     0.000 C 
BRANCH  14  15
ATOM     15  C   UNL     1       8.017   4.408  27.883  1.00  0.00     0.000 C 
BRANCH  15  16
ATOM     16  C   UNL     1       7.531   5.776  28.392  1.00  0.00     0.000 C 
BRANCH  16  17
ATOM     17  C   UNL     1       6.785   6.627  27.347  1.00  0.00     0.000 C 
BRANCH  17  18
ATOM     18  C   UNL     1       6.833   6.041  25.918  1.00  0.00     0.000 C 
BRANCH  18  19
ATOM     19  C   UNL     1       7.787   6.825  24.999  1.00  0.00     0.000 C 
BRANCH  19  20
ATOM     20  C   UNL     1       8.183   6.037  23.734  1.00  0.00     0.006 C 
BRANCH  20  21
ATOM     21  C   UNL     1       7.630   6.635  22.431  1.00  0.00     0.053 C 
BRANCH  21  22
ATOM     22  C   UNL     1       7.982   5.818  21.228  1.00  0.00     0.041 C 
ATOM     23  O   UNL     1       8.685   4.780  21.351  1.00  0.00    -0.550 OA
ATOM     24  O   UNL     1       7.528   6.196  19.970  1.00  0.00    -0.550 OA
ENDBRANCH  21  22
ENDBRANCH  20  21
ENDBRANCH  19  20
ENDBRANCH  18  19
ENDBRANCH  17  18
ENDBRANCH  16  17
ENDBRANCH  15  16
ENDBRANCH  14  15
ENDBRANCH  13  14
ENDBRANCH   1  13
TORSDOF 20
ENDMDL
MODEL 4
REMARK VINA RESULT:    -4.884      2.416      3.479
REMARK INTER + INTRA:         -13.581
REMARK INTER:                 -10.548
REMARK INTRA:                  -3.033
REMARK UNBOUND:                -2.987
REMARK SMILES CCCCCCCCCCCCCCCCCCCCCC(=O)[O-]
REMARK SMILES IDX 12 1 11 2 10 3 9 4 8 5 7 6 6 7 5 8 4 9 3 10 2 11 1 12 13 13
REMARK SMILES IDX 14 14 15 15 16 16 17 17 18 18 19 19 20 20 21 21 22 22 23 23
REMARK SMILES IDX 24 24
REMARK H PARENT
REMARK Flexibility Score: inf
ROOT
ATOM      1  C   UNL     1      10.279   8.706  28.908  1.00  0.00     0.000 C 
ENDROOT
BRANCH   1   2
ATOM      2  C   UNL     1       9.189   8.295  29.913  1.00  0.00     0.000 C 
BRANCH   2   3
ATOM      3  C   UNL     1       9.104   9.269  31.108  1.00  0.00     0.000 C 
BRANCH   3   4
ATOM      4  C   UNL     1       8.297  10.544  30.810  1.00  0.00    -0.000 C 
BRANCH   4   5
ATOM      5  C   UNL     1       7.585  11.105  32.051  1.00  0.00    -0.000 C 
BRANCH   5   6
ATOM      6  C   UNL     1       6.252  10.394  32.350  1.00  0.00    -0.000 C 
BRANCH   6   7
ATOM      7  C   UNL     1       5.167  10.554  31.266  1.00  0.00    -0.000 C 
BRANCH   7   8
ATOM      8  C   UNL     1       4.605   9.234  30.699  1.00  0.00    -0.000 C 
BRANCH   8   9
ATOM      9  C   UNL     1       5.352   8.684  29.472  1.00  0.00    -0.000 C 
BRANCH   9  10
ATOM     10  C   UNL     1       5.091   9.504  28.199  1.00  0.00    -0.000 C 
BRANCH  10  11
ATOM     11  C   UNL     1       6.395  10.096  27.652  1.00  0.00    -0.003 C 
ATOM     12  C   UNL     1       7.172   9.063  26.841  1.00  0.00     0.004 C 
ENDBRANCH  10  11
ENDBRANCH   9  10
ENDBRANCH   8   9
ENDBRANCH   7   8
ENDBRANCH   6   7
ENDBRANCH   5   6
ENDBRANCH   4   5
ENDBRANCH   3   4
ENDBRANCH   2   3
ENDBRANCH   1   2
BRANCH   1  13
ATOM     13  C   UNL     1      10.890   7.505  28.170  1.00  0.00     0.000 C 
BRANCH  13  14
ATOM     14  C   UNL     1      10.496   7.458  26.686  1.00  0.00     0.000 C 
BRANCH  14  15
ATOM     15  C   UNL     1       9.813   6.126  26.345  1.00  0.00     0.000 C 
BRANCH  15  16
ATOM     16  C   UNL     1       8.677   5.773  27.320  1.00  0.00     0.000 C 
BRANCH  16  17
ATOM     17  C   UNL     1       8.669   4.309  27.801  1.00  0.00     0.000 C 
BRANCH  17  18
ATOM     18  C   UNL     1       9.884   3.489  27.316  1.00  0.00     0.000 C 
BRANCH  18  19
ATOM     19  C   UNL     1      10.916   3.258  28.434  1.00  0.00     0.000 C 
BRANCH  19  20
ATOM     20  C   UNL     1      12.225   4.042  28.213  1.00  0.00     0.006 C 
BRANCH  20  21
ATOM     21  C   UNL     1      12.821   4.631  29.501  1.00  0.00     0.053 C 
BRANCH  21  22
ATOM     22  C   UNL     1      14.086   5.392  29.253  1.00  0.00     0.041 C 
ATOM     23  O   UNL     1      14.311   5.896  28.121  1.00  0.00    -0.550 OA
ATOM     24  O   UNL     1      15.014   5.554  30.275  1.00  0.00    -0.550 OA
ENDBRANCH  21  22
ENDBRANCH  20  21
ENDBRANCH  19  20
ENDBRANCH  18  19
ENDBRANCH  17  18
ENDBRANCH  16  17
ENDBRANCH  15  16
ENDBRANCH  14  15
ENDBRANCH  13  14
ENDBRANCH   1  13
TORSDOF 20
ENDMDL
MODEL 5
REMARK VINA RESULT:    -4.834      1.961      3.880
REMARK INTER + INTRA:         -13.472
REMARK INTER:                 -10.399
REMARK INTRA:                  -3.073
REMARK UNBOUND:                -2.987
REMARK SMILES CCCCCCCCCCCCCCCCCCCCCC(=O)[O-]
REMARK SMILES IDX 12 1 11 2 10 3 9 4 8 5 7 6 6 7 5 8 4 9 3 10 2 11 1 12 13 13
REMARK SMILES IDX 14 14 15 15 16 16 17 17 18 18 19 19 20 20 21 21 22 22 23 23
REMARK SMILES IDX 24 24
REMARK H PARENT
REMARK Flexibility Score: inf
ROOT
ATOM      1  C   UNL     1       8.387  10.777  30.159  1.00  0.00     0.000 C 
ENDROOT
BRANCH   1   2
ATOM      2  C   UNL     1       8.234  10.620  31.682  1.00  0.00     0.000 C 
BRANCH   2   3
ATOM      3  C   UNL     1       6.768  10.370  32.096  1.00  0.00     0.000 C 
BRANCH   3   4
ATOM      4  C   UNL     1       5.767  10.505  30.937  1.00  0.00    -0.000 C 
BRANCH   4   5
ATOM      5  C   UNL     1       5.013   9.198  30.642  1.00  0.00    -0.000 C 
BRANCH   5   6
ATOM      6  C   UNL     1       5.182   8.726  29.186  1.00  0.00    -0.000 C 
BRANCH   6   7
ATOM      7  C   UNL     1       5.291   9.853  28.139  1.00  0.00    -0.000 C 
BRANCH   7   8
ATOM      8  C   UNL     1       6.110   9.503  26.880  1.00  0.00    -0.000 C 
BRANCH   8   9
ATOM      9  C   UNL     1       7.294   8.549  27.119  1.00  0.00    -0.000 C 
BRANCH   9  10
ATOM     10  C   UNL     1       7.518   7.573  25.955  1.00  0.00    -0.000 C 
BRANCH  10  11
ATOM     11  C   UNL     1       6.879   6.211  26.251  1.00  0.00    -0.003 C 
ATOM     12  C   UNL     1       7.267   5.711  27.639  1.00  0.00     0.004 C 
ENDBRANCH  10  11
ENDBRANCH   9  10
ENDBRANCH   8   9
ENDBRANCH   7   8
ENDBRANCH   6   7
ENDBRANCH   5   6
ENDBRANCH   4   5
ENDBRANCH   3   4
ENDBRANCH   2   3
ENDBRANCH   1   2
BRANCH   1  13
ATOM     13  C   UNL     1       9.441   9.827  29.568  1.00  0.00     0.000 C 
BRANCH  13  14
ATOM     14  C   UNL     1       9.490   8.472  30.290  1.00  0.00     0.000 C 
BRANCH  14  15
ATOM     15  C   UNL     1      10.055   7.382  29.367  1.00  0.00     0.000 C 
BRANCH  15  16
ATOM     16  C   UNL     1      10.798   7.960  28.150  1.00  0.00     0.000 C 
BRANCH  16  17
ATOM     17  C   UNL     1      11.404   6.907  27.203  1.00  0.00     0.000 C 
BRANCH  17  18
ATOM     18  C   UNL     1      12.861   6.525  27.548  1.00  0.00     0.000 C 
BRANCH  18  19
ATOM     19  C   UNL     1      13.337   5.285  26.771  1.00  0.00     0.000 C 
BRANCH  19  20
ATOM     20  C   UNL     1      13.569   4.061  27.680  1.00  0.00     0.006 C 
BRANCH  20  21
ATOM     21  C   UNL     1      12.574   2.915  27.444  1.00  0.00     0.053 C 
BRANCH  21  22
ATOM     22  C   UNL     1      11.208   3.221  27.975  1.00  0.00     0.041 C 
ATOM     23  O   UNL     1      11.076   3.798  29.087  1.00  0.00    -0.550 OA
ATOM     24  O   UNL     1      10.080   2.877  27.240  1.00  0.00    -0.550 OA
ENDBRANCH  21  22
ENDBRANCH  20  21
ENDBRANCH  19  20
ENDBRANCH  18  19
ENDBRANCH  17  18
ENDBRANCH  16  17
ENDBRANCH  15  16
ENDBRANCH  14  15
ENDBRANCH  13  14
ENDBRANCH   1  13
TORSDOF 20
ENDMDL
MODEL 6
REMARK VINA RESULT:    -4.771      2.620      3.727
REMARK INTER + INTRA:         -13.336
REMARK INTER:                 -10.282
REMARK INTRA:                  -3.054
REMARK UNBOUND:                -2.987
REMARK SMILES CCCCCCCCCCCCCCCCCCCCCC(=O)[O-]
REMARK SMILES IDX 12 1 11 2 10 3 9 4 8 5 7 6 6 7 5 8 4 9 3 10 2 11 1 12 13 13
REMARK SMILES IDX 14 14 15 15 16 16 17 17 18 18 19 19 20 20 21 21 22 22 23 23
REMARK SMILES IDX 24 24
REMARK H PARENT
REMARK Flexibility Score: inf
ROOT
ATOM      1  C   UNL     1       9.419   9.994  29.125  1.00  0.00     0.000 C 
ENDROOT
BRANCH   1   2
ATOM      2  C   UNL     1       9.481   8.977  30.278  1.00  0.00     0.000 C 
BRANCH   2   3
ATOM      3  C   UNL     1       8.849   9.528  31.573  1.00  0.00     0.000 C 
BRANCH   3   4
ATOM      4  C   UNL     1       7.809  10.636  31.331  1.00  0.00    -0.000 C 
BRANCH   4   5
ATOM      5  C   UNL     1       6.531  10.450  32.165  1.00  0.00    -0.000 C 
BRANCH   5   6
ATOM      6  C   UNL     1       5.376   9.828  31.359  1.00  0.00    -0.000 C 
BRANCH   6   7
ATOM      7  C   UNL     1       5.610   9.744  29.837  1.00  0.00    -0.000 C 
BRANCH   7   8
ATOM      8  C   UNL     1       5.390   8.350  29.215  1.00  0.00    -0.000 C 
BRANCH   8   9
ATOM      9  C   UNL     1       6.451   7.924  28.184  1.00  0.00    -0.000 C 
BRANCH   9  10
ATOM     10  C   UNL     1       7.192   6.641  28.588  1.00  0.00    -0.000 C 
BRANCH  10  11
ATOM     11  C   UNL     1       6.852   5.489  27.634  1.00  0.00    -0.003 C 
ATOM     12  C   UNL     1       6.694   5.989  26.201  1.00  0.00     0.004 C 
ENDBRANCH  10  11
ENDBRANCH   9  10
ENDBRANCH   8   9
ENDBRANCH   7   8
ENDBRANCH   6   7
ENDBRANCH   5   6
ENDBRANCH   4   5
ENDBRANCH   3   4
ENDBRANCH   2   3
ENDBRANCH   1   2
BRANCH   1  13
ATOM     13  C   UNL     1       9.832   9.388  27.775  1.00  0.00     0.000 C 
BRANCH  13  14
ATOM     14  C   UNL     1      10.694   8.126  27.930  1.00  0.00     0.000 C 
BRANCH  14  15
ATOM     15  C   UNL     1      10.525   7.197  26.719  1.00  0.00     0.000 C 
BRANCH  15  16
ATOM     16  C   UNL     1      11.060   5.778  26.978  1.00  0.00     0.000 C 
BRANCH  16  17
ATOM     17  C   UNL     1      10.056   4.646  26.685  1.00  0.00     0.000 C 
BRANCH  17  18
ATOM     18  C   UNL     1      10.199   3.429  27.626  1.00  0.00     0.000 C 
BRANCH  18  19
ATOM     19  C   UNL     1      11.671   3.095  27.927  1.00  0.00     0.000 C 
BRANCH  19  20
ATOM     20  C   UNL     1      11.977   3.044  29.438  1.00  0.00     0.006 C 
BRANCH  20  21
ATOM     21  C   UNL     1      12.510   4.368  30.009  1.00  0.00     0.053 C 
BRANCH  21  22
ATOM     22  C   UNL     1      13.945   4.609  29.657  1.00  0.00     0.041 C 
ATOM     23  O   UNL     1      14.770   3.658  29.677  1.00  0.00    -0.550 OA
ATOM     24  O   UNL     1      14.371   5.883  29.299  1.00  0.00    -0.550 OA
ENDBRANCH  21  22
ENDBRANCH  20  21
ENDBRANCH  19  20
ENDBRANCH  18  19
ENDBRANCH  17  18
ENDBRANCH  16  17
ENDBRANCH  15  16
ENDBRANCH  14  15
ENDBRANCH  13  14
ENDBRANCH   1  13
TORSDOF 20
ENDMDL
MODEL 7
REMARK VINA RESULT:    -4.765      2.375      5.753
REMARK INTER + INTRA:         -13.323
REMARK INTER:                  -9.915
REMARK INTRA:                  -3.408
REMARK UNBOUND:                -2.987
REMARK SMILES CCCCCCCCCCCCCCCCCCCCCC(=O)[O-]
REMARK SMILES IDX 12 1 11 2 10 3 9 4 8 5 7 6 6 7 5 8 4 9 3 10 2 11 1 12 13 13
REMARK SMILES IDX 14 14 15 15 16 16 17 17 18 18 19 19 20 20 21 21 22 22 23 23
REMARK SMILES IDX 24 24
REMARK H PARENT
REMARK Flexibility Score: inf
ROOT
ATOM      1  C   UNL     1       7.968   9.629  30.801  1.00  0.00     0.000 C 
ENDROOT
BRANCH   1   2
ATOM      2  C   UNL     1       9.206   8.754  30.538  1.00  0.00     0.000 C 
BRANCH   2   3
ATOM      3  C   UNL     1      10.089   9.323  29.407  1.00  0.00     0.000 C 
BRANCH   3   4
ATOM      4  C   UNL     1      10.038   8.498  28.109  1.00  0.00    -0.000 C 
BRANCH   4   5
ATOM      5  C   UNL     1       9.863   9.369  26.854  1.00  0.00    -0.000 C 
BRANCH   5   6
ATOM      6  C   UNL     1       9.470   8.552  25.609  1.00  0.00    -0.000 C 
BRANCH   6   7
ATOM      7  C   UNL     1       9.658   7.027  25.740  1.00  0.00    -0.000 C 
BRANCH   7   8
ATOM      8  C   UNL     1       8.739   6.172  24.843  1.00  0.00    -0.000 C 
BRANCH   8   9
ATOM      9  C   UNL     1       7.864   6.972  23.862  1.00  0.00    -0.000 C 
BRANCH   9  10
ATOM     10  C   UNL     1       7.401   6.136  22.659  1.00  0.00    -0.000 C 
BRANCH  10  11
ATOM     11  C   UNL     1       8.602   5.613  21.862  1.00  0.00    -0.003 C 
ATOM     12  C   UNL     1       8.189   4.485  20.921  1.00  0.00     0.004 C 
ENDBRANCH  10  11
ENDBRANCH   9  10
ENDBRANCH   8   9
ENDBRANCH   7   8
ENDBRANCH   6   7
ENDBRANCH   5   6
ENDBRANCH   4   5
ENDBRANCH   3   4
ENDBRANCH   2   3
ENDBRANCH   1   2
BRANCH   1  13
ATOM     13  C   UNL     1       7.752  10.694  29.715  1.00  0.00     0.000 C 
BRANCH  13  14
ATOM     14  C   UNL     1       6.606  10.339  28.755  1.00  0.00     0.000 C 
BRANCH  14  15
ATOM     15  C   UNL     1       5.745   9.205  29.330  1.00  0.00     0.000 C 
BRANCH  15  16
ATOM     16  C   UNL     1       5.350   8.161  28.271  1.00  0.00     0.000 C 
BRANCH  16  17
ATOM     17  C   UNL     1       6.526   7.358  27.684  1.00  0.00     0.000 C 
BRANCH  17  18
ATOM     18  C   UNL     1       7.153   6.356  28.678  1.00  0.00     0.000 C 
BRANCH  18  19
ATOM     19  C   UNL     1       7.544   5.031  28.001  1.00  0.00     0.000 C 
BRANCH  19  20
ATOM     20  C   UNL     1       8.884   4.467  28.517  1.00  0.00     0.006 C 
BRANCH  20  21
ATOM     21  C   UNL     1       9.660   3.655  27.469  1.00  0.00     0.053 C 
BRANCH  21  22
ATOM     22  C   UNL     1      11.140   3.696  27.691  1.00  0.00     0.041 C 
ATOM     23  O   UNL     1      11.715   2.757  28.303  1.00  0.00    -0.550 OA
ATOM     24  O   UNL     1      11.888   4.766  27.215  1.00  0.00    -0.550 OA
ENDBRANCH  21  22
ENDBRANCH  20  21
ENDBRANCH  19  20
ENDBRANCH  18  19
ENDBRANCH  17  18
ENDBRANCH  16  17
ENDBRANCH  15  16
ENDBRANCH  14  15
ENDBRANCH  13  14
ENDBRANCH   1  13
TORSDOF 20
ENDMDL
MODEL 8
REMARK VINA RESULT:    -4.761      3.247      4.796
REMARK INTER + INTRA:         -13.315
REMARK INTER:                  -9.528
REMARK INTRA:                  -3.787
REMARK UNBOUND:                -2.987
REMARK SMILES CCCCCCCCCCCCCCCCCCCCCC(=O)[O-]
REMARK SMILES IDX 12 1 11 2 10 3 9 4 8 5 7 6 6 7 5 8 4 9 3 10 2 11 1 12 13 13
REMARK SMILES IDX 14 14 15 15 16 16 17 17 18 18 19 19 20 20 21 21 22 22 23 23
REMARK SMILES IDX 24 24
REMARK H PARENT
REMARK Flexibility Score: inf
ROOT
ATOM      1  C   UNL     1      10.256   8.839  28.308  1.00  0.00     0.000 C 
ENDROOT
BRANCH   1   2
ATOM      2  C   UNL     1       9.362   9.520  27.257  1.00  0.00     0.000 C 
BRANCH   2   3
ATOM      3  C   UNL     1       8.133  10.203  27.895  1.00  0.00     0.000 C 
BRANCH   3   4
ATOM      4  C   UNL     1       6.800   9.824  27.228  1.00  0.00    -0.000 C 
BRANCH   4   5
ATOM      5  C   UNL     1       5.952   8.869  28.084  1.00  0.00    -0.000 C 
BRANCH   5   6
ATOM      6  C   UNL     1       6.249   7.385  27.798  1.00  0.00    -0.000 C 
BRANCH   6   7
ATOM      7  C   UNL     1       7.216   6.707  28.791  1.00  0.00    -0.000 C 
BRANCH   7   8
ATOM      8  C   UNL     1       8.176   5.673  28.169  1.00  0.00    -0.000 C 
BRANCH   8   9
ATOM      9  C   UNL     1       7.887   5.319  26.700  1.00  0.00    -0.000 C 
BRANCH   9  10
ATOM     10  C   UNL     1       9.115   5.490  25.793  1.00  0.00    -0.000 C 
BRANCH  10  11
ATOM     11  C   UNL     1       9.005   6.771  24.958  1.00  0.00    -0.003 C 
ATOM     12  C   UNL     1       7.592   6.955  24.414  1.00  0.00     0.004 C 
ENDBRANCH  10  11
ENDBRANCH   9  10
ENDBRANCH   8   9
ENDBRANCH   7   8
ENDBRANCH   6   7
ENDBRANCH   5   6
ENDBRANCH   4   5
ENDBRANCH   3   4
ENDBRANCH   2   3
ENDBRANCH   1   2
BRANCH   1  13
ATOM     13  C   UNL     1      11.194   7.786  27.697  1.00  0.00     0.000 C 
BRANCH  13  14
ATOM     14  C   UNL     1      11.714   6.782  28.737  1.00  0.00     0.000 C 
BRANCH  14  15
ATOM     15  C   UNL     1      13.103   6.258  28.342  1.00  0.00     0.000 C 
BRANCH  15  16
ATOM     16  C   UNL     1      13.164   5.778  26.881  1.00  0.00     0.000 C 
BRANCH  16  17
ATOM     17  C   UNL     1      13.651   4.329  26.697  1.00  0.00     0.000 C 
BRANCH  17  18
ATOM     18  C   UNL     1      13.073   3.341  27.735  1.00  0.00     0.000 C 
BRANCH  18  19
ATOM     19  C   UNL     1      11.547   3.187  27.604  1.00  0.00     0.000 C 
BRANCH  19  20
ATOM     20  C   UNL     1      10.828   3.163  28.968  1.00  0.00     0.006 C 
BRANCH  20  21
ATOM     21  C   UNL     1      11.781   3.090  30.171  1.00  0.00     0.053 C 
BRANCH  21  22
ATOM     22  C   UNL     1      11.530   1.892  31.032  1.00  0.00     0.041 C 
ATOM     23  O   UNL     1      10.363   1.627  31.425  1.00  0.00    -0.550 OA
ATOM     24  O   UNL     1      12.583   1.059  31.394  1.00  0.00    -0.550 OA
ENDBRANCH  21  22
ENDBRANCH  20  21
ENDBRANCH  19  20
ENDBRANCH  18  19
ENDBRANCH  17  18
ENDBRANCH  16  17
ENDBRANCH  15  16
ENDBRANCH  14  15
ENDBRANCH  13  14
ENDBRANCH   1  13
TORSDOF 20
ENDMDL
MODEL 9
REMARK VINA RESULT:    -4.666      2.477      4.526
REMARK INTER + INTRA:         -13.109
REMARK INTER:                  -9.824
REMARK INTRA:                  -3.285
REMARK UNBOUND:                -2.987
REMARK SMILES CCCCCCCCCCCCCCCCCCCCCC(=O)[O-]
REMARK SMILES IDX 12 1 11 2 10 3 9 4 8 5 7 6 6 7 5 8 4 9 3 10 2 11 1 12 13 13
REMARK SMILES IDX 14 14 15 15 16 16 17 17 18 18 19 19 20 20 21 21 22 22 23 23
REMARK SMILES IDX 24 24
REMARK H PARENT
REMARK Flexibility Score: inf
ROOT
ATOM      1  C   UNL     1       7.251   7.121  26.377  1.00  0.00     0.000 C 
ENDROOT
BRANCH   1   2
ATOM      2  C   UNL     1       6.479   7.749  27.551  1.00  0.00     0.000 C 
BRANCH   2   3
ATOM      3  C   UNL     1       6.335   9.278  27.399  1.00  0.00     0.000 C 
BRANCH   3   4
ATOM      4  C   UNL     1       5.463   9.928  28.487  1.00  0.00    -0.000 C 
BRANCH   4   5
ATOM      5  C   UNL     1       5.086   8.952  29.613  1.00  0.00    -0.000 C 
BRANCH   5   6
ATOM      6  C   UNL     1       5.042   9.625  30.998  1.00  0.00    -0.000 C 
BRANCH   6   7
ATOM      7  C   UNL     1       6.011  10.810  31.182  1.00  0.00    -0.000 C 
BRANCH   7   8
ATOM      8  C   UNL     1       7.115  10.598  32.239  1.00  0.00    -0.000 C 
BRANCH   8   9
ATOM      9  C   UNL     1       8.335   9.797  31.751  1.00  0.00    -0.000 C 
BRANCH   9  10
ATOM     10  C   UNL     1       8.739  10.145  30.310  1.00  0.00    -0.000 C 
BRANCH  10  11
ATOM     11  C   UNL     1       9.409   8.949  29.625  1.00  0.00    -0.003 C 
ATOM     12  C   UNL     1       9.969   9.338  28.260  1.00  0.00     0.004 C 
ENDBRANCH  10  11
ENDBRANCH   9  10
ENDBRANCH   8   9
ENDBRANCH   7   8
ENDBRANCH   6   7
ENDBRANCH   5   6
ENDBRANCH   4   5
ENDBRANCH   3   4
ENDBRANCH   2   3
ENDBRANCH   1   2
BRANCH   1  13
ATOM     13  C   UNL     1       7.825   5.736  26.717  1.00  0.00     0.000 C 
BRANCH  13  14
ATOM     14  C   UNL     1       8.202   5.598  28.200  1.00  0.00     0.000 C 
BRANCH  14  15
ATOM     15  C   UNL     1       9.712   5.364  28.359  1.00  0.00     0.000 C 
BRANCH  15  16
ATOM     16  C   UNL     1      10.458   5.361  27.013  1.00  0.00     0.000 C 
BRANCH  16  17
ATOM     17  C   UNL     1      11.541   6.447  26.872  1.00  0.00     0.000 C 
BRANCH  17  18
ATOM     18  C   UNL     1      12.981   5.915  27.035  1.00  0.00     0.000 C 
BRANCH  18  19
ATOM     19  C   UNL     1      13.613   6.345  28.371  1.00  0.00     0.000 C 
BRANCH  19  20
ATOM     20  C   UNL     1      14.015   5.148  29.257  1.00  0.00     0.006 C 
BRANCH  20  21
ATOM     21  C   UNL     1      12.854   4.564  30.076  1.00  0.00     0.053 C 
BRANCH  21  22
ATOM     22  C   UNL     1      12.416   3.222  29.578  1.00  0.00     0.041 C 
ATOM     23  O   UNL     1      11.417   2.652  30.089  1.00  0.00    -0.550 OA
ATOM     24  O   UNL     1      13.106   2.603  28.542  1.00  0.00    -0.550 OA
ENDBRANCH  21  22
ENDBRANCH  20  21
ENDBRANCH  19  20
ENDBRANCH  18  19
ENDBRANCH  17  18
ENDBRANCH  16  17
ENDBRANCH  15  16
ENDBRANCH  14  15
ENDBRANCH  13  14
ENDBRANCH   1  13
TORSDOF 20
ENDMDL
