MODEL 1
REMARK VINA RESULT:    -4.135      0.000      0.000
REMARK INTER + INTRA:          -8.862
REMARK INTER:                  -7.760
REMARK INTRA:                  -1.101
REMARK UNBOUND:                -1.101
REMARK SMILES O=C([O-])CCCCCCCCCCCCCCC(=O)[O-]
REMARK SMILES IDX 10 1 9 2 8 3 7 4 6 5 5 6 4 7 2 8 1 9 3 10 11 11 12 12 13 13
REMARK SMILES IDX 14 14 15 15 16 16 17 17 18 18 19 19 20 20
REMARK H PARENT
REMARK Flexibility Score: inf
ROOT
ATOM      1  C   UNL     1     151.717 132.253 165.750  1.00  0.00     0.000 C 
ENDROOT
BRANCH   1   2
ATOM      2  C   UNL     1     150.493 133.039 165.254  1.00  0.00     0.000 C 
BRANCH   2   3
ATOM      3  C   UNL     1     150.685 133.592 163.831  1.00  0.00     0.000 C 
BRANCH   3   4
ATOM      4  C   UNL     1     149.627 133.071 162.845  1.00  0.00     0.000 C 
BRANCH   4   5
ATOM      5  C   UNL     1     148.507 132.281 163.547  1.00  0.00     0.000 C 
BRANCH   5   6
ATOM      6  C   UNL     1     147.178 132.329 162.777  1.00  0.00     0.006 C 
BRANCH   6   7
ATOM      7  C   UNL     1     147.142 133.446 161.726  1.00  0.00     0.053 C 
BRANCH   7   8
ATOM      8  C   UNL     1     145.821 133.459 161.023  1.00  0.00     0.041 C 
ATOM      9  O   UNL     1     144.756 133.608 161.679  1.00  0.00    -0.550 OA
ATOM     10  O   UNL     1     145.761 133.259 159.650  1.00  0.00    -0.550 OA
ENDBRANCH   7   8
ENDBRANCH   6   7
ENDBRANCH   5   6
ENDBRANCH   4   5
ENDBRANCH   3   4
ENDBRANCH   2   3
ENDBRANCH   1   2
BRANCH   1  11
ATOM     11  C   UNL     1     152.919 133.164 166.051  1.00  0.00     0.000 C 
BRANCH  11  12
ATOM     12  C   UNL     1     154.105 132.913 165.104  1.00  0.00     0.000 C 
BRANCH  12  13
ATOM     13  C   UNL     1     155.290 132.234 165.811  1.00  0.00     0.000 C 
BRANCH  13  14
ATOM     14  C   UNL     1     155.252 132.412 167.338  1.00  0.00     0.000 C 
BRANCH  14  15
ATOM     15  C   UNL     1     156.621 132.665 168.001  1.00  0.00     0.000 C 
BRANCH  15  16
ATOM     16  C   UNL     1     157.208 134.062 167.705  1.00  0.00     0.006 C 
BRANCH  16  17
ATOM     17  C   UNL     1     156.323 135.192 168.248  1.00  0.00     0.053 C 
BRANCH  17  18
ATOM     18  C   UNL     1     155.997 136.168 167.162  1.00  0.00     0.041 C 
ATOM     19  O   UNL     1     156.812 137.079 166.862  1.00  0.00    -0.550 OA
ATOM     20  O   UNL     1     154.771 136.098 166.512  1.00  0.00    -0.550 OA
ENDBRANCH  17  18
ENDBRANCH  16  17
ENDBRANCH  15  16
ENDBRANCH  14  15
ENDBRANCH  13  14
ENDBRANCH  12  13
ENDBRANCH  11  12
ENDBRANCH   1  11
TORSDOF 15
ENDMDL
MODEL 2
REMARK VINA RESULT:    -4.027      4.072      8.672
REMARK INTER + INTRA:          -8.661
REMARK INTER:                  -7.262
REMARK INTRA:                  -1.399
REMARK UNBOUND:                -1.101
REMARK SMILES O=C([O-])CCCCCCCCCCCCCCC(=O)[O-]
REMARK SMILES IDX 10 1 9 2 8 3 7 4 6 5 5 6 4 7 2 8 1 9 3 10 11 11 12 12 13 13
REMARK SMILES IDX 14 14 15 15 16 16 17 17 18 18 19 19 20 20
REMARK H PARENT
REMARK Flexibility Score: inf
ROOT
ATOM      1  C   UNL     1     156.202 135.196 168.910  1.00  0.00     0.000 C 
ENDROOT
BRANCH   1   2
ATOM      2  C   UNL     1     156.013 135.593 167.438  1.00  0.00     0.000 C 
BRANCH   2   3
ATOM      3  C   UNL     1     156.677 136.939 167.100  1.00  0.00     0.000 C 
BRANCH   3   4
ATOM      4  C   UNL     1     157.142 137.701 168.351  1.00  0.00     0.000 C 
BRANCH   4   5
ATOM      5  C   UNL     1     157.245 139.218 168.112  1.00  0.00     0.000 C 
BRANCH   5   6
ATOM      6  C   UNL     1     157.928 139.561 166.779  1.00  0.00     0.006 C 
BRANCH   6   7
ATOM      7  C   UNL     1     157.538 140.949 166.254  1.00  0.00     0.053 C 
BRANCH   7   8
ATOM      8  C   UNL     1     156.463 140.832 165.219  1.00  0.00     0.041 C 
ATOM      9  O   UNL     1     156.084 139.698 164.825  1.00  0.00    -0.550 OA
ATOM     10  O   UNL     1     155.912 141.976 164.655  1.00  0.00    -0.550 OA
ENDBRANCH   7   8
ENDBRANCH   6   7
ENDBRANCH   5   6
ENDBRANCH   4   5
ENDBRANCH   3   4
ENDBRANCH   2   3
ENDBRANCH   1   2
BRANCH   1  11
ATOM     11  C   UNL     1     156.862 133.815 169.067  1.00  0.00     0.000 C 
BRANCH  11  12
ATOM     12  C   UNL     1     157.839 133.491 167.924  1.00  0.00     0.000 C 
BRANCH  12  13
ATOM     13  C   UNL     1     157.592 132.100 167.314  1.00  0.00     0.000 C 
BRANCH  13  14
ATOM     14  C   UNL     1     156.794 132.161 166.001  1.00  0.00     0.000 C 
BRANCH  14  15
ATOM     15  C   UNL     1     155.261 132.115 166.166  1.00  0.00     0.000 C 
BRANCH  15  16
ATOM     16  C   UNL     1     154.492 132.855 165.051  1.00  0.00     0.006 C 
BRANCH  16  17
ATOM     17  C   UNL     1     152.983 132.579 165.103  1.00  0.00     0.053 C 
BRANCH  17  18
ATOM     18  C   UNL     1     152.249 133.781 165.607  1.00  0.00     0.041 C 
ATOM     19  O   UNL     1     151.527 134.457 164.827  1.00  0.00    -0.550 OA
ATOM     20  O   UNL     1     152.400 134.183 166.928  1.00  0.00    -0.550 OA
ENDBRANCH  17  18
ENDBRANCH  16  17
ENDBRANCH  15  16
ENDBRANCH  14  15
ENDBRANCH  13  14
ENDBRANCH  12  13
ENDBRANCH  11  12
ENDBRANCH   1  11
TORSDOF 15
ENDMDL
MODEL 3
REMARK VINA RESULT:    -4.012      2.696      4.438
REMARK INTER + INTRA:          -8.631
REMARK INTER:                  -7.012
REMARK INTRA:                  -1.619
REMARK UNBOUND:                -1.101
REMARK SMILES O=C([O-])CCCCCCCCCCCCCCC(=O)[O-]
REMARK SMILES IDX 10 1 9 2 8 3 7 4 6 5 5 6 4 7 2 8 1 9 3 10 11 11 12 12 13 13
REMARK SMILES IDX 14 14 15 15 16 16 17 17 18 18 19 19 20 20
REMARK H PARENT
REMARK Flexibility Score: inf
ROOT
ATOM      1  C   UNL     1     155.555 132.212 166.988  1.00  0.00     0.000 C 
ENDROOT
BRANCH   1   2
ATOM      2  C   UNL     1     154.809 132.260 165.645  1.00  0.00     0.000 C 
BRANCH   2   3
ATOM      3  C   UNL     1     154.323 133.676 165.290  1.00  0.00     0.000 C 
BRANCH   3   4
ATOM      4  C   UNL     1     153.669 134.394 166.482  1.00  0.00     0.000 C 
BRANCH   4   5
ATOM      5  C   UNL     1     152.219 133.938 166.720  1.00  0.00     0.000 C 
BRANCH   5   6
ATOM      6  C   UNL     1     151.293 134.271 165.540  1.00  0.00     0.006 C 
BRANCH   6   7
ATOM      7  C   UNL     1     150.180 133.233 165.348  1.00  0.00     0.053 C 
BRANCH   7   8
ATOM      8  C   UNL     1     150.342 132.532 164.035  1.00  0.00     0.041 C 
ATOM      9  O   UNL     1     149.336 132.065 163.439  1.00  0.00    -0.550 OA
ATOM     10  O   UNL     1     151.609 132.351 163.494  1.00  0.00    -0.550 OA
ENDBRANCH   7   8
ENDBRANCH   6   7
ENDBRANCH   5   6
ENDBRANCH   4   5
ENDBRANCH   3   4
ENDBRANCH   2   3
ENDBRANCH   1   2
BRANCH   1  11
ATOM     11  C   UNL     1     157.083 132.242 166.815  1.00  0.00     0.000 C 
BRANCH  11  12
ATOM     12  C   UNL     1     157.769 133.239 167.764  1.00  0.00     0.000 C 
BRANCH  12  13
ATOM     13  C   UNL     1     156.880 133.621 168.960  1.00  0.00     0.000 C 
BRANCH  13  14
ATOM     14  C   UNL     1     156.632 135.136 169.056  1.00  0.00     0.000 C 
BRANCH  14  15
ATOM     15  C   UNL     1     156.689 135.893 167.714  1.00  0.00     0.000 C 
BRANCH  15  16
ATOM     16  C   UNL     1     156.108 137.322 167.779  1.00  0.00     0.006 C 
BRANCH  16  17
ATOM     17  C   UNL     1     156.990 138.342 167.047  1.00  0.00     0.053 C 
BRANCH  17  18
ATOM     18  C   UNL     1     156.211 139.025 165.968  1.00  0.00     0.041 C 
ATOM     19  O   UNL     1     156.675 140.049 165.402  1.00  0.00    -0.550 OA
ATOM     20  O   UNL     1     154.950 138.558 165.620  1.00  0.00    -0.550 OA
ENDBRANCH  17  18
ENDBRANCH  16  17
ENDBRANCH  15  16
ENDBRANCH  14  15
ENDBRANCH  13  14
ENDBRANCH  12  13
ENDBRANCH  11  12
ENDBRANCH   1  11
TORSDOF 15
ENDMDL
MODEL 4
REMARK VINA RESULT:    -3.997      2.024      2.579
REMARK INTER + INTRA:          -8.603
REMARK INTER:                  -7.536
REMARK INTRA:                  -1.066
REMARK UNBOUND:                -1.101
REMARK SMILES O=C([O-])CCCCCCCCCCCCCCC(=O)[O-]
REMARK SMILES IDX 10 1 9 2 8 3 7 4 6 5 5 6 4 7 2 8 1 9 3 10 11 11 12 12 13 13
REMARK SMILES IDX 14 14 15 15 16 16 17 17 18 18 19 19 20 20
REMARK H PARENT
REMARK Flexibility Score: inf
ROOT
ATOM      1  C   UNL     1     152.556 134.800 165.696  1.00  0.00     0.000 C 
ENDROOT
BRANCH   1   2
ATOM      2  C   UNL     1     151.632 133.978 166.607  1.00  0.00     0.000 C 
BRANCH   2   3
ATOM      3  C   UNL     1     150.675 133.071 165.812  1.00  0.00     0.000 C 
BRANCH   3   4
ATOM      4  C   UNL     1     150.938 133.115 164.298  1.00  0.00     0.000 C 
BRANCH   4   5
ATOM      5  C   UNL     1     149.974 132.213 163.507  1.00  0.00     0.000 C 
BRANCH   5   6
ATOM      6  C   UNL     1     148.499 132.575 163.742  1.00  0.00     0.006 C 
BRANCH   6   7
ATOM      7  C   UNL     1     147.880 133.337 162.562  1.00  0.00     0.053 C 
BRANCH   7   8
ATOM      8  C   UNL     1     146.695 132.597 162.027  1.00  0.00     0.041 C 
ATOM      9  O   UNL     1     146.572 132.410 160.788  1.00  0.00    -0.550 OA
ATOM     10  O   UNL     1     145.701 132.156 162.892  1.00  0.00    -0.550 OA
ENDBRANCH   7   8
ENDBRANCH   6   7
ENDBRANCH   5   6
ENDBRANCH   4   5
ENDBRANCH   3   4
ENDBRANCH   2   3
ENDBRANCH   1   2
BRANCH   1  11
ATOM     11  C   UNL     1     154.035 134.402 165.845  1.00  0.00     0.000 C 
BRANCH  11  12
ATOM     12  C   UNL     1     154.399 133.154 165.023  1.00  0.00     0.000 C 
BRANCH  12  13
ATOM     13  C   UNL     1     154.848 131.977 165.906  1.00  0.00     0.000 C 
BRANCH  13  14
ATOM     14  C   UNL     1     155.639 132.432 167.145  1.00  0.00     0.000 C 
BRANCH  14  15
ATOM     15  C   UNL     1     157.167 132.250 167.047  1.00  0.00     0.000 C 
BRANCH  15  16
ATOM     16  C   UNL     1     157.964 133.134 168.030  1.00  0.00     0.006 C 
BRANCH  16  17
ATOM     17  C   UNL     1     157.794 132.684 169.487  1.00  0.00     0.053 C 
BRANCH  17  18
ATOM     18  C   UNL     1     157.241 133.799 170.317  1.00  0.00     0.041 C 
ATOM     19  O   UNL     1     156.359 134.564 169.846  1.00  0.00    -0.550 OA
ATOM     20  O   UNL     1     157.734 134.022 171.596  1.00  0.00    -0.550 OA
ENDBRANCH  17  18
ENDBRANCH  16  17
ENDBRANCH  15  16
ENDBRANCH  14  15
ENDBRANCH  13  14
ENDBRANCH  12  13
ENDBRANCH  11  12
ENDBRANCH   1  11
TORSDOF 15
ENDMDL
MODEL 5
REMARK VINA RESULT:    -3.971      1.406      9.247
REMARK INTER + INTRA:          -8.554
REMARK INTER:                  -7.626
REMARK INTRA:                  -0.928
REMARK UNBOUND:                -1.101
REMARK SMILES O=C([O-])CCCCCCCCCCCCCCC(=O)[O-]
REMARK SMILES IDX 10 1 9 2 8 3 7 4 6 5 5 6 4 7 2 8 1 9 3 10 11 11 12 12 13 13
REMARK SMILES IDX 14 14 15 15 16 16 17 17 18 18 19 19 20 20
REMARK H PARENT
REMARK Flexibility Score: inf
ROOT
ATOM      1  C   UNL     1     153.764 132.871 167.232  1.00  0.00     0.000 C 
ENDROOT
BRANCH   1   2
ATOM      2  C   UNL     1     154.941 132.758 168.214  1.00  0.00     0.000 C 
BRANCH   2   3
ATOM      3  C   UNL     1     156.302 132.701 167.498  1.00  0.00     0.000 C 
BRANCH   3   4
ATOM      4  C   UNL     1     157.228 133.862 167.894  1.00  0.00     0.000 C 
BRANCH   4   5
ATOM      5  C   UNL     1     156.630 135.237 167.546  1.00  0.00     0.000 C 
BRANCH   5   6
ATOM      6  C   UNL     1     156.652 136.209 168.736  1.00  0.00     0.006 C 
BRANCH   6   7
ATOM      7  C   UNL     1     155.935 137.532 168.434  1.00  0.00     0.053 C 
BRANCH   7   8
ATOM      8  C   UNL     1     156.555 138.203 167.248  1.00  0.00     0.041 C 
ATOM      9  O   UNL     1     157.731 138.647 167.316  1.00  0.00    -0.550 OA
ATOM     10  O   UNL     1     155.817 138.380 166.084  1.00  0.00    -0.550 OA
ENDBRANCH   7   8
ENDBRANCH   6   7
ENDBRANCH   5   6
ENDBRANCH   4   5
ENDBRANCH   3   4
ENDBRANCH   2   3
ENDBRANCH   1   2
BRANCH   1  11
ATOM     11  C   UNL     1     153.929 131.955 166.007  1.00  0.00     0.000 C 
BRANCH  11  12
ATOM     12  C   UNL     1     153.811 132.716 164.676  1.00  0.00     0.000 C 
BRANCH  12  13
ATOM     13  C   UNL     1     152.893 132.003 163.669  1.00  0.00     0.000 C 
BRANCH  13  14
ATOM     14  C   UNL     1     151.444 131.877 164.171  1.00  0.00     0.000 C 
BRANCH  14  15
ATOM     15  C   UNL     1     150.578 133.139 163.989  1.00  0.00     0.000 C 
BRANCH  15  16
ATOM     16  C   UNL     1     149.654 133.089 162.754  1.00  0.00     0.006 C 
BRANCH  16  17
ATOM     17  C   UNL     1     148.170 133.014 163.139  1.00  0.00     0.053 C 
BRANCH  17  18
ATOM     18  C   UNL     1     147.327 133.684 162.101  1.00  0.00     0.041 C 
ATOM     19  O   UNL     1     146.611 134.673 162.407  1.00  0.00    -0.550 OA
ATOM     20  O   UNL     1     147.296 133.186 160.805  1.00  0.00    -0.550 OA
ENDBRANCH  17  18
ENDBRANCH  16  17
ENDBRANCH  15  16
ENDBRANCH  14  15
ENDBRANCH  13  14
ENDBRANCH  12  13
ENDBRANCH  11  12
ENDBRANCH   1  11
TORSDOF 15
ENDMDL
MODEL 6
REMARK VINA RESULT:    -3.933      3.745      9.023
REMARK INTER + INTRA:          -8.483
REMARK INTER:                  -6.854
REMARK INTRA:                  -1.629
REMARK UNBOUND:                -1.101
REMARK SMILES O=C([O-])CCCCCCCCCCCCCCC(=O)[O-]
REMARK SMILES IDX 10 1 9 2 8 3 7 4 6 5 5 6 4 7 2 8 1 9 3 10 11 11 12 12 13 13
REMARK SMILES IDX 14 14 15 15 16 16 17 17 18 18 19 19 20 20
REMARK H PARENT
REMARK Flexibility Score: inf
ROOT
ATOM      1  C   UNL     1     157.370 133.754 170.017  1.00  0.00     0.000 C 
ENDROOT
BRANCH   1   2
ATOM      2  C   UNL     1     155.846 133.936 170.081  1.00  0.00     0.000 C 
BRANCH   2   3
ATOM      3  C   UNL     1     155.377 135.232 169.396  1.00  0.00     0.000 C 
BRANCH   3   4
ATOM      4  C   UNL     1     156.547 136.091 168.889  1.00  0.00     0.000 C 
BRANCH   4   5
ATOM      5  C   UNL     1     156.361 136.536 167.428  1.00  0.00     0.000 C 
BRANCH   5   6
ATOM      6  C   UNL     1     156.972 137.917 167.148  1.00  0.00     0.006 C 
BRANCH   6   7
ATOM      7  C   UNL     1     157.168 138.748 168.423  1.00  0.00     0.053 C 
BRANCH   7   8
ATOM      8  C   UNL     1     156.986 140.204 168.130  1.00  0.00     0.041 C 
ATOM      9  O   UNL     1     157.049 140.624 166.944  1.00  0.00    -0.550 OA
ATOM     10  O   UNL     1     156.796 141.105 169.170  1.00  0.00    -0.550 OA
ENDBRANCH   7   8
ENDBRANCH   6   7
ENDBRANCH   5   6
ENDBRANCH   4   5
ENDBRANCH   3   4
ENDBRANCH   2   3
ENDBRANCH   1   2
BRANCH   1  11
ATOM     11  C   UNL     1     157.789 132.634 169.050  1.00  0.00     0.000 C 
BRANCH  11  12
ATOM     12  C   UNL     1     157.771 133.081 167.579  1.00  0.00     0.000 C 
BRANCH  12  13
ATOM     13  C   UNL     1     157.041 132.080 166.667  1.00  0.00     0.000 C 
BRANCH  13  14
ATOM     14  C   UNL     1     155.511 132.153 166.808  1.00  0.00     0.000 C 
BRANCH  14  15
ATOM     15  C   UNL     1     154.858 133.407 166.192  1.00  0.00     0.000 C 
BRANCH  15  16
ATOM     16  C   UNL     1     154.258 133.172 164.790  1.00  0.00     0.006 C 
BRANCH  16  17
ATOM     17  C   UNL     1     153.327 131.953 164.752  1.00  0.00     0.053 C 
BRANCH  17  18
ATOM     18  C   UNL     1     151.897 132.388 164.732  1.00  0.00     0.041 C 
ATOM     19  O   UNL     1     151.265 132.444 163.644  1.00  0.00    -0.550 OA
ATOM     20  O   UNL     1     151.273 132.778 165.911  1.00  0.00    -0.550 OA
ENDBRANCH  17  18
ENDBRANCH  16  17
ENDBRANCH  15  16
ENDBRANCH  14  15
ENDBRANCH  13  14
ENDBRANCH  12  13
ENDBRANCH  11  12
ENDBRANCH   1  11
TORSDOF 15
ENDMDL
MODEL 7
REMARK VINA RESULT:    -3.924      5.841      8.236
REMARK INTER + INTRA:          -8.466
REMARK INTER:                  -6.745
REMARK INTRA:                  -1.721
REMARK UNBOUND:                -1.101
REMARK SMILES O=C([O-])CCCCCCCCCCCCCCC(=O)[O-]
REMARK SMILES IDX 10 1 9 2 8 3 7 4 6 5 5 6 4 7 2 8 1 9 3 10 11 11 12 12 13 13
REMARK SMILES IDX 14 14 15 15 16 16 17 17 18 18 19 19 20 20
REMARK H PARENT
REMARK Flexibility Score: inf
ROOT
ATOM      1  C   UNL     1     153.965 135.408 167.367  1.00  0.00     0.000 C 
ENDROOT
BRANCH   1   2
ATOM      2  C   UNL     1     155.047 135.911 166.399  1.00  0.00     0.000 C 
BRANCH   2   3
ATOM      3  C   UNL     1     156.365 136.257 167.116  1.00  0.00     0.000 C 
BRANCH   3   4
ATOM      4  C   UNL     1     156.154 137.172 168.333  1.00  0.00     0.000 C 
BRANCH   4   5
ATOM      5  C   UNL     1     157.379 138.057 168.623  1.00  0.00     0.000 C 
BRANCH   5   6
ATOM      6  C   UNL     1     157.186 139.507 168.153  1.00  0.00     0.006 C 
BRANCH   6   7
ATOM      7  C   UNL     1     157.728 139.749 166.738  1.00  0.00     0.053 C 
BRANCH   7   8
ATOM      8  C   UNL     1     156.629 140.198 165.827  1.00  0.00     0.041 C 
ATOM      9  O   UNL     1     156.062 139.372 165.064  1.00  0.00    -0.550 OA
ATOM     10  O   UNL     1     156.262 141.537 165.787  1.00  0.00    -0.550 OA
ENDBRANCH   7   8
ENDBRANCH   6   7
ENDBRANCH   5   6
ENDBRANCH   4   5
ENDBRANCH   3   4
ENDBRANCH   2   3
ENDBRANCH   1   2
BRANCH   1  11
ATOM     11  C   UNL     1     153.561 133.949 167.092  1.00  0.00     0.000 C 
BRANCH  11  12
ATOM     12  C   UNL     1     153.992 133.468 165.697  1.00  0.00     0.000 C 
BRANCH  12  13
ATOM     13  C   UNL     1     154.952 132.267 165.757  1.00  0.00     0.000 C 
BRANCH  13  14
ATOM     14  C   UNL     1     155.808 132.255 167.035  1.00  0.00     0.000 C 
BRANCH  14  15
ATOM     15  C   UNL     1     157.332 132.267 166.800  1.00  0.00     0.000 C 
BRANCH  15  16
ATOM     16  C   UNL     1     158.125 133.019 167.890  1.00  0.00     0.006 C 
BRANCH  16  17
ATOM     17  C   UNL     1     157.972 132.371 169.273  1.00  0.00     0.053 C 
BRANCH  17  18
ATOM     18  C   UNL     1     157.444 133.364 170.258  1.00  0.00     0.041 C 
ATOM     19  O   UNL     1     156.504 134.137 169.939  1.00  0.00    -0.550 OA
ATOM     20  O   UNL     1     158.022 133.467 171.517  1.00  0.00    -0.550 OA
ENDBRANCH  17  18
ENDBRANCH  16  17
ENDBRANCH  15  16
ENDBRANCH  14  15
ENDBRANCH  13  14
ENDBRANCH  12  13
ENDBRANCH  11  12
ENDBRANCH   1  11
TORSDOF 15
ENDMDL
MODEL 8
REMARK VINA RESULT:    -3.921      1.199      9.663
REMARK INTER + INTRA:          -8.461
REMARK INTER:                  -7.253
REMARK INTRA:                  -1.208
REMARK UNBOUND:                -1.101
REMARK SMILES O=C([O-])CCCCCCCCCCCCCCC(=O)[O-]
REMARK SMILES IDX 10 1 9 2 8 3 7 4 6 5 5 6 4 7 2 8 1 9 3 10 11 11 12 12 13 13
REMARK SMILES IDX 14 14 15 15 16 16 17 17 18 18 19 19 20 20
REMARK H PARENT
REMARK Flexibility Score: inf
ROOT
ATOM      1  C   UNL     1     151.674 134.164 166.262  1.00  0.00     0.000 C 
ENDROOT
BRANCH   1   2
ATOM      2  C   UNL     1     153.192 134.309 166.453  1.00  0.00     0.000 C 
BRANCH   2   3
ATOM      3  C   UNL     1     153.990 133.797 165.240  1.00  0.00     0.000 C 
BRANCH   3   4
ATOM      4  C   UNL     1     154.933 132.637 165.598  1.00  0.00     0.000 C 
BRANCH   4   5
ATOM      5  C   UNL     1     154.819 132.220 167.075  1.00  0.00     0.000 C 
BRANCH   5   6
ATOM      6  C   UNL     1     156.075 132.572 167.887  1.00  0.00     0.006 C 
BRANCH   6   7
ATOM      7  C   UNL     1     155.780 133.530 169.049  1.00  0.00     0.053 C 
BRANCH   7   8
ATOM      8  C   UNL     1     156.419 134.861 168.803  1.00  0.00     0.041 C 
ATOM      9  O   UNL     1     156.761 135.588 169.772  1.00  0.00    -0.550 OA
ATOM     10  O   UNL     1     156.594 135.319 167.503  1.00  0.00    -0.550 OA
ENDBRANCH   7   8
ENDBRANCH   6   7
ENDBRANCH   5   6
ENDBRANCH   4   5
ENDBRANCH   3   4
ENDBRANCH   2   3
ENDBRANCH   1   2
BRANCH   1  11
ATOM     11  C   UNL     1     151.232 132.695 166.159  1.00  0.00     0.000 C 
BRANCH  11  12
ATOM     12  C   UNL     1     151.027 132.237 164.705  1.00  0.00     0.000 C 
BRANCH  12  13
ATOM     13  C   UNL     1     150.603 133.390 163.778  1.00  0.00     0.000 C 
BRANCH  13  14
ATOM     14  C   UNL     1     149.468 132.994 162.819  1.00  0.00     0.000 C 
BRANCH  14  15
ATOM     15  C   UNL     1     148.119 132.683 163.498  1.00  0.00     0.000 C 
BRANCH  15  16
ATOM     16  C   UNL     1     146.986 132.341 162.506  1.00  0.00     0.006 C 
BRANCH  16  17
ATOM     17  C   UNL     1     147.169 133.037 161.151  1.00  0.00     0.053 C 
BRANCH  17  18
ATOM     18  C   UNL     1     145.840 133.317 160.525  1.00  0.00     0.041 C 
ATOM     19  O   UNL     1     145.337 132.499 159.711  1.00  0.00    -0.550 OA
ATOM     20  O   UNL     1     145.178 134.506 160.804  1.00  0.00    -0.550 OA
ENDBRANCH  17  18
ENDBRANCH  16  17
ENDBRANCH  15  16
ENDBRANCH  14  15
ENDBRANCH  13  14
ENDBRANCH  12  13
ENDBRANCH  11  12
ENDBRANCH   1  11
TORSDOF 15
ENDMDL
MODEL 9
REMARK VINA RESULT:    -3.895      1.169      9.595
REMARK INTER + INTRA:          -8.412
REMARK INTER:                  -7.687
REMARK INTRA:                  -0.725
REMARK UNBOUND:                -1.101
REMARK SMILES O=C([O-])CCCCCCCCCCCCCCC(=O)[O-]
REMARK SMILES IDX 10 1 9 2 8 3 7 4 6 5 5 6 4 7 2 8 1 9 3 10 11 11 12 12 13 13
REMARK SMILES IDX 14 14 15 15 16 16 17 17 18 18 19 19 20 20
REMARK H PARENT
REMARK Flexibility Score: inf
ROOT
ATOM      1  C   UNL     1     153.434 132.776 165.090  1.00  0.00     0.000 C 
ENDROOT
BRANCH   1   2
ATOM      2  C   UNL     1     154.665 132.035 165.635  1.00  0.00     0.000 C 
BRANCH   2   3
ATOM      3  C   UNL     1     154.861 132.250 167.146  1.00  0.00     0.000 C 
BRANCH   3   4
ATOM      4  C   UNL     1     156.289 132.695 167.500  1.00  0.00     0.000 C 
BRANCH   4   5
ATOM      5  C   UNL     1     156.372 133.362 168.885  1.00  0.00     0.000 C 
BRANCH   5   6
ATOM      6  C   UNL     1     156.735 134.853 168.802  1.00  0.00     0.006 C 
BRANCH   6   7
ATOM      7  C   UNL     1     156.623 135.412 167.378  1.00  0.00     0.053 C 
BRANCH   7   8
ATOM      8  C   UNL     1     155.263 135.995 167.151  1.00  0.00     0.041 C 
ATOM      9  O   UNL     1     154.752 135.980 166.001  1.00  0.00    -0.550 OA
ATOM     10  O   UNL     1     154.581 136.598 168.200  1.00  0.00    -0.550 OA
ENDBRANCH   7   8
ENDBRANCH   6   7
ENDBRANCH   5   6
ENDBRANCH   4   5
ENDBRANCH   3   4
ENDBRANCH   2   3
ENDBRANCH   1   2
BRANCH   1  11
ATOM     11  C   UNL     1     152.902 132.153 163.787  1.00  0.00     0.000 C 
BRANCH  11  12
ATOM     12  C   UNL     1     151.382 131.926 163.816  1.00  0.00     0.000 C 
BRANCH  12  13
ATOM     13  C   UNL     1     150.587 133.239 163.717  1.00  0.00     0.000 C 
BRANCH  13  14
ATOM     14  C   UNL     1     149.144 133.101 164.233  1.00  0.00     0.000 C 
BRANCH  14  15
ATOM     15  C   UNL     1     148.212 132.250 163.348  1.00  0.00     0.000 C 
BRANCH  15  16
ATOM     16  C   UNL     1     147.533 133.046 162.213  1.00  0.00     0.006 C 
BRANCH  16  17
ATOM     17  C   UNL     1     146.492 132.209 161.457  1.00  0.00     0.053 C 
BRANCH  17  18
ATOM     18  C   UNL     1     145.192 132.943 161.376  1.00  0.00     0.041 C 
ATOM     19  O   UNL     1     145.177 134.194 161.233  1.00  0.00    -0.550 OA
ATOM     20  O   UNL     1     143.994 132.250 161.504  1.00  0.00    -0.550 OA
ENDBRANCH  17  18
ENDBRANCH  16  17
ENDBRANCH  15  16
ENDBRANCH  14  15
ENDBRANCH  13  14
ENDBRANCH  12  13
ENDBRANCH  11  12
ENDBRANCH   1  11
TORSDOF 15
ENDMDL
