MODEL 1
REMARK VINA RESULT:    -3.180      0.000      0.000
REMARK INTER + INTRA:          -6.944
REMARK INTER:                  -5.783
REMARK INTRA:                  -1.161
REMARK UNBOUND:                -1.161
REMARK SMILES CCCCCCCCCCCCCC[C@H](C)C(=O)[O-]
REMARK SMILES IDX 9 1 10 2 11 3 12 4 13 5 14 6 15 7 16 8 17 9 18 10 19 11 8 12
REMARK SMILES IDX 7 13 6 14 5 15 4 16 3 17 2 18 1 19
REMARK H PARENT
REMARK Flexibility Score: inf
ROOT
ATOM      1  C   UNL     1      -8.830   7.243   4.330  1.00  0.00     0.000 C 
ENDROOT
BRANCH   1   2
ATOM      2  C   UNL     1      -9.392   6.367   5.464  1.00  0.00     0.000 C 
BRANCH   2   3
ATOM      3  C   UNL     1      -8.473   6.215   6.694  1.00  0.00     0.000 C 
BRANCH   3   4
ATOM      4  C   UNL     1      -9.150   6.442   8.058  1.00  0.00     0.000 C 
BRANCH   4   5
ATOM      5  C   UNL     1      -8.366   7.406   8.963  1.00  0.00     0.001 C 
BRANCH   5   6
ATOM      6  C   UNL     1      -7.011   7.823   8.364  1.00  0.00     0.009 C 
BRANCH   6   7
ATOM      7  C   UNL     1      -5.812   7.633   9.333  1.00  0.00     0.032 C 
ATOM      8  C   UNL     1      -4.689   8.642   9.051  1.00  0.00     0.014 C 
BRANCH   7   9
ATOM      9  C   UNL     1      -5.259   6.237   9.227  1.00  0.00     0.044 C 
ATOM     10  O   UNL     1      -4.127   6.041   8.713  1.00  0.00    -0.550 OA
ATOM     11  O   UNL     1      -5.996   5.154   9.693  1.00  0.00    -0.550 OA
ENDBRANCH   7   9
ENDBRANCH   6   7
ENDBRANCH   5   6
ENDBRANCH   4   5
ENDBRANCH   3   4
ENDBRANCH   2   3
ENDBRANCH   1   2
BRANCH   1  12
ATOM     12  C   UNL     1      -8.082   8.481   4.848  1.00  0.00     0.000 C 
BRANCH  12  13
ATOM     13  C   UNL     1      -8.419   9.718   4.001  1.00  0.00    -0.000 C 
BRANCH  13  14
ATOM     14  C   UNL     1      -9.804   9.627   3.340  1.00  0.00    -0.000 C 
BRANCH  14  15
ATOM     15  C   UNL     1      -9.768   9.979   1.843  1.00  0.00    -0.000 C 
BRANCH  15  16
ATOM     16  C   UNL     1      -8.558   9.362   1.122  1.00  0.00    -0.000 C 
BRANCH  16  17
ATOM     17  C   UNL     1      -8.440   9.823  -0.342  1.00  0.00    -0.000 C 
BRANCH  17  18
ATOM     18  C   UNL     1      -9.265   8.950  -1.301  1.00  0.00    -0.003 C 
ATOM     19  C   UNL     1      -9.506   9.624  -2.651  1.00  0.00     0.004 C 
ENDBRANCH  17  18
ENDBRANCH  16  17
ENDBRANCH  15  16
ENDBRANCH  14  15
ENDBRANCH  13  14
ENDBRANCH  12  13
ENDBRANCH   1  12
TORSDOF 14
ENDMDL
MODEL 2
REMARK VINA RESULT:    -2.943      2.680      6.543
REMARK INTER + INTRA:          -6.512
REMARK INTER:                  -4.805
REMARK INTRA:                  -1.707
REMARK UNBOUND:                -1.161
REMARK SMILES CCCCCCCCCCCCCC[C@H](C)C(=O)[O-]
REMARK SMILES IDX 9 1 10 2 11 3 12 4 13 5 14 6 15 7 16 8 17 9 18 10 19 11 8 12
REMARK SMILES IDX 7 13 6 14 5 15 4 16 3 17 2 18 1 19
REMARK H PARENT
REMARK Flexibility Score: inf
ROOT
ATOM      1  C   UNL     1      -6.899   9.635   3.460  1.00  0.00     0.000 C 
ENDROOT
BRANCH   1   2
ATOM      2  C   UNL     1      -8.388   9.308   3.671  1.00  0.00     0.000 C 
BRANCH   2   3
ATOM      3  C   UNL     1      -8.855   7.960   3.084  1.00  0.00     0.000 C 
BRANCH   3   4
ATOM      4  C   UNL     1     -10.105   7.349   3.743  1.00  0.00     0.000 C 
BRANCH   4   5
ATOM      5  C   UNL     1      -9.770   6.214   4.725  1.00  0.00     0.001 C 
BRANCH   5   6
ATOM      6  C   UNL     1      -9.050   6.708   5.992  1.00  0.00     0.009 C 
BRANCH   6   7
ATOM      7  C   UNL     1     -10.002   6.981   7.189  1.00  0.00     0.032 C 
ATOM      8  C   UNL     1     -10.083   8.478   7.520  1.00  0.00     0.014 C 
BRANCH   7   9
ATOM      9  C   UNL     1      -9.548   6.229   8.411  1.00  0.00     0.044 C 
ATOM     10  O   UNL     1      -9.112   5.053   8.306  1.00  0.00    -0.550 OA
ATOM     11  O   UNL     1      -9.610   6.827   9.665  1.00  0.00    -0.550 OA
ENDBRANCH   7   9
ENDBRANCH   6   7
ENDBRANCH   5   6
ENDBRANCH   4   5
ENDBRANCH   3   4
ENDBRANCH   2   3
ENDBRANCH   1   2
BRANCH   1  12
ATOM     12  C   UNL     1      -6.208  10.124   4.742  1.00  0.00     0.000 C 
BRANCH  12  13
ATOM     13  C   UNL     1      -6.952   9.627   5.990  1.00  0.00    -0.000 C 
BRANCH  13  14
ATOM     14  C   UNL     1      -6.249  10.024   7.299  1.00  0.00    -0.000 C 
BRANCH  14  15
ATOM     15  C   UNL     1      -6.287   8.904   8.352  1.00  0.00    -0.000 C 
BRANCH  15  16
ATOM     16  C   UNL     1      -5.014   8.863   9.214  1.00  0.00    -0.000 C 
BRANCH  16  17
ATOM     17  C   UNL     1      -4.498   7.431   9.444  1.00  0.00    -0.000 C 
BRANCH  17  18
ATOM     18  C   UNL     1      -5.494   6.364   8.962  1.00  0.00    -0.003 C 
ATOM     19  C   UNL     1      -6.279   5.729  10.109  1.00  0.00     0.004 C 
ENDBRANCH  17  18
ENDBRANCH  16  17
ENDBRANCH  15  16
ENDBRANCH  14  15
ENDBRANCH  13  14
ENDBRANCH  12  13
ENDBRANCH   1  12
TORSDOF 14
ENDMDL
MODEL 3
REMARK VINA RESULT:    -2.839      1.427      2.111
REMARK INTER + INTRA:          -6.322
REMARK INTER:                  -5.646
REMARK INTRA:                  -0.676
REMARK UNBOUND:                -1.161
REMARK SMILES CCCCCCCCCCCCCC[C@H](C)C(=O)[O-]
REMARK SMILES IDX 9 1 10 2 11 3 12 4 13 5 14 6 15 7 16 8 17 9 18 10 19 11 8 12
REMARK SMILES IDX 7 13 6 14 5 15 4 16 3 17 2 18 1 19
REMARK H PARENT
REMARK Flexibility Score: inf
ROOT
ATOM      1  C   UNL     1      -8.094   7.624   3.495  1.00  0.00     0.000 C 
ENDROOT
BRANCH   1   2
ATOM      2  C   UNL     1      -9.303   7.666   4.446  1.00  0.00     0.000 C 
BRANCH   2   3
ATOM      3  C   UNL     1      -8.972   7.992   5.917  1.00  0.00     0.000 C 
BRANCH   3   4
ATOM      4  C   UNL     1      -9.713   7.143   6.966  1.00  0.00     0.000 C 
BRANCH   4   5
ATOM      5  C   UNL     1      -8.919   5.901   7.401  1.00  0.00     0.001 C 
BRANCH   5   6
ATOM      6  C   UNL     1      -7.395   6.109   7.337  1.00  0.00     0.009 C 
BRANCH   6   7
ATOM      7  C   UNL     1      -6.655   5.725   8.647  1.00  0.00     0.032 C 
ATOM      8  C   UNL     1      -7.637   5.459   9.797  1.00  0.00     0.014 C 
BRANCH   7   9
ATOM      9  C   UNL     1      -5.700   6.815   9.057  1.00  0.00     0.044 C 
ATOM     10  O   UNL     1      -5.979   8.020   8.831  1.00  0.00    -0.550 OA
ATOM     11  O   UNL     1      -4.501   6.495   9.685  1.00  0.00    -0.550 OA
ENDBRANCH   7   9
ENDBRANCH   6   7
ENDBRANCH   5   6
ENDBRANCH   4   5
ENDBRANCH   3   4
ENDBRANCH   2   3
ENDBRANCH   1   2
BRANCH   1  12
ATOM     12  C   UNL     1      -7.156   8.827   3.669  1.00  0.00     0.000 C 
BRANCH  12  13
ATOM     13  C   UNL     1      -7.529   9.958   2.698  1.00  0.00    -0.000 C 
BRANCH  13  14
ATOM     14  C   UNL     1      -8.783   9.638   1.868  1.00  0.00    -0.000 C 
BRANCH  14  15
ATOM     15  C   UNL     1      -8.602   9.964   0.375  1.00  0.00    -0.000 C 
BRANCH  15  16
ATOM     16  C   UNL     1      -9.942  10.052  -0.375  1.00  0.00    -0.000 C 
BRANCH  16  17
ATOM     17  C   UNL     1      -9.775   9.952  -1.902  1.00  0.00    -0.000 C 
BRANCH  17  18
ATOM     18  C   UNL     1     -10.017   8.528  -2.427  1.00  0.00    -0.003 C 
ATOM     19  C   UNL     1     -10.125   7.496  -1.305  1.00  0.00     0.004 C 
ENDBRANCH  17  18
ENDBRANCH  16  17
ENDBRANCH  15  16
ENDBRANCH  14  15
ENDBRANCH  13  14
ENDBRANCH  12  13
ENDBRANCH   1  12
TORSDOF 14
ENDMDL
MODEL 4
REMARK VINA RESULT:    -2.649      1.867      2.350
REMARK INTER + INTRA:          -5.978
REMARK INTER:                  -5.159
REMARK INTRA:                  -0.819
REMARK UNBOUND:                -1.161
REMARK SMILES CCCCCCCCCCCCCC[C@H](C)C(=O)[O-]
REMARK SMILES IDX 9 1 10 2 11 3 12 4 13 5 14 6 15 7 16 8 17 9 18 10 19 11 8 12
REMARK SMILES IDX 7 13 6 14 5 15 4 16 3 17 2 18 1 19
REMARK H PARENT
REMARK Flexibility Score: inf
ROOT
ATOM      1  C   UNL     1      -8.817   7.371   3.618  1.00  0.00     0.000 C 
ENDROOT
BRANCH   1   2
ATOM      2  C   UNL     1      -8.655   7.189   5.138  1.00  0.00     0.000 C 
BRANCH   2   3
ATOM      3  C   UNL     1      -7.863   8.303   5.853  1.00  0.00     0.000 C 
BRANCH   3   4
ATOM      4  C   UNL     1      -8.337   8.643   7.278  1.00  0.00     0.000 C 
BRANCH   4   5
ATOM      5  C   UNL     1      -7.412   8.078   8.367  1.00  0.00     0.001 C 
BRANCH   5   6
ATOM      6  C   UNL     1      -7.136   6.573   8.200  1.00  0.00     0.009 C 
BRANCH   6   7
ATOM      7  C   UNL     1      -7.362   5.746   9.495  1.00  0.00     0.032 C 
ATOM      8  C   UNL     1      -6.057   5.117  10.002  1.00  0.00     0.014 C 
BRANCH   7   9
ATOM      9  C   UNL     1      -8.375   4.657   9.260  1.00  0.00     0.044 C 
ATOM     10  O   UNL     1      -9.450   4.911   8.657  1.00  0.00    -0.550 OA
ATOM     11  O   UNL     1      -8.132   3.364   9.711  1.00  0.00    -0.550 OA
ENDBRANCH   7   9
ENDBRANCH   6   7
ENDBRANCH   5   6
ENDBRANCH   4   5
ENDBRANCH   3   4
ENDBRANCH   2   3
ENDBRANCH   1   2
BRANCH   1  12
ATOM     12  C   UNL     1      -7.562   7.950   2.950  1.00  0.00     0.000 C 
BRANCH  12  13
ATOM     13  C   UNL     1      -7.793   9.406   2.516  1.00  0.00    -0.000 C 
BRANCH  13  14
ATOM     14  C   UNL     1      -9.175   9.937   2.932  1.00  0.00    -0.000 C 
BRANCH  14  15
ATOM     15  C   UNL     1     -10.120  10.125   1.733  1.00  0.00    -0.000 C 
BRANCH  15  16
ATOM     16  C   UNL     1      -9.538   9.554   0.430  1.00  0.00    -0.000 C 
BRANCH  16  17
ATOM     17  C   UNL     1     -10.001   8.112   0.154  1.00  0.00    -0.000 C 
BRANCH  17  18
ATOM     18  C   UNL     1     -10.041   7.784  -1.347  1.00  0.00    -0.003 C 
ATOM     19  C   UNL     1      -9.486   8.914  -2.212  1.00  0.00     0.004 C 
ENDBRANCH  17  18
ENDBRANCH  16  17
ENDBRANCH  15  16
ENDBRANCH  14  15
ENDBRANCH  13  14
ENDBRANCH  12  13
ENDBRANCH   1  12
TORSDOF 14
ENDMDL
MODEL 5
REMARK VINA RESULT:    -2.134      2.328      4.573
REMARK INTER + INTRA:          -5.041
REMARK INTER:                  -3.949
REMARK INTRA:                  -1.092
REMARK UNBOUND:                -1.161
REMARK SMILES CCCCCCCCCCCCCC[C@H](C)C(=O)[O-]
REMARK SMILES IDX 9 1 10 2 11 3 12 4 13 5 14 6 15 7 16 8 17 9 18 10 19 11 8 12
REMARK SMILES IDX 7 13 6 14 5 15 4 16 3 17 2 18 1 19
REMARK H PARENT
REMARK Flexibility Score: inf
ROOT
ATOM      1  C   UNL     1      -9.680   7.882   2.900  1.00  0.00     0.000 C 
ENDROOT
BRANCH   1   2
ATOM      2  C   UNL     1     -10.121   7.471   4.316  1.00  0.00     0.000 C 
BRANCH   2   3
ATOM      3  C   UNL     1     -10.036   8.585   5.380  1.00  0.00     0.000 C 
BRANCH   3   4
ATOM      4  C   UNL     1      -9.756   8.108   6.817  1.00  0.00     0.000 C 
BRANCH   4   5
ATOM      5  C   UNL     1      -9.936   6.592   6.990  1.00  0.00     0.001 C 
BRANCH   5   6
ATOM      6  C   UNL     1     -10.039   6.163   8.465  1.00  0.00     0.009 C 
BRANCH   6   7
ATOM      7  C   UNL     1      -9.038   5.044   8.864  1.00  0.00     0.032 C 
ATOM      8  C   UNL     1      -9.661   4.056   9.861  1.00  0.00     0.014 C 
BRANCH   7   9
ATOM      9  C   UNL     1      -7.792   5.635   9.468  1.00  0.00     0.044 C 
ATOM     10  O   UNL     1      -6.736   4.955   9.534  1.00  0.00    -0.550 OA
ATOM     11  O   UNL     1      -7.801   6.936   9.960  1.00  0.00    -0.550 OA
ENDBRANCH   7   9
ENDBRANCH   6   7
ENDBRANCH   5   6
ENDBRANCH   4   5
ENDBRANCH   3   4
ENDBRANCH   2   3
ENDBRANCH   1   2
BRANCH   1  12
ATOM     12  C   UNL     1      -9.791   9.395   2.656  1.00  0.00     0.000 C 
BRANCH  12  13
ATOM     13  C   UNL     1      -8.400  10.027   2.496  1.00  0.00    -0.000 C 
BRANCH  13  14
ATOM     14  C   UNL     1      -7.260   9.019   2.717  1.00  0.00    -0.000 C 
BRANCH  14  15
ATOM     15  C   UNL     1      -5.895   9.704   2.902  1.00  0.00    -0.000 C 
BRANCH  15  16
ATOM     16  C   UNL     1      -5.639  10.123   4.360  1.00  0.00    -0.000 C 
BRANCH  16  17
ATOM     17  C   UNL     1      -6.882   9.955   5.252  1.00  0.00    -0.000 C 
BRANCH  17  18
ATOM     18  C   UNL     1      -6.542  10.007   6.750  1.00  0.00    -0.003 C 
ATOM     19  C   UNL     1      -6.543   8.625   7.402  1.00  0.00     0.004 C 
ENDBRANCH  17  18
ENDBRANCH  16  17
ENDBRANCH  15  16
ENDBRANCH  14  15
ENDBRANCH  13  14
ENDBRANCH  12  13
ENDBRANCH   1  12
TORSDOF 14
ENDMDL
MODEL 6
REMARK VINA RESULT:    -0.307      2.062      5.869
REMARK INTER + INTRA:          -1.718
REMARK INTER:                  -2.648
REMARK INTRA:                   0.929
REMARK UNBOUND:                -1.161
REMARK SMILES CCCCCCCCCCCCCC[C@H](C)C(=O)[O-]
REMARK SMILES IDX 9 1 10 2 11 3 12 4 13 5 14 6 15 7 16 8 17 9 18 10 19 11 8 12
REMARK SMILES IDX 7 13 6 14 5 15 4 16 3 17 2 18 1 19
REMARK H PARENT
REMARK Flexibility Score: inf
ROOT
ATOM      1  C   UNL     1      -8.262   8.737   2.031  1.00  0.00     0.000 C 
ENDROOT
BRANCH   1   2
ATOM      2  C   UNL     1      -9.646   8.076   2.159  1.00  0.00     0.000 C 
BRANCH   2   3
ATOM      3  C   UNL     1      -9.631   6.600   2.609  1.00  0.00     0.000 C 
BRANCH   3   4
ATOM      4  C   UNL     1     -10.100   6.343   4.052  1.00  0.00     0.000 C 
BRANCH   4   5
ATOM      5  C   UNL     1      -8.966   6.469   5.082  1.00  0.00     0.001 C 
BRANCH   5   6
ATOM      6  C   UNL     1      -9.474   6.788   6.500  1.00  0.00     0.009 C 
BRANCH   6   7
ATOM      7  C   UNL     1      -9.177   5.671   7.538  1.00  0.00     0.032 C 
ATOM      8  C   UNL     1      -9.932   5.905   8.854  1.00  0.00     0.014 C 
BRANCH   7   9
ATOM      9  C   UNL     1      -7.701   5.589   7.823  1.00  0.00     0.044 C 
ATOM     10  O   UNL     1      -6.869   6.023   6.985  1.00  0.00    -0.550 OA
ATOM     11  O   UNL     1      -7.248   5.030   9.013  1.00  0.00    -0.550 OA
ENDBRANCH   7   9
ENDBRANCH   6   7
ENDBRANCH   5   6
ENDBRANCH   4   5
ENDBRANCH   3   4
ENDBRANCH   2   3
ENDBRANCH   1   2
BRANCH   1  12
ATOM     12  C   UNL     1      -7.873   9.552   3.273  1.00  0.00     0.000 C 
BRANCH  12  13
ATOM     13  C   UNL     1      -7.516   8.626   4.446  1.00  0.00    -0.000 C 
BRANCH  13  14
ATOM     14  C   UNL     1      -7.640   9.323   5.811  1.00  0.00    -0.000 C 
BRANCH  14  15
ATOM     15  C   UNL     1      -6.373  10.110   6.189  1.00  0.00    -0.000 C 
BRANCH  15  16
ATOM     16  C   UNL     1      -6.119  10.124   7.706  1.00  0.00    -0.000 C 
BRANCH  16  17
ATOM     17  C   UNL     1      -5.889   8.715   8.282  1.00  0.00    -0.000 C 
BRANCH  17  18
ATOM     18  C   UNL     1      -4.650   8.646   9.189  1.00  0.00    -0.003 C 
ATOM     19  C   UNL     1      -4.424   7.252   9.773  1.00  0.00     0.004 C 
ENDBRANCH  17  18
ENDBRANCH  16  17
ENDBRANCH  15  16
ENDBRANCH  14  15
ENDBRANCH  13  14
ENDBRANCH  12  13
ENDBRANCH   1  12
TORSDOF 14
ENDMDL
