MODEL 1
REMARK VINA RESULT:    -5.275      0.000      0.000
REMARK INTER + INTRA:          -5.803
REMARK INTER:                  -5.738
REMARK INTRA:                  -0.065
REMARK UNBOUND:                -0.065
REMARK SMILES COc1cc2ccc(=O)oc2cc1O
REMARK SMILES IDX 3 1 13 2 12 3 11 4 5 5 4 6 6 7 7 8 8 9 9 10 10 11 2 12 1 13
REMARK SMILES IDX 14 14
REMARK H PARENT 14 15
REMARK Flexibility Score: inf
ROOT
ATOM      1  C   UNL     1      19.795  18.917   7.636  1.00  0.00     0.161 A 
ATOM      2  C   UNL     1      19.068  18.979   8.834  1.00  0.00     0.161 A 
ATOM      3  C   UNL     1      19.723  18.851  10.067  1.00  0.00     0.098 A 
ATOM      4  C   UNL     1      21.107  18.659  10.114  1.00  0.00     0.142 A 
ATOM      5  C   UNL     1      21.845  18.595   8.913  1.00  0.00     0.022 A 
ATOM      6  C   UNL     1      21.192  18.724   7.680  1.00  0.00     0.062 A 
ATOM      7  C   UNL     1      23.228  18.403   8.992  1.00  0.00     0.019 A 
ATOM      8  C   UNL     1      23.833  18.281  10.243  1.00  0.00     0.094 A 
ATOM      9  C   UNL     1      23.036  18.354  11.390  1.00  0.00     0.336 A 
ATOM     10  O   UNL     1      23.562  18.246  12.529  1.00  0.00    -0.246 OA
ATOM     11  O   UNL     1      21.722  18.538  11.287  1.00  0.00    -0.423 OA
ENDROOT
BRANCH   1  12
ATOM     12  O   UNL     1      19.098  19.051   6.424  1.00  0.00    -0.493 OA
ATOM     13  C   UNL     1      18.725  17.963   5.584  1.00  0.00     0.278 C 
ENDBRANCH   1  12
BRANCH   2  14
ATOM     14  O   UNL     1      17.688  19.170   8.791  1.00  0.00    -0.504 OA
ATOM     15  H   UNL     1      17.244  19.666   8.028  1.00  0.00     0.293 HD
ENDBRANCH   2  14
TORSDOF 2
ENDMDL
MODEL 2
REMARK VINA RESULT:    -4.921      1.502      5.410
REMARK INTER + INTRA:          -5.417
REMARK INTER:                  -5.433
REMARK INTRA:                   0.016
REMARK UNBOUND:                -0.065
REMARK SMILES COc1cc2ccc(=O)oc2cc1O
REMARK SMILES IDX 3 1 13 2 12 3 11 4 5 5 4 6 6 7 7 8 8 9 9 10 10 11 2 12 1 13
REMARK SMILES IDX 14 14
REMARK H PARENT 14 15
REMARK Flexibility Score: inf
ROOT
ATOM      1  C   UNL     1      22.299  18.246  10.553  1.00  0.00     0.161 A 
ATOM      2  C   UNL     1      23.266  18.360   9.542  1.00  0.00     0.161 A 
ATOM      3  C   UNL     1      22.878  18.570   8.211  1.00  0.00     0.098 A 
ATOM      4  C   UNL     1      21.524  18.667   7.879  1.00  0.00     0.142 A 
ATOM      5  C   UNL     1      20.546  18.554   8.889  1.00  0.00     0.022 A 
ATOM      6  C   UNL     1      20.932  18.345  10.220  1.00  0.00     0.062 A 
ATOM      7  C   UNL     1      19.199  18.656   8.525  1.00  0.00     0.019 A 
ATOM      8  C   UNL     1      18.864  18.865   7.188  1.00  0.00     0.094 A 
ATOM      9  C   UNL     1      19.889  18.967   6.241  1.00  0.00     0.336 A 
ATOM     10  O   UNL     1      19.608  19.156   5.029  1.00  0.00    -0.246 OA
ATOM     11  O   UNL     1      21.162  18.867   6.614  1.00  0.00    -0.423 OA
ENDROOT
BRANCH   1  12
ATOM     12  O   UNL     1      22.733  18.037  11.872  1.00  0.00    -0.493 OA
ATOM     13  C   UNL     1      23.186  19.067  12.745  1.00  0.00     0.278 C 
ENDBRANCH   1  12
BRANCH   2  14
ATOM     14  O   UNL     1      24.617  18.263   9.871  1.00  0.00    -0.504 OA
ATOM     15  H   UNL     1      25.339  18.303   9.161  1.00  0.00     0.293 HD
ENDBRANCH   2  14
TORSDOF 2
ENDMDL
MODEL 3
REMARK VINA RESULT:    -4.903      2.475      4.842
REMARK INTER + INTRA:          -5.398
REMARK INTER:                  -5.341
REMARK INTRA:                  -0.057
REMARK UNBOUND:                -0.065
REMARK SMILES COc1cc2ccc(=O)oc2cc1O
REMARK SMILES IDX 3 1 13 2 12 3 11 4 5 5 4 6 6 7 7 8 8 9 9 10 10 11 2 12 1 13
REMARK SMILES IDX 14 14
REMARK H PARENT 14 15
REMARK Flexibility Score: inf
ROOT
ATOM      1  C   UNL     1      21.533  16.568  11.119  1.00  0.00     0.161 A 
ATOM      2  C   UNL     1      22.910  16.839  11.144  1.00  0.00     0.161 A 
ATOM      3  C   UNL     1      23.486  17.662  10.166  1.00  0.00     0.098 A 
ATOM      4  C   UNL     1      22.694  18.220   9.158  1.00  0.00     0.142 A 
ATOM      5  C   UNL     1      21.310  17.952   9.127  1.00  0.00     0.022 A 
ATOM      6  C   UNL     1      20.732  17.130  10.104  1.00  0.00     0.062 A 
ATOM      7  C   UNL     1      20.544  18.525   8.106  1.00  0.00     0.019 A 
ATOM      8  C   UNL     1      21.164  19.337   7.157  1.00  0.00     0.094 A 
ATOM      9  C   UNL     1      22.542  19.557   7.252  1.00  0.00     0.336 A 
ATOM     10  O   UNL     1      23.121  20.287   6.405  1.00  0.00    -0.246 OA
ATOM     11  O   UNL     1      23.248  19.000   8.233  1.00  0.00    -0.423 OA
ENDROOT
BRANCH   1  12
ATOM     12  O   UNL     1      20.998  15.738  12.119  1.00  0.00    -0.493 OA
ATOM     13  C   UNL     1      20.210  14.578  11.867  1.00  0.00     0.278 C 
ENDBRANCH   1  12
BRANCH   2  14
ATOM     14  O   UNL     1      23.702  16.284  12.147  1.00  0.00    -0.504 OA
ATOM     15  H   UNL     1      23.894  15.290  12.182  1.00  0.00     0.293 HD
ENDBRANCH   2  14
TORSDOF 2
ENDMDL
MODEL 4
REMARK VINA RESULT:    -4.883      1.829      4.659
REMARK INTER + INTRA:          -5.376
REMARK INTER:                  -5.323
REMARK INTRA:                  -0.053
REMARK UNBOUND:                -0.065
REMARK SMILES COc1cc2ccc(=O)oc2cc1O
REMARK SMILES IDX 3 1 13 2 12 3 11 4 5 5 4 6 6 7 7 8 8 9 9 10 10 11 2 12 1 13
REMARK SMILES IDX 14 14
REMARK H PARENT 14 15
REMARK Flexibility Score: inf
ROOT
ATOM      1  C   UNL     1      21.819  18.551  10.447  1.00  0.00     0.161 A 
ATOM      2  C   UNL     1      20.650  19.136   9.937  1.00  0.00     0.161 A 
ATOM      3  C   UNL     1      20.435  19.197   8.552  1.00  0.00     0.098 A 
ATOM      4  C   UNL     1      21.384  18.676   7.668  1.00  0.00     0.142 A 
ATOM      5  C   UNL     1      22.561  18.086   8.173  1.00  0.00     0.022 A 
ATOM      6  C   UNL     1      22.778  18.023   9.557  1.00  0.00     0.062 A 
ATOM      7  C   UNL     1      23.491  17.572   7.263  1.00  0.00     0.019 A 
ATOM      8  C   UNL     1      23.231  17.656   5.896  1.00  0.00     0.094 A 
ATOM      9  C   UNL     1      22.042  18.256   5.469  1.00  0.00     0.336 A 
ATOM     10  O   UNL     1      21.788  18.343   4.239  1.00  0.00    -0.246 OA
ATOM     11  O   UNL     1      21.174  18.736   6.355  1.00  0.00    -0.423 OA
ENDROOT
BRANCH   1  12
ATOM     12  O   UNL     1      21.993  18.511  11.840  1.00  0.00    -0.493 OA
ATOM     13  C   UNL     1      23.193  18.878  12.514  1.00  0.00     0.278 C 
ENDBRANCH   1  12
BRANCH   2  14
ATOM     14  O   UNL     1      19.703  19.658  10.816  1.00  0.00    -0.504 OA
ATOM     15  H   UNL     1      19.299  19.095  11.555  1.00  0.00     0.293 HD
ENDBRANCH   2  14
TORSDOF 2
ENDMDL
MODEL 5
REMARK VINA RESULT:    -4.828     13.015     14.647
REMARK INTER + INTRA:          -5.316
REMARK INTER:                  -5.267
REMARK INTRA:                  -0.050
REMARK UNBOUND:                -0.065
REMARK SMILES COc1cc2ccc(=O)oc2cc1O
REMARK SMILES IDX 3 1 13 2 12 3 11 4 5 5 4 6 6 7 7 8 8 9 9 10 10 11 2 12 1 13
REMARK SMILES IDX 14 14
REMARK H PARENT 14 15
REMARK Flexibility Score: inf
ROOT
ATOM      1  C   UNL     1      20.839  10.959  -2.379  1.00  0.00     0.161 A 
ATOM      2  C   UNL     1      21.869  11.212  -3.298  1.00  0.00     0.161 A 
ATOM      3  C   UNL     1      23.047  10.452  -3.269  1.00  0.00     0.098 A 
ATOM      4  C   UNL     1      23.207   9.435  -2.323  1.00  0.00     0.142 A 
ATOM      5  C   UNL     1      22.176   9.174  -1.396  1.00  0.00     0.022 A 
ATOM      6  C   UNL     1      20.998   9.933  -1.424  1.00  0.00     0.062 A 
ATOM      7  C   UNL     1      22.365   8.150  -0.463  1.00  0.00     0.019 A 
ATOM      8  C   UNL     1      23.554   7.422  -0.474  1.00  0.00     0.094 A 
ATOM      9  C   UNL     1      24.532   7.738  -1.424  1.00  0.00     0.336 A 
ATOM     10  O   UNL     1      25.613   7.094  -1.451  1.00  0.00    -0.246 OA
ATOM     11  O   UNL     1      24.327   8.717  -2.301  1.00  0.00    -0.423 OA
ENDROOT
BRANCH   1  12
ATOM     12  O   UNL     1      19.677  11.744  -2.445  1.00  0.00    -0.493 OA
ATOM     13  C   UNL     1      19.464  12.933  -1.691  1.00  0.00     0.278 C 
ENDBRANCH   1  12
BRANCH   2  14
ATOM     14  O   UNL     1      21.714  12.226  -4.242  1.00  0.00    -0.504 OA
ATOM     15  H   UNL     1      20.853  12.338  -4.763  1.00  0.00     0.293 HD
ENDBRANCH   2  14
TORSDOF 2
ENDMDL
MODEL 6
REMARK VINA RESULT:    -4.785      1.404      4.973
REMARK INTER + INTRA:          -5.270
REMARK INTER:                  -5.226
REMARK INTRA:                  -0.044
REMARK UNBOUND:                -0.065
REMARK SMILES COc1cc2ccc(=O)oc2cc1O
REMARK SMILES IDX 3 1 13 2 12 3 11 4 5 5 4 6 6 7 7 8 8 9 9 10 10 11 2 12 1 13
REMARK SMILES IDX 14 14
REMARK H PARENT 14 15
REMARK Flexibility Score: inf
ROOT
ATOM      1  C   UNL     1      22.593  17.776  10.587  1.00  0.00     0.161 A 
ATOM      2  C   UNL     1      21.364  17.157  10.861  1.00  0.00     0.161 A 
ATOM      3  C   UNL     1      20.289  17.293   9.971  1.00  0.00     0.098 A 
ATOM      4  C   UNL     1      20.432  18.047   8.802  1.00  0.00     0.142 A 
ATOM      5  C   UNL     1      21.665  18.672   8.520  1.00  0.00     0.022 A 
ATOM      6  C   UNL     1      22.740  18.537   9.409  1.00  0.00     0.062 A 
ATOM      7  C   UNL     1      21.777  19.419   7.343  1.00  0.00     0.019 A 
ATOM      8  C   UNL     1      20.679  19.524   6.490  1.00  0.00     0.094 A 
ATOM      9  C   UNL     1      19.489  18.876   6.836  1.00  0.00     0.336 A 
ATOM     10  O   UNL     1      18.486  18.958   6.080  1.00  0.00    -0.246 OA
ATOM     11  O   UNL     1      19.408  18.171   7.962  1.00  0.00    -0.423 OA
ENDROOT
BRANCH   1  12
ATOM     12  O   UNL     1      23.642  17.613  11.506  1.00  0.00    -0.493 OA
ATOM     13  C   UNL     1      23.905  18.494  12.594  1.00  0.00     0.278 C 
ENDBRANCH   1  12
BRANCH   2  14
ATOM     14  O   UNL     1      21.218  16.405  12.026  1.00  0.00    -0.504 OA
ATOM     15  H   UNL     1      20.454  15.750  12.141  1.00  0.00     0.293 HD
ENDBRANCH   2  14
TORSDOF 2
ENDMDL
MODEL 7
REMARK VINA RESULT:    -4.682      1.637      2.815
REMARK INTER + INTRA:          -5.157
REMARK INTER:                  -5.093
REMARK INTRA:                  -0.064
REMARK UNBOUND:                -0.065
REMARK SMILES COc1cc2ccc(=O)oc2cc1O
REMARK SMILES IDX 3 1 13 2 12 3 11 4 5 5 4 6 6 7 7 8 8 9 9 10 10 11 2 12 1 13
REMARK SMILES IDX 14 14
REMARK H PARENT 14 15
REMARK Flexibility Score: inf
ROOT
ATOM      1  C   UNL     1      21.087  19.030   6.556  1.00  0.00     0.161 A 
ATOM      2  C   UNL     1      22.421  18.687   6.286  1.00  0.00     0.161 A 
ATOM      3  C   UNL     1      23.292  18.355   7.334  1.00  0.00     0.098 A 
ATOM      4  C   UNL     1      22.838  18.363   8.657  1.00  0.00     0.142 A 
ATOM      5  C   UNL     1      21.499  18.707   8.935  1.00  0.00     0.022 A 
ATOM      6  C   UNL     1      20.627  19.038   7.889  1.00  0.00     0.062 A 
ATOM      7  C   UNL     1      21.075  18.705  10.268  1.00  0.00     0.019 A 
ATOM      8  C   UNL     1      21.980  18.368  11.274  1.00  0.00     0.094 A 
ATOM      9  C   UNL     1      23.292  18.038  10.922  1.00  0.00     0.336 A 
ATOM     10  O   UNL     1      24.124  17.730  11.816  1.00  0.00    -0.246 OA
ATOM     11  O   UNL     1      23.670  18.047   9.647  1.00  0.00    -0.423 OA
ENDROOT
BRANCH   1  12
ATOM     12  O   UNL     1      20.250  19.355   5.476  1.00  0.00    -0.493 OA
ATOM     13  C   UNL     1      19.181  18.538   5.009  1.00  0.00     0.278 C 
ENDBRANCH   1  12
BRANCH   2  14
ATOM     14  O   UNL     1      22.876  18.678   4.969  1.00  0.00    -0.504 OA
ATOM     15  H   UNL     1      22.970  17.816   4.446  1.00  0.00     0.293 HD
ENDBRANCH   2  14
TORSDOF 2
ENDMDL
MODEL 8
REMARK VINA RESULT:    -4.666     13.416     15.441
REMARK INTER + INTRA:          -5.140
REMARK INTER:                  -5.090
REMARK INTRA:                  -0.049
REMARK UNBOUND:                -0.065
REMARK SMILES COc1cc2ccc(=O)oc2cc1O
REMARK SMILES IDX 3 1 13 2 12 3 11 4 5 5 4 6 6 7 7 8 8 9 9 10 10 11 2 12 1 13
REMARK SMILES IDX 14 14
REMARK H PARENT 14 15
REMARK Flexibility Score: inf
ROOT
ATOM      1  C   UNL     1      24.430   8.873  -2.502  1.00  0.00     0.161 A 
ATOM      2  C   UNL     1      24.382   9.689  -3.643  1.00  0.00     0.161 A 
ATOM      3  C   UNL     1      23.293  10.546  -3.854  1.00  0.00     0.098 A 
ATOM      4  C   UNL     1      22.244  10.595  -2.931  1.00  0.00     0.142 A 
ATOM      5  C   UNL     1      22.285   9.778  -1.782  1.00  0.00     0.022 A 
ATOM      6  C   UNL     1      23.374   8.921  -1.569  1.00  0.00     0.062 A 
ATOM      7  C   UNL     1      21.222   9.850  -0.876  1.00  0.00     0.019 A 
ATOM      8  C   UNL     1      20.162  10.719  -1.132  1.00  0.00     0.094 A 
ATOM      9  C   UNL     1      20.190  11.498  -2.293  1.00  0.00     0.336 A 
ATOM     10  O   UNL     1      19.242  12.288  -2.542  1.00  0.00    -0.246 OA
ATOM     11  O   UNL     1      21.213  11.411  -3.138  1.00  0.00    -0.423 OA
ENDROOT
BRANCH   1  12
ATOM     12  O   UNL     1      25.540   8.030  -2.330  1.00  0.00    -0.493 OA
ATOM     13  C   UNL     1      25.482   6.727  -1.759  1.00  0.00     0.278 C 
ENDBRANCH   1  12
BRANCH   2  14
ATOM     14  O   UNL     1      25.425   9.642  -4.566  1.00  0.00    -0.504 OA
ATOM     15  H   UNL     1      26.172  10.326  -4.557  1.00  0.00     0.293 HD
ENDBRANCH   2  14
TORSDOF 2
ENDMDL
MODEL 9
REMARK VINA RESULT:    -4.583      1.797      2.067
REMARK INTER + INTRA:          -5.050
REMARK INTER:                  -4.984
REMARK INTRA:                  -0.065
REMARK UNBOUND:                -0.065
REMARK SMILES COc1cc2ccc(=O)oc2cc1O
REMARK SMILES IDX 3 1 13 2 12 3 11 4 5 5 4 6 6 7 7 8 8 9 9 10 10 11 2 12 1 13
REMARK SMILES IDX 14 14
REMARK H PARENT 14 15
REMARK Flexibility Score: inf
ROOT
ATOM      1  C   UNL     1      19.103  17.203   8.889  1.00  0.00     0.161 A 
ATOM      2  C   UNL     1      19.084  18.542   9.308  1.00  0.00     0.161 A 
ATOM      3  C   UNL     1      20.094  19.035  10.147  1.00  0.00     0.098 A 
ATOM      4  C   UNL     1      21.127  18.197  10.575  1.00  0.00     0.142 A 
ATOM      5  C   UNL     1      21.153  16.850  10.158  1.00  0.00     0.022 A 
ATOM      6  C   UNL     1      20.145  16.355   9.319  1.00  0.00     0.062 A 
ATOM      7  C   UNL     1      22.201  16.036  10.602  1.00  0.00     0.019 A 
ATOM      8  C   UNL     1      23.180  16.574  11.435  1.00  0.00     0.094 A 
ATOM      9  C   UNL     1      23.089  17.919  11.807  1.00  0.00     0.336 A 
ATOM     10  O   UNL     1      23.963  18.424  12.559  1.00  0.00    -0.246 OA
ATOM     11  O   UNL     1      22.082  18.671  11.371  1.00  0.00    -0.423 OA
ENDROOT
BRANCH   1  12
ATOM     12  O   UNL     1      18.072  16.752   8.049  1.00  0.00    -0.493 OA
ATOM     13  C   UNL     1      16.957  15.980   8.484  1.00  0.00     0.278 C 
ENDBRANCH   1  12
BRANCH   2  14
ATOM     14  O   UNL     1      18.054  19.381   8.884  1.00  0.00    -0.504 OA
ATOM     15  H   UNL     1      17.252  19.022   8.380  1.00  0.00     0.293 HD
ENDBRANCH   2  14
TORSDOF 2
ENDMDL
