MODEL 1
REMARK VINA RESULT:     1.602      0.000      0.000
REMARK INTER + INTRA:           1.770
REMARK INTER:                   1.789
REMARK INTRA:                  -0.019
REMARK UNBOUND:                -0.019
REMARK SMILES CCCC(=O)[O-]
REMARK SMILES IDX 3 1 4 2 5 3 6 4 2 5 1 6
REMARK H PARENT
REMARK Flexibility Score: inf
ROOT
ATOM      1  C   UNL     1      -0.866  -9.132  25.627  1.00  0.00     0.052 C 
ENDROOT
BRANCH   1   2
ATOM      2  C   UNL     1       0.255  -8.456  26.356  1.00  0.00     0.041 C 
ATOM      3  O   UNL     1       1.002  -9.120  27.125  1.00  0.00    -0.550 OA
ATOM      4  O   UNL     1       0.497  -7.102  26.163  1.00  0.00    -0.550 OA
ENDBRANCH   1   2
BRANCH   1   5
ATOM      5  C   UNL     1      -1.265  -8.363  24.361  1.00  0.00     0.003 C 
ATOM      6  C   UNL     1      -2.774  -8.382  24.120  1.00  0.00     0.004 C 
ENDBRANCH   1   5
TORSDOF 2
ENDMDL
MODEL 2
REMARK VINA RESULT:     2.219      9.740     10.276
REMARK INTER + INTRA:           2.460
REMARK INTER:                   2.469
REMARK INTRA:                  -0.009
REMARK UNBOUND:                -0.019
REMARK SMILES CCCC(=O)[O-]
REMARK SMILES IDX 3 1 4 2 5 3 6 4 2 5 1 6
REMARK H PARENT
REMARK Flexibility Score: inf
ROOT
ATOM      1  C   UNL     1      -5.009 -17.354  25.829  1.00  0.00     0.052 C 
ENDROOT
BRANCH   1   2
ATOM      2  C   UNL     1      -5.127 -18.120  24.547  1.00  0.00     0.041 C 
ATOM      3  O   UNL     1      -5.741 -19.220  24.520  1.00  0.00    -0.550 OA
ATOM      4  O   UNL     1      -4.588 -17.606  23.375  1.00  0.00    -0.550 OA
ENDBRANCH   1   2
BRANCH   1   5
ATOM      5  C   UNL     1      -4.631 -15.888  25.582  1.00  0.00     0.003 C 
ATOM      6  C   UNL     1      -5.044 -14.977  26.737  1.00  0.00     0.004 C 
ENDBRANCH   1   5
TORSDOF 2
ENDMDL
MODEL 3
REMARK VINA RESULT:     2.832      2.585      3.586
REMARK INTER + INTRA:           3.145
REMARK INTER:                   3.150
REMARK INTRA:                  -0.005
REMARK UNBOUND:                -0.019
REMARK SMILES CCCC(=O)[O-]
REMARK SMILES IDX 3 1 4 2 5 3 6 4 2 5 1 6
REMARK H PARENT
REMARK Flexibility Score: inf
ROOT
ATOM      1  C   UNL     1      -0.894  -9.248  25.088  1.00  0.00     0.052 C 
ENDROOT
BRANCH   1   2
ATOM      2  C   UNL     1      -2.029  -8.592  24.364  1.00  0.00     0.041 C 
ATOM      3  O   UNL     1      -1.815  -7.945  23.303  1.00  0.00    -0.550 OA
ATOM      4  O   UNL     1      -3.328  -8.722  24.839  1.00  0.00    -0.550 OA
ENDBRANCH   1   2
BRANCH   1   5
ATOM      5  C   UNL     1      -0.153  -8.259  25.998  1.00  0.00     0.003 C 
ATOM      6  C   UNL     1       0.606  -8.960  27.124  1.00  0.00     0.004 C 
ENDBRANCH   1   5
TORSDOF 2
ENDMDL
MODEL 4
REMARK VINA RESULT:     4.333      9.158      9.605
REMARK INTER + INTRA:           4.821
REMARK INTER:                   4.839
REMARK INTRA:                  -0.018
REMARK UNBOUND:                -0.019
REMARK SMILES CCCC(=O)[O-]
REMARK SMILES IDX 3 1 4 2 5 3 6 4 2 5 1 6
REMARK H PARENT
REMARK Flexibility Score: inf
ROOT
ATOM      1  C   UNL     1      -4.453 -16.902  25.228  1.00  0.00     0.052 C 
ENDROOT
BRANCH   1   2
ATOM      2  C   UNL     1      -4.921 -15.779  26.103  1.00  0.00     0.041 C 
ATOM      3  O   UNL     1      -5.618 -16.020  27.125  1.00  0.00    -0.550 OA
ATOM      4  O   UNL     1      -4.562 -14.470  25.809  1.00  0.00    -0.550 OA
ENDBRANCH   1   2
BRANCH   1   5
ATOM      5  C   UNL     1      -5.345 -18.142  25.369  1.00  0.00     0.003 C 
ATOM      6  C   UNL     1      -5.855 -18.649  24.020  1.00  0.00     0.004 C 
ENDBRANCH   1   5
TORSDOF 2
ENDMDL
