MODEL 1
REMARK VINA RESULT:    -4.473      0.000      0.000
REMARK INTER + INTRA:          -6.316
REMARK INTER:                  -6.042
REMARK INTRA:                  -0.274
REMARK UNBOUND:                -0.274
REMARK SMILES CCCCCCC=CC(=O)[O-]
REMARK SMILES IDX 5 1 6 2 7 3 8 4 9 5 10 6 11 7 4 8 3 9 2 10 1 11
REMARK H PARENT
REMARK Flexibility Score: inf
ROOT
ATOM      1  C   UNL     1      12.819  29.745  49.613  1.00  0.00     0.004 C 
ENDROOT
BRANCH   1   2
ATOM      2  C   UNL     1      12.487  28.293  49.239  1.00  0.00     0.027 C 
BRANCH   2   3
ATOM      3  C   UNL     1      13.019  27.948  47.878  1.00  0.00    -0.025 C 
ATOM      4  C   UNL     1      12.770  26.763  47.310  1.00  0.00     0.020 C 
BRANCH   4   5
ATOM      5  C   UNL     1      13.273  26.418  45.972  1.00  0.00     0.064 C 
ATOM      6  O   UNL     1      12.618  26.763  44.953  1.00  0.00    -0.545 OA
ATOM      7  O   UNL     1      14.462  25.715  45.812  1.00  0.00    -0.545 OA
ENDBRANCH   4   5
ENDBRANCH   2   3
ENDBRANCH   1   2
BRANCH   1   8
ATOM      8  C   UNL     1      13.966  30.325  48.771  1.00  0.00     0.000 C 
BRANCH   8   9
ATOM      9  C   UNL     1      15.246  30.547  49.591  1.00  0.00    -0.000 C 
BRANCH   9  10
ATOM     10  C   UNL     1      16.118  31.638  48.959  1.00  0.00    -0.003 C 
ATOM     11  C   UNL     1      17.578  31.202  48.885  1.00  0.00     0.004 C 
ENDBRANCH   9  10
ENDBRANCH   8   9
ENDBRANCH   1   8
TORSDOF 6
ENDMDL
MODEL 2
REMARK VINA RESULT:    -4.389      8.591      9.491
REMARK INTER + INTRA:          -6.203
REMARK INTER:                  -5.602
REMARK INTRA:                  -0.601
REMARK UNBOUND:                -0.274
REMARK SMILES CCCCCCC=CC(=O)[O-]
REMARK SMILES IDX 5 1 6 2 7 3 8 4 9 5 10 6 11 7 4 8 3 9 2 10 1 11
REMARK H PARENT
REMARK Flexibility Score: inf
ROOT
ATOM      1  C   UNL     1      15.389  25.022  58.514  1.00  0.00     0.004 C 
ENDROOT
BRANCH   1   2
ATOM      2  C   UNL     1      16.588  25.604  57.750  1.00  0.00     0.027 C 
BRANCH   2   3
ATOM      3  C   UNL     1      16.911  24.778  56.538  1.00  0.00    -0.025 C 
ATOM      4  C   UNL     1      16.932  25.314  55.313  1.00  0.00     0.020 C 
BRANCH   4   5
ATOM      5  C   UNL     1      17.260  24.520  54.119  1.00  0.00     0.064 C 
ATOM      6  O   UNL     1      17.446  23.280  54.230  1.00  0.00    -0.545 OA
ATOM      7  O   UNL     1      17.369  25.118  52.868  1.00  0.00    -0.545 OA
ENDBRANCH   4   5
ENDBRANCH   2   3
ENDBRANCH   1   2
BRANCH   1   8
ATOM      8  C   UNL     1      14.175  25.963  58.517  1.00  0.00     0.000 C 
BRANCH   8   9
ATOM      9  C   UNL     1      13.724  26.350  57.100  1.00  0.00    -0.000 C 
BRANCH   9  10
ATOM     10  C   UNL     1      13.803  27.868  56.896  1.00  0.00    -0.003 C 
ATOM     11  C   UNL     1      14.657  28.217  55.680  1.00  0.00     0.004 C 
ENDBRANCH   9  10
ENDBRANCH   8   9
ENDBRANCH   1   8
TORSDOF 6
ENDMDL
MODEL 3
REMARK VINA RESULT:    -4.277      8.236      9.142
REMARK INTER + INTRA:          -6.052
REMARK INTER:                  -5.467
REMARK INTRA:                  -0.584
REMARK UNBOUND:                -0.274
REMARK SMILES CCCCCCC=CC(=O)[O-]
REMARK SMILES IDX 5 1 6 2 7 3 8 4 9 5 10 6 11 7 4 8 3 9 2 10 1 11
REMARK H PARENT
REMARK Flexibility Score: inf
ROOT
ATOM      1  C   UNL     1      16.687  25.522  57.774  1.00  0.00     0.004 C 
ENDROOT
BRANCH   1   2
ATOM      2  C   UNL     1      17.044  24.565  56.626  1.00  0.00     0.027 C 
BRANCH   2   3
ATOM      3  C   UNL     1      17.261  25.316  55.344  1.00  0.00    -0.025 C 
ATOM      4  C   UNL     1      16.533  25.058  54.252  1.00  0.00     0.020 C 
BRANCH   4   5
ATOM      5  C   UNL     1      16.725  25.795  52.994  1.00  0.00     0.064 C 
ATOM      6  O   UNL     1      17.286  25.226  52.020  1.00  0.00    -0.545 OA
ATOM      7  O   UNL     1      16.297  27.111  52.860  1.00  0.00    -0.545 OA
ENDBRANCH   4   5
ENDBRANCH   2   3
ENDBRANCH   1   2
BRANCH   1   8
ATOM      8  C   UNL     1      15.380  25.135  58.483  1.00  0.00     0.000 C 
BRANCH   8   9
ATOM      9  C   UNL     1      14.290  26.208  58.338  1.00  0.00    -0.000 C 
BRANCH   9  10
ATOM     10  C   UNL     1      13.785  26.282  56.892  1.00  0.00    -0.003 C 
ATOM     11  C   UNL     1      14.310  27.529  56.188  1.00  0.00     0.004 C 
ENDBRANCH   9  10
ENDBRANCH   8   9
ENDBRANCH   1   8
TORSDOF 6
ENDMDL
MODEL 4
REMARK VINA RESULT:    -4.273      9.251     10.601
REMARK INTER + INTRA:          -6.046
REMARK INTER:                  -5.622
REMARK INTRA:                  -0.424
REMARK UNBOUND:                -0.274
REMARK SMILES CCCCCCC=CC(=O)[O-]
REMARK SMILES IDX 5 1 6 2 7 3 8 4 9 5 10 6 11 7 4 8 3 9 2 10 1 11
REMARK H PARENT
REMARK Flexibility Score: inf
ROOT
ATOM      1  C   UNL     1      16.922  24.745  56.516  1.00  0.00     0.004 C 
ENDROOT
BRANCH   1   2
ATOM      2  C   UNL     1      17.143  25.585  55.249  1.00  0.00     0.027 C 
BRANCH   2   3
ATOM      3  C   UNL     1      17.691  26.942  55.587  1.00  0.00    -0.025 C 
ATOM      4  C   UNL     1      18.922  27.310  55.218  1.00  0.00     0.020 C 
BRANCH   4   5
ATOM      5  C   UNL     1      19.466  28.639  55.531  1.00  0.00     0.064 C 
ATOM      6  O   UNL     1      20.485  28.737  56.265  1.00  0.00    -0.545 OA
ATOM      7  O   UNL     1      18.874  29.793  55.028  1.00  0.00    -0.545 OA
ENDBRANCH   4   5
ENDBRANCH   2   3
ENDBRANCH   1   2
BRANCH   1   8
ATOM      8  C   UNL     1      16.605  25.605  57.749  1.00  0.00     0.000 C 
BRANCH   8   9
ATOM      9  C   UNL     1      15.380  25.097  58.524  1.00  0.00    -0.000 C 
BRANCH   9  10
ATOM     10  C   UNL     1      14.222  26.098  58.435  1.00  0.00    -0.003 C 
ATOM     11  C   UNL     1      13.704  26.216  57.004  1.00  0.00     0.004 C 
ENDBRANCH   9  10
ENDBRANCH   8   9
ENDBRANCH   1   8
TORSDOF 6
ENDMDL
MODEL 5
REMARK VINA RESULT:    -4.243      9.158     10.049
REMARK INTER + INTRA:          -6.006
REMARK INTER:                  -5.694
REMARK INTRA:                  -0.312
REMARK UNBOUND:                -0.274
REMARK SMILES CCCCCCC=CC(=O)[O-]
REMARK SMILES IDX 5 1 6 2 7 3 8 4 9 5 10 6 11 7 4 8 3 9 2 10 1 11
REMARK H PARENT
REMARK Flexibility Score: inf
ROOT
ATOM      1  C   UNL     1      17.275  25.413  55.482  1.00  0.00     0.004 C 
ENDROOT
BRANCH   1   2
ATOM      2  C   UNL     1      16.909  24.523  54.284  1.00  0.00     0.027 C 
BRANCH   2   3
ATOM      3  C   UNL     1      18.109  23.777  53.776  1.00  0.00    -0.025 C 
ATOM      4  C   UNL     1      19.345  24.269  53.911  1.00  0.00     0.020 C 
BRANCH   4   5
ATOM      5  C   UNL     1      20.531  23.543  53.431  1.00  0.00     0.064 C 
ATOM      6  O   UNL     1      21.456  24.175  52.856  1.00  0.00    -0.545 OA
ATOM      7  O   UNL     1      20.647  22.167  53.601  1.00  0.00    -0.545 OA
ENDBRANCH   4   5
ENDBRANCH   2   3
ENDBRANCH   1   2
BRANCH   1   8
ATOM      8  C   UNL     1      16.914  24.770  56.829  1.00  0.00     0.000 C 
BRANCH   8   9
ATOM      9  C   UNL     1      16.524  25.808  57.893  1.00  0.00    -0.000 C 
BRANCH   9  10
ATOM     10  C   UNL     1      15.076  25.603  58.352  1.00  0.00    -0.003 C 
ATOM     11  C   UNL     1      14.091  26.204  57.353  1.00  0.00     0.004 C 
ENDBRANCH   9  10
ENDBRANCH   8   9
ENDBRANCH   1   8
TORSDOF 6
ENDMDL
MODEL 6
REMARK VINA RESULT:    -4.193     12.466     14.571
REMARK INTER + INTRA:          -5.938
REMARK INTER:                  -5.586
REMARK INTRA:                  -0.352
REMARK UNBOUND:                -0.274
REMARK SMILES CCCCCCC=CC(=O)[O-]
REMARK SMILES IDX 5 1 6 2 7 3 8 4 9 5 10 6 11 7 4 8 3 9 2 10 1 11
REMARK H PARENT
REMARK Flexibility Score: inf
ROOT
ATOM      1  C   UNL     1      26.969  26.301  55.089  1.00  0.00     0.004 C 
ENDROOT
BRANCH   1   2
ATOM      2  C   UNL     1      25.756  26.609  54.197  1.00  0.00     0.027 C 
BRANCH   2   3
ATOM      3  C   UNL     1      24.744  27.443  54.929  1.00  0.00    -0.025 C 
ATOM      4  C   UNL     1      23.503  26.997  55.155  1.00  0.00     0.020 C 
BRANCH   4   5
ATOM      5  C   UNL     1      22.507  27.798  55.882  1.00  0.00     0.064 C 
ATOM      6  O   UNL     1      21.284  27.661  55.613  1.00  0.00    -0.545 OA
ATOM      7  O   UNL     1      22.892  28.704  56.863  1.00  0.00    -0.545 OA
ENDBRANCH   4   5
ENDBRANCH   2   3
ENDBRANCH   1   2
BRANCH   1   8
ATOM      8  C   UNL     1      26.984  24.848  55.587  1.00  0.00     0.000 C 
BRANCH   8   9
ATOM      9  C   UNL     1      26.191  24.663  56.889  1.00  0.00    -0.000 C 
BRANCH   9  10
ATOM     10  C   UNL     1      26.763  23.506  57.718  1.00  0.00    -0.003 C 
ATOM     11  C   UNL     1      27.630  22.590  56.860  1.00  0.00     0.004 C 
ENDBRANCH   9  10
ENDBRANCH   8   9
ENDBRANCH   1   8
TORSDOF 6
ENDMDL
MODEL 7
REMARK VINA RESULT:    -4.157     13.912     15.996
REMARK INTER + INTRA:          -5.890
REMARK INTER:                  -5.491
REMARK INTRA:                  -0.398
REMARK UNBOUND:                -0.274
REMARK SMILES CCCCCCC=CC(=O)[O-]
REMARK SMILES IDX 5 1 6 2 7 3 8 4 9 5 10 6 11 7 4 8 3 9 2 10 1 11
REMARK H PARENT
REMARK Flexibility Score: inf
ROOT
ATOM      1  C   UNL     1      26.256  24.397  57.064  1.00  0.00     0.004 C 
ENDROOT
BRANCH   1   2
ATOM      2  C   UNL     1      27.000  25.026  55.876  1.00  0.00     0.027 C 
BRANCH   2   3
ATOM      3  C   UNL     1      26.306  26.270  55.400  1.00  0.00    -0.025 C 
ATOM      4  C   UNL     1      25.441  26.929  56.179  1.00  0.00     0.020 C 
BRANCH   4   5
ATOM      5  C   UNL     1      24.765  28.155  55.730  1.00  0.00     0.064 C 
ATOM      6  O   UNL     1      24.378  28.998  56.582  1.00  0.00    -0.545 OA
ATOM      7  O   UNL     1      24.545  28.400  54.379  1.00  0.00    -0.545 OA
ENDBRANCH   4   5
ENDBRANCH   2   3
ENDBRANCH   1   2
BRANCH   1   8
ATOM      8  C   UNL     1      26.995  23.184  57.650  1.00  0.00     0.000 C 
BRANCH   8   9
ATOM      9  C   UNL     1      28.311  22.884  56.916  1.00  0.00    -0.000 C 
BRANCH   9  10
ATOM     10  C   UNL     1      28.289  21.478  56.306  1.00  0.00    -0.003 C 
ATOM     11  C   UNL     1      27.161  21.337  55.287  1.00  0.00     0.004 C 
ENDBRANCH   9  10
ENDBRANCH   8   9
ENDBRANCH   1   8
TORSDOF 6
ENDMDL
MODEL 8
REMARK VINA RESULT:    -4.143     13.778     15.786
REMARK INTER + INTRA:          -5.870
REMARK INTER:                  -5.211
REMARK INTRA:                  -0.660
REMARK UNBOUND:                -0.274
REMARK SMILES CCCCCCC=CC(=O)[O-]
REMARK SMILES IDX 5 1 6 2 7 3 8 4 9 5 10 6 11 7 4 8 3 9 2 10 1 11
REMARK H PARENT
REMARK Flexibility Score: inf
ROOT
ATOM      1  C   UNL     1      26.599  22.949  57.165  1.00  0.00     0.004 C 
ENDROOT
BRANCH   1   2
ATOM      2  C   UNL     1      26.266  24.427  57.421  1.00  0.00     0.027 C 
BRANCH   2   3
ATOM      3  C   UNL     1      25.551  25.032  56.247  1.00  0.00    -0.025 C 
ATOM      4  C   UNL     1      25.828  26.271  55.823  1.00  0.00     0.020 C 
BRANCH   4   5
ATOM      5  C   UNL     1      25.146  26.871  54.667  1.00  0.00     0.064 C 
ATOM      6  O   UNL     1      24.920  28.109  54.653  1.00  0.00    -0.545 OA
ATOM      7  O   UNL     1      24.746  26.092  53.587  1.00  0.00    -0.545 OA
ENDBRANCH   4   5
ENDBRANCH   2   3
ENDBRANCH   1   2
BRANCH   1   8
ATOM      8  C   UNL     1      28.109  22.667  57.207  1.00  0.00     0.000 C 
BRANCH   8   9
ATOM      9  C   UNL     1      28.890  23.479  56.163  1.00  0.00    -0.000 C 
BRANCH   9  10
ATOM     10  C   UNL     1      28.736  22.865  54.766  1.00  0.00    -0.003 C 
ATOM     11  C   UNL     1      28.048  23.835  53.810  1.00  0.00     0.004 C 
ENDBRANCH   9  10
ENDBRANCH   8   9
ENDBRANCH   1   8
TORSDOF 6
ENDMDL
MODEL 9
REMARK VINA RESULT:    -4.134     13.585     15.789
REMARK INTER + INTRA:          -5.858
REMARK INTER:                  -5.306
REMARK INTRA:                  -0.553
REMARK UNBOUND:                -0.274
REMARK SMILES CCCCCCC=CC(=O)[O-]
REMARK SMILES IDX 5 1 6 2 7 3 8 4 9 5 10 6 11 7 4 8 3 9 2 10 1 11
REMARK H PARENT
REMARK Flexibility Score: inf
ROOT
ATOM      1  C   UNL     1      28.119  23.823  54.293  1.00  0.00     0.004 C 
ENDROOT
BRANCH   1   2
ATOM      2  C   UNL     1      27.378  24.896  53.481  1.00  0.00     0.027 C 
BRANCH   2   3
ATOM      3  C   UNL     1      26.915  26.020  54.363  1.00  0.00    -0.025 C 
ATOM      4  C   UNL     1      25.663  26.487  54.301  1.00  0.00     0.020 C 
BRANCH   4   5
ATOM      5  C   UNL     1      25.193  27.577  55.168  1.00  0.00     0.064 C 
ATOM      6  O   UNL     1      25.577  27.628  56.366  1.00  0.00    -0.545 OA
ATOM      7  O   UNL     1      24.330  28.555  54.686  1.00  0.00    -0.545 OA
ENDBRANCH   4   5
ENDBRANCH   2   3
ENDBRANCH   1   2
BRANCH   1   8
ATOM      8  C   UNL     1      28.279  24.206  55.773  1.00  0.00     0.000 C 
BRANCH   8   9
ATOM      9  C   UNL     1      28.273  22.984  56.703  1.00  0.00    -0.000 C 
BRANCH   9  10
ATOM     10  C   UNL     1      27.101  23.053  57.689  1.00  0.00    -0.003 C 
ATOM     11  C   UNL     1      26.218  24.266  57.410  1.00  0.00     0.004 C 
ENDBRANCH   9  10
ENDBRANCH   8   9
ENDBRANCH   1   8
TORSDOF 6
ENDMDL
