MODEL 1
REMARK VINA RESULT:     4.480      0.000      0.000
REMARK INTER + INTRA:           8.132
REMARK INTER:                   6.314
REMARK INTRA:                   1.818
REMARK UNBOUND:                 1.818
REMARK SMILES CC1=CCC(=C(C)C)C(=O)CC(C)=CCC1
REMARK SMILES IDX 12 1 14 2 13 3 15 4 16 5 2 6 1 7 3 8 11 10 9 11 10 12 5 13
REMARK SMILES IDX 6 14 7 15 8 16 4 17
REMARK H PARENT
REMARK Flexibility Score: 60.00
ROOT
ATOM      1  C   UNL     1      -2.617   6.372   8.978  1.00  0.00    -0.070 C 
ATOM      2  C   UNL     1      -2.750   6.114   7.655  1.00  0.00    -0.027 C 
ATOM      3  C   UNL     1      -1.803   7.572   9.388  1.00  0.00     0.039 C 
ENDROOT
BRANCH   2   4
ATOM      4  C   UNL     1      -3.577   4.995   7.064  1.00  0.00     0.032 C 
BRANCH   4   5
ATOM      5  C   UNL     1      -3.101   3.620   7.553  1.00  0.00     0.034 C 
BRANCH   5   6
ATOM      6  C   UNL     1      -4.201   2.568   7.572  1.00  0.00    -0.077 C 
ATOM      7  C   UNL     1      -4.469   1.772   6.320  1.00  0.00     0.039 C 
ATOM      8  C   UNL     1      -4.947   2.290   8.667  1.00  0.00    -0.023 CG0
ATOM      9  G   UNL     1      -4.873   3.024   9.986  1.00  0.00     0.000 G0
ENDBRANCH   5   6
ENDBRANCH   4   5
ENDBRANCH   2   4
BRANCH   1  10
ATOM     10  C   UNL     1      -3.247   5.508  10.053  1.00  0.00     0.111 C 
BRANCH  10  11
ATOM     11  C   UNL     1      -4.747   5.583   9.998  1.00  0.00     0.163 C 
ATOM     12  O   UNL     1      -5.308   6.708   9.914  1.00  0.00    -0.294 OA
BRANCH  11  13
ATOM     13  C   UNL     1      -5.582   4.354  10.016  1.00  0.00    -0.002 C 
ATOM     14  C   UNL     1      -6.939   4.447  10.052  1.00  0.00    -0.069 C 
ATOM     15  C   UNL     1      -7.634   5.789   9.980  1.00  0.00     0.039 C 
ATOM     16  C   UNL     1      -7.804   3.210  10.124  1.00  0.00     0.039 C 
BRANCH  13  17
ATOM     17  C   UNL     1      -4.899   2.991   9.993  1.00  0.00     0.066 CG0
ATOM     18  G   UNL     1      -4.946   2.309   8.645  1.00  0.00     0.000 G0
ENDBRANCH  13  17
ENDBRANCH  11  13
ENDBRANCH  10  11
ENDBRANCH   1  10
TORSDOF 0
ENDMDL
MODEL 2
REMARK VINA RESULT:     7.281      1.301      1.729
REMARK INTER + INTRA:          12.079
REMARK INTER:                   8.344
REMARK INTRA:                   3.735
REMARK UNBOUND:                 1.818
REMARK SMILES CC1=CCC(=C(C)C)C(=O)CC(C)=CCC1
REMARK SMILES IDX 12 1 14 2 13 3 15 4 16 5 2 6 1 7 3 8 11 10 9 11 10 12 5 13
REMARK SMILES IDX 6 14 7 15 8 16 4 17
REMARK H PARENT
REMARK Flexibility Score: 60.00
ROOT
ATOM      1  C   UNL     1      -2.193   6.915   9.217  1.00  0.00    -0.070 C 
ATOM      2  C   UNL     1      -2.375   6.954   7.876  1.00  0.00    -0.027 C 
ATOM      3  C   UNL     1      -1.184   7.857   9.823  1.00  0.00     0.039 C 
ENDROOT
BRANCH   2   4
ATOM      4  C   UNL     1      -3.383   6.129   7.109  1.00  0.00     0.032 C 
BRANCH   4   5
ATOM      5  C   UNL     1      -2.709   5.273   6.027  1.00  0.00     0.034 C 
BRANCH   5   6
ATOM      6  C   UNL     1      -3.312   3.882   5.889  1.00  0.00    -0.077 C 
ATOM      7  C   UNL     1      -3.576   3.337   4.508  1.00  0.00     0.039 C 
ATOM      8  C   UNL     1      -3.608   3.091   6.946  1.00  0.00    -0.023 CG0
ATOM      9  G   UNL     1      -3.480   3.487   8.399  1.00  0.00     0.000 G0
ENDBRANCH   5   6
ENDBRANCH   4   5
ENDBRANCH   2   4
BRANCH   1  10
ATOM     10  C   UNL     1      -2.953   5.969  10.125  1.00  0.00     0.111 C 
BRANCH  10  11
ATOM     11  C   UNL     1      -4.296   5.624   9.545  1.00  0.00     0.163 C 
ATOM     12  O   UNL     1      -5.188   6.512   9.479  1.00  0.00    -0.294 OA
BRANCH  11  13
ATOM     13  C   UNL     1      -4.586   4.262   9.027  1.00  0.00    -0.002 C 
ATOM     14  C   UNL     1      -5.848   3.757   9.094  1.00  0.00    -0.069 C 
ATOM     15  C   UNL     1      -7.000   4.593   9.608  1.00  0.00     0.039 C 
ATOM     16  C   UNL     1      -6.153   2.354   8.621  1.00  0.00     0.039 C 
BRANCH  13  17
ATOM     17  C   UNL     1      -3.454   3.442   8.419  1.00  0.00     0.066 CG0
ATOM     18  G   UNL     1      -3.643   3.137   6.951  1.00  0.00     0.000 G0
ENDBRANCH  13  17
ENDBRANCH  11  13
ENDBRANCH  10  11
ENDBRANCH   1  10
TORSDOF 0
ENDMDL
MODEL 3
REMARK VINA RESULT:     7.362      1.519      3.571
REMARK INTER + INTRA:          12.193
REMARK INTER:                  10.500
REMARK INTRA:                   1.693
REMARK UNBOUND:                 1.818
REMARK SMILES CC1=CCC(=C(C)C)C(=O)CC(C)=CCC1
REMARK SMILES IDX 12 1 14 2 13 3 15 4 16 5 2 6 1 7 3 8 11 10 9 11 10 12 5 13
REMARK SMILES IDX 6 14 7 15 8 16 4 17
REMARK H PARENT
REMARK Flexibility Score: 60.00
ROOT
ATOM      1  C   UNL     1      -5.111   6.007  10.008  1.00  0.00    -0.070 C 
ATOM      2  C   UNL     1      -6.312   5.408   9.835  1.00  0.00    -0.027 C 
ATOM      3  C   UNL     1      -5.074   7.512  10.085  1.00  0.00     0.039 C 
ENDROOT
BRANCH   2   4
ATOM      4  C   UNL     1      -6.543   3.914   9.797  1.00  0.00     0.032 C 
BRANCH   4   5
ATOM      5  C   UNL     1      -5.257   3.151   9.451  1.00  0.00     0.034 C 
BRANCH   5   6
ATOM      6  C   UNL     1      -5.238   2.602   8.031  1.00  0.00    -0.077 C 
ATOM      7  C   UNL     1      -6.437   1.834   7.532  1.00  0.00     0.039 C 
ATOM      8  C   UNL     1      -4.206   2.782   7.176  1.00  0.00    -0.023 CG0
ATOM      9  G   UNL     1      -2.898   3.460   7.514  1.00  0.00     0.000 G0
ENDBRANCH   5   6
ENDBRANCH   4   5
ENDBRANCH   2   4
BRANCH   1  10
ATOM     10  C   UNL     1      -3.812   5.234  10.123  1.00  0.00     0.111 C 
BRANCH  10  11
ATOM     11  C   UNL     1      -2.879   5.570   8.993  1.00  0.00     0.163 C 
ATOM     12  O   UNL     1      -1.925   6.368   9.195  1.00  0.00    -0.294 OA
BRANCH  11  13
ATOM     13  C   UNL     1      -3.045   4.961   7.648  1.00  0.00    -0.002 C 
ATOM     14  C   UNL     1      -3.309   5.745   6.567  1.00  0.00    -0.069 C 
ATOM     15  C   UNL     1      -3.348   7.253   6.686  1.00  0.00     0.039 C 
ATOM     16  C   UNL     1      -3.534   5.140   5.201  1.00  0.00     0.039 C 
BRANCH  13  17
ATOM     17  C   UNL     1      -2.916   3.450   7.496  1.00  0.00     0.066 CG0
ATOM     18  G   UNL     1      -4.217   2.758   7.159  1.00  0.00     0.000 G0
ENDBRANCH  13  17
ENDBRANCH  11  13
ENDBRANCH  10  11
ENDBRANCH   1  10
TORSDOF 0
ENDMDL
