MODEL 1
REMARK VINA RESULT:    -3.065      0.000      0.000
REMARK INTER + INTRA:          -7.442
REMARK INTER:                  -5.753
REMARK INTRA:                  -1.689
REMARK UNBOUND:                -1.689
REMARK SMILES O=C([O-])CCCCCCCCCCCCCCC(=O)[O-]
REMARK SMILES IDX 10 1 9 2 8 3 7 4 6 5 5 6 4 7 2 8 1 9 3 10 11 11 12 12 13 13
REMARK SMILES IDX 14 14 15 15 16 16 17 17 18 18 19 19 20 20
REMARK H PARENT
REMARK Flexibility Score: inf
ROOT
ATOM      1  C   UNL     1       2.580  20.593   9.248  1.00  0.00     0.000 C 
ENDROOT
BRANCH   1   2
ATOM      2  C   UNL     1       1.559  20.261  10.348  1.00  0.00     0.000 C 
BRANCH   2   3
ATOM      3  C   UNL     1       2.066  19.122  11.241  1.00  0.00     0.000 C 
BRANCH   3   4
ATOM      4  C   UNL     1       3.332  18.483  10.651  1.00  0.00     0.000 C 
BRANCH   4   5
ATOM      5  C   UNL     1       3.853  17.311  11.498  1.00  0.00     0.000 C 
BRANCH   5   6
ATOM      6  C   UNL     1       4.906  16.468  10.758  1.00  0.00     0.006 C 
BRANCH   6   7
ATOM      7  C   UNL     1       4.930  15.013  11.246  1.00  0.00     0.053 C 
BRANCH   7   8
ATOM      8  C   UNL     1       5.850  14.166  10.422  1.00  0.00     0.041 C 
ATOM      9  O   UNL     1       5.421  13.119   9.870  1.00  0.00    -0.550 OA
ATOM     10  O   UNL     1       7.189  14.512  10.294  1.00  0.00    -0.550 OA
ENDBRANCH   7   8
ENDBRANCH   6   7
ENDBRANCH   5   6
ENDBRANCH   4   5
ENDBRANCH   3   4
ENDBRANCH   2   3
ENDBRANCH   1   2
BRANCH   1  11
ATOM     11  C   UNL     1       1.917  20.915   7.900  1.00  0.00     0.000 C 
BRANCH  11  12
ATOM     12  C   UNL     1       1.905  19.709   6.943  1.00  0.00     0.000 C 
BRANCH  12  13
ATOM     13  C   UNL     1       2.950  19.834   5.822  1.00  0.00     0.000 C 
BRANCH  13  14
ATOM     14  C   UNL     1       4.069  18.784   5.939  1.00  0.00     0.000 C 
BRANCH  14  15
ATOM     15  C   UNL     1       3.864  17.817   7.118  1.00  0.00     0.000 C 
BRANCH  15  16
ATOM     16  C   UNL     1       4.712  16.531   7.073  1.00  0.00     0.006 C 
BRANCH  16  17
ATOM     17  C   UNL     1       3.934  15.251   7.429  1.00  0.00     0.053 C 
BRANCH  17  18
ATOM     18  C   UNL     1       4.401  14.056   6.654  1.00  0.00     0.041 C 
ATOM     19  O   UNL     1       5.492  14.093   6.025  1.00  0.00    -0.550 OA
ATOM     20  O   UNL     1       3.653  12.885   6.661  1.00  0.00    -0.550 OA
ENDBRANCH  17  18
ENDBRANCH  16  17
ENDBRANCH  15  16
ENDBRANCH  14  15
ENDBRANCH  13  14
ENDBRANCH  12  13
ENDBRANCH  11  12
ENDBRANCH   1  11
TORSDOF 15
ENDMDL
MODEL 2
REMARK VINA RESULT:    -3.056      1.729      4.240
REMARK INTER + INTRA:          -7.425
REMARK INTER:                  -5.466
REMARK INTRA:                  -1.959
REMARK UNBOUND:                -1.689
REMARK SMILES O=C([O-])CCCCCCCCCCCCCCC(=O)[O-]
REMARK SMILES IDX 10 1 9 2 8 3 7 4 6 5 5 6 4 7 2 8 1 9 3 10 11 11 12 12 13 13
REMARK SMILES IDX 14 14 15 15 16 16 17 17 18 18 19 19 20 20
REMARK H PARENT
REMARK Flexibility Score: inf
ROOT
ATOM      1  C   UNL     1       2.446  21.692   9.317  1.00  0.00     0.000 C 
ENDROOT
BRANCH   1   2
ATOM      2  C   UNL     1       2.120  21.855   7.824  1.00  0.00     0.000 C 
BRANCH   2   3
ATOM      3  C   UNL     1       0.865  21.060   7.447  1.00  0.00     0.000 C 
BRANCH   3   4
ATOM      4  C   UNL     1       1.177  20.026   6.354  1.00  0.00     0.000 C 
BRANCH   4   5
ATOM      5  C   UNL     1       2.624  20.122   5.844  1.00  0.00     0.000 C 
BRANCH   5   6
ATOM      6  C   UNL     1       3.476  18.906   6.249  1.00  0.00     0.006 C 
BRANCH   6   7
ATOM      7  C   UNL     1       4.824  19.320   6.854  1.00  0.00     0.053 C 
BRANCH   7   8
ATOM      8  C   UNL     1       5.953  18.501   6.308  1.00  0.00     0.041 C 
ATOM      9  O   UNL     1       7.123  18.668   6.742  1.00  0.00    -0.550 OA
ATOM     10  O   UNL     1       5.719  17.581   5.295  1.00  0.00    -0.550 OA
ENDBRANCH   7   8
ENDBRANCH   6   7
ENDBRANCH   5   6
ENDBRANCH   4   5
ENDBRANCH   3   4
ENDBRANCH   2   3
ENDBRANCH   1   2
BRANCH   1  11
ATOM     11  C   UNL     1       1.394  20.861  10.068  1.00  0.00     0.000 C 
BRANCH  11  12
ATOM     12  C   UNL     1       2.001  19.631  10.767  1.00  0.00     0.000 C 
BRANCH  12  13
ATOM     13  C   UNL     1       3.189  19.037   9.992  1.00  0.00     0.000 C 
BRANCH  13  14
ATOM     14  C   UNL     1       3.710  17.732  10.620  1.00  0.00     0.000 C 
BRANCH  14  15
ATOM     15  C   UNL     1       4.750  17.017   9.740  1.00  0.00     0.000 C 
BRANCH  15  16
ATOM     16  C   UNL     1       4.359  15.600   9.275  1.00  0.00     0.006 C 
BRANCH  16  17
ATOM     17  C   UNL     1       4.195  15.462   7.750  1.00  0.00     0.053 C 
BRANCH  17  18
ATOM     18  C   UNL     1       4.395  14.054   7.272  1.00  0.00     0.041 C 
ATOM     19  O   UNL     1       5.159  13.274   7.900  1.00  0.00    -0.550 OA
ATOM     20  O   UNL     1       3.704  13.590   6.160  1.00  0.00    -0.550 OA
ENDBRANCH  17  18
ENDBRANCH  16  17
ENDBRANCH  15  16
ENDBRANCH  14  15
ENDBRANCH  13  14
ENDBRANCH  12  13
ENDBRANCH  11  12
ENDBRANCH   1  11
TORSDOF 15
ENDMDL
MODEL 3
REMARK VINA RESULT:    -3.047      1.599      2.672
REMARK INTER + INTRA:          -7.408
REMARK INTER:                  -5.411
REMARK INTRA:                  -1.997
REMARK UNBOUND:                -1.689
REMARK SMILES O=C([O-])CCCCCCCCCCCCCCC(=O)[O-]
REMARK SMILES IDX 10 1 9 2 8 3 7 4 6 5 5 6 4 7 2 8 1 9 3 10 11 11 12 12 13 13
REMARK SMILES IDX 14 14 15 15 16 16 17 17 18 18 19 19 20 20
REMARK H PARENT
REMARK Flexibility Score: inf
ROOT
ATOM      1  C   UNL     1       2.121  20.610   8.828  1.00  0.00     0.000 C 
ENDROOT
BRANCH   1   2
ATOM      2  C   UNL     1       1.858  20.210  10.289  1.00  0.00     0.000 C 
BRANCH   2   3
ATOM      3  C   UNL     1       2.595  18.914  10.644  1.00  0.00     0.000 C 
BRANCH   3   4
ATOM      4  C   UNL     1       3.562  18.506   9.522  1.00  0.00     0.000 C 
BRANCH   4   5
ATOM      5  C   UNL     1       4.600  17.470   9.983  1.00  0.00     0.000 C 
BRANCH   5   6
ATOM      6  C   UNL     1       5.104  16.584   8.830  1.00  0.00     0.006 C 
BRANCH   6   7
ATOM      7  C   UNL     1       3.953  15.890   8.088  1.00  0.00     0.053 C 
BRANCH   7   8
ATOM      8  C   UNL     1       4.369  14.561   7.538  1.00  0.00     0.041 C 
ATOM      9  O   UNL     1       3.919  14.166   6.430  1.00  0.00    -0.550 OA
ATOM     10  O   UNL     1       5.223  13.742   8.265  1.00  0.00    -0.550 OA
ENDBRANCH   7   8
ENDBRANCH   6   7
ENDBRANCH   5   6
ENDBRANCH   4   5
ENDBRANCH   3   4
ENDBRANCH   2   3
ENDBRANCH   1   2
BRANCH   1  11
ATOM     11  C   UNL     1       0.834  20.970   8.069  1.00  0.00     0.000 C 
BRANCH  11  12
ATOM     12  C   UNL     1       0.807  20.389   6.644  1.00  0.00     0.000 C 
BRANCH  12  13
ATOM     13  C   UNL     1       2.101  19.640   6.286  1.00  0.00     0.000 C 
BRANCH  13  14
ATOM     14  C   UNL     1       2.870  20.309   5.133  1.00  0.00     0.000 C 
BRANCH  14  15
ATOM     15  C   UNL     1       4.396  20.165   5.268  1.00  0.00     0.000 C 
BRANCH  15  16
ATOM     16  C   UNL     1       4.879  18.889   5.986  1.00  0.00     0.006 C 
BRANCH  16  17
ATOM     17  C   UNL     1       5.150  17.701   5.044  1.00  0.00     0.053 C 
BRANCH  17  18
ATOM     18  C   UNL     1       6.445  17.009   5.345  1.00  0.00     0.041 C 
ATOM     19  O   UNL     1       7.363  17.617   5.957  1.00  0.00    -0.550 OA
ATOM     20  O   UNL     1       6.623  15.678   4.990  1.00  0.00    -0.550 OA
ENDBRANCH  17  18
ENDBRANCH  16  17
ENDBRANCH  15  16
ENDBRANCH  14  15
ENDBRANCH  13  14
ENDBRANCH  12  13
ENDBRANCH  11  12
ENDBRANCH   1  11
TORSDOF 15
ENDMDL
MODEL 4
REMARK VINA RESULT:    -3.013      1.863      4.810
REMARK INTER + INTRA:          -7.344
REMARK INTER:                  -5.282
REMARK INTRA:                  -2.063
REMARK UNBOUND:                -1.689
REMARK SMILES O=C([O-])CCCCCCCCCCCCCCC(=O)[O-]
REMARK SMILES IDX 10 1 9 2 8 3 7 4 6 5 5 6 4 7 2 8 1 9 3 10 11 11 12 12 13 13
REMARK SMILES IDX 14 14 15 15 16 16 17 17 18 18 19 19 20 20
REMARK H PARENT
REMARK Flexibility Score: inf
ROOT
ATOM      1  C   UNL     1       2.339  20.325   5.319  1.00  0.00     0.000 C 
ENDROOT
BRANCH   1   2
ATOM      2  C   UNL     1       3.871  20.232   5.390  1.00  0.00     0.000 C 
BRANCH   2   3
ATOM      3  C   UNL     1       4.317  18.814   5.767  1.00  0.00     0.000 C 
BRANCH   3   4
ATOM      4  C   UNL     1       5.357  18.846   6.897  1.00  0.00     0.000 C 
BRANCH   4   5
ATOM      5  C   UNL     1       5.141  17.730   7.932  1.00  0.00     0.000 C 
BRANCH   5   6
ATOM      6  C   UNL     1       3.908  16.865   7.620  1.00  0.00     0.006 C 
BRANCH   6   7
ATOM      7  C   UNL     1       4.127  15.391   7.986  1.00  0.00     0.053 C 
BRANCH   7   8
ATOM      8  C   UNL     1       4.380  14.549   6.774  1.00  0.00     0.041 C 
ATOM      9  O   UNL     1       3.722  13.490   6.591  1.00  0.00    -0.550 OA
ATOM     10  O   UNL     1       5.365  14.912   5.866  1.00  0.00    -0.550 OA
ENDBRANCH   7   8
ENDBRANCH   6   7
ENDBRANCH   5   6
ENDBRANCH   4   5
ENDBRANCH   3   4
ENDBRANCH   2   3
ENDBRANCH   1   2
BRANCH   1  11
ATOM     11  C   UNL     1       1.652  19.820   6.598  1.00  0.00     0.000 C 
BRANCH  11  12
ATOM     12  C   UNL     1       1.060  20.963   7.441  1.00  0.00     0.000 C 
BRANCH  12  13
ATOM     13  C   UNL     1       1.789  21.148   8.782  1.00  0.00     0.000 C 
BRANCH  13  14
ATOM     14  C   UNL     1       2.547  19.883   9.221  1.00  0.00     0.000 C 
BRANCH  14  15
ATOM     15  C   UNL     1       2.103  19.367  10.601  1.00  0.00     0.000 C 
BRANCH  15  16
ATOM     16  C   UNL     1       3.094  18.417  11.301  1.00  0.00     0.006 C 
BRANCH  16  17
ATOM     17  C   UNL     1       4.200  19.136  12.097  1.00  0.00     0.053 C 
BRANCH  17  18
ATOM     18  C   UNL     1       5.527  19.102  11.400  1.00  0.00     0.041 C 
ATOM     19  O   UNL     1       6.017  20.156  10.914  1.00  0.00    -0.550 OA
ATOM     20  O   UNL     1       6.245  17.915  11.326  1.00  0.00    -0.550 OA
ENDBRANCH  17  18
ENDBRANCH  16  17
ENDBRANCH  15  16
ENDBRANCH  14  15
ENDBRANCH  13  14
ENDBRANCH  12  13
ENDBRANCH  11  12
ENDBRANCH   1  11
TORSDOF 15
ENDMDL
MODEL 5
REMARK VINA RESULT:    -2.999      2.725      4.486
REMARK INTER + INTRA:          -7.319
REMARK INTER:                  -5.274
REMARK INTRA:                  -2.045
REMARK UNBOUND:                -1.689
REMARK SMILES O=C([O-])CCCCCCCCCCCCCCC(=O)[O-]
REMARK SMILES IDX 10 1 9 2 8 3 7 4 6 5 5 6 4 7 2 8 1 9 3 10 11 11 12 12 13 13
REMARK SMILES IDX 14 14 15 15 16 16 17 17 18 18 19 19 20 20
REMARK H PARENT
REMARK Flexibility Score: inf
ROOT
ATOM      1  C   UNL     1       2.115  19.310  10.817  1.00  0.00     0.000 C 
ENDROOT
BRANCH   1   2
ATOM      2  C   UNL     1       3.553  19.040  10.348  1.00  0.00     0.000 C 
BRANCH   2   3
ATOM      3  C   UNL     1       3.938  17.573  10.575  1.00  0.00     0.000 C 
BRANCH   3   4
ATOM      4  C   UNL     1       4.738  17.023   9.384  1.00  0.00     0.000 C 
BRANCH   4   5
ATOM      5  C   UNL     1       4.385  15.563   9.058  1.00  0.00     0.000 C 
BRANCH   5   6
ATOM      6  C   UNL     1       3.915  15.379   7.605  1.00  0.00     0.006 C 
BRANCH   6   7
ATOM      7  C   UNL     1       4.604  14.190   6.921  1.00  0.00     0.053 C 
BRANCH   7   8
ATOM      8  C   UNL     1       4.875  14.464   5.473  1.00  0.00     0.041 C 
ATOM      9  O   UNL     1       4.990  15.649   5.064  1.00  0.00    -0.550 OA
ATOM     10  O   UNL     1       4.963  13.413   4.571  1.00  0.00    -0.550 OA
ENDBRANCH   7   8
ENDBRANCH   6   7
ENDBRANCH   5   6
ENDBRANCH   4   5
ENDBRANCH   3   4
ENDBRANCH   2   3
ENDBRANCH   1   2
BRANCH   1  11
ATOM     11  C   UNL     1       1.432  20.435  10.024  1.00  0.00     0.000 C 
BRANCH  11  12
ATOM     12  C   UNL     1       2.177  20.775   8.721  1.00  0.00     0.000 C 
BRANCH  12  13
ATOM     13  C   UNL     1       1.246  20.806   7.497  1.00  0.00     0.000 C 
BRANCH  13  14
ATOM     14  C   UNL     1       1.769  19.943   6.335  1.00  0.00     0.000 C 
BRANCH  14  15
ATOM     15  C   UNL     1       2.823  18.915   6.779  1.00  0.00     0.000 C 
BRANCH  15  16
ATOM     16  C   UNL     1       4.181  19.004   6.054  1.00  0.00     0.006 C 
BRANCH  16  17
ATOM     17  C   UNL     1       5.280  19.717   6.863  1.00  0.00     0.053 C 
BRANCH  17  18
ATOM     18  C   UNL     1       5.567  21.099   6.355  1.00  0.00     0.041 C 
ATOM     19  O   UNL     1       6.691  21.372   5.856  1.00  0.00    -0.550 OA
ATOM     20  O   UNL     1       4.578  22.074   6.392  1.00  0.00    -0.550 OA
ENDBRANCH  17  18
ENDBRANCH  16  17
ENDBRANCH  15  16
ENDBRANCH  14  15
ENDBRANCH  13  14
ENDBRANCH  12  13
ENDBRANCH  11  12
ENDBRANCH   1  11
TORSDOF 15
ENDMDL
MODEL 6
REMARK VINA RESULT:    -2.967      1.790      3.085
REMARK INTER + INTRA:          -7.258
REMARK INTER:                  -5.808
REMARK INTRA:                  -1.450
REMARK UNBOUND:                -1.689
REMARK SMILES O=C([O-])CCCCCCCCCCCCCCC(=O)[O-]
REMARK SMILES IDX 10 1 9 2 8 3 7 4 6 5 5 6 4 7 2 8 1 9 3 10 11 11 12 12 13 13
REMARK SMILES IDX 14 14 15 15 16 16 17 17 18 18 19 19 20 20
REMARK H PARENT
REMARK Flexibility Score: inf
ROOT
ATOM      1  C   UNL     1       2.300  20.143   9.538  1.00  0.00     0.000 C 
ENDROOT
BRANCH   1   2
ATOM      2  C   UNL     1       1.673  19.679  10.862  1.00  0.00     0.000 C 
BRANCH   2   3
ATOM      3  C   UNL     1       2.581  18.668  11.574  1.00  0.00     0.000 C 
BRANCH   3   4
ATOM      4  C   UNL     1       3.545  18.001  10.581  1.00  0.00     0.000 C 
BRANCH   4   5
ATOM      5  C   UNL     1       4.254  16.775  11.179  1.00  0.00     0.000 C 
BRANCH   5   6
ATOM      6  C   UNL     1       5.236  16.120  10.192  1.00  0.00     0.006 C 
BRANCH   6   7
ATOM      7  C   UNL     1       4.657  14.848   9.559  1.00  0.00     0.053 C 
BRANCH   7   8
ATOM      8  C   UNL     1       4.632  14.933   8.064  1.00  0.00     0.041 C 
ATOM      9  O   UNL     1       3.537  14.875   7.445  1.00  0.00    -0.550 OA
ATOM     10  O   UNL     1       5.820  15.038   7.352  1.00  0.00    -0.550 OA
ENDBRANCH   7   8
ENDBRANCH   6   7
ENDBRANCH   5   6
ENDBRANCH   4   5
ENDBRANCH   3   4
ENDBRANCH   2   3
ENDBRANCH   1   2
BRANCH   1  11
ATOM     11  C   UNL     1       1.666  21.436   9.002  1.00  0.00     0.000 C 
BRANCH  11  12
ATOM     12  C   UNL     1       0.178  21.263   8.649  1.00  0.00     0.000 C 
BRANCH  12  13
ATOM     13  C   UNL     1      -0.076  21.278   7.133  1.00  0.00     0.000 C 
BRANCH  13  14
ATOM     14  C   UNL     1       0.725  20.195   6.389  1.00  0.00     0.000 C 
BRANCH  14  15
ATOM     15  C   UNL     1       1.729  20.778   5.380  1.00  0.00     0.000 C 
BRANCH  15  16
ATOM     16  C   UNL     1       3.134  20.143   5.403  1.00  0.00     0.006 C 
BRANCH  16  17
ATOM     17  C   UNL     1       3.262  18.935   6.350  1.00  0.00     0.053 C 
BRANCH  17  18
ATOM     18  C   UNL     1       4.607  18.277   6.267  1.00  0.00     0.041 C 
ATOM     19  O   UNL     1       4.820  17.373   5.417  1.00  0.00    -0.550 OA
ATOM     20  O   UNL     1       5.639  18.693   7.099  1.00  0.00    -0.550 OA
ENDBRANCH  17  18
ENDBRANCH  16  17
ENDBRANCH  15  16
ENDBRANCH  14  15
ENDBRANCH  13  14
ENDBRANCH  12  13
ENDBRANCH  11  12
ENDBRANCH   1  11
TORSDOF 15
ENDMDL
MODEL 7
REMARK VINA RESULT:    -2.924      1.836      4.088
REMARK INTER + INTRA:          -7.177
REMARK INTER:                  -5.152
REMARK INTRA:                  -2.025
REMARK UNBOUND:                -1.689
REMARK SMILES O=C([O-])CCCCCCCCCCCCCCC(=O)[O-]
REMARK SMILES IDX 10 1 9 2 8 3 7 4 6 5 5 6 4 7 2 8 1 9 3 10 11 11 12 12 13 13
REMARK SMILES IDX 14 14 15 15 16 16 17 17 18 18 19 19 20 20
REMARK H PARENT
REMARK Flexibility Score: inf
ROOT
ATOM      1  C   UNL     1       1.893  20.508   8.618  1.00  0.00     0.000 C 
ENDROOT
BRANCH   1   2
ATOM      2  C   UNL     1       1.823  20.244   7.105  1.00  0.00     0.000 C 
BRANCH   2   3
ATOM      3  C   UNL     1       2.746  19.086   6.708  1.00  0.00     0.000 C 
BRANCH   3   4
ATOM      4  C   UNL     1       3.710  19.511   5.589  1.00  0.00     0.000 C 
BRANCH   4   5
ATOM      5  C   UNL     1       4.855  18.507   5.382  1.00  0.00     0.000 C 
BRANCH   5   6
ATOM      6  C   UNL     1       5.906  18.568   6.505  1.00  0.00     0.006 C 
BRANCH   6   7
ATOM      7  C   UNL     1       7.336  18.418   5.968  1.00  0.00     0.053 C 
BRANCH   7   8
ATOM      8  C   UNL     1       7.831  17.010   6.093  1.00  0.00     0.041 C 
ATOM      9  O   UNL     1       7.981  16.299   5.065  1.00  0.00    -0.550 OA
ATOM     10  O   UNL     1       8.091  16.471   7.346  1.00  0.00    -0.550 OA
ENDBRANCH   7   8
ENDBRANCH   6   7
ENDBRANCH   5   6
ENDBRANCH   4   5
ENDBRANCH   3   4
ENDBRANCH   2   3
ENDBRANCH   1   2
BRANCH   1  11
ATOM     11  C   UNL     1       3.076  19.795   9.291  1.00  0.00     0.000 C 
BRANCH  11  12
ATOM     12  C   UNL     1       2.665  19.054  10.576  1.00  0.00     0.000 C 
BRANCH  12  13
ATOM     13  C   UNL     1       3.576  17.854  10.885  1.00  0.00     0.000 C 
BRANCH  13  14
ATOM     14  C   UNL     1       4.484  17.482   9.699  1.00  0.00     0.000 C 
BRANCH  14  15
ATOM     15  C   UNL     1       4.374  16.000   9.301  1.00  0.00     0.000 C 
BRANCH  15  16
ATOM     16  C   UNL     1       3.924  15.737   7.850  1.00  0.00     0.006 C 
BRANCH  16  17
ATOM     17  C   UNL     1       4.911  14.885   7.031  1.00  0.00     0.053 C 
BRANCH  17  18
ATOM     18  C   UNL     1       4.523  13.437   6.983  1.00  0.00     0.041 C 
ATOM     19  O   UNL     1       5.037  12.615   7.787  1.00  0.00    -0.550 OA
ATOM     20  O   UNL     1       3.559  13.003   6.081  1.00  0.00    -0.550 OA
ENDBRANCH  17  18
ENDBRANCH  16  17
ENDBRANCH  15  16
ENDBRANCH  14  15
ENDBRANCH  13  14
ENDBRANCH  12  13
ENDBRANCH  11  12
ENDBRANCH   1  11
TORSDOF 15
ENDMDL
MODEL 8
REMARK VINA RESULT:    -2.890      2.474      4.938
REMARK INTER + INTRA:          -7.113
REMARK INTER:                  -5.144
REMARK INTRA:                  -1.968
REMARK UNBOUND:                -1.689
REMARK SMILES O=C([O-])CCCCCCCCCCCCCCC(=O)[O-]
REMARK SMILES IDX 10 1 9 2 8 3 7 4 6 5 5 6 4 7 2 8 1 9 3 10 11 11 12 12 13 13
REMARK SMILES IDX 14 14 15 15 16 16 17 17 18 18 19 19 20 20
REMARK H PARENT
REMARK Flexibility Score: inf
ROOT
ATOM      1  C   UNL     1       2.914  21.133   9.647  1.00  0.00     0.000 C 
ENDROOT
BRANCH   1   2
ATOM      2  C   UNL     1       1.875  22.063   9.002  1.00  0.00     0.000 C 
BRANCH   2   3
ATOM      3  C   UNL     1       0.570  21.311   8.713  1.00  0.00     0.000 C 
BRANCH   3   4
ATOM      4  C   UNL     1       0.166  21.458   7.238  1.00  0.00     0.000 C 
BRANCH   4   5
ATOM      5  C   UNL     1       0.616  20.265   6.380  1.00  0.00     0.000 C 
BRANCH   5   6
ATOM      6  C   UNL     1       1.877  20.573   5.554  1.00  0.00     0.006 C 
BRANCH   6   7
ATOM      7  C   UNL     1       3.059  19.677   5.947  1.00  0.00     0.053 C 
BRANCH   7   8
ATOM      8  C   UNL     1       4.339  20.451   6.026  1.00  0.00     0.041 C 
ATOM      9  O   UNL     1       5.094  20.323   7.026  1.00  0.00    -0.550 OA
ATOM     10  O   UNL     1       4.680  21.339   5.016  1.00  0.00    -0.550 OA
ENDBRANCH   7   8
ENDBRANCH   6   7
ENDBRANCH   5   6
ENDBRANCH   4   5
ENDBRANCH   3   4
ENDBRANCH   2   3
ENDBRANCH   1   2
BRANCH   1  11
ATOM     11  C   UNL     1       2.528  19.649   9.545  1.00  0.00     0.000 C 
BRANCH  11  12
ATOM     12  C   UNL     1       2.869  18.860  10.822  1.00  0.00     0.000 C 
BRANCH  12  13
ATOM     13  C   UNL     1       3.795  17.664  10.549  1.00  0.00     0.000 C 
BRANCH  13  14
ATOM     14  C   UNL     1       5.087  18.073   9.819  1.00  0.00     0.000 C 
BRANCH  14  15
ATOM     15  C   UNL     1       5.396  17.184   8.602  1.00  0.00     0.000 C 
BRANCH  15  16
ATOM     16  C   UNL     1       4.165  16.685   7.820  1.00  0.00     0.006 C 
BRANCH  16  17
ATOM     17  C   UNL     1       4.006  15.153   7.806  1.00  0.00     0.053 C 
BRANCH  17  18
ATOM     18  C   UNL     1       4.401  14.543   6.494  1.00  0.00     0.041 C 
ATOM     19  O   UNL     1       3.833  13.497   6.083  1.00  0.00    -0.550 OA
ATOM     20  O   UNL     1       5.367  15.154   5.704  1.00  0.00    -0.550 OA
ENDBRANCH  17  18
ENDBRANCH  16  17
ENDBRANCH  15  16
ENDBRANCH  14  15
ENDBRANCH  13  14
ENDBRANCH  12  13
ENDBRANCH  11  12
ENDBRANCH   1  11
TORSDOF 15
ENDMDL
MODEL 9
REMARK VINA RESULT:    -2.885      1.902      3.602
REMARK INTER + INTRA:          -7.104
REMARK INTER:                  -5.561
REMARK INTRA:                  -1.542
REMARK UNBOUND:                -1.689
REMARK SMILES O=C([O-])CCCCCCCCCCCCCCC(=O)[O-]
REMARK SMILES IDX 10 1 9 2 8 3 7 4 6 5 5 6 4 7 2 8 1 9 3 10 11 11 12 12 13 13
REMARK SMILES IDX 14 14 15 15 16 16 17 17 18 18 19 19 20 20
REMARK H PARENT
REMARK Flexibility Score: inf
ROOT
ATOM      1  C   UNL     1       2.492  19.058  10.874  1.00  0.00     0.000 C 
ENDROOT
BRANCH   1   2
ATOM      2  C   UNL     1       3.737  18.406  10.253  1.00  0.00     0.000 C 
BRANCH   2   3
ATOM      3  C   UNL     1       4.090  17.101  10.975  1.00  0.00     0.000 C 
BRANCH   3   4
ATOM      4  C   UNL     1       4.349  15.968   9.969  1.00  0.00     0.000 C 
BRANCH   4   5
ATOM      5  C   UNL     1       4.401  16.468   8.516  1.00  0.00     0.000 C 
BRANCH   5   6
ATOM      6  C   UNL     1       3.901  15.415   7.511  1.00  0.00     0.006 C 
BRANCH   6   7
ATOM      7  C   UNL     1       5.037  14.524   6.994  1.00  0.00     0.053 C 
BRANCH   7   8
ATOM      8  C   UNL     1       4.604  13.097   6.855  1.00  0.00     0.041 C 
ATOM      9  O   UNL     1       3.507  12.819   6.302  1.00  0.00    -0.550 OA
ATOM     10  O   UNL     1       5.394  12.076   7.368  1.00  0.00    -0.550 OA
ENDBRANCH   7   8
ENDBRANCH   6   7
ENDBRANCH   5   6
ENDBRANCH   4   5
ENDBRANCH   3   4
ENDBRANCH   2   3
ENDBRANCH   1   2
BRANCH   1  11
ATOM     11  C   UNL     1       1.884  20.151   9.980  1.00  0.00     0.000 C 
BRANCH  11  12
ATOM     12  C   UNL     1       2.681  20.360   8.679  1.00  0.00     0.000 C 
BRANCH  12  13
ATOM     13  C   UNL     1       1.809  20.213   7.422  1.00  0.00     0.000 C 
BRANCH  13  14
ATOM     14  C   UNL     1       2.475  19.345   6.340  1.00  0.00     0.000 C 
BRANCH  14  15
ATOM     15  C   UNL     1       3.630  20.064   5.622  1.00  0.00     0.000 C 
BRANCH  15  16
ATOM     16  C   UNL     1       5.016  19.406   5.777  1.00  0.00     0.006 C 
BRANCH  16  17
ATOM     17  C   UNL     1       5.107  17.985   5.188  1.00  0.00     0.053 C 
BRANCH  17  18
ATOM     18  C   UNL     1       5.746  17.963   3.831  1.00  0.00     0.041 C 
ATOM     19  O   UNL     1       5.537  18.899   3.015  1.00  0.00    -0.550 OA
ATOM     20  O   UNL     1       6.607  16.930   3.483  1.00  0.00    -0.550 OA
ENDBRANCH  17  18
ENDBRANCH  16  17
ENDBRANCH  15  16
ENDBRANCH  14  15
ENDBRANCH  13  14
ENDBRANCH  12  13
ENDBRANCH  11  12
ENDBRANCH   1  11
TORSDOF 15
ENDMDL
