MODEL 1
REMARK VINA RESULT:    -3.660      0.000      0.000
REMARK INTER + INTRA:          -4.497
REMARK INTER:                  -4.408
REMARK INTRA:                  -0.088
REMARK UNBOUND:                -0.088
REMARK SMILES CC[C@@H](C)[C@@H]([NH3+])C(=O)[O-]
REMARK SMILES IDX 3 1 4 2 5 3 6 4 7 8 8 9 9 10 2 11 1 12
REMARK H PARENT 6 5 6 6 6 7
REMARK Flexibility Score: inf
ROOT
ATOM      1  C   UNL     1       9.907  40.753  14.021  1.00  0.00     0.050 C 
ATOM      2  C   UNL     1      10.128  39.243  13.811  1.00  0.00     0.014 C 
ENDROOT
BRANCH   1   3
ATOM      3  C   UNL     1      11.134  41.575  13.518  1.00  0.00     0.230 C 
BRANCH   3   4
ATOM      4  N   UNL     1      10.804  42.460  12.390  1.00  0.00    -0.350 N 
ATOM      5  H   UNL     1      11.665  42.854  11.948  1.00  0.00     0.345 HD
ATOM      6  H   UNL     1      10.277  41.919  11.666  1.00  0.00     0.345 HD
ATOM      7  H   UNL     1      10.191  43.243  12.709  1.00  0.00     0.345 HD
ENDBRANCH   3   4
BRANCH   3   8
ATOM      8  C   UNL     1      11.762  42.356  14.647  1.00  0.00     0.099 C 
ATOM      9  O   UNL     1      12.011  43.581  14.499  1.00  0.00    -0.544 OA
ATOM     10  O   UNL     1      12.110  41.730  15.838  1.00  0.00    -0.544 OA
ENDBRANCH   3   8
ENDBRANCH   1   3
BRANCH   1  11
ATOM     11  C   UNL     1       8.569  41.217  13.388  1.00  0.00     0.006 C 
ATOM     12  C   UNL     1       7.975  40.179  12.434  1.00  0.00     0.004 C 
ENDBRANCH   1  11
TORSDOF 4
ENDMDL
MODEL 2
REMARK VINA RESULT:    -3.613     10.769     12.020
REMARK INTER + INTRA:          -4.441
REMARK INTER:                  -4.307
REMARK INTRA:                  -0.134
REMARK UNBOUND:                -0.088
REMARK SMILES CC[C@@H](C)[C@@H]([NH3+])C(=O)[O-]
REMARK SMILES IDX 3 1 4 2 5 3 6 4 7 8 8 9 9 10 2 11 1 12
REMARK H PARENT 6 5 6 6 6 7
REMARK Flexibility Score: inf
ROOT
ATOM      1  C   UNL     1      16.651  30.436  14.135  1.00  0.00     0.050 C 
ATOM      2  C   UNL     1      16.874  29.168  14.981  1.00  0.00     0.014 C 
ENDROOT
BRANCH   1   3
ATOM      3  C   UNL     1      15.635  31.399  14.825  1.00  0.00     0.230 C 
BRANCH   3   4
ATOM      4  N   UNL     1      16.288  32.537  15.490  1.00  0.00    -0.350 N 
ATOM      5  H   UNL     1      16.403  33.346  14.838  1.00  0.00     0.345 HD
ATOM      6  H   UNL     1      15.708  32.845  16.303  1.00  0.00     0.345 HD
ATOM      7  H   UNL     1      17.224  32.255  15.858  1.00  0.00     0.345 HD
ENDBRANCH   3   4
BRANCH   3   8
ATOM      8  C   UNL     1      14.590  31.877  13.844  1.00  0.00     0.099 C 
ATOM      9  O   UNL     1      14.916  32.665  12.918  1.00  0.00    -0.544 OA
ATOM     10  O   UNL     1      13.262  31.491  13.976  1.00  0.00    -0.544 OA
ENDBRANCH   3   8
ENDBRANCH   1   3
BRANCH   1  11
ATOM     11  C   UNL     1      17.996  31.125  13.790  1.00  0.00     0.006 C 
ATOM     12  C   UNL     1      18.270  31.164  12.286  1.00  0.00     0.004 C 
ENDBRANCH   1  11
TORSDOF 4
ENDMDL
MODEL 3
REMARK VINA RESULT:    -3.561      2.813      3.995
REMARK INTER + INTRA:          -4.378
REMARK INTER:                  -4.353
REMARK INTRA:                  -0.025
REMARK UNBOUND:                -0.088
REMARK SMILES CC[C@@H](C)[C@@H]([NH3+])C(=O)[O-]
REMARK SMILES IDX 3 1 4 2 5 3 6 4 7 8 8 9 9 10 2 11 1 12
REMARK H PARENT 6 5 6 6 6 7
REMARK Flexibility Score: inf
ROOT
ATOM      1  C   UNL     1      10.792  41.557  13.425  1.00  0.00     0.050 C 
ATOM      2  C   UNL     1      11.622  40.782  14.465  1.00  0.00     0.014 C 
ENDROOT
BRANCH   1   3
ATOM      3  C   UNL     1       9.263  41.368  13.674  1.00  0.00     0.230 C 
BRANCH   3   4
ATOM      4  N   UNL     1       8.486  42.589  13.405  1.00  0.00    -0.350 N 
ATOM      5  H   UNL     1       8.037  42.556  12.462  1.00  0.00     0.345 HD
ATOM      6  H   UNL     1       7.736  42.690  14.128  1.00  0.00     0.345 HD
ATOM      7  H   UNL     1       9.100  43.432  13.467  1.00  0.00     0.345 HD
ENDBRANCH   3   4
BRANCH   3   8
ATOM      8  C   UNL     1       8.724  40.203  12.880  1.00  0.00     0.099 C 
ATOM      9  O   UNL     1       9.069  39.029  13.179  1.00  0.00    -0.544 OA
ATOM     10  O   UNL     1       7.882  40.410  11.794  1.00  0.00    -0.544 OA
ENDBRANCH   3   8
ENDBRANCH   1   3
BRANCH   1  11
ATOM     11  C   UNL     1      11.214  43.048  13.366  1.00  0.00     0.006 C 
ATOM     12  C   UNL     1      12.146  43.443  14.513  1.00  0.00     0.004 C 
ENDBRANCH   1  11
TORSDOF 4
ENDMDL
MODEL 4
REMARK VINA RESULT:    -3.527     11.795     12.788
REMARK INTER + INTRA:          -4.337
REMARK INTER:                  -4.247
REMARK INTRA:                  -0.090
REMARK UNBOUND:                -0.088
REMARK SMILES CC[C@@H](C)[C@@H]([NH3+])C(=O)[O-]
REMARK SMILES IDX 3 1 4 2 5 3 6 4 7 8 8 9 9 10 2 11 1 12
REMARK H PARENT 6 5 6 6 6 7
REMARK Flexibility Score: inf
ROOT
ATOM      1  C   UNL     1      17.269  30.015  14.137  1.00  0.00     0.050 C 
ATOM      2  C   UNL     1      17.136  29.214  12.829  1.00  0.00     0.014 C 
ENDROOT
BRANCH   1   3
ATOM      3  C   UNL     1      16.771  31.482  13.950  1.00  0.00     0.230 C 
BRANCH   3   4
ATOM      4  N   UNL     1      16.771  32.248  15.206  1.00  0.00    -0.350 N 
ATOM      5  H   UNL     1      17.459  31.861  15.891  1.00  0.00     0.345 HD
ATOM      6  H   UNL     1      17.026  33.243  15.007  1.00  0.00     0.345 HD
ATOM      7  H   UNL     1      15.818  32.246  15.634  1.00  0.00     0.345 HD
ENDBRANCH   3   4
BRANCH   3   8
ATOM      8  C   UNL     1      17.570  32.195  12.886  1.00  0.00     0.099 C 
ATOM      9  O   UNL     1      18.774  32.495  13.103  1.00  0.00    -0.544 OA
ATOM     10  O   UNL     1      16.983  32.562  11.681  1.00  0.00    -0.544 OA
ENDBRANCH   3   8
ENDBRANCH   1   3
BRANCH   1  11
ATOM     11  C   UNL     1      16.573  29.286  15.315  1.00  0.00     0.006 C 
ATOM     12  C   UNL     1      16.119  27.872  14.950  1.00  0.00     0.004 C 
ENDBRANCH   1  11
TORSDOF 4
ENDMDL
MODEL 5
REMARK VINA RESULT:    -3.484      1.457      2.132
REMARK INTER + INTRA:          -4.285
REMARK INTER:                  -4.364
REMARK INTRA:                   0.079
REMARK UNBOUND:                -0.088
REMARK SMILES CC[C@@H](C)[C@@H]([NH3+])C(=O)[O-]
REMARK SMILES IDX 3 1 4 2 5 3 6 4 7 8 8 9 9 10 2 11 1 12
REMARK H PARENT 6 5 6 6 6 7
REMARK Flexibility Score: inf
ROOT
ATOM      1  C   UNL     1       9.183  42.061  13.140  1.00  0.00     0.050 C 
ATOM      2  C   UNL     1       8.734  43.173  14.106  1.00  0.00     0.014 C 
ENDROOT
BRANCH   1   3
ATOM      3  C   UNL     1      10.739  41.956  13.087  1.00  0.00     0.230 C 
BRANCH   3   4
ATOM      4  N   UNL     1      11.405  43.255  13.273  1.00  0.00    -0.350 N 
ATOM      5  H   UNL     1      12.139  43.415  12.548  1.00  0.00     0.345 HD
ATOM      6  H   UNL     1      10.696  44.021  13.205  1.00  0.00     0.345 HD
ATOM      7  H   UNL     1      11.839  43.309  14.222  1.00  0.00     0.345 HD
ENDBRANCH   3   4
BRANCH   3   8
ATOM      8  C   UNL     1      11.248  40.943  14.085  1.00  0.00     0.099 C 
ATOM      9  O   UNL     1      11.624  41.323  15.225  1.00  0.00    -0.544 OA
ATOM     10  O   UNL     1      11.346  39.599  13.747  1.00  0.00    -0.544 OA
ENDBRANCH   3   8
ENDBRANCH   1   3
BRANCH   1  11
ATOM     11  C   UNL     1       8.498  40.711  13.480  1.00  0.00     0.006 C 
ATOM     12  C   UNL     1       7.875  40.040  12.255  1.00  0.00     0.004 C 
ENDBRANCH   1  11
TORSDOF 4
ENDMDL
MODEL 6
REMARK VINA RESULT:    -3.474     11.196     12.502
REMARK INTER + INTRA:          -4.273
REMARK INTER:                  -4.321
REMARK INTRA:                   0.048
REMARK UNBOUND:                -0.088
REMARK SMILES CC[C@@H](C)[C@@H]([NH3+])C(=O)[O-]
REMARK SMILES IDX 3 1 4 2 5 3 6 4 7 8 8 9 9 10 2 11 1 12
REMARK H PARENT 6 5 6 6 6 7
REMARK Flexibility Score: inf
ROOT
ATOM      1  C   UNL     1      17.176  30.451  14.465  1.00  0.00     0.050 C 
ATOM      2  C   UNL     1      18.052  31.302  13.526  1.00  0.00     0.014 C 
ENDROOT
BRANCH   1   3
ATOM      3  C   UNL     1      15.908  31.240  14.919  1.00  0.00     0.230 C 
BRANCH   3   4
ATOM      4  N   UNL     1      16.226  32.578  15.443  1.00  0.00    -0.350 N 
ATOM      5  H   UNL     1      17.063  32.985  14.968  1.00  0.00     0.345 HD
ATOM      6  H   UNL     1      15.411  33.215  15.286  1.00  0.00     0.345 HD
ATOM      7  H   UNL     1      16.400  32.534  16.472  1.00  0.00     0.345 HD
ENDBRANCH   3   4
BRANCH   3   8
ATOM      8  C   UNL     1      14.895  31.326  13.803  1.00  0.00     0.099 C 
ATOM      9  O   UNL     1      13.910  30.542  13.790  1.00  0.00    -0.544 OA
ATOM     10  O   UNL     1      15.057  32.235  12.764  1.00  0.00    -0.544 OA
ENDBRANCH   3   8
ENDBRANCH   1   3
BRANCH   1  11
ATOM     11  C   UNL     1      16.836  29.079  13.826  1.00  0.00     0.006 C 
ATOM     12  C   UNL     1      16.353  28.054  14.853  1.00  0.00     0.004 C 
ENDBRANCH   1  11
TORSDOF 4
ENDMDL
MODEL 7
REMARK VINA RESULT:    -3.395     10.878     11.602
REMARK INTER + INTRA:          -4.178
REMARK INTER:                  -4.074
REMARK INTRA:                  -0.104
REMARK UNBOUND:                -0.088
REMARK SMILES CC[C@@H](C)[C@@H]([NH3+])C(=O)[O-]
REMARK SMILES IDX 3 1 4 2 5 3 6 4 7 8 8 9 9 10 2 11 1 12
REMARK H PARENT 6 5 6 6 6 7
REMARK Flexibility Score: inf
ROOT
ATOM      1  C   UNL     1      15.422  31.603  13.087  1.00  0.00     0.050 C 
ATOM      2  C   UNL     1      14.757  32.781  12.351  1.00  0.00     0.014 C 
ENDROOT
BRANCH   1   3
ATOM      3  C   UNL     1      16.535  32.105  14.058  1.00  0.00     0.230 C 
BRANCH   3   4
ATOM      4  N   UNL     1      16.002  32.557  15.353  1.00  0.00    -0.350 N 
ATOM      5  H   UNL     1      16.718  33.090  15.896  1.00  0.00     0.345 HD
ATOM      6  H   UNL     1      15.176  33.178  15.191  1.00  0.00     0.345 HD
ATOM      7  H   UNL     1      15.677  31.740  15.917  1.00  0.00     0.345 HD
ENDBRANCH   3   4
BRANCH   3   8
ATOM      8  C   UNL     1      17.599  31.051  14.254  1.00  0.00     0.099 C 
ATOM      9  O   UNL     1      18.432  30.825  13.336  1.00  0.00    -0.544 OA
ATOM     10  O   UNL     1      17.647  30.297  15.419  1.00  0.00    -0.544 OA
ENDBRANCH   3   8
ENDBRANCH   1   3
BRANCH   1  11
ATOM     11  C   UNL     1      14.365  30.711  13.789  1.00  0.00     0.006 C 
ATOM     12  C   UNL     1      12.960  31.313  13.744  1.00  0.00     0.004 C 
ENDBRANCH   1  11
TORSDOF 4
ENDMDL
MODEL 8
REMARK VINA RESULT:    -3.291     12.487     13.104
REMARK INTER + INTRA:          -4.053
REMARK INTER:                  -3.964
REMARK INTRA:                  -0.089
REMARK UNBOUND:                -0.088
REMARK SMILES CC[C@@H](C)[C@@H]([NH3+])C(=O)[O-]
REMARK SMILES IDX 3 1 4 2 5 3 6 4 7 8 8 9 9 10 2 11 1 12
REMARK H PARENT 6 5 6 6 6 7
REMARK Flexibility Score: inf
ROOT
ATOM      1  C   UNL     1      17.611  31.260  13.035  1.00  0.00     0.050 C 
ATOM      2  C   UNL     1      17.958  29.969  12.270  1.00  0.00     0.014 C 
ENDROOT
BRANCH   1   3
ATOM      3  C   UNL     1      17.262  30.954  14.525  1.00  0.00     0.230 C 
BRANCH   3   4
ATOM      4  N   UNL     1      16.934  32.165  15.294  1.00  0.00    -0.350 N 
ATOM      5  H   UNL     1      15.927  32.181  15.570  1.00  0.00     0.345 HD
ATOM      6  H   UNL     1      17.518  32.193  16.162  1.00  0.00     0.345 HD
ATOM      7  H   UNL     1      17.155  33.020  14.737  1.00  0.00     0.345 HD
ENDBRANCH   3   4
BRANCH   3   8
ATOM      8  C   UNL     1      16.150  29.937  14.623  1.00  0.00     0.099 C 
ATOM      9  O   UNL     1      15.003  30.221  14.188  1.00  0.00    -0.544 OA
ATOM     10  O   UNL     1      16.365  28.704  15.227  1.00  0.00    -0.544 OA
ENDBRANCH   3   8
ENDBRANCH   1   3
BRANCH   1  11
ATOM     11  C   UNL     1      18.732  32.321  12.883  1.00  0.00     0.006 C 
ATOM     12  C   UNL     1      19.840  31.877  11.927  1.00  0.00     0.004 C 
ENDBRANCH   1  11
TORSDOF 4
ENDMDL
MODEL 9
REMARK VINA RESULT:    -3.291     16.319     17.382
REMARK INTER + INTRA:          -4.053
REMARK INTER:                  -3.960
REMARK INTRA:                  -0.092
REMARK UNBOUND:                -0.088
REMARK SMILES CC[C@@H](C)[C@@H]([NH3+])C(=O)[O-]
REMARK SMILES IDX 3 1 4 2 5 3 6 4 7 8 8 9 9 10 2 11 1 12
REMARK H PARENT 6 5 6 6 6 7
REMARK Flexibility Score: inf
ROOT
ATOM      1  C   UNL     1      16.137  31.587  26.262  1.00  0.00     0.050 C 
ATOM      2  C   UNL     1      16.148  32.486  25.012  1.00  0.00     0.014 C 
ENDROOT
BRANCH   1   3
ATOM      3  C   UNL     1      14.703  31.488  26.871  1.00  0.00     0.230 C 
BRANCH   3   4
ATOM      4  N   UNL     1      14.505  30.268  27.669  1.00  0.00    -0.350 N 
ATOM      5  H   UNL     1      14.206  29.465  27.071  1.00  0.00     0.345 HD
ATOM      6  H   UNL     1      15.401  30.014  28.144  1.00  0.00     0.345 HD
ATOM      7  H   UNL     1      13.789  30.432  28.411  1.00  0.00     0.345 HD
ENDBRANCH   3   4
BRANCH   3   8
ATOM      8  C   UNL     1      14.372  32.719  27.680  1.00  0.00     0.099 C 
ATOM      9  O   UNL     1      14.716  32.784  28.890  1.00  0.00    -0.544 OA
ATOM     10  O   UNL     1      13.656  33.769  27.118  1.00  0.00    -0.544 OA
ENDBRANCH   3   8
ENDBRANCH   1   3
BRANCH   1  11
ATOM     11  C   UNL     1      16.761  30.199  25.962  1.00  0.00     0.006 C 
ATOM     12  C   UNL     1      18.065  29.961  26.725  1.00  0.00     0.004 C 
ENDBRANCH   1  11
TORSDOF 4
ENDMDL
