MODEL 1
REMARK VINA RESULT:    -7.285      0.000      0.000
REMARK INTER + INTRA:         -15.003
REMARK INTER:                 -11.970
REMARK INTRA:                  -3.033
REMARK UNBOUND:                -3.033
REMARK SMILES C[C@H]1O[C@H](OC[C@@H]2O[C@@H](Oc3c(-c4ccc(O)c(O)c4)oc4cc(O)cc(O)c4c3=O)[C@H](O)[C@H](O)[C@@H]2O)[C@@H](O)[C@H](O)[C@@H]1O
REMARK SMILES IDX 7 1 36 2 34 3 32 4 9 5 8 6 6 7 5 8 4 9 1 10 2 11 42 12 3 13
REMARK SMILES IDX 40 14 38 15 43 16 41 18 39 20 37 22 35 24 10 26 11 27 12 28
REMARK SMILES IDX 30 29 21 30 29 31 31 32 22 33 27 34 23 35 26 36 24 37 13 38
REMARK SMILES IDX 20 39 14 40 18 41 15 42 16 43 19 44 17 46 28 48 25 50 33 52
REMARK H PARENT 43 17 41 19 39 21 37 23 35 25 19 45 17 47 28 49 25 51 33 53
REMARK Flexibility Score: inf
ROOT
ATOM      1  C   UNL     1     163.443 172.667 186.576  1.00  0.00     0.180 C 
ATOM      2  C   UNL     1     161.933 172.307 186.837  1.00  0.00     0.177 C 
ATOM      3  C   UNL     1     161.226 173.453 187.572  1.00  0.00     0.180 C 
ATOM      4  C   UNL     1     161.998 173.903 188.840  1.00  0.00     0.214 C 
ATOM      5  C   UNL     1     163.534 173.659 188.740  1.00  0.00     0.339 C 
ATOM      6  O   UNL     1     163.965 173.729 187.389  1.00  0.00    -0.332 OA
ENDROOT
BRANCH   1   7
ATOM      7  C   UNL     1     164.361 171.422 186.499  1.00  0.00     0.198 C 
BRANCH   7   8
ATOM      8  O   UNL     1     164.410 170.701 187.712  1.00  0.00    -0.347 OA
BRANCH   8   9
ATOM      9  C   UNL     1     165.466 169.731 187.686  1.00  0.00     0.281 C 
ATOM     10  C   UNL     1     168.150 168.340 187.254  1.00  0.00     0.041 C 
ATOM     11  C   UNL     1     167.865 169.736 187.848  1.00  0.00     0.150 C 
ATOM     12  C   UNL     1     167.843 169.784 189.379  1.00  0.00     0.174 C 
ATOM     13  O   UNL     1     166.709 170.329 187.301  1.00  0.00    -0.344 OA
ATOM     14  C   UNL     1     166.630 169.050 189.974  1.00  0.00     0.179 C 
ATOM     15  C   UNL     1     165.419 168.887 189.008  1.00  0.00     0.202 C 
BRANCH  12  16
ATOM     16  O   UNL     1     167.871 171.133 189.779  1.00  0.00    -0.388 OA
ATOM     17  H   UNL     1     166.986 171.333 190.193  1.00  0.00     0.211 HD
ENDBRANCH  12  16
BRANCH  14  18
ATOM     18  O   UNL     1     166.220 169.672 191.166  1.00  0.00    -0.387 OA
ATOM     19  H   UNL     1     166.502 170.623 191.118  1.00  0.00     0.211 HD
ENDBRANCH  14  18
BRANCH  15  20
ATOM     20  O   UNL     1     165.258 167.514 188.695  1.00  0.00    -0.385 OA
ATOM     21  H   UNL     1     166.079 167.038 188.996  1.00  0.00     0.211 HD
ENDBRANCH  15  20
ENDBRANCH   8   9
ENDBRANCH   7   8
ENDBRANCH   1   7
BRANCH   2  22
ATOM     22  O   UNL     1     161.741 171.070 187.500  1.00  0.00    -0.387 OA
ATOM     23  H   UNL     1     161.736 171.241 188.474  1.00  0.00     0.211 HD
ENDBRANCH   2  22
BRANCH   3  24
ATOM     24  O   UNL     1     159.875 173.173 187.839  1.00  0.00    -0.387 OA
ATOM     25  H   UNL     1     159.821 172.322 188.350  1.00  0.00     0.211 HD
ENDBRANCH   3  24
BRANCH   5  26
ATOM     26  O   UNL     1     164.138 174.707 189.513  1.00  0.00    -0.454 OA
BRANCH  26  27
ATOM     27  C   UNL     1     164.576 174.675 190.846  1.00  0.00     0.214 A 
ATOM     28  C   UNL     1     164.156 175.714 191.696  1.00  0.00     0.180 A 
ATOM     29  C   UNL     1     165.350 173.636 191.384  1.00  0.00     0.239 A 
ATOM     30  O   UNL     1     164.486 175.706 192.982  1.00  0.00    -0.452 OA
ATOM     31  C   UNL     1     165.776 173.715 192.735  1.00  0.00     0.111 A 
ATOM     32  O   UNL     1     165.593 172.623 190.681  1.00  0.00    -0.285 OA
ATOM     33  C   UNL     1     165.250 174.774 193.525  1.00  0.00     0.146 A 
ATOM     34  C   UNL     1     166.667 172.795 193.351  1.00  0.00     0.134 A 
ATOM     35  C   UNL     1     165.528 174.850 194.893  1.00  0.00     0.094 A 
ATOM     36  C   UNL     1     166.899 172.871 194.732  1.00  0.00     0.093 A 
ATOM     37  C   UNL     1     166.340 173.895 195.499  1.00  0.00     0.123 A 
BRANCH  28  38
ATOM     38  C   UNL     1     163.336 176.834 191.196  1.00  0.00     0.025 A 
ATOM     39  C   UNL     1     163.938 178.028 190.763  1.00  0.00     0.062 A 
ATOM     40  C   UNL     1     161.937 176.720 191.169  1.00  0.00     0.016 A 
ATOM     41  C   UNL     1     163.156 179.078 190.269  1.00  0.00     0.158 A 
ATOM     42  C   UNL     1     161.153 177.762 190.664  1.00  0.00     0.051 A 
ATOM     43  C   UNL     1     161.756 178.945 190.210  1.00  0.00     0.157 A 
BRANCH  41  44
ATOM     44  O   UNL     1     163.791 180.247 189.850  1.00  0.00    -0.504 OA
ATOM     45  H   UNL     1     164.621 180.232 189.265  1.00  0.00     0.293 HD
ENDBRANCH  41  44
BRANCH  43  46
ATOM     46  O   UNL     1     160.974 179.985 189.703  1.00  0.00    -0.504 OA
ATOM     47  H   UNL     1     161.361 180.909 189.558  1.00  0.00     0.293 HD
ENDBRANCH  43  46
ENDBRANCH  28  38
BRANCH  34  48
ATOM     48  O   UNL     1     167.372 171.830 192.635  1.00  0.00    -0.507 OA
ATOM     49  H   UNL     1     167.288 170.838 192.797  1.00  0.00     0.293 HD
ENDBRANCH  34  48
BRANCH  37  50
ATOM     50  O   UNL     1     166.598 173.982 196.863  1.00  0.00    -0.508 OA
ATOM     51  H   UNL     1     165.933 174.413 197.493  1.00  0.00     0.293 HD
ENDBRANCH  37  50
ENDBRANCH  26  27
ENDBRANCH   5  26
BRANCH   4  52
ATOM     52  O   UNL     1     161.475 173.359 190.023  1.00  0.00    -0.384 OA
ATOM     53  H   UNL     1     161.811 172.431 190.114  1.00  0.00     0.211 HD
ENDBRANCH   4  52
TORSDOF 16
ENDMDL
MODEL 2
REMARK VINA RESULT:    -7.280      2.406      5.631
REMARK INTER + INTRA:         -14.994
REMARK INTER:                 -12.843
REMARK INTRA:                  -2.151
REMARK UNBOUND:                -3.033
REMARK SMILES C[C@H]1O[C@H](OC[C@@H]2O[C@@H](Oc3c(-c4ccc(O)c(O)c4)oc4cc(O)cc(O)c4c3=O)[C@H](O)[C@H](O)[C@@H]2O)[C@@H](O)[C@H](O)[C@@H]1O
REMARK SMILES IDX 7 1 36 2 34 3 32 4 9 5 8 6 6 7 5 8 4 9 1 10 2 11 42 12 3 13
REMARK SMILES IDX 40 14 38 15 43 16 41 18 39 20 37 22 35 24 10 26 11 27 12 28
REMARK SMILES IDX 30 29 21 30 29 31 31 32 22 33 27 34 23 35 26 36 24 37 13 38
REMARK SMILES IDX 20 39 14 40 18 41 15 42 16 43 19 44 17 46 28 48 25 50 33 52
REMARK H PARENT 43 17 41 19 39 21 37 23 35 25 19 45 17 47 28 49 25 51 33 53
REMARK Flexibility Score: inf
ROOT
ATOM      1  C   UNL     1     165.388 172.476 190.165  1.00  0.00     0.180 C 
ATOM      2  C   UNL     1     165.828 171.735 191.483  1.00  0.00     0.177 C 
ATOM      3  C   UNL     1     165.872 172.715 192.662  1.00  0.00     0.180 C 
ATOM      4  C   UNL     1     166.705 173.983 192.341  1.00  0.00     0.214 C 
ATOM      5  C   UNL     1     166.716 174.340 190.825  1.00  0.00     0.339 C 
ATOM      6  O   UNL     1     165.519 173.905 190.198  1.00  0.00    -0.332 OA
ENDROOT
BRANCH   1   7
ATOM      7  C   UNL     1     165.953 171.821 188.881  1.00  0.00     0.198 C 
BRANCH   7   8
ATOM      8  O   UNL     1     164.949 171.244 188.072  1.00  0.00    -0.347 OA
BRANCH   8   9
ATOM      9  C   UNL     1     165.352 169.950 187.606  1.00  0.00     0.281 C 
ATOM     10  C   UNL     1     166.947 167.640 186.401  1.00  0.00     0.041 C 
ATOM     11  C   UNL     1     167.400 168.702 187.424  1.00  0.00     0.150 C 
ATOM     12  C   UNL     1     167.346 168.243 188.885  1.00  0.00     0.174 C 
ATOM     13  O   UNL     1     166.740 169.936 187.251  1.00  0.00    -0.344 OA
ATOM     14  C   UNL     1     165.906 168.064 189.392  1.00  0.00     0.179 C 
ATOM     15  C   UNL     1     164.824 168.857 188.602  1.00  0.00     0.202 C 
BRANCH  12  16
ATOM     16  O   UNL     1     168.051 169.176 189.668  1.00  0.00    -0.388 OA
ATOM     17  H   UNL     1     168.999 168.868 189.706  1.00  0.00     0.211 HD
ENDBRANCH  12  16
BRANCH  14  18
ATOM     18  O   UNL     1     165.829 168.371 190.763  1.00  0.00    -0.387 OA
ATOM     19  H   UNL     1     166.754 168.350 191.124  1.00  0.00     0.211 HD
ENDBRANCH  14  18
BRANCH  15  20
ATOM     20  O   UNL     1     163.989 167.943 187.913  1.00  0.00    -0.385 OA
ATOM     21  H   UNL     1     164.219 167.997 186.945  1.00  0.00     0.211 HD
ENDBRANCH  15  20
ENDBRANCH   8   9
ENDBRANCH   7   8
ENDBRANCH   1   7
BRANCH   2  22
ATOM     22  O   UNL     1     167.042 171.015 191.362  1.00  0.00    -0.387 OA
ATOM     23  H   UNL     1     166.824 170.052 191.304  1.00  0.00     0.211 HD
ENDBRANCH   2  22
BRANCH   3  24
ATOM     24  O   UNL     1     166.272 172.101 193.862  1.00  0.00    -0.387 OA
ATOM     25  H   UNL     1     166.106 172.731 194.613  1.00  0.00     0.211 HD
ENDBRANCH   3  24
BRANCH   5  26
ATOM     26  O   UNL     1     166.818 175.772 190.770  1.00  0.00    -0.454 OA
BRANCH  26  27
ATOM     27  C   UNL     1     165.874 176.702 190.309  1.00  0.00     0.214 A 
ATOM     28  C   UNL     1     164.948 177.208 191.238  1.00  0.00     0.180 A 
ATOM     29  C   UNL     1     165.850 177.196 188.995  1.00  0.00     0.239 A 
ATOM     30  O   UNL     1     164.071 178.137 190.877  1.00  0.00    -0.452 OA
ATOM     31  C   UNL     1     164.829 178.106 188.615  1.00  0.00     0.111 A 
ATOM     32  O   UNL     1     166.769 176.877 188.201  1.00  0.00    -0.285 OA
ATOM     33  C   UNL     1     163.978 178.600 189.642  1.00  0.00     0.146 A 
ATOM     34  C   UNL     1     164.623 178.571 187.289  1.00  0.00     0.134 A 
ATOM     35  C   UNL     1     163.029 179.589 189.367  1.00  0.00     0.094 A 
ATOM     36  C   UNL     1     163.690 179.590 187.046  1.00  0.00     0.093 A 
ATOM     37  C   UNL     1     162.892 180.092 188.077  1.00  0.00     0.123 A 
BRANCH  28  38
ATOM     38  C   UNL     1     164.923 176.737 192.635  1.00  0.00     0.025 A 
ATOM     39  C   UNL     1     165.921 177.128 193.544  1.00  0.00     0.062 A 
ATOM     40  C   UNL     1     163.904 175.871 193.064  1.00  0.00     0.016 A 
ATOM     41  C   UNL     1     165.880 176.695 194.874  1.00  0.00     0.158 A 
ATOM     42  C   UNL     1     163.852 175.445 194.396  1.00  0.00     0.051 A 
ATOM     43  C   UNL     1     164.836 175.856 195.308  1.00  0.00     0.157 A 
BRANCH  41  44
ATOM     44  O   UNL     1     166.890 177.104 195.744  1.00  0.00    -0.504 OA
ATOM     45  H   UNL     1     167.874 177.028 195.504  1.00  0.00     0.293 HD
ENDBRANCH  41  44
BRANCH  43  46
ATOM     46  O   UNL     1     164.783 175.435 196.639  1.00  0.00    -0.504 OA
ATOM     47  H   UNL     1     163.904 175.191 197.076  1.00  0.00     0.293 HD
ENDBRANCH  43  46
ENDBRANCH  28  38
BRANCH  34  48
ATOM     48  O   UNL     1     165.278 178.028 186.186  1.00  0.00    -0.507 OA
ATOM     49  H   UNL     1     164.898 177.286 185.616  1.00  0.00     0.293 HD
ENDBRANCH  34  48
BRANCH  37  50
ATOM     50  O   UNL     1     161.947 181.082 187.824  1.00  0.00    -0.508 OA
ATOM     51  H   UNL     1     161.925 181.933 188.373  1.00  0.00     0.293 HD
ENDBRANCH  37  50
ENDBRANCH  26  27
ENDBRANCH   5  26
BRANCH   4  52
ATOM     52  O   UNL     1     168.007 173.931 192.859  1.00  0.00    -0.384 OA
ATOM     53  H   UNL     1     168.547 173.329 192.284  1.00  0.00     0.211 HD
ENDBRANCH   4  52
TORSDOF 16
ENDMDL
MODEL 3
REMARK VINA RESULT:    -7.233      2.655      5.349
REMARK INTER + INTRA:         -14.917
REMARK INTER:                 -11.696
REMARK INTRA:                  -3.221
REMARK UNBOUND:                -3.033
REMARK SMILES C[C@H]1O[C@H](OC[C@@H]2O[C@@H](Oc3c(-c4ccc(O)c(O)c4)oc4cc(O)cc(O)c4c3=O)[C@H](O)[C@H](O)[C@@H]2O)[C@@H](O)[C@H](O)[C@@H]1O
REMARK SMILES IDX 7 1 36 2 34 3 32 4 9 5 8 6 6 7 5 8 4 9 1 10 2 11 42 12 3 13
REMARK SMILES IDX 40 14 38 15 43 16 41 18 39 20 37 22 35 24 10 26 11 27 12 28
REMARK SMILES IDX 30 29 21 30 29 31 31 32 22 33 27 34 23 35 26 36 24 37 13 38
REMARK SMILES IDX 20 39 14 40 18 41 15 42 16 43 19 44 17 46 28 48 25 50 33 52
REMARK H PARENT 43 17 41 19 39 21 37 23 35 25 19 45 17 47 28 49 25 51 33 53
REMARK Flexibility Score: inf
ROOT
ATOM      1  C   UNL     1     164.783 170.489 187.282  1.00  0.00     0.180 C 
ATOM      2  C   UNL     1     163.278 170.832 186.973  1.00  0.00     0.177 C 
ATOM      3  C   UNL     1     163.039 172.344 187.080  1.00  0.00     0.180 C 
ATOM      4  C   UNL     1     163.558 172.927 188.420  1.00  0.00     0.214 C 
ATOM      5  C   UNL     1     164.752 172.122 189.016  1.00  0.00     0.339 C 
ATOM      6  O   UNL     1     165.509 171.510 187.983  1.00  0.00    -0.332 OA
ENDROOT
BRANCH   1   7
ATOM      7  C   UNL     1     164.975 169.067 187.865  1.00  0.00     0.198 C 
BRANCH   7   8
ATOM      8  O   UNL     1     166.330 168.671 187.910  1.00  0.00    -0.347 OA
BRANCH   8   9
ATOM      9  C   UNL     1     166.662 167.859 186.776  1.00  0.00     0.281 C 
ATOM     10  C   UNL     1     167.434 166.926 183.972  1.00  0.00     0.041 C 
ATOM     11  C   UNL     1     168.067 168.038 184.833  1.00  0.00     0.150 C 
ATOM     12  C   UNL     1     169.323 167.613 185.601  1.00  0.00     0.174 C 
ATOM     13  O   UNL     1     167.133 168.660 185.686  1.00  0.00    -0.344 OA
ATOM     14  C   UNL     1     169.011 166.621 186.734  1.00  0.00     0.179 C 
ATOM     15  C   UNL     1     167.542 166.649 187.250  1.00  0.00     0.202 C 
BRANCH  12  16
ATOM     16  O   UNL     1     169.954 168.770 186.093  1.00  0.00    -0.388 OA
ATOM     17  H   UNL     1     170.466 169.168 185.336  1.00  0.00     0.211 HD
ENDBRANCH  12  16
BRANCH  14  18
ATOM     18  O   UNL     1     169.905 166.806 187.804  1.00  0.00    -0.387 OA
ATOM     19  H   UNL     1     169.920 165.963 188.328  1.00  0.00     0.211 HD
ENDBRANCH  14  18
BRANCH  15  20
ATOM     20  O   UNL     1     166.907 165.430 186.907  1.00  0.00    -0.385 OA
ATOM     21  H   UNL     1     166.110 165.652 186.353  1.00  0.00     0.211 HD
ENDBRANCH  15  20
ENDBRANCH   8   9
ENDBRANCH   7   8
ENDBRANCH   1   7
BRANCH   2  22
ATOM     22  O   UNL     1     162.348 170.103 187.752  1.00  0.00    -0.387 OA
ATOM     23  H   UNL     1     162.623 170.169 188.700  1.00  0.00     0.211 HD
ENDBRANCH   2  22
BRANCH   3  24
ATOM     24  O   UNL     1     161.704 172.700 186.823  1.00  0.00    -0.387 OA
ATOM     25  H   UNL     1     161.268 171.960 186.322  1.00  0.00     0.211 HD
ENDBRANCH   3  24
BRANCH   5  26
ATOM     26  O   UNL     1     165.551 173.087 189.718  1.00  0.00    -0.454 OA
BRANCH  26  27
ATOM     27  C   UNL     1     165.718 173.250 191.102  1.00  0.00     0.214 A 
ATOM     28  C   UNL     1     166.860 172.681 191.693  1.00  0.00     0.180 A 
ATOM     29  C   UNL     1     164.844 173.997 191.906  1.00  0.00     0.239 A 
ATOM     30  O   UNL     1     167.105 172.854 192.986  1.00  0.00    -0.452 OA
ATOM     31  C   UNL     1     165.078 174.069 193.304  1.00  0.00     0.111 A 
ATOM     32  O   UNL     1     163.913 174.645 191.366  1.00  0.00    -0.285 OA
ATOM     33  C   UNL     1     166.290 173.510 193.793  1.00  0.00     0.146 A 
ATOM     34  C   UNL     1     164.196 174.683 194.234  1.00  0.00     0.134 A 
ATOM     35  C   UNL     1     166.648 173.647 195.138  1.00  0.00     0.094 A 
ATOM     36  C   UNL     1     164.594 174.840 195.570  1.00  0.00     0.093 A 
ATOM     37  C   UNL     1     165.810 174.320 196.022  1.00  0.00     0.123 A 
BRANCH  28  38
ATOM     38  C   UNL     1     167.822 171.888 190.903  1.00  0.00     0.025 A 
ATOM     39  C   UNL     1     167.692 170.492 190.805  1.00  0.00     0.062 A 
ATOM     40  C   UNL     1     168.891 172.527 190.256  1.00  0.00     0.016 A 
ATOM     41  C   UNL     1     168.595 169.749 190.037  1.00  0.00     0.158 A 
ATOM     42  C   UNL     1     169.788 171.789 189.476  1.00  0.00     0.051 A 
ATOM     43  C   UNL     1     169.644 170.398 189.360  1.00  0.00     0.157 A 
BRANCH  41  44
ATOM     44  O   UNL     1     168.434 168.365 189.966  1.00  0.00    -0.504 OA
ATOM     45  H   UNL     1     169.147 167.720 190.294  1.00  0.00     0.293 HD
ENDBRANCH  41  44
BRANCH  43  46
ATOM     46  O   UNL     1     170.537 169.660 188.579  1.00  0.00    -0.504 OA
ATOM     47  H   UNL     1     170.246 168.813 188.110  1.00  0.00     0.293 HD
ENDBRANCH  43  46
ENDBRANCH  28  38
BRANCH  34  48
ATOM     48  O   UNL     1     162.912 175.104 193.895  1.00  0.00    -0.507 OA
ATOM     49  H   UNL     1     162.358 174.684 193.164  1.00  0.00     0.293 HD
ENDBRANCH  34  48
BRANCH  37  50
ATOM     50  O   UNL     1     166.186 174.454 197.355  1.00  0.00    -0.508 OA
ATOM     51  H   UNL     1     166.011 175.313 197.862  1.00  0.00     0.293 HD
ENDBRANCH  37  50
ENDBRANCH  26  27
ENDBRANCH   5  26
BRANCH   4  52
ATOM     52  O   UNL     1     162.543 173.106 189.371  1.00  0.00    -0.384 OA
ATOM     53  H   UNL     1     162.426 172.255 189.866  1.00  0.00     0.211 HD
ENDBRANCH   4  52
TORSDOF 16
ENDMDL
MODEL 4
REMARK VINA RESULT:    -7.133      1.902      6.609
REMARK INTER + INTRA:         -14.752
REMARK INTER:                 -11.134
REMARK INTRA:                  -3.618
REMARK UNBOUND:                -3.033
REMARK SMILES C[C@H]1O[C@H](OC[C@@H]2O[C@@H](Oc3c(-c4ccc(O)c(O)c4)oc4cc(O)cc(O)c4c3=O)[C@H](O)[C@H](O)[C@@H]2O)[C@@H](O)[C@H](O)[C@@H]1O
REMARK SMILES IDX 7 1 36 2 34 3 32 4 9 5 8 6 6 7 5 8 4 9 1 10 2 11 42 12 3 13
REMARK SMILES IDX 40 14 38 15 43 16 41 18 39 20 37 22 35 24 10 26 11 27 12 28
REMARK SMILES IDX 30 29 21 30 29 31 31 32 22 33 27 34 23 35 26 36 24 37 13 38
REMARK SMILES IDX 20 39 14 40 18 41 15 42 16 43 19 44 17 46 28 48 25 50 33 52
REMARK H PARENT 43 17 41 19 39 21 37 23 35 25 19 45 17 47 28 49 25 51 33 53
REMARK Flexibility Score: inf
ROOT
ATOM      1  C   UNL     1     163.250 173.666 187.695  1.00  0.00     0.180 C 
ATOM      2  C   UNL     1     163.352 172.941 186.301  1.00  0.00     0.177 C 
ATOM      3  C   UNL     1     164.311 171.747 186.385  1.00  0.00     0.180 C 
ATOM      4  C   UNL     1     165.682 172.137 186.997  1.00  0.00     0.214 C 
ATOM      5  C   UNL     1     165.592 173.338 187.985  1.00  0.00     0.339 C 
ATOM      6  O   UNL     1     164.317 173.378 188.610  1.00  0.00    -0.332 OA
ENDROOT
BRANCH   1   7
ATOM      7  C   UNL     1     162.914 175.173 187.574  1.00  0.00     0.198 C 
BRANCH   7   8
ATOM      8  O   UNL     1     163.595 175.965 188.524  1.00  0.00    -0.347 OA
BRANCH   8   9
ATOM      9  C   UNL     1     162.750 176.258 189.644  1.00  0.00     0.281 C 
ATOM     10  C   UNL     1     160.318 176.790 191.414  1.00  0.00     0.041 C 
ATOM     11  C   UNL     1     160.544 175.658 190.390  1.00  0.00     0.150 C 
ATOM     12  C   UNL     1     161.021 174.335 190.999  1.00  0.00     0.174 C 
ATOM     13  O   UNL     1     161.370 176.055 189.318  1.00  0.00    -0.344 OA
ATOM     14  C   UNL     1     162.458 174.421 191.539  1.00  0.00     0.179 C 
ATOM     15  C   UNL     1     163.329 175.555 190.922  1.00  0.00     0.202 C 
BRANCH  12  16
ATOM     16  O   UNL     1     160.902 173.330 190.021  1.00  0.00    -0.388 OA
ATOM     17  H   UNL     1     161.129 172.465 190.463  1.00  0.00     0.211 HD
ENDBRANCH  12  16
BRANCH  14  18
ATOM     18  O   UNL     1     163.107 173.181 191.400  1.00  0.00    -0.387 OA
ATOM     19  H   UNL     1     162.893 172.833 190.495  1.00  0.00     0.211 HD
ENDBRANCH  14  18
BRANCH  15  20
ATOM     20  O   UNL     1     163.604 176.523 191.920  1.00  0.00    -0.385 OA
ATOM     21  H   UNL     1     164.243 177.181 191.532  1.00  0.00     0.211 HD
ENDBRANCH  15  20
ENDBRANCH   8   9
ENDBRANCH   7   8
ENDBRANCH   1   7
BRANCH   2  22
ATOM     22  O   UNL     1     163.687 173.801 185.227  1.00  0.00    -0.387 OA
ATOM     23  H   UNL     1     163.456 174.726 185.490  1.00  0.00     0.211 HD
ENDBRANCH   2  22
BRANCH   3  24
ATOM     24  O   UNL     1     164.444 171.073 185.159  1.00  0.00    -0.387 OA
ATOM     25  H   UNL     1     165.371 170.722 185.087  1.00  0.00     0.211 HD
ENDBRANCH   3  24
BRANCH   5  26
ATOM     26  O   UNL     1     166.621 173.108 188.960  1.00  0.00    -0.454 OA
BRANCH  26  27
ATOM     27  C   UNL     1     166.535 173.170 190.359  1.00  0.00     0.214 A 
ATOM     28  C   UNL     1     166.351 171.963 191.056  1.00  0.00     0.180 A 
ATOM     29  C   UNL     1     166.685 174.356 191.094  1.00  0.00     0.239 A 
ATOM     30  O   UNL     1     166.324 171.949 192.383  1.00  0.00    -0.452 OA
ATOM     31  C   UNL     1     166.541 174.321 192.506  1.00  0.00     0.111 A 
ATOM     32  O   UNL     1     167.011 175.412 190.497  1.00  0.00    -0.285 OA
ATOM     33  C   UNL     1     166.415 173.044 193.118  1.00  0.00     0.146 A 
ATOM     34  C   UNL     1     166.541 175.470 193.341  1.00  0.00     0.134 A 
ATOM     35  C   UNL     1     166.390 172.920 194.510  1.00  0.00     0.094 A 
ATOM     36  C   UNL     1     166.552 175.317 194.735  1.00  0.00     0.093 A 
ATOM     37  C   UNL     1     166.470 174.050 195.318  1.00  0.00     0.123 A 
BRANCH  28  38
ATOM     38  C   UNL     1     166.192 170.680 190.345  1.00  0.00     0.025 A 
ATOM     39  C   UNL     1     164.917 170.208 189.991  1.00  0.00     0.062 A 
ATOM     40  C   UNL     1     167.323 169.908 190.033  1.00  0.00     0.016 A 
ATOM     41  C   UNL     1     164.774 169.002 189.297  1.00  0.00     0.158 A 
ATOM     42  C   UNL     1     167.186 168.707 189.328  1.00  0.00     0.051 A 
ATOM     43  C   UNL     1     165.913 168.249 188.954  1.00  0.00     0.157 A 
BRANCH  41  44
ATOM     44  O   UNL     1     163.491 168.566 188.965  1.00  0.00    -0.504 OA
ATOM     45  H   UNL     1     162.712 169.209 188.862  1.00  0.00     0.293 HD
ENDBRANCH  41  44
BRANCH  43  46
ATOM     46  O   UNL     1     165.775 167.052 188.247  1.00  0.00    -0.504 OA
ATOM     47  H   UNL     1     164.874 166.749 187.901  1.00  0.00     0.293 HD
ENDBRANCH  43  46
ENDBRANCH  28  38
BRANCH  34  48
ATOM     48  O   UNL     1     166.483 176.769 192.840  1.00  0.00    -0.507 OA
ATOM     49  H   UNL     1     167.294 177.351 192.693  1.00  0.00     0.293 HD
ENDBRANCH  34  48
BRANCH  37  50
ATOM     50  O   UNL     1     166.452 173.907 196.702  1.00  0.00    -0.508 OA
ATOM     51  H   UNL     1     167.015 173.201 197.160  1.00  0.00     0.293 HD
ENDBRANCH  37  50
ENDBRANCH  26  27
ENDBRANCH   5  26
BRANCH   4  52
ATOM     52  O   UNL     1     166.674 172.351 186.029  1.00  0.00    -0.384 OA
ATOM     53  H   UNL     1     166.405 173.126 185.472  1.00  0.00     0.211 HD
ENDBRANCH   4  52
TORSDOF 16
ENDMDL
MODEL 5
REMARK VINA RESULT:    -7.090      4.694      9.978
REMARK INTER + INTRA:         -14.682
REMARK INTER:                 -11.640
REMARK INTRA:                  -3.042
REMARK UNBOUND:                -3.033
REMARK SMILES C[C@H]1O[C@H](OC[C@@H]2O[C@@H](Oc3c(-c4ccc(O)c(O)c4)oc4cc(O)cc(O)c4c3=O)[C@H](O)[C@H](O)[C@@H]2O)[C@@H](O)[C@H](O)[C@@H]1O
REMARK SMILES IDX 7 1 36 2 34 3 32 4 9 5 8 6 6 7 5 8 4 9 1 10 2 11 42 12 3 13
REMARK SMILES IDX 40 14 38 15 43 16 41 18 39 20 37 22 35 24 10 26 11 27 12 28
REMARK SMILES IDX 30 29 21 30 29 31 31 32 22 33 27 34 23 35 26 36 24 37 13 38
REMARK SMILES IDX 20 39 14 40 18 41 15 42 16 43 19 44 17 46 28 48 25 50 33 52
REMARK H PARENT 43 17 41 19 39 21 37 23 35 25 19 45 17 47 28 49 25 51 33 53
REMARK Flexibility Score: inf
ROOT
ATOM      1  C   UNL     1     165.423 168.731 186.584  1.00  0.00     0.180 C 
ATOM      2  C   UNL     1     164.385 169.264 185.527  1.00  0.00     0.177 C 
ATOM      3  C   UNL     1     164.784 168.823 184.113  1.00  0.00     0.180 C 
ATOM      4  C   UNL     1     166.258 169.172 183.783  1.00  0.00     0.214 C 
ATOM      5  C   UNL     1     167.174 169.218 185.043  1.00  0.00     0.339 C 
ATOM      6  O   UNL     1     166.692 168.333 186.044  1.00  0.00    -0.332 OA
ENDROOT
BRANCH   1   7
ATOM      7  C   UNL     1     165.528 169.629 187.841  1.00  0.00     0.198 C 
BRANCH   7   8
ATOM      8  O   UNL     1     166.011 170.924 187.552  1.00  0.00    -0.347 OA
BRANCH   8   9
ATOM      9  C   UNL     1     166.754 171.450 188.659  1.00  0.00     0.281 C 
ATOM     10  C   UNL     1     167.525 172.627 191.370  1.00  0.00     0.041 C 
ATOM     11  C   UNL     1     166.579 171.448 191.057  1.00  0.00     0.150 C 
ATOM     12  C   UNL     1     167.222 170.064 191.185  1.00  0.00     0.174 C 
ATOM     13  O   UNL     1     165.924 171.596 189.818  1.00  0.00    -0.344 OA
ATOM     14  C   UNL     1     168.263 169.796 190.086  1.00  0.00     0.179 C 
ATOM     15  C   UNL     1     168.100 170.655 188.798  1.00  0.00     0.202 C 
BRANCH  12  16
ATOM     16  O   UNL     1     166.199 169.097 191.167  1.00  0.00    -0.388 OA
ATOM     17  H   UNL     1     165.970 168.934 190.210  1.00  0.00     0.211 HD
ENDBRANCH  12  16
BRANCH  14  18
ATOM     18  O   UNL     1     168.285 168.428 189.757  1.00  0.00    -0.387 OA
ATOM     19  H   UNL     1     168.746 167.952 190.497  1.00  0.00     0.211 HD
ENDBRANCH  14  18
BRANCH  15  20
ATOM     20  O   UNL     1     169.197 171.547 188.694  1.00  0.00    -0.385 OA
ATOM     21  H   UNL     1     168.830 172.473 188.672  1.00  0.00     0.211 HD
ENDBRANCH  15  20
ENDBRANCH   8   9
ENDBRANCH   7   8
ENDBRANCH   1   7
BRANCH   2  22
ATOM     22  O   UNL     1     164.162 170.660 185.592  1.00  0.00    -0.387 OA
ATOM     23  H   UNL     1     164.879 171.111 185.082  1.00  0.00     0.211 HD
ENDBRANCH   2  22
BRANCH   3  24
ATOM     24  O   UNL     1     163.891 169.286 183.131  1.00  0.00    -0.387 OA
ATOM     25  H   UNL     1     163.754 170.262 183.259  1.00  0.00     0.211 HD
ENDBRANCH   3  24
BRANCH   5  26
ATOM     26  O   UNL     1     168.470 168.803 184.588  1.00  0.00    -0.454 OA
BRANCH  26  27
ATOM     27  C   UNL     1     169.605 168.476 185.348  1.00  0.00     0.214 A 
ATOM     28  C   UNL     1     170.037 167.138 185.333  1.00  0.00     0.180 A 
ATOM     29  C   UNL     1     170.357 169.420 186.062  1.00  0.00     0.239 A 
ATOM     30  O   UNL     1     171.139 166.780 185.981  1.00  0.00    -0.452 OA
ATOM     31  C   UNL     1     171.466 168.984 186.833  1.00  0.00     0.111 A 
ATOM     32  O   UNL     1     170.079 170.640 185.952  1.00  0.00    -0.285 OA
ATOM     33  C   UNL     1     171.856 167.623 186.705  1.00  0.00     0.146 A 
ATOM     34  C   UNL     1     172.221 169.821 187.698  1.00  0.00     0.134 A 
ATOM     35  C   UNL     1     173.008 167.148 187.339  1.00  0.00     0.094 A 
ATOM     36  C   UNL     1     173.393 169.331 188.292  1.00  0.00     0.093 A 
ATOM     37  C   UNL     1     173.783 168.000 188.120  1.00  0.00     0.123 A 
BRANCH  28  38
ATOM     38  C   UNL     1     169.295 166.097 184.597  1.00  0.00     0.025 A 
ATOM     39  C   UNL     1     169.512 165.895 183.224  1.00  0.00     0.062 A 
ATOM     40  C   UNL     1     168.346 165.308 185.268  1.00  0.00     0.016 A 
ATOM     41  C   UNL     1     168.821 164.891 182.537  1.00  0.00     0.158 A 
ATOM     42  C   UNL     1     167.663 164.295 184.587  1.00  0.00     0.051 A 
ATOM     43  C   UNL     1     167.897 164.079 183.221  1.00  0.00     0.157 A 
BRANCH  41  44
ATOM     44  O   UNL     1     169.062 164.724 181.173  1.00  0.00    -0.504 OA
ATOM     45  H   UNL     1     168.679 163.943 180.648  1.00  0.00     0.293 HD
ENDBRANCH  41  44
BRANCH  43  46
ATOM     46  O   UNL     1     167.217 163.065 182.541  1.00  0.00    -0.504 OA
ATOM     47  H   UNL     1     167.186 163.042 181.530  1.00  0.00     0.293 HD
ENDBRANCH  43  46
ENDBRANCH  28  38
BRANCH  34  48
ATOM     48  O   UNL     1     171.828 171.115 188.032  1.00  0.00    -0.507 OA
ATOM     49  H   UNL     1     171.265 171.341 188.838  1.00  0.00     0.293 HD
ENDBRANCH  34  48
BRANCH  37  50
ATOM     50  O   UNL     1     174.931 167.512 188.736  1.00  0.00    -0.508 OA
ATOM     51  H   UNL     1     175.824 167.529 188.259  1.00  0.00     0.293 HD
ENDBRANCH  37  50
ENDBRANCH  26  27
ENDBRANCH   5  26
BRANCH   4  52
ATOM     52  O   UNL     1     166.388 170.342 183.020  1.00  0.00    -0.384 OA
ATOM     53  H   UNL     1     166.212 170.116 182.070  1.00  0.00     0.211 HD
ENDBRANCH   4  52
TORSDOF 16
ENDMDL
MODEL 6
REMARK VINA RESULT:    -6.975      4.841      7.446
REMARK INTER + INTRA:         -14.493
REMARK INTER:                 -11.612
REMARK INTRA:                  -2.882
REMARK UNBOUND:                -3.033
REMARK SMILES C[C@H]1O[C@H](OC[C@@H]2O[C@@H](Oc3c(-c4ccc(O)c(O)c4)oc4cc(O)cc(O)c4c3=O)[C@H](O)[C@H](O)[C@@H]2O)[C@@H](O)[C@H](O)[C@@H]1O
REMARK SMILES IDX 7 1 36 2 34 3 32 4 9 5 8 6 6 7 5 8 4 9 1 10 2 11 42 12 3 13
REMARK SMILES IDX 40 14 38 15 43 16 41 18 39 20 37 22 35 24 10 26 11 27 12 28
REMARK SMILES IDX 30 29 21 30 29 31 31 32 22 33 27 34 23 35 26 36 24 37 13 38
REMARK SMILES IDX 20 39 14 40 18 41 15 42 16 43 19 44 17 46 28 48 25 50 33 52
REMARK H PARENT 43 17 41 19 39 21 37 23 35 25 19 45 17 47 28 49 25 51 33 53
REMARK Flexibility Score: inf
ROOT
ATOM      1  C   UNL     1     169.664 175.004 188.157  1.00  0.00     0.180 C 
ATOM      2  C   UNL     1     170.997 174.439 188.777  1.00  0.00     0.177 C 
ATOM      3  C   UNL     1     170.724 173.138 189.543  1.00  0.00     0.180 C 
ATOM      4  C   UNL     1     169.567 173.290 190.564  1.00  0.00     0.214 C 
ATOM      5  C   UNL     1     168.523 174.370 190.150  1.00  0.00     0.339 C 
ATOM      6  O   UNL     1     168.457 174.487 188.737  1.00  0.00    -0.332 OA
ENDROOT
BRANCH   1   7
ATOM      7  C   UNL     1     169.675 176.544 187.992  1.00  0.00     0.198 C 
BRANCH   7   8
ATOM      8  O   UNL     1     170.940 177.046 187.615  1.00  0.00    -0.347 OA
BRANCH   8   9
ATOM      9  C   UNL     1     170.802 178.122 186.678  1.00  0.00     0.281 C 
ATOM     10  C   UNL     1     169.650 180.218 184.778  1.00  0.00     0.041 C 
ATOM     11  C   UNL     1     169.203 179.856 186.210  1.00  0.00     0.150 C 
ATOM     12  C   UNL     1     169.757 180.776 187.302  1.00  0.00     0.174 C 
ATOM     13  O   UNL     1     169.429 178.499 186.520  1.00  0.00    -0.344 OA
ATOM     14  C   UNL     1     171.272 180.603 187.504  1.00  0.00     0.179 C 
ATOM     15  C   UNL     1     171.850 179.240 187.023  1.00  0.00     0.202 C 
BRANCH  12  16
ATOM     16  O   UNL     1     169.051 180.525 188.493  1.00  0.00    -0.388 OA
ATOM     17  H   UNL     1     169.226 181.294 189.104  1.00  0.00     0.211 HD
ENDBRANCH  12  16
BRANCH  14  18
ATOM     18  O   UNL     1     171.613 180.826 188.850  1.00  0.00    -0.387 OA
ATOM     19  H   UNL     1     170.917 181.418 189.239  1.00  0.00     0.211 HD
ENDBRANCH  14  18
BRANCH  15  20
ATOM     20  O   UNL     1     172.696 179.463 185.908  1.00  0.00    -0.385 OA
ATOM     21  H   UNL     1     172.159 179.304 185.085  1.00  0.00     0.211 HD
ENDBRANCH  15  20
ENDBRANCH   8   9
ENDBRANCH   7   8
ENDBRANCH   1   7
BRANCH   2  22
ATOM     22  O   UNL     1     171.704 175.372 189.573  1.00  0.00    -0.387 OA
ATOM     23  H   UNL     1     172.456 175.725 189.038  1.00  0.00     0.211 HD
ENDBRANCH   2  22
BRANCH   3  24
ATOM     24  O   UNL     1     171.885 172.600 190.125  1.00  0.00    -0.387 OA
ATOM     25  H   UNL     1     172.547 173.331 190.250  1.00  0.00     0.211 HD
ENDBRANCH   3  24
BRANCH   5  26
ATOM     26  O   UNL     1     167.268 173.909 190.674  1.00  0.00    -0.454 OA
BRANCH  26  27
ATOM     27  C   UNL     1     166.530 174.412 191.757  1.00  0.00     0.214 A 
ATOM     28  C   UNL     1     165.556 175.390 191.485  1.00  0.00     0.180 A 
ATOM     29  C   UNL     1     166.670 173.948 193.073  1.00  0.00     0.239 A 
ATOM     30  O   UNL     1     164.784 175.858 192.457  1.00  0.00    -0.452 OA
ATOM     31  C   UNL     1     165.905 174.549 194.106  1.00  0.00     0.111 A 
ATOM     32  O   UNL     1     167.417 172.964 193.302  1.00  0.00    -0.285 OA
ATOM     33  C   UNL     1     164.908 175.486 193.720  1.00  0.00     0.146 A 
ATOM     34  C   UNL     1     166.054 174.257 195.489  1.00  0.00     0.134 A 
ATOM     35  C   UNL     1     164.035 176.031 194.667  1.00  0.00     0.094 A 
ATOM     36  C   UNL     1     165.142 174.786 196.413  1.00  0.00     0.093 A 
ATOM     37  C   UNL     1     164.142 175.674 196.008  1.00  0.00     0.123 A 
BRANCH  28  38
ATOM     38  C   UNL     1     165.354 175.917 190.122  1.00  0.00     0.025 A 
ATOM     39  C   UNL     1     166.081 177.031 189.668  1.00  0.00     0.062 A 
ATOM     40  C   UNL     1     164.412 175.316 189.272  1.00  0.00     0.016 A 
ATOM     41  C   UNL     1     165.900 177.512 188.366  1.00  0.00     0.158 A 
ATOM     42  C   UNL     1     164.238 175.786 187.966  1.00  0.00     0.051 A 
ATOM     43  C   UNL     1     164.981 176.884 187.505  1.00  0.00     0.157 A 
BRANCH  41  44
ATOM     44  O   UNL     1     166.639 178.621 187.953  1.00  0.00    -0.504 OA
ATOM     45  H   UNL     1     166.960 179.331 188.605  1.00  0.00     0.293 HD
ENDBRANCH  41  44
BRANCH  43  46
ATOM     46  O   UNL     1     164.810 177.353 186.200  1.00  0.00    -0.504 OA
ATOM     47  H   UNL     1     164.892 176.731 185.406  1.00  0.00     0.293 HD
ENDBRANCH  43  46
ENDBRANCH  28  38
BRANCH  34  48
ATOM     48  O   UNL     1     167.105 173.493 195.992  1.00  0.00    -0.507 OA
ATOM     49  H   UNL     1     167.138 172.485 195.948  1.00  0.00     0.293 HD
ENDBRANCH  34  48
BRANCH  37  50
ATOM     50  O   UNL     1     163.259 176.219 196.935  1.00  0.00    -0.508 OA
ATOM     51  H   UNL     1     163.576 176.889 197.624  1.00  0.00     0.293 HD
ENDBRANCH  37  50
ENDBRANCH  26  27
ENDBRANCH   5  26
BRANCH   4  52
ATOM     52  O   UNL     1     170.016 173.496 191.877  1.00  0.00    -0.384 OA
ATOM     53  H   UNL     1     170.903 173.063 191.974  1.00  0.00     0.211 HD
ENDBRANCH   4  52
TORSDOF 16
ENDMDL
MODEL 7
REMARK VINA RESULT:    -6.931      2.405      6.106
REMARK INTER + INTRA:         -14.422
REMARK INTER:                 -11.585
REMARK INTRA:                  -2.836
REMARK UNBOUND:                -3.033
REMARK SMILES C[C@H]1O[C@H](OC[C@@H]2O[C@@H](Oc3c(-c4ccc(O)c(O)c4)oc4cc(O)cc(O)c4c3=O)[C@H](O)[C@H](O)[C@@H]2O)[C@@H](O)[C@H](O)[C@@H]1O
REMARK SMILES IDX 7 1 36 2 34 3 32 4 9 5 8 6 6 7 5 8 4 9 1 10 2 11 42 12 3 13
REMARK SMILES IDX 40 14 38 15 43 16 41 18 39 20 37 22 35 24 10 26 11 27 12 28
REMARK SMILES IDX 30 29 21 30 29 31 31 32 22 33 27 34 23 35 26 36 24 37 13 38
REMARK SMILES IDX 20 39 14 40 18 41 15 42 16 43 19 44 17 46 28 48 25 50 33 52
REMARK H PARENT 43 17 41 19 39 21 37 23 35 25 19 45 17 47 28 49 25 51 33 53
REMARK Flexibility Score: inf
ROOT
ATOM      1  C   UNL     1     167.176 171.889 191.417  1.00  0.00     0.180 C 
ATOM      2  C   UNL     1     168.438 171.483 190.569  1.00  0.00     0.177 C 
ATOM      3  C   UNL     1     169.498 172.592 190.618  1.00  0.00     0.180 C 
ATOM      4  C   UNL     1     168.912 173.981 190.254  1.00  0.00     0.214 C 
ATOM      5  C   UNL     1     167.398 174.116 190.598  1.00  0.00     0.339 C 
ATOM      6  O   UNL     1     167.060 173.291 191.704  1.00  0.00    -0.332 OA
ENDROOT
BRANCH   1   7
ATOM      7  C   UNL     1     165.865 171.241 190.907  1.00  0.00     0.198 C 
BRANCH   7   8
ATOM      8  O   UNL     1     166.017 169.872 190.592  1.00  0.00    -0.347 OA
BRANCH   8   9
ATOM      9  C   UNL     1     165.180 169.508 189.486  1.00  0.00     0.281 C 
ATOM     10  C   UNL     1     163.195 169.595 187.167  1.00  0.00     0.041 C 
ATOM     11  C   UNL     1     164.370 170.546 187.474  1.00  0.00     0.150 C 
ATOM     12  C   UNL     1     165.657 170.240 186.700  1.00  0.00     0.174 C 
ATOM     13  O   UNL     1     164.621 170.667 188.856  1.00  0.00    -0.344 OA
ATOM     14  C   UNL     1     166.321 168.931 187.158  1.00  0.00     0.179 C 
ATOM     15  C   UNL     1     165.937 168.463 188.593  1.00  0.00     0.202 C 
BRANCH  12  16
ATOM     16  O   UNL     1     166.530 171.334 186.845  1.00  0.00    -0.388 OA
ATOM     17  H   UNL     1     167.397 170.973 187.182  1.00  0.00     0.211 HD
ENDBRANCH  12  16
BRANCH  14  18
ATOM     18  O   UNL     1     167.719 169.024 187.035  1.00  0.00    -0.387 OA
ATOM     19  H   UNL     1     168.092 168.118 187.198  1.00  0.00     0.211 HD
ENDBRANCH  14  18
BRANCH  15  20
ATOM     20  O   UNL     1     165.178 167.270 188.503  1.00  0.00    -0.385 OA
ATOM     21  H   UNL     1     164.332 167.486 188.025  1.00  0.00     0.211 HD
ENDBRANCH  15  20
ENDBRANCH   8   9
ENDBRANCH   7   8
ENDBRANCH   1   7
BRANCH   2  22
ATOM     22  O   UNL     1     168.141 171.108 189.236  1.00  0.00    -0.387 OA
ATOM     23  H   UNL     1     168.055 171.932 188.696  1.00  0.00     0.211 HD
ENDBRANCH   2  22
BRANCH   3  24
ATOM     24  O   UNL     1     170.642 172.279 189.864  1.00  0.00    -0.387 OA
ATOM     25  H   UNL     1     171.069 171.470 190.253  1.00  0.00     0.211 HD
ENDBRANCH   3  24
BRANCH   5  26
ATOM     26  O   UNL     1     167.203 175.499 190.927  1.00  0.00    -0.454 OA
BRANCH  26  27
ATOM     27  C   UNL     1     166.169 176.360 190.527  1.00  0.00     0.214 A 
ATOM     28  C   UNL     1     165.275 176.810 191.515  1.00  0.00     0.180 A 
ATOM     29  C   UNL     1     166.022 176.839 189.216  1.00  0.00     0.239 A 
ATOM     30  O   UNL     1     164.315 177.674 191.210  1.00  0.00    -0.452 OA
ATOM     31  C   UNL     1     164.918 177.675 188.902  1.00  0.00     0.111 A 
ATOM     32  O   UNL     1     166.905 176.577 188.363  1.00  0.00    -0.285 OA
ATOM     33  C   UNL     1     164.107 178.119 189.982  1.00  0.00     0.146 A 
ATOM     34  C   UNL     1     164.592 178.113 187.591  1.00  0.00     0.134 A 
ATOM     35  C   UNL     1     163.076 179.038 189.769  1.00  0.00     0.094 A 
ATOM     36  C   UNL     1     163.577 179.064 187.408  1.00  0.00     0.093 A 
ATOM     37  C   UNL     1     162.818 179.520 188.489  1.00  0.00     0.123 A 
BRANCH  28  38
ATOM     38  C   UNL     1     165.377 176.350 192.913  1.00  0.00     0.025 A 
ATOM     39  C   UNL     1     166.203 177.020 193.831  1.00  0.00     0.062 A 
ATOM     40  C   UNL     1     164.658 175.219 193.331  1.00  0.00     0.016 A 
ATOM     41  C   UNL     1     166.278 176.592 195.161  1.00  0.00     0.158 A 
ATOM     42  C   UNL     1     164.721 174.795 194.663  1.00  0.00     0.051 A 
ATOM     43  C   UNL     1     165.528 175.479 195.585  1.00  0.00     0.157 A 
BRANCH  41  44
ATOM     44  O   UNL     1     167.111 177.282 196.042  1.00  0.00    -0.504 OA
ATOM     45  H   UNL     1     167.566 176.825 196.827  1.00  0.00     0.293 HD
ENDBRANCH  41  44
BRANCH  43  46
ATOM     46  O   UNL     1     165.589 175.059 196.916  1.00  0.00    -0.504 OA
ATOM     47  H   UNL     1     166.179 175.532 197.588  1.00  0.00     0.293 HD
ENDBRANCH  43  46
ENDBRANCH  28  38
BRANCH  34  48
ATOM     48  O   UNL     1     165.206 177.606 186.448  1.00  0.00    -0.507 OA
ATOM     49  H   UNL     1     165.200 176.629 186.194  1.00  0.00     0.293 HD
ENDBRANCH  34  48
BRANCH  37  50
ATOM     50  O   UNL     1     161.793 180.441 188.297  1.00  0.00    -0.508 OA
ATOM     51  H   UNL     1     161.744 180.997 187.452  1.00  0.00     0.293 HD
ENDBRANCH  37  50
ENDBRANCH  26  27
ENDBRANCH   5  26
BRANCH   4  52
ATOM     52  O   UNL     1     169.165 174.353 188.926  1.00  0.00    -0.384 OA
ATOM     53  H   UNL     1     168.562 175.105 188.693  1.00  0.00     0.211 HD
ENDBRANCH   4  52
TORSDOF 16
ENDMDL
MODEL 8
REMARK VINA RESULT:    -6.873      1.905      7.195
REMARK INTER + INTRA:         -14.326
REMARK INTER:                 -11.488
REMARK INTRA:                  -2.838
REMARK UNBOUND:                -3.033
REMARK SMILES C[C@H]1O[C@H](OC[C@@H]2O[C@@H](Oc3c(-c4ccc(O)c(O)c4)oc4cc(O)cc(O)c4c3=O)[C@H](O)[C@H](O)[C@@H]2O)[C@@H](O)[C@H](O)[C@@H]1O
REMARK SMILES IDX 7 1 36 2 34 3 32 4 9 5 8 6 6 7 5 8 4 9 1 10 2 11 42 12 3 13
REMARK SMILES IDX 40 14 38 15 43 16 41 18 39 20 37 22 35 24 10 26 11 27 12 28
REMARK SMILES IDX 30 29 21 30 29 31 31 32 22 33 27 34 23 35 26 36 24 37 13 38
REMARK SMILES IDX 20 39 14 40 18 41 15 42 16 43 19 44 17 46 28 48 25 50 33 52
REMARK H PARENT 43 17 41 19 39 21 37 23 35 25 19 45 17 47 28 49 25 51 33 53
REMARK Flexibility Score: inf
ROOT
ATOM      1  C   UNL     1     163.070 174.187 188.100  1.00  0.00     0.180 C 
ATOM      2  C   UNL     1     163.183 173.521 186.678  1.00  0.00     0.177 C 
ATOM      3  C   UNL     1     164.149 172.329 186.719  1.00  0.00     0.180 C 
ATOM      4  C   UNL     1     165.514 172.700 187.354  1.00  0.00     0.214 C 
ATOM      5  C   UNL     1     165.412 173.859 188.390  1.00  0.00     0.339 C 
ATOM      6  O   UNL     1     164.134 173.867 189.009  1.00  0.00    -0.332 OA
ENDROOT
BRANCH   1   7
ATOM      7  C   UNL     1     162.726 175.696 188.040  1.00  0.00     0.198 C 
BRANCH   7   8
ATOM      8  O   UNL     1     162.931 176.356 189.271  1.00  0.00    -0.347 OA
BRANCH   8   9
ATOM      9  C   UNL     1     163.862 177.435 189.123  1.00  0.00     0.281 C 
ATOM     10  C   UNL     1     165.577 179.681 187.962  1.00  0.00     0.041 C 
ATOM     11  C   UNL     1     164.073 179.403 187.757  1.00  0.00     0.150 C 
ATOM     12  C   UNL     1     163.145 180.227 188.655  1.00  0.00     0.174 C 
ATOM     13  O   UNL     1     163.763 178.030 187.823  1.00  0.00    -0.344 OA
ATOM     14  C   UNL     1     163.236 179.811 190.133  1.00  0.00     0.179 C 
ATOM     15  C   UNL     1     163.770 178.370 190.381  1.00  0.00     0.202 C 
BRANCH  12  16
ATOM     16  O   UNL     1     161.831 180.099 188.168  1.00  0.00    -0.388 OA
ATOM     17  H   UNL     1     161.329 180.908 188.466  1.00  0.00     0.211 HD
ENDBRANCH  12  16
BRANCH  14  18
ATOM     18  O   UNL     1     161.991 179.982 190.766  1.00  0.00    -0.387 OA
ATOM     19  H   UNL     1     162.170 180.207 191.716  1.00  0.00     0.211 HD
ENDBRANCH  14  18
BRANCH  15  20
ATOM     20  O   UNL     1     165.036 178.448 191.014  1.00  0.00    -0.385 OA
ATOM     21  H   UNL     1     165.398 177.522 191.078  1.00  0.00     0.211 HD
ENDBRANCH  15  20
ENDBRANCH   8   9
ENDBRANCH   7   8
ENDBRANCH   1   7
BRANCH   2  22
ATOM     22  O   UNL     1     163.519 174.426 185.642  1.00  0.00    -0.387 OA
ATOM     23  H   UNL     1     162.797 174.403 184.968  1.00  0.00     0.211 HD
ENDBRANCH   2  22
BRANCH   3  24
ATOM     24  O   UNL     1     164.292 171.707 185.467  1.00  0.00    -0.387 OA
ATOM     25  H   UNL     1     164.435 170.733 185.609  1.00  0.00     0.211 HD
ENDBRANCH   3  24
BRANCH   5  26
ATOM     26  O   UNL     1     166.437 173.595 189.360  1.00  0.00    -0.454 OA
BRANCH  26  27
ATOM     27  C   UNL     1     166.349 173.624 190.761  1.00  0.00     0.214 A 
ATOM     28  C   UNL     1     166.319 172.393 191.439  1.00  0.00     0.180 A 
ATOM     29  C   UNL     1     166.355 174.808 191.513  1.00  0.00     0.239 A 
ATOM     30  O   UNL     1     166.299 172.355 192.765  1.00  0.00    -0.452 OA
ATOM     31  C   UNL     1     166.222 174.734 192.925  1.00  0.00     0.111 A 
ATOM     32  O   UNL     1     166.547 175.905 190.933  1.00  0.00    -0.285 OA
ATOM     33  C   UNL     1     166.257 173.442 193.517  1.00  0.00     0.146 A 
ATOM     34  C   UNL     1     166.084 175.862 193.778  1.00  0.00     0.134 A 
ATOM     35  C   UNL     1     166.252 173.294 194.907  1.00  0.00     0.094 A 
ATOM     36  C   UNL     1     166.119 175.690 195.169  1.00  0.00     0.093 A 
ATOM     37  C   UNL     1     166.196 174.413 195.733  1.00  0.00     0.123 A 
BRANCH  28  38
ATOM     38  C   UNL     1     166.316 171.111 190.708  1.00  0.00     0.025 A 
ATOM     39  C   UNL     1     165.107 170.499 190.336  1.00  0.00     0.062 A 
ATOM     40  C   UNL     1     167.531 170.482 190.395  1.00  0.00     0.016 A 
ATOM     41  C   UNL     1     165.112 169.295 189.623  1.00  0.00     0.158 A 
ATOM     42  C   UNL     1     167.541 169.284 189.671  1.00  0.00     0.051 A 
ATOM     43  C   UNL     1     166.334 168.686 189.280  1.00  0.00     0.157 A 
BRANCH  41  44
ATOM     44  O   UNL     1     163.892 168.717 189.273  1.00  0.00    -0.504 OA
ATOM     45  H   UNL     1     163.578 168.657 188.309  1.00  0.00     0.293 HD
ENDBRANCH  41  44
BRANCH  43  46
ATOM     46  O   UNL     1     166.342 167.492 188.554  1.00  0.00    -0.504 OA
ATOM     47  H   UNL     1     166.299 167.493 187.543  1.00  0.00     0.293 HD
ENDBRANCH  43  46
ENDBRANCH  28  38
BRANCH  34  48
ATOM     48  O   UNL     1     165.864 177.151 193.298  1.00  0.00    -0.507 OA
ATOM     49  H   UNL     1     165.689 177.949 193.891  1.00  0.00     0.293 HD
ENDBRANCH  34  48
BRANCH  37  50
ATOM     50  O   UNL     1     166.201 174.247 197.114  1.00  0.00    -0.508 OA
ATOM     51  H   UNL     1     165.337 174.254 197.643  1.00  0.00     0.293 HD
ENDBRANCH  37  50
ENDBRANCH  26  27
ENDBRANCH   5  26
BRANCH   4  52
ATOM     52  O   UNL     1     166.511 172.959 186.401  1.00  0.00    -0.384 OA
ATOM     53  H   UNL     1     166.149 173.602 185.739  1.00  0.00     0.211 HD
ENDBRANCH   4  52
TORSDOF 16
ENDMDL
MODEL 9
REMARK VINA RESULT:    -6.784      1.933      2.991
REMARK INTER + INTRA:         -14.179
REMARK INTER:                 -11.040
REMARK INTRA:                  -3.139
REMARK UNBOUND:                -3.033
REMARK SMILES C[C@H]1O[C@H](OC[C@@H]2O[C@@H](Oc3c(-c4ccc(O)c(O)c4)oc4cc(O)cc(O)c4c3=O)[C@H](O)[C@H](O)[C@@H]2O)[C@@H](O)[C@H](O)[C@@H]1O
REMARK SMILES IDX 7 1 36 2 34 3 32 4 9 5 8 6 6 7 5 8 4 9 1 10 2 11 42 12 3 13
REMARK SMILES IDX 40 14 38 15 43 16 41 18 39 20 37 22 35 24 10 26 11 27 12 28
REMARK SMILES IDX 30 29 21 30 29 31 31 32 22 33 27 34 23 35 26 36 24 37 13 38
REMARK SMILES IDX 20 39 14 40 18 41 15 42 16 43 19 44 17 46 28 48 25 50 33 52
REMARK H PARENT 43 17 41 19 39 21 37 23 35 25 19 45 17 47 28 49 25 51 33 53
REMARK Flexibility Score: inf
ROOT
ATOM      1  C   UNL     1     163.465 173.434 187.208  1.00  0.00     0.180 C 
ATOM      2  C   UNL     1     162.256 172.434 187.339  1.00  0.00     0.177 C 
ATOM      3  C   UNL     1     161.028 173.148 187.917  1.00  0.00     0.180 C 
ATOM      4  C   UNL     1     161.356 173.917 189.223  1.00  0.00     0.214 C 
ATOM      5  C   UNL     1     162.838 174.393 189.297  1.00  0.00     0.339 C 
ATOM      6  O   UNL     1     163.354 174.629 187.995  1.00  0.00    -0.332 OA
ENDROOT
BRANCH   1   7
ATOM      7  C   UNL     1     164.845 172.738 187.310  1.00  0.00     0.198 C 
BRANCH   7   8
ATOM      8  O   UNL     1     165.059 172.127 188.565  1.00  0.00    -0.347 OA
BRANCH   8   9
ATOM      9  C   UNL     1     166.320 172.526 189.118  1.00  0.00     0.281 C 
ATOM     10  C   UNL     1     168.501 174.000 190.667  1.00  0.00     0.041 C 
ATOM     11  C   UNL     1     167.112 173.533 191.152  1.00  0.00     0.150 C 
ATOM     12  C   UNL     1     167.116 172.201 191.908  1.00  0.00     0.174 C 
ATOM     13  O   UNL     1     166.151 173.534 190.121  1.00  0.00    -0.344 OA
ATOM     14  C   UNL     1     167.431 171.006 190.992  1.00  0.00     0.179 C 
ATOM     15  C   UNL     1     167.151 171.243 189.479  1.00  0.00     0.202 C 
BRANCH  12  16
ATOM     16  O   UNL     1     165.867 172.046 192.538  1.00  0.00    -0.388 OA
ATOM     17  H   UNL     1     165.659 172.911 192.989  1.00  0.00     0.211 HD
ENDBRANCH  12  16
BRANCH  14  18
ATOM     18  O   UNL     1     166.753 169.857 191.437  1.00  0.00    -0.387 OA
ATOM     19  H   UNL     1     165.939 170.161 191.919  1.00  0.00     0.211 HD
ENDBRANCH  14  18
BRANCH  15  20
ATOM     20  O   UNL     1     168.381 171.255 188.776  1.00  0.00    -0.385 OA
ATOM     21  H   UNL     1     168.364 170.501 188.126  1.00  0.00     0.211 HD
ENDBRANCH  15  20
ENDBRANCH   8   9
ENDBRANCH   7   8
ENDBRANCH   1   7
BRANCH   2  22
ATOM     22  O   UNL     1     162.559 171.255 188.062  1.00  0.00    -0.387 OA
ATOM     23  H   UNL     1     162.759 170.538 187.411  1.00  0.00     0.211 HD
ENDBRANCH   2  22
BRANCH   3  24
ATOM     24  O   UNL     1     159.923 172.291 188.063  1.00  0.00    -0.387 OA
ATOM     25  H   UNL     1     159.204 172.778 188.546  1.00  0.00     0.211 HD
ENDBRANCH   3  24
BRANCH   5  26
ATOM     26  O   UNL     1     162.810 175.613 190.053  1.00  0.00    -0.454 OA
BRANCH  26  27
ATOM     27  C   UNL     1     163.687 176.042 191.062  1.00  0.00     0.214 A 
ATOM     28  C   UNL     1     164.353 177.266 190.871  1.00  0.00     0.180 A 
ATOM     29  C   UNL     1     163.882 175.348 192.266  1.00  0.00     0.239 A 
ATOM     30  O   UNL     1     165.146 177.754 191.816  1.00  0.00    -0.452 OA
ATOM     31  C   UNL     1     164.822 175.844 193.207  1.00  0.00     0.111 A 
ATOM     32  O   UNL     1     163.173 174.343 192.518  1.00  0.00    -0.285 OA
ATOM     33  C   UNL     1     165.398 177.117 192.947  1.00  0.00     0.146 A 
ATOM     34  C   UNL     1     165.200 175.164 194.396  1.00  0.00     0.134 A 
ATOM     35  C   UNL     1     166.239 177.725 193.885  1.00  0.00     0.094 A 
ATOM     36  C   UNL     1     166.015 175.810 195.337  1.00  0.00     0.093 A 
ATOM     37  C   UNL     1     166.538 177.080 195.082  1.00  0.00     0.123 A 
BRANCH  28  38
ATOM     38  C   UNL     1     164.188 178.047 189.631  1.00  0.00     0.025 A 
ATOM     39  C   UNL     1     163.151 178.988 189.507  1.00  0.00     0.062 A 
ATOM     40  C   UNL     1     165.061 177.839 188.551  1.00  0.00     0.016 A 
ATOM     41  C   UNL     1     163.014 179.742 188.337  1.00  0.00     0.158 A 
ATOM     42  C   UNL     1     164.935 178.599 187.384  1.00  0.00     0.051 A 
ATOM     43  C   UNL     1     163.914 179.555 187.270  1.00  0.00     0.157 A 
BRANCH  41  44
ATOM     44  O   UNL     1     161.972 180.665 188.252  1.00  0.00    -0.504 OA
ATOM     45  H   UNL     1     161.398 180.759 187.418  1.00  0.00     0.293 HD
ENDBRANCH  41  44
BRANCH  43  46
ATOM     46  O   UNL     1     163.789 180.318 186.106  1.00  0.00    -0.504 OA
ATOM     47  H   UNL     1     162.928 180.804 185.888  1.00  0.00     0.293 HD
ENDBRANCH  43  46
ENDBRANCH  28  38
BRANCH  34  48
ATOM     48  O   UNL     1     164.835 173.847 194.664  1.00  0.00    -0.507 OA
ATOM     49  H   UNL     1     165.227 173.296 195.413  1.00  0.00     0.293 HD
ENDBRANCH  34  48
BRANCH  37  50
ATOM     50  O   UNL     1     167.370 177.704 196.006  1.00  0.00    -0.508 OA
ATOM     51  H   UNL     1     167.539 177.292 196.916  1.00  0.00     0.293 HD
ENDBRANCH  37  50
ENDBRANCH  26  27
ENDBRANCH   5  26
BRANCH   4  52
ATOM     52  O   UNL     1     160.992 173.214 190.381  1.00  0.00    -0.384 OA
ATOM     53  H   UNL     1     161.495 172.360 190.398  1.00  0.00     0.211 HD
ENDBRANCH   4  52
TORSDOF 16
ENDMDL
