MODEL 1
REMARK VINA RESULT:    -7.582      0.000      0.000
REMARK INTER + INTRA:         -12.372
REMARK INTER:                 -11.128
REMARK INTRA:                  -1.244
REMARK UNBOUND:                -1.244
REMARK SMILES O=c1c(O[C@H]2O[C@H](CO)[C@@H](O)[C@@H](O)[C@@H]2O)c(-c2ccc(O)c(O)c2)oc2cc(O)cc(O)c12
REMARK SMILES IDX 4 1 3 2 16 3 25 4 2 5 26 6 1 7 33 8 27 9 31 10 28 11 30 12
REMARK SMILES IDX 17 13 18 14 19 15 20 16 24 17 22 18 21 19 23 21 32 23 29 25
REMARK SMILES IDX 5 27 14 28 6 29 12 30 7 31 10 32 15 33 13 35 8 37 9 38 11 40
REMARK H PARENT 21 20 23 22 32 24 29 26 15 34 13 36 9 39 11 41
REMARK Flexibility Score: inf
ROOT
ATOM      1  O   UNL     1     -38.023   5.481  81.666  1.00  0.00    -0.454 OA
ENDROOT
BRANCH   1   2
ATOM      2  C   UNL     1     -38.767   5.012  80.580  1.00  0.00     0.214 A 
ATOM      3  C   UNL     1     -38.187   4.900  79.304  1.00  0.00     0.180 A 
ATOM      4  O   UNL     1     -38.889   4.382  78.301  1.00  0.00    -0.452 OA
ATOM      5  C   UNL     1     -40.101   4.627  80.756  1.00  0.00     0.239 A 
ATOM      6  C   UNL     1     -40.148   3.979  78.428  1.00  0.00     0.146 A 
ATOM      7  O   UNL     1     -40.638   4.765  81.888  1.00  0.00    -0.285 OA
ATOM      8  C   UNL     1     -40.819   4.091  79.668  1.00  0.00     0.111 A 
ATOM      9  C   UNL     1     -40.810   3.453  77.313  1.00  0.00     0.094 A 
ATOM     10  C   UNL     1     -42.161   3.649  79.769  1.00  0.00     0.134 A 
ATOM     11  C   UNL     1     -42.136   3.031  77.413  1.00  0.00     0.123 A 
ATOM     12  C   UNL     1     -42.807   3.127  78.638  1.00  0.00     0.093 A 
BRANCH   3  13
ATOM     13  C   UNL     1     -36.804   5.348  79.041  1.00  0.00     0.025 A 
ATOM     14  C   UNL     1     -35.711   4.519  79.337  1.00  0.00     0.016 A 
ATOM     15  C   UNL     1     -34.407   4.967  79.114  1.00  0.00     0.051 A 
ATOM     16  C   UNL     1     -34.178   6.248  78.595  1.00  0.00     0.157 A 
ATOM     17  C   UNL     1     -36.573   6.643  78.553  1.00  0.00     0.062 A 
ATOM     18  C   UNL     1     -35.268   7.092  78.321  1.00  0.00     0.158 A 
BRANCH  16  19
ATOM     19  O   UNL     1     -32.875   6.688  78.360  1.00  0.00    -0.504 OA
ATOM     20  H   UNL     1     -32.622   7.668  78.444  1.00  0.00     0.293 HD
ENDBRANCH  16  19
BRANCH  18  21
ATOM     21  O   UNL     1     -35.074   8.381  77.826  1.00  0.00    -0.504 OA
ATOM     22  H   UNL     1     -35.839   8.946  77.480  1.00  0.00     0.293 HD
ENDBRANCH  18  21
ENDBRANCH   3  13
BRANCH  10  23
ATOM     23  O   UNL     1     -42.851   3.722  80.979  1.00  0.00    -0.507 OA
ATOM     24  H   UNL     1     -43.402   4.535  81.233  1.00  0.00     0.293 HD
ENDBRANCH  10  23
BRANCH  11  25
ATOM     25  O   UNL     1     -42.781   2.518  76.289  1.00  0.00    -0.508 OA
ATOM     26  H   UNL     1     -42.927   3.081  75.461  1.00  0.00     0.293 HD
ENDBRANCH  11  25
ENDBRANCH   1   2
BRANCH   1  27
ATOM     27  C   UNL     1     -37.655   4.633  82.759  1.00  0.00     0.339 C 
ATOM     28  C   UNL     1     -38.065   5.257  84.105  1.00  0.00     0.214 C 
ATOM     29  O   UNL     1     -36.266   4.347  82.734  1.00  0.00    -0.332 OA
ATOM     30  C   UNL     1     -37.244   6.532  84.374  1.00  0.00     0.180 C 
ATOM     31  C   UNL     1     -35.481   5.525  82.845  1.00  0.00     0.179 C 
ATOM     32  C   UNL     1     -35.740   6.242  84.192  1.00  0.00     0.177 C 
BRANCH  28  33
ATOM     33  O   UNL     1     -37.862   4.312  85.125  1.00  0.00    -0.384 OA
ATOM     34  H   UNL     1     -36.879   4.226  85.251  1.00  0.00     0.211 HD
ENDBRANCH  28  33
BRANCH  30  35
ATOM     35  O   UNL     1     -37.656   7.551  83.496  1.00  0.00    -0.387 OA
ATOM     36  H   UNL     1     -37.331   7.309  82.590  1.00  0.00     0.211 HD
ENDBRANCH  30  35
BRANCH  31  37
ATOM     37  C   UNL     1     -34.002   5.133  82.731  1.00  0.00     0.191 C 
BRANCH  37  38
ATOM     38  O   UNL     1     -33.860   3.747  82.873  1.00  0.00    -0.394 OA
ATOM     39  H   UNL     1     -32.941   3.594  83.218  1.00  0.00     0.210 HD
ENDBRANCH  37  38
ENDBRANCH  31  37
BRANCH  32  40
ATOM     40  O   UNL     1     -35.009   7.439  84.243  1.00  0.00    -0.387 OA
ATOM     41  H   UNL     1     -34.049   7.186  84.267  1.00  0.00     0.211 HD
ENDBRANCH  32  40
ENDBRANCH   1  27
TORSDOF 12
ENDMDL
MODEL 2
REMARK VINA RESULT:    -7.038      1.969      6.453
REMARK INTER + INTRA:         -11.573
REMARK INTER:                  -9.956
REMARK INTRA:                  -1.617
REMARK UNBOUND:                -1.244
REMARK SMILES O=c1c(O[C@H]2O[C@H](CO)[C@@H](O)[C@@H](O)[C@@H]2O)c(-c2ccc(O)c(O)c2)oc2cc(O)cc(O)c12
REMARK SMILES IDX 4 1 3 2 16 3 25 4 2 5 26 6 1 7 33 8 27 9 31 10 28 11 30 12
REMARK SMILES IDX 17 13 18 14 19 15 20 16 24 17 22 18 21 19 23 21 32 23 29 25
REMARK SMILES IDX 5 27 14 28 6 29 12 30 7 31 10 32 15 33 13 35 8 37 9 38 11 40
REMARK H PARENT 21 20 23 22 32 24 29 26 15 34 13 36 9 39 11 41
REMARK Flexibility Score: inf
ROOT
ATOM      1  O   UNL     1     -37.312   4.937  81.700  1.00  0.00    -0.454 OA
ENDROOT
BRANCH   1   2
ATOM      2  C   UNL     1     -36.680   5.787  80.787  1.00  0.00     0.214 A 
ATOM      3  C   UNL     1     -37.129   5.874  79.457  1.00  0.00     0.180 A 
ATOM      4  O   UNL     1     -36.563   6.742  78.624  1.00  0.00    -0.452 OA
ATOM      5  C   UNL     1     -35.601   6.579  81.194  1.00  0.00     0.239 A 
ATOM      6  C   UNL     1     -35.554   7.532  78.973  1.00  0.00     0.146 A 
ATOM      7  O   UNL     1     -35.169   6.473  82.373  1.00  0.00    -0.285 OA
ATOM      8  C   UNL     1     -35.018   7.481  80.282  1.00  0.00     0.111 A 
ATOM      9  C   UNL     1     -35.017   8.409  78.025  1.00  0.00     0.094 A 
ATOM     10  C   UNL     1     -33.944   8.339  80.621  1.00  0.00     0.134 A 
ATOM     11  C   UNL     1     -33.950   9.245  78.360  1.00  0.00     0.123 A 
ATOM     12  C   UNL     1     -33.418   9.210  79.655  1.00  0.00     0.093 A 
BRANCH   3  13
ATOM     13  C   UNL     1     -38.221   5.019  78.951  1.00  0.00     0.025 A 
ATOM     14  C   UNL     1     -39.520   5.529  78.793  1.00  0.00     0.016 A 
ATOM     15  C   UNL     1     -40.552   4.702  78.344  1.00  0.00     0.051 A 
ATOM     16  C   UNL     1     -40.302   3.355  78.050  1.00  0.00     0.157 A 
ATOM     17  C   UNL     1     -37.979   3.663  78.689  1.00  0.00     0.062 A 
ATOM     18  C   UNL     1     -39.009   2.832  78.231  1.00  0.00     0.158 A 
BRANCH  16  19
ATOM     19  O   UNL     1     -41.331   2.534  77.589  1.00  0.00    -0.504 OA
ATOM     20  H   UNL     1     -41.299   1.526  77.705  1.00  0.00     0.293 HD
ENDBRANCH  16  19
BRANCH  18  21
ATOM     21  O   UNL     1     -38.733   1.491  77.971  1.00  0.00    -0.504 OA
ATOM     22  H   UNL     1     -39.380   0.751  78.214  1.00  0.00     0.293 HD
ENDBRANCH  18  21
ENDBRANCH   3  13
BRANCH  10  23
ATOM     23  O   UNL     1     -33.402   8.335  81.906  1.00  0.00    -0.507 OA
ATOM     24  H   UNL     1     -32.417   8.154  82.071  1.00  0.00     0.293 HD
ENDBRANCH  10  23
BRANCH  11  25
ATOM     25  O   UNL     1     -33.423  10.105  77.399  1.00  0.00    -0.508 OA
ATOM     26  H   UNL     1     -32.432  10.303  77.353  1.00  0.00     0.293 HD
ENDBRANCH  11  25
ENDBRANCH   1   2
BRANCH   1  27
ATOM     27  C   UNL     1     -38.220   5.428  82.692  1.00  0.00     0.339 C 
ATOM     28  C   UNL     1     -37.939   4.788  84.064  1.00  0.00     0.214 C 
ATOM     29  O   UNL     1     -39.566   5.213  82.297  1.00  0.00    -0.332 OA
ATOM     30  C   UNL     1     -38.259   3.283  84.026  1.00  0.00     0.180 C 
ATOM     31  C   UNL     1     -39.852   3.833  82.123  1.00  0.00     0.179 C 
ATOM     32  C   UNL     1     -39.672   3.055  83.450  1.00  0.00     0.177 C 
BRANCH  28  33
ATOM     33  O   UNL     1     -38.720   5.437  85.036  1.00  0.00    -0.384 OA
ATOM     34  H   UNL     1     -39.381   6.001  84.550  1.00  0.00     0.211 HD
ENDBRANCH  28  33
BRANCH  30  35
ATOM     35  O   UNL     1     -37.298   2.617  83.244  1.00  0.00    -0.387 OA
ATOM     36  H   UNL     1     -37.382   1.647  83.436  1.00  0.00     0.211 HD
ENDBRANCH  30  35
BRANCH  31  37
ATOM     37  C   UNL     1     -41.297   3.698  81.624  1.00  0.00     0.191 C 
BRANCH  37  38
ATOM     38  O   UNL     1     -42.141   3.348  82.685  1.00  0.00    -0.394 OA
ATOM     39  H   UNL     1     -41.780   3.804  83.491  1.00  0.00     0.210 HD
ENDBRANCH  37  38
ENDBRANCH  31  37
BRANCH  32  40
ATOM     40  O   UNL     1     -39.889   1.686  83.231  1.00  0.00    -0.387 OA
ATOM     41  H   UNL     1     -39.090   1.343  82.751  1.00  0.00     0.211 HD
ENDBRANCH  32  40
ENDBRANCH   1  27
TORSDOF 12
ENDMDL
MODEL 3
REMARK VINA RESULT:    -6.543      2.389      6.712
REMARK INTER + INTRA:         -10.848
REMARK INTER:                  -9.535
REMARK INTRA:                  -1.312
REMARK UNBOUND:                -1.244
REMARK SMILES O=c1c(O[C@H]2O[C@H](CO)[C@@H](O)[C@@H](O)[C@@H]2O)c(-c2ccc(O)c(O)c2)oc2cc(O)cc(O)c12
REMARK SMILES IDX 4 1 3 2 16 3 25 4 2 5 26 6 1 7 33 8 27 9 31 10 28 11 30 12
REMARK SMILES IDX 17 13 18 14 19 15 20 16 24 17 22 18 21 19 23 21 32 23 29 25
REMARK SMILES IDX 5 27 14 28 6 29 12 30 7 31 10 32 15 33 13 35 8 37 9 38 11 40
REMARK H PARENT 21 20 23 22 32 24 29 26 15 34 13 36 9 39 11 41
REMARK Flexibility Score: inf
ROOT
ATOM      1  O   UNL     1     -38.467   5.278  81.213  1.00  0.00    -0.454 OA
ENDROOT
BRANCH   1   2
ATOM      2  C   UNL     1     -37.236   5.913  81.396  1.00  0.00     0.214 A 
ATOM      3  C   UNL     1     -36.743   6.816  80.438  1.00  0.00     0.180 A 
ATOM      4  O   UNL     1     -35.605   7.466  80.664  1.00  0.00    -0.452 OA
ATOM      5  C   UNL     1     -36.484   5.671  82.551  1.00  0.00     0.239 A 
ATOM      6  C   UNL     1     -34.872   7.288  81.757  1.00  0.00     0.146 A 
ATOM      7  O   UNL     1     -36.901   4.831  83.393  1.00  0.00    -0.285 OA
ATOM      8  C   UNL     1     -35.277   6.370  82.755  1.00  0.00     0.111 A 
ATOM      9  C   UNL     1     -33.684   8.011  81.905  1.00  0.00     0.094 A 
ATOM     10  C   UNL     1     -34.473   6.206  83.909  1.00  0.00     0.134 A 
ATOM     11  C   UNL     1     -32.888   7.838  83.039  1.00  0.00     0.123 A 
ATOM     12  C   UNL     1     -33.284   6.940  84.037  1.00  0.00     0.093 A 
BRANCH   3  13
ATOM     13  C   UNL     1     -37.458   7.066  79.170  1.00  0.00     0.025 A 
ATOM     14  C   UNL     1     -37.038   6.462  77.975  1.00  0.00     0.016 A 
ATOM     15  C   UNL     1     -37.702   6.731  76.777  1.00  0.00     0.051 A 
ATOM     16  C   UNL     1     -38.793   7.609  76.755  1.00  0.00     0.157 A 
ATOM     17  C   UNL     1     -38.530   7.971  79.142  1.00  0.00     0.062 A 
ATOM     18  C   UNL     1     -39.204   8.237  77.944  1.00  0.00     0.158 A 
BRANCH  16  19
ATOM     19  O   UNL     1     -39.464   7.866  75.559  1.00  0.00    -0.504 OA
ATOM     20  H   UNL     1     -39.419   8.775  75.109  1.00  0.00     0.293 HD
ENDBRANCH  16  19
BRANCH  18  21
ATOM     21  O   UNL     1     -40.271   9.135  77.952  1.00  0.00    -0.504 OA
ATOM     22  H   UNL     1     -40.882   9.252  77.153  1.00  0.00     0.293 HD
ENDBRANCH  18  21
ENDBRANCH   3  13
BRANCH  10  23
ATOM     23  O   UNL     1     -34.849   5.328  84.925  1.00  0.00    -0.507 OA
ATOM     24  H   UNL     1     -35.820   5.193  85.185  1.00  0.00     0.293 HD
ENDBRANCH  10  23
BRANCH  11  25
ATOM     25  O   UNL     1     -31.704   8.561  83.163  1.00  0.00    -0.508 OA
ATOM     26  H   UNL     1     -31.628   9.345  83.798  1.00  0.00     0.293 HD
ENDBRANCH  11  25
ENDBRANCH   1   2
BRANCH   1  27
ATOM     27  C   UNL     1     -38.563   3.923  80.761  1.00  0.00     0.339 C 
ATOM     28  C   UNL     1     -39.302   3.841  79.413  1.00  0.00     0.214 C 
ATOM     29  O   UNL     1     -39.192   3.107  81.736  1.00  0.00    -0.332 OA
ATOM     30  C   UNL     1     -40.777   4.245  79.588  1.00  0.00     0.180 C 
ATOM     31  C   UNL     1     -40.515   3.542  82.017  1.00  0.00     0.179 C 
ATOM     32  C   UNL     1     -41.408   3.458  80.755  1.00  0.00     0.177 C 
BRANCH  28  33
ATOM     33  O   UNL     1     -39.203   2.528  78.920  1.00  0.00    -0.384 OA
ATOM     34  H   UNL     1     -38.770   2.585  78.026  1.00  0.00     0.211 HD
ENDBRANCH  28  33
BRANCH  30  35
ATOM     35  O   UNL     1     -40.861   5.628  79.830  1.00  0.00    -0.387 OA
ATOM     36  H   UNL     1     -41.461   5.756  80.610  1.00  0.00     0.211 HD
ENDBRANCH  30  35
BRANCH  31  37
ATOM     37  C   UNL     1     -41.088   2.656  83.130  1.00  0.00     0.191 C 
BRANCH  37  38
ATOM     38  O   UNL     1     -40.465   1.402  83.116  1.00  0.00    -0.394 OA
ATOM     39  H   UNL     1     -39.568   1.541  82.712  1.00  0.00     0.210 HD
ENDBRANCH  37  38
ENDBRANCH  31  37
BRANCH  32  40
ATOM     40  O   UNL     1     -42.686   3.962  81.043  1.00  0.00    -0.387 OA
ATOM     41  H   UNL     1     -43.187   3.977  80.185  1.00  0.00     0.211 HD
ENDBRANCH  32  40
ENDBRANCH   1  27
TORSDOF 12
ENDMDL
MODEL 4
REMARK VINA RESULT:    -6.509      1.820      6.227
REMARK INTER + INTRA:         -10.797
REMARK INTER:                 -10.505
REMARK INTRA:                  -0.292
REMARK UNBOUND:                -1.244
REMARK SMILES O=c1c(O[C@H]2O[C@H](CO)[C@@H](O)[C@@H](O)[C@@H]2O)c(-c2ccc(O)c(O)c2)oc2cc(O)cc(O)c12
REMARK SMILES IDX 4 1 3 2 16 3 25 4 2 5 26 6 1 7 33 8 27 9 31 10 28 11 30 12
REMARK SMILES IDX 17 13 18 14 19 15 20 16 24 17 22 18 21 19 23 21 32 23 29 25
REMARK SMILES IDX 5 27 14 28 6 29 12 30 7 31 10 32 15 33 13 35 8 37 9 38 11 40
REMARK H PARENT 21 20 23 22 32 24 29 26 15 34 13 36 9 39 11 41
REMARK Flexibility Score: inf
ROOT
ATOM      1  O   UNL     1     -37.810   3.306  81.261  1.00  0.00    -0.454 OA
ENDROOT
BRANCH   1   2
ATOM      2  C   UNL     1     -37.228   4.182  80.340  1.00  0.00     0.214 A 
ATOM      3  C   UNL     1     -37.977   4.704  79.271  1.00  0.00     0.180 A 
ATOM      4  O   UNL     1     -37.426   5.592  78.449  1.00  0.00    -0.452 OA
ATOM      5  C   UNL     1     -35.890   4.566  80.484  1.00  0.00     0.239 A 
ATOM      6  C   UNL     1     -36.169   6.006  78.563  1.00  0.00     0.146 A 
ATOM      7  O   UNL     1     -35.203   4.068  81.416  1.00  0.00    -0.285 OA
ATOM      8  C   UNL     1     -35.335   5.502  79.589  1.00  0.00     0.111 A 
ATOM      9  C   UNL     1     -35.674   6.939  77.646  1.00  0.00     0.094 A 
ATOM     10  C   UNL     1     -34.001   5.967  79.683  1.00  0.00     0.134 A 
ATOM     11  C   UNL     1     -34.355   7.385  77.735  1.00  0.00     0.123 A 
ATOM     12  C   UNL     1     -33.523   6.902  78.752  1.00  0.00     0.093 A 
BRANCH   3  13
ATOM     13  C   UNL     1     -39.373   4.288  79.029  1.00  0.00     0.025 A 
ATOM     14  C   UNL     1     -39.784   3.852  77.759  1.00  0.00     0.016 A 
ATOM     15  C   UNL     1     -41.115   3.493  77.534  1.00  0.00     0.051 A 
ATOM     16  C   UNL     1     -42.052   3.566  78.572  1.00  0.00     0.157 A 
ATOM     17  C   UNL     1     -40.320   4.392  80.059  1.00  0.00     0.062 A 
ATOM     18  C   UNL     1     -41.653   4.025  79.839  1.00  0.00     0.158 A 
BRANCH  16  19
ATOM     19  O   UNL     1     -43.378   3.193  78.348  1.00  0.00    -0.504 OA
ATOM     20  H   UNL     1     -44.021   3.795  77.845  1.00  0.00     0.293 HD
ENDBRANCH  16  19
BRANCH  18  21
ATOM     21  O   UNL     1     -42.566   4.132  80.887  1.00  0.00    -0.504 OA
ATOM     22  H   UNL     1     -43.534   4.385  80.733  1.00  0.00     0.293 HD
ENDBRANCH  18  21
ENDBRANCH   3  13
BRANCH  10  23
ATOM     23  O   UNL     1     -33.153   5.512  80.693  1.00  0.00    -0.507 OA
ATOM     24  H   UNL     1     -33.255   5.817  81.655  1.00  0.00     0.293 HD
ENDBRANCH  10  23
BRANCH  11  25
ATOM     25  O   UNL     1     -33.878   8.308  76.806  1.00  0.00    -0.508 OA
ATOM     26  H   UNL     1     -34.327   8.435  75.909  1.00  0.00     0.293 HD
ENDBRANCH  11  25
ENDBRANCH   1   2
BRANCH   1  27
ATOM     27  C   UNL     1     -37.460   3.320  82.649  1.00  0.00     0.339 C 
ATOM     28  C   UNL     1     -38.181   2.194  83.412  1.00  0.00     0.214 C 
ATOM     29  O   UNL     1     -37.737   4.585  83.228  1.00  0.00    -0.332 OA
ATOM     30  C   UNL     1     -39.698   2.456  83.442  1.00  0.00     0.180 C 
ATOM     31  C   UNL     1     -39.117   4.914  83.148  1.00  0.00     0.179 C 
ATOM     32  C   UNL     1     -39.978   3.893  83.930  1.00  0.00     0.177 C 
BRANCH  28  33
ATOM     33  O   UNL     1     -37.664   2.127  84.717  1.00  0.00    -0.384 OA
ATOM     34  H   UNL     1     -36.989   1.396  84.726  1.00  0.00     0.211 HD
ENDBRANCH  28  33
BRANCH  30  35
ATOM     35  O   UNL     1     -40.234   2.263  82.156  1.00  0.00    -0.387 OA
ATOM     36  H   UNL     1     -41.222   2.230  82.250  1.00  0.00     0.211 HD
ENDBRANCH  30  35
BRANCH  31  37
ATOM     37  C   UNL     1     -39.312   6.322  83.725  1.00  0.00     0.191 C 
BRANCH  37  38
ATOM     38  O   UNL     1     -39.481   6.253  85.113  1.00  0.00    -0.394 OA
ATOM     39  H   UNL     1     -38.675   6.673  85.514  1.00  0.00     0.210 HD
ENDBRANCH  37  38
ENDBRANCH  31  37
BRANCH  32  40
ATOM     40  O   UNL     1     -41.339   4.199  83.772  1.00  0.00    -0.387 OA
ATOM     41  H   UNL     1     -41.849   3.473  84.218  1.00  0.00     0.211 HD
ENDBRANCH  32  40
ENDBRANCH   1  27
TORSDOF 12
ENDMDL
MODEL 5
REMARK VINA RESULT:    -6.460      1.997      7.661
REMARK INTER + INTRA:         -10.725
REMARK INTER:                  -9.353
REMARK INTRA:                  -1.372
REMARK UNBOUND:                -1.244
REMARK SMILES O=c1c(O[C@H]2O[C@H](CO)[C@@H](O)[C@@H](O)[C@@H]2O)c(-c2ccc(O)c(O)c2)oc2cc(O)cc(O)c12
REMARK SMILES IDX 4 1 3 2 16 3 25 4 2 5 26 6 1 7 33 8 27 9 31 10 28 11 30 12
REMARK SMILES IDX 17 13 18 14 19 15 20 16 24 17 22 18 21 19 23 21 32 23 29 25
REMARK SMILES IDX 5 27 14 28 6 29 12 30 7 31 10 32 15 33 13 35 8 37 9 38 11 40
REMARK H PARENT 21 20 23 22 32 24 29 26 15 34 13 36 9 39 11 41
REMARK Flexibility Score: inf
ROOT
ATOM      1  O   UNL     1     -38.005   5.203  79.523  1.00  0.00    -0.454 OA
ENDROOT
BRANCH   1   2
ATOM      2  C   UNL     1     -36.887   5.840  80.069  1.00  0.00     0.214 A 
ATOM      3  C   UNL     1     -36.740   5.966  81.461  1.00  0.00     0.180 A 
ATOM      4  O   UNL     1     -35.636   6.510  81.963  1.00  0.00    -0.452 OA
ATOM      5  C   UNL     1     -35.887   6.345  79.231  1.00  0.00     0.239 A 
ATOM      6  C   UNL     1     -34.649   6.978  81.208  1.00  0.00     0.146 A 
ATOM      7  O   UNL     1     -36.033   6.271  77.982  1.00  0.00    -0.285 OA
ATOM      8  C   UNL     1     -34.733   6.923  79.797  1.00  0.00     0.111 A 
ATOM      9  C   UNL     1     -33.527   7.539  81.826  1.00  0.00     0.094 A 
ATOM     10  C   UNL     1     -33.661   7.429  79.022  1.00  0.00     0.134 A 
ATOM     11  C   UNL     1     -32.478   8.049  81.059  1.00  0.00     0.123 A 
ATOM     12  C   UNL     1     -32.545   7.991  79.661  1.00  0.00     0.093 A 
BRANCH   3  13
ATOM     13  C   UNL     1     -37.791   5.511  82.395  1.00  0.00     0.025 A 
ATOM     14  C   UNL     1     -38.921   6.304  82.648  1.00  0.00     0.016 A 
ATOM     15  C   UNL     1     -39.892   5.877  83.558  1.00  0.00     0.051 A 
ATOM     16  C   UNL     1     -39.745   4.656  84.227  1.00  0.00     0.157 A 
ATOM     17  C   UNL     1     -37.629   4.304  83.090  1.00  0.00     0.062 A 
ATOM     18  C   UNL     1     -38.603   3.869  83.997  1.00  0.00     0.158 A 
BRANCH  16  19
ATOM     19  O   UNL     1     -40.722   4.226  85.125  1.00  0.00    -0.504 OA
ATOM     20  H   UNL     1     -40.478   3.846  86.034  1.00  0.00     0.293 HD
ENDBRANCH  16  19
BRANCH  18  21
ATOM     21  O   UNL     1     -38.415   2.660  84.664  1.00  0.00    -0.504 OA
ATOM     22  H   UNL     1     -37.511   2.205  84.711  1.00  0.00     0.293 HD
ENDBRANCH  18  21
ENDBRANCH   3  13
BRANCH  10  23
ATOM     23  O   UNL     1     -33.695   7.374  77.629  1.00  0.00    -0.507 OA
ATOM     24  H   UNL     1     -33.647   8.212  77.059  1.00  0.00     0.293 HD
ENDBRANCH  10  23
BRANCH  11  25
ATOM     25  O   UNL     1     -31.373   8.612  81.693  1.00  0.00    -0.508 OA
ATOM     26  H   UNL     1     -31.478   9.317  82.412  1.00  0.00     0.293 HD
ENDBRANCH  11  25
ENDBRANCH   1   2
BRANCH   1  27
ATOM     27  C   UNL     1     -38.132   3.777  79.501  1.00  0.00     0.339 C 
ATOM     28  C   UNL     1     -38.501   3.276  78.092  1.00  0.00     0.214 C 
ATOM     29  O   UNL     1     -39.080   3.337  80.460  1.00  0.00    -0.332 OA
ATOM     30  C   UNL     1     -39.916   3.748  77.712  1.00  0.00     0.180 C 
ATOM     31  C   UNL     1     -40.373   3.869  80.210  1.00  0.00     0.179 C 
ATOM     32  C   UNL     1     -40.911   3.398  78.837  1.00  0.00     0.177 C 
BRANCH  28  33
ATOM     33  O   UNL     1     -38.424   1.873  78.075  1.00  0.00    -0.384 OA
ATOM     34  H   UNL     1     -39.229   1.543  77.593  1.00  0.00     0.211 HD
ENDBRANCH  28  33
BRANCH  30  35
ATOM     35  O   UNL     1     -39.904   5.136  77.484  1.00  0.00    -0.387 OA
ATOM     36  H   UNL     1     -39.268   5.307  76.741  1.00  0.00     0.211 HD
ENDBRANCH  30  35
BRANCH  31  37
ATOM     37  C   UNL     1     -41.311   3.408  81.333  1.00  0.00     0.191 C 
BRANCH  37  38
ATOM     38  O   UNL     1     -42.508   4.133  81.287  1.00  0.00    -0.394 OA
ATOM     39  H   UNL     1     -42.466   4.787  82.034  1.00  0.00     0.210 HD
ENDBRANCH  37  38
ENDBRANCH  31  37
BRANCH  32  40
ATOM     40  O   UNL     1     -42.155   3.997  78.584  1.00  0.00    -0.387 OA
ATOM     41  H   UNL     1     -41.978   4.799  78.024  1.00  0.00     0.211 HD
ENDBRANCH  32  40
ENDBRANCH   1  27
TORSDOF 12
ENDMDL
MODEL 6
REMARK VINA RESULT:    -6.391      2.610      5.120
REMARK INTER + INTRA:         -10.623
REMARK INTER:                  -8.944
REMARK INTRA:                  -1.679
REMARK UNBOUND:                -1.244
REMARK SMILES O=c1c(O[C@H]2O[C@H](CO)[C@@H](O)[C@@H](O)[C@@H]2O)c(-c2ccc(O)c(O)c2)oc2cc(O)cc(O)c12
REMARK SMILES IDX 4 1 3 2 16 3 25 4 2 5 26 6 1 7 33 8 27 9 31 10 28 11 30 12
REMARK SMILES IDX 17 13 18 14 19 15 20 16 24 17 22 18 21 19 23 21 32 23 29 25
REMARK SMILES IDX 5 27 14 28 6 29 12 30 7 31 10 32 15 33 13 35 8 37 9 38 11 40
REMARK H PARENT 21 20 23 22 32 24 29 26 15 34 13 36 9 39 11 41
REMARK Flexibility Score: inf
ROOT
ATOM      1  O   UNL     1     -38.595   6.239  79.236  1.00  0.00    -0.454 OA
ENDROOT
BRANCH   1   2
ATOM      2  C   UNL     1     -38.501   5.270  80.239  1.00  0.00     0.214 A 
ATOM      3  C   UNL     1     -37.251   4.894  80.761  1.00  0.00     0.180 A 
ATOM      4  O   UNL     1     -37.187   4.025  81.764  1.00  0.00    -0.452 OA
ATOM      5  C   UNL     1     -39.659   4.674  80.751  1.00  0.00     0.239 A 
ATOM      6  C   UNL     1     -38.260   3.454  82.300  1.00  0.00     0.146 A 
ATOM      7  O   UNL     1     -40.778   4.977  80.258  1.00  0.00    -0.285 OA
ATOM      8  C   UNL     1     -39.554   3.749  81.810  1.00  0.00     0.111 A 
ATOM      9  C   UNL     1     -38.095   2.545  83.351  1.00  0.00     0.094 A 
ATOM     10  C   UNL     1     -40.677   3.125  82.405  1.00  0.00     0.134 A 
ATOM     11  C   UNL     1     -39.203   1.922  83.926  1.00  0.00     0.123 A 
ATOM     12  C   UNL     1     -40.489   2.214  83.456  1.00  0.00     0.093 A 
BRANCH   3  13
ATOM     13  C   UNL     1     -35.990   5.440  80.219  1.00  0.00     0.025 A 
ATOM     14  C   UNL     1     -35.320   4.795  79.167  1.00  0.00     0.016 A 
ATOM     15  C   UNL     1     -34.112   5.302  78.685  1.00  0.00     0.051 A 
ATOM     16  C   UNL     1     -33.555   6.458  79.247  1.00  0.00     0.157 A 
ATOM     17  C   UNL     1     -35.416   6.578  80.803  1.00  0.00     0.062 A 
ATOM     18  C   UNL     1     -34.209   7.095  80.317  1.00  0.00     0.158 A 
BRANCH  16  19
ATOM     19  O   UNL     1     -32.355   6.971  78.754  1.00  0.00    -0.504 OA
ATOM     20  H   UNL     1     -31.883   6.549  77.962  1.00  0.00     0.293 HD
ENDBRANCH  16  19
BRANCH  18  21
ATOM     21  O   UNL     1     -33.670   8.234  80.914  1.00  0.00    -0.504 OA
ATOM     22  H   UNL     1     -34.215   8.830  81.525  1.00  0.00     0.293 HD
ENDBRANCH  18  21
ENDBRANCH   3  13
BRANCH  10  23
ATOM     23  O   UNL     1     -41.971   3.405  81.965  1.00  0.00    -0.507 OA
ATOM     24  H   UNL     1     -42.166   3.650  81.001  1.00  0.00     0.293 HD
ENDBRANCH  10  23
BRANCH  11  25
ATOM     25  O   UNL     1     -39.017   1.012  84.965  1.00  0.00    -0.508 OA
ATOM     26  H   UNL     1     -39.582   0.176  85.044  1.00  0.00     0.293 HD
ENDBRANCH  11  25
ENDBRANCH   1   2
BRANCH   1  27
ATOM     27  C   UNL     1     -39.132   7.543  79.487  1.00  0.00     0.339 C 
ATOM     28  C   UNL     1     -40.174   7.926  78.420  1.00  0.00     0.214 C 
ATOM     29  O   UNL     1     -38.098   8.511  79.559  1.00  0.00    -0.332 OA
ATOM     30  C   UNL     1     -39.494   8.096  77.049  1.00  0.00     0.180 C 
ATOM     31  C   UNL     1     -37.365   8.594  78.345  1.00  0.00     0.179 C 
ATOM     32  C   UNL     1     -38.277   9.035  77.174  1.00  0.00     0.177 C 
BRANCH  28  33
ATOM     33  O   UNL     1     -40.807   9.117  78.812  1.00  0.00    -0.384 OA
ATOM     34  H   UNL     1     -40.278   9.868  78.431  1.00  0.00     0.211 HD
ENDBRANCH  28  33
BRANCH  30  35
ATOM     35  O   UNL     1     -39.095   6.839  76.561  1.00  0.00    -0.387 OA
ATOM     36  H   UNL     1     -38.342   6.528  77.127  1.00  0.00     0.211 HD
ENDBRANCH  30  35
BRANCH  31  37
ATOM     37  C   UNL     1     -36.226   9.604  78.536  1.00  0.00     0.191 C 
BRANCH  37  38
ATOM     38  O   UNL     1     -35.164   9.299  77.677  1.00  0.00    -0.394 OA
ATOM     39  H   UNL     1     -35.379   9.723  76.805  1.00  0.00     0.210 HD
ENDBRANCH  37  38
ENDBRANCH  31  37
BRANCH  32  40
ATOM     40  O   UNL     1     -37.544   9.037  75.976  1.00  0.00    -0.387 OA
ATOM     41  H   UNL     1     -38.096   9.518  75.305  1.00  0.00     0.211 HD
ENDBRANCH  32  40
ENDBRANCH   1  27
TORSDOF 12
ENDMDL
MODEL 7
REMARK VINA RESULT:    -6.279     10.129     11.718
REMARK INTER + INTRA:         -10.460
REMARK INTER:                 -10.626
REMARK INTRA:                   0.166
REMARK UNBOUND:                -1.244
REMARK SMILES O=c1c(O[C@H]2O[C@H](CO)[C@@H](O)[C@@H](O)[C@@H]2O)c(-c2ccc(O)c(O)c2)oc2cc(O)cc(O)c12
REMARK SMILES IDX 4 1 3 2 16 3 25 4 2 5 26 6 1 7 33 8 27 9 31 10 28 11 30 12
REMARK SMILES IDX 17 13 18 14 19 15 20 16 24 17 22 18 21 19 23 21 32 23 29 25
REMARK SMILES IDX 5 27 14 28 6 29 12 30 7 31 10 32 15 33 13 35 8 37 9 38 11 40
REMARK H PARENT 21 20 23 22 32 24 29 26 15 34 13 36 9 39 11 41
REMARK Flexibility Score: inf
ROOT
ATOM      1  O   UNL     1     -39.121  -5.988  82.277  1.00  0.00    -0.454 OA
ENDROOT
BRANCH   1   2
ATOM      2  C   UNL     1     -40.477  -5.787  82.003  1.00  0.00     0.214 A 
ATOM      3  C   UNL     1     -41.082  -4.540  82.242  1.00  0.00     0.180 A 
ATOM      4  O   UNL     1     -42.354  -4.347  81.908  1.00  0.00    -0.452 OA
ATOM      5  C   UNL     1     -41.248  -6.825  81.468  1.00  0.00     0.239 A 
ATOM      6  C   UNL     1     -43.116  -5.293  81.373  1.00  0.00     0.146 A 
ATOM      7  O   UNL     1     -40.722  -7.956  81.292  1.00  0.00    -0.285 OA
ATOM      8  C   UNL     1     -42.597  -6.588  81.134  1.00  0.00     0.111 A 
ATOM      9  C   UNL     1     -44.447  -4.999  81.059  1.00  0.00     0.094 A 
ATOM     10  C   UNL     1     -43.436  -7.573  80.560  1.00  0.00     0.134 A 
ATOM     11  C   UNL     1     -45.275  -5.977  80.505  1.00  0.00     0.123 A 
ATOM     12  C   UNL     1     -44.769  -7.258  80.255  1.00  0.00     0.093 A 
BRANCH   3  13
ATOM     13  C   UNL     1     -40.338  -3.426  82.864  1.00  0.00     0.025 A 
ATOM     14  C   UNL     1     -40.994  -2.241  83.235  1.00  0.00     0.016 A 
ATOM     15  C   UNL     1     -40.274  -1.182  83.792  1.00  0.00     0.051 A 
ATOM     16  C   UNL     1     -38.891  -1.291  83.984  1.00  0.00     0.157 A 
ATOM     17  C   UNL     1     -38.948  -3.521  83.026  1.00  0.00     0.062 A 
ATOM     18  C   UNL     1     -38.224  -2.465  83.592  1.00  0.00     0.158 A 
BRANCH  16  19
ATOM     19  O   UNL     1     -38.176  -0.236  84.553  1.00  0.00    -0.504 OA
ATOM     20  H   UNL     1     -37.396   0.198  84.071  1.00  0.00     0.293 HD
ENDBRANCH  16  19
BRANCH  18  21
ATOM     21  O   UNL     1     -36.845  -2.595  83.747  1.00  0.00    -0.504 OA
ATOM     22  H   UNL     1     -36.403  -2.593  84.658  1.00  0.00     0.293 HD
ENDBRANCH  18  21
ENDBRANCH   3  13
BRANCH  10  23
ATOM     23  O   UNL     1     -42.956  -8.854  80.288  1.00  0.00    -0.507 OA
ATOM     24  H   UNL     1     -42.746  -9.157  79.343  1.00  0.00     0.293 HD
ENDBRANCH  10  23
BRANCH  11  25
ATOM     25  O   UNL     1     -46.601  -5.667  80.209  1.00  0.00    -0.508 OA
ATOM     26  H   UNL     1     -47.014  -4.787  80.490  1.00  0.00     0.293 HD
ENDBRANCH  11  25
ENDBRANCH   1   2
BRANCH   1  27
ATOM     27  C   UNL     1     -38.677  -6.923  83.266  1.00  0.00     0.339 C 
ATOM     28  C   UNL     1     -37.460  -6.377  84.035  1.00  0.00     0.214 C 
ATOM     29  O   UNL     1     -38.384  -8.181  82.680  1.00  0.00    -0.332 OA
ATOM     30  C   UNL     1     -36.242  -6.268  83.099  1.00  0.00     0.180 C 
ATOM     31  C   UNL     1     -37.351  -8.085  81.709  1.00  0.00     0.179 C 
ATOM     32  C   UNL     1     -36.028  -7.600  82.351  1.00  0.00     0.177 C 
BRANCH  28  33
ATOM     33  O   UNL     1     -37.182  -7.234  85.114  1.00  0.00    -0.384 OA
ATOM     34  H   UNL     1     -36.305  -7.665  84.925  1.00  0.00     0.211 HD
ENDBRANCH  28  33
BRANCH  30  35
ATOM     35  O   UNL     1     -36.444  -5.219  82.183  1.00  0.00    -0.387 OA
ATOM     36  H   UNL     1     -37.400  -4.957  82.242  1.00  0.00     0.211 HD
ENDBRANCH  30  35
BRANCH  31  37
ATOM     37  C   UNL     1     -37.154  -9.468  81.075  1.00  0.00     0.191 C 
BRANCH  37  38
ATOM     38  O   UNL     1     -36.819  -9.333  79.722  1.00  0.00    -0.394 OA
ATOM     39  H   UNL     1     -35.837  -9.186  79.691  1.00  0.00     0.210 HD
ENDBRANCH  37  38
ENDBRANCH  31  37
BRANCH  32  40
ATOM     40  O   UNL     1     -35.047  -7.444  81.359  1.00  0.00    -0.387 OA
ATOM     41  H   UNL     1     -35.503  -7.056  80.566  1.00  0.00     0.211 HD
ENDBRANCH  32  40
ENDBRANCH   1  27
TORSDOF 12
ENDMDL
MODEL 8
REMARK VINA RESULT:    -6.254      2.816      5.545
REMARK INTER + INTRA:         -10.422
REMARK INTER:                  -8.597
REMARK INTRA:                  -1.825
REMARK UNBOUND:                -1.244
REMARK SMILES O=c1c(O[C@H]2O[C@H](CO)[C@@H](O)[C@@H](O)[C@@H]2O)c(-c2ccc(O)c(O)c2)oc2cc(O)cc(O)c12
REMARK SMILES IDX 4 1 3 2 16 3 25 4 2 5 26 6 1 7 33 8 27 9 31 10 28 11 30 12
REMARK SMILES IDX 17 13 18 14 19 15 20 16 24 17 22 18 21 19 23 21 32 23 29 25
REMARK SMILES IDX 5 27 14 28 6 29 12 30 7 31 10 32 15 33 13 35 8 37 9 38 11 40
REMARK H PARENT 21 20 23 22 32 24 29 26 15 34 13 36 9 39 11 41
REMARK Flexibility Score: inf
ROOT
ATOM      1  O   UNL     1     -36.221   6.317  80.462  1.00  0.00    -0.454 OA
ENDROOT
BRANCH   1   2
ATOM      2  C   UNL     1     -37.257   6.841  79.684  1.00  0.00     0.214 A 
ATOM      3  C   UNL     1     -38.600   6.566  79.997  1.00  0.00     0.180 A 
ATOM      4  O   UNL     1     -39.573   7.132  79.291  1.00  0.00    -0.452 OA
ATOM      5  C   UNL     1     -36.969   7.664  78.590  1.00  0.00     0.239 A 
ATOM      6  C   UNL     1     -39.348   7.941  78.261  1.00  0.00     0.146 A 
ATOM      7  O   UNL     1     -35.767   7.879  78.280  1.00  0.00    -0.285 OA
ATOM      8  C   UNL     1     -38.026   8.240  77.856  1.00  0.00     0.111 A 
ATOM      9  C   UNL     1     -40.436   8.485  77.572  1.00  0.00     0.094 A 
ATOM     10  C   UNL     1     -37.821   9.108  76.757  1.00  0.00     0.134 A 
ATOM     11  C   UNL     1     -40.230   9.330  76.481  1.00  0.00     0.123 A 
ATOM     12  C   UNL     1     -38.926   9.642  76.077  1.00  0.00     0.093 A 
BRANCH   3  13
ATOM     13  C   UNL     1     -38.967   5.654  81.100  1.00  0.00     0.025 A 
ATOM     14  C   UNL     1     -39.470   6.155  82.311  1.00  0.00     0.016 A 
ATOM     15  C   UNL     1     -39.783   5.286  83.358  1.00  0.00     0.051 A 
ATOM     16  C   UNL     1     -39.595   3.905  83.211  1.00  0.00     0.157 A 
ATOM     17  C   UNL     1     -38.748   4.275  80.965  1.00  0.00     0.062 A 
ATOM     18  C   UNL     1     -39.068   3.399  82.010  1.00  0.00     0.158 A 
BRANCH  16  19
ATOM     19  O   UNL     1     -39.921   3.037  84.253  1.00  0.00    -0.504 OA
ATOM     20  H   UNL     1     -40.720   2.415  84.195  1.00  0.00     0.293 HD
ENDBRANCH  16  19
BRANCH  18  21
ATOM     21  O   UNL     1     -38.847   2.034  81.839  1.00  0.00    -0.504 OA
ATOM     22  H   UNL     1     -38.661   1.628  80.931  1.00  0.00     0.293 HD
ENDBRANCH  18  21
ENDBRANCH   3  13
BRANCH  10  23
ATOM     23  O   UNL     1     -36.533   9.445  76.340  1.00  0.00    -0.507 OA
ATOM     24  H   UNL     1     -36.231  10.411  76.264  1.00  0.00     0.293 HD
ENDBRANCH  10  23
BRANCH  11  25
ATOM     25  O   UNL     1     -41.328   9.855  75.801  1.00  0.00    -0.508 OA
ATOM     26  H   UNL     1     -41.232  10.635  75.164  1.00  0.00     0.293 HD
ENDBRANCH  11  25
ENDBRANCH   1   2
BRANCH   1  27
ATOM     27  C   UNL     1     -35.703   7.010  81.604  1.00  0.00     0.339 C 
ATOM     28  C   UNL     1     -34.176   7.172  81.507  1.00  0.00     0.214 C 
ATOM     29  O   UNL     1     -36.069   6.349  82.805  1.00  0.00    -0.332 OA
ATOM     30  C   UNL     1     -33.486   5.798  81.601  1.00  0.00     0.180 C 
ATOM     31  C   UNL     1     -35.556   5.025  82.859  1.00  0.00     0.179 C 
ATOM     32  C   UNL     1     -34.008   5.027  82.831  1.00  0.00     0.177 C 
BRANCH  28  33
ATOM     33  O   UNL     1     -33.742   8.017  82.542  1.00  0.00    -0.384 OA
ATOM     34  H   UNL     1     -33.976   8.947  82.277  1.00  0.00     0.211 HD
ENDBRANCH  28  33
BRANCH  30  35
ATOM     35  O   UNL     1     -33.730   5.067  80.425  1.00  0.00    -0.387 OA
ATOM     36  H   UNL     1     -33.401   4.143  80.578  1.00  0.00     0.211 HD
ENDBRANCH  30  35
BRANCH  31  37
ATOM     37  C   UNL     1     -36.061   4.364  84.147  1.00  0.00     0.191 C 
BRANCH  37  38
ATOM     38  O   UNL     1     -36.114   2.974  83.985  1.00  0.00    -0.394 OA
ATOM     39  H   UNL     1     -35.270   2.616  84.369  1.00  0.00     0.210 HD
ENDBRANCH  37  38
ENDBRANCH  31  37
BRANCH  32  40
ATOM     40  O   UNL     1     -33.532   3.707  82.810  1.00  0.00    -0.387 OA
ATOM     41  H   UNL     1     -32.682   3.702  83.325  1.00  0.00     0.211 HD
ENDBRANCH  32  40
ENDBRANCH   1  27
TORSDOF 12
ENDMDL
MODEL 9
REMARK VINA RESULT:    -6.136      2.345      7.771
REMARK INTER + INTRA:         -10.249
REMARK INTER:                  -9.065
REMARK INTRA:                  -1.184
REMARK UNBOUND:                -1.244
REMARK SMILES O=c1c(O[C@H]2O[C@H](CO)[C@@H](O)[C@@H](O)[C@@H]2O)c(-c2ccc(O)c(O)c2)oc2cc(O)cc(O)c12
REMARK SMILES IDX 4 1 3 2 16 3 25 4 2 5 26 6 1 7 33 8 27 9 31 10 28 11 30 12
REMARK SMILES IDX 17 13 18 14 19 15 20 16 24 17 22 18 21 19 23 21 32 23 29 25
REMARK SMILES IDX 5 27 14 28 6 29 12 30 7 31 10 32 15 33 13 35 8 37 9 38 11 40
REMARK H PARENT 21 20 23 22 32 24 29 26 15 34 13 36 9 39 11 41
REMARK Flexibility Score: inf
ROOT
ATOM      1  O   UNL     1     -37.770   6.613  80.190  1.00  0.00    -0.454 OA
ENDROOT
BRANCH   1   2
ATOM      2  C   UNL     1     -36.791   6.562  81.187  1.00  0.00     0.214 A 
ATOM      3  C   UNL     1     -36.880   5.630  82.236  1.00  0.00     0.180 A 
ATOM      4  O   UNL     1     -35.903   5.548  83.133  1.00  0.00    -0.452 OA
ATOM      5  C   UNL     1     -35.695   7.431  81.141  1.00  0.00     0.239 A 
ATOM      6  C   UNL     1     -34.831   6.333  83.114  1.00  0.00     0.146 A 
ATOM      7  O   UNL     1     -35.631   8.295  80.226  1.00  0.00    -0.285 OA
ATOM      8  C   UNL     1     -34.680   7.322  82.114  1.00  0.00     0.111 A 
ATOM      9  C   UNL     1     -33.856   6.178  84.104  1.00  0.00     0.094 A 
ATOM     10  C   UNL     1     -33.525   8.140  82.121  1.00  0.00     0.134 A 
ATOM     11  C   UNL     1     -32.724   6.995  84.116  1.00  0.00     0.123 A 
ATOM     12  C   UNL     1     -32.559   7.970  83.125  1.00  0.00     0.093 A 
BRANCH   3  13
ATOM     13  C   UNL     1     -38.043   4.731  82.375  1.00  0.00     0.025 A 
ATOM     14  C   UNL     1     -39.349   5.245  82.425  1.00  0.00     0.016 A 
ATOM     15  C   UNL     1     -40.438   4.387  82.589  1.00  0.00     0.051 A 
ATOM     16  C   UNL     1     -40.239   3.005  82.708  1.00  0.00     0.157 A 
ATOM     17  C   UNL     1     -37.842   3.351  82.527  1.00  0.00     0.062 A 
ATOM     18  C   UNL     1     -38.932   2.487  82.683  1.00  0.00     0.158 A 
BRANCH  16  19
ATOM     19  O   UNL     1     -41.330   2.149  82.858  1.00  0.00    -0.504 OA
ATOM     20  H   UNL     1     -41.440   1.323  82.279  1.00  0.00     0.293 HD
ENDBRANCH  16  19
BRANCH  18  21
ATOM     21  O   UNL     1     -38.698   1.119  82.823  1.00  0.00    -0.504 OA
ATOM     22  H   UNL     1     -37.949   0.758  83.400  1.00  0.00     0.293 HD
ENDBRANCH  18  21
ENDBRANCH   3  13
BRANCH  10  23
ATOM     23  O   UNL     1     -33.328   9.113  81.140  1.00  0.00    -0.507 OA
ATOM     24  H   UNL     1     -33.567  10.086  81.297  1.00  0.00     0.293 HD
ENDBRANCH  10  23
BRANCH  11  25
ATOM     25  O   UNL     1     -31.769   6.831  85.116  1.00  0.00    -0.508 OA
ATOM     26  H   UNL     1     -31.734   5.993  85.683  1.00  0.00     0.293 HD
ENDBRANCH  11  25
ENDBRANCH   1   2
BRANCH   1  27
ATOM     27  C   UNL     1     -37.481   6.292  78.825  1.00  0.00     0.339 C 
ATOM     28  C   UNL     1     -38.536   6.897  77.880  1.00  0.00     0.214 C 
ATOM     29  O   UNL     1     -37.383   4.889  78.644  1.00  0.00    -0.332 OA
ATOM     30  C   UNL     1     -39.902   6.224  78.106  1.00  0.00     0.180 C 
ATOM     31  C   UNL     1     -38.594   4.225  78.976  1.00  0.00     0.179 C 
ATOM     32  C   UNL     1     -39.751   4.690  78.059  1.00  0.00     0.177 C 
BRANCH  28  33
ATOM     33  O   UNL     1     -38.109   6.722  76.552  1.00  0.00    -0.384 OA
ATOM     34  H   UNL     1     -38.870   6.980  75.966  1.00  0.00     0.211 HD
ENDBRANCH  28  33
BRANCH  30  35
ATOM     35  O   UNL     1     -40.426   6.627  79.348  1.00  0.00    -0.387 OA
ATOM     36  H   UNL     1     -39.666   6.688  79.983  1.00  0.00     0.211 HD
ENDBRANCH  30  35
BRANCH  31  37
ATOM     37  C   UNL     1     -38.375   2.715  78.827  1.00  0.00     0.191 C 
BRANCH  37  38
ATOM     38  O   UNL     1     -39.114   2.227  77.743  1.00  0.00    -0.394 OA
ATOM     39  H   UNL     1     -39.906   2.820  77.655  1.00  0.00     0.210 HD
ENDBRANCH  37  38
ENDBRANCH  31  37
BRANCH  32  40
ATOM     40  O   UNL     1     -40.949   4.075  78.456  1.00  0.00    -0.387 OA
ATOM     41  H   UNL     1     -40.981   3.191  78.004  1.00  0.00     0.211 HD
ENDBRANCH  32  40
ENDBRANCH   1  27
TORSDOF 12
ENDMDL
