MODEL 1
REMARK VINA RESULT:    -4.473      0.000      0.000
REMARK INTER + INTRA:          -5.386
REMARK INTER:                  -5.257
REMARK INTRA:                  -0.129
REMARK UNBOUND:                -0.129
REMARK SMILES O=C([O-])C=Cc1ccc(O)c(O)c1
REMARK SMILES IDX 6 1 13 2 7 3 11 4 8 5 9 6 5 7 4 8 2 9 1 10 3 11 12 12 10 14
REMARK H PARENT 12 13 10 15
REMARK Flexibility Score: inf
ROOT
ATOM      1  C   UNL     1      70.866  37.988  20.422  1.00  0.00    -0.022 A 
ATOM      2  C   UNL     1      70.706  39.157  21.182  1.00  0.00     0.058 A 
ATOM      3  C   UNL     1      72.103  37.317  20.462  1.00  0.00     0.012 A 
ATOM      4  C   UNL     1      71.758  39.673  21.950  1.00  0.00     0.157 A 
ATOM      5  C   UNL     1      73.156  37.823  21.226  1.00  0.00     0.051 A 
ATOM      6  C   UNL     1      73.000  38.998  21.970  1.00  0.00     0.157 A 
ENDROOT
BRANCH   1   7
ATOM      7  C   UNL     1      69.711  37.486  19.636  1.00  0.00     0.010 C 
ATOM      8  C   UNL     1      68.495  37.272  20.155  1.00  0.00     0.025 C 
BRANCH   8   9
ATOM      9  C   UNL     1      67.380  36.762  19.340  1.00  0.00     0.064 C 
ATOM     10  O   UNL     1      67.566  35.774  18.582  1.00  0.00    -0.545 OA
ATOM     11  O   UNL     1      66.123  37.353  19.395  1.00  0.00    -0.545 OA
ENDBRANCH   8   9
ENDBRANCH   1   7
BRANCH   4  12
ATOM     12  O   UNL     1      71.525  40.844  22.672  1.00  0.00    -0.504 OA
ATOM     13  H   UNL     1      71.444  41.759  22.253  1.00  0.00     0.293 HD
ENDBRANCH   4  12
BRANCH   6  14
ATOM     14  O   UNL     1      74.095  39.451  22.710  1.00  0.00    -0.504 OA
ATOM     15  H   UNL     1      74.228  40.412  22.988  1.00  0.00     0.293 HD
ENDBRANCH   6  14
TORSDOF 4
ENDMDL
MODEL 2
REMARK VINA RESULT:    -4.277      1.842      5.883
REMARK INTER + INTRA:          -5.157
REMARK INTER:                  -5.019
REMARK INTRA:                  -0.138
REMARK UNBOUND:                -0.129
REMARK SMILES O=C([O-])C=Cc1ccc(O)c(O)c1
REMARK SMILES IDX 6 1 13 2 7 3 11 4 8 5 9 6 5 7 4 8 2 9 1 10 3 11 12 12 10 14
REMARK H PARENT 12 13 10 15
REMARK Flexibility Score: inf
ROOT
ATOM      1  C   UNL     1      69.837  37.659  19.852  1.00  0.00    -0.022 A 
ATOM      2  C   UNL     1      68.999  36.662  19.329  1.00  0.00     0.058 A 
ATOM      3  C   UNL     1      69.253  38.780  20.471  1.00  0.00     0.012 A 
ATOM      4  C   UNL     1      67.605  36.781  19.391  1.00  0.00     0.157 A 
ATOM      5  C   UNL     1      67.865  38.905  20.539  1.00  0.00     0.051 A 
ATOM      6  C   UNL     1      67.030  37.920  20.001  1.00  0.00     0.157 A 
ENDROOT
BRANCH   1   7
ATOM      7  C   UNL     1      71.307  37.471  19.764  1.00  0.00     0.010 C 
ATOM      8  C   UNL     1      72.196  38.455  19.954  1.00  0.00     0.025 C 
BRANCH   8   9
ATOM      9  C   UNL     1      73.646  38.225  19.845  1.00  0.00     0.064 C 
ATOM     10  O   UNL     1      74.160  38.025  18.713  1.00  0.00    -0.545 OA
ATOM     11  O   UNL     1      74.458  38.227  20.973  1.00  0.00    -0.545 OA
ENDBRANCH   8   9
ENDBRANCH   1   7
BRANCH   4  12
ATOM     12  O   UNL     1      66.838  35.753  18.841  1.00  0.00    -0.504 OA
ATOM     13  H   UNL     1      65.829  35.753  18.813  1.00  0.00     0.293 HD
ENDBRANCH   4  12
BRANCH   6  14
ATOM     14  O   UNL     1      65.650  38.108  20.100  1.00  0.00    -0.504 OA
ATOM     15  H   UNL     1      65.092  38.571  19.397  1.00  0.00     0.293 HD
ENDBRANCH   6  14
TORSDOF 4
ENDMDL
MODEL 3
REMARK VINA RESULT:    -4.256      0.958      2.114
REMARK INTER + INTRA:          -5.131
REMARK INTER:                  -5.006
REMARK INTRA:                  -0.125
REMARK UNBOUND:                -0.129
REMARK SMILES O=C([O-])C=Cc1ccc(O)c(O)c1
REMARK SMILES IDX 6 1 13 2 7 3 11 4 8 5 9 6 5 7 4 8 2 9 1 10 3 11 12 12 10 14
REMARK H PARENT 12 13 10 15
REMARK Flexibility Score: inf
ROOT
ATOM      1  C   UNL     1      70.223  38.449  20.451  1.00  0.00    -0.022 A 
ATOM      2  C   UNL     1      71.396  37.679  20.487  1.00  0.00     0.058 A 
ATOM      3  C   UNL     1      70.177  39.650  21.182  1.00  0.00     0.012 A 
ATOM      4  C   UNL     1      72.499  38.073  21.256  1.00  0.00     0.157 A 
ATOM      5  C   UNL     1      71.272  40.051  21.950  1.00  0.00     0.051 A 
ATOM      6  C   UNL     1      72.434  39.274  22.000  1.00  0.00     0.157 A 
ENDROOT
BRANCH   1   7
ATOM      7  C   UNL     1      69.092  37.983  19.609  1.00  0.00     0.010 C 
ATOM      8  C   UNL     1      68.307  36.946  19.925  1.00  0.00     0.025 C 
BRANCH   8   9
ATOM      9  C   UNL     1      67.203  36.511  19.054  1.00  0.00     0.064 C 
ATOM     10  O   UNL     1      66.131  37.170  19.033  1.00  0.00    -0.545 OA
ATOM     11  O   UNL     1      67.326  35.383  18.250  1.00  0.00    -0.545 OA
ENDBRANCH   8   9
ENDBRANCH   1   7
BRANCH   4  12
ATOM     12  O   UNL     1      73.626  37.250  21.250  1.00  0.00    -0.504 OA
ATOM     13  H   UNL     1      74.359  37.302  20.559  1.00  0.00     0.293 HD
ENDBRANCH   4  12
BRANCH   6  14
ATOM     14  O   UNL     1      73.491  39.731  22.790  1.00  0.00    -0.504 OA
ATOM     15  H   UNL     1      74.408  39.310  22.804  1.00  0.00     0.293 HD
ENDBRANCH   6  14
TORSDOF 4
ENDMDL
MODEL 4
REMARK VINA RESULT:    -4.215      2.452      3.284
REMARK INTER + INTRA:          -5.083
REMARK INTER:                  -4.952
REMARK INTRA:                  -0.131
REMARK UNBOUND:                -0.129
REMARK SMILES O=C([O-])C=Cc1ccc(O)c(O)c1
REMARK SMILES IDX 6 1 13 2 7 3 11 4 8 5 9 6 5 7 4 8 2 9 1 10 3 11 12 12 10 14
REMARK H PARENT 12 13 10 15
REMARK Flexibility Score: inf
ROOT
ATOM      1  C   UNL     1      73.630  38.573  19.968  1.00  0.00    -0.022 A 
ATOM      2  C   UNL     1      73.614  38.522  21.371  1.00  0.00     0.058 A 
ATOM      3  C   UNL     1      74.373  39.587  19.335  1.00  0.00     0.012 A 
ATOM      4  C   UNL     1      74.298  39.473  22.139  1.00  0.00     0.157 A 
ATOM      5  C   UNL     1      75.059  40.538  20.093  1.00  0.00     0.051 A 
ATOM      6  C   UNL     1      75.028  40.496  21.491  1.00  0.00     0.157 A 
ENDROOT
BRANCH   1   7
ATOM      7  C   UNL     1      72.893  37.531  19.210  1.00  0.00     0.010 C 
ATOM      8  C   UNL     1      71.751  36.972  19.631  1.00  0.00     0.025 C 
BRANCH   8   9
ATOM      9  C   UNL     1      71.060  35.932  18.852  1.00  0.00     0.064 C 
ATOM     10  O   UNL     1      71.708  34.938  18.430  1.00  0.00    -0.545 OA
ATOM     11  O   UNL     1      69.701  36.028  18.574  1.00  0.00    -0.545 OA
ENDBRANCH   8   9
ENDBRANCH   1   7
BRANCH   4  12
ATOM     12  O   UNL     1      74.227  39.362  23.528  1.00  0.00    -0.504 OA
ATOM     13  H   UNL     1      75.016  39.144  24.119  1.00  0.00     0.293 HD
ENDBRANCH   4  12
BRANCH   6  14
ATOM     14  O   UNL     1      75.733  41.480  22.188  1.00  0.00    -0.504 OA
ATOM     15  H   UNL     1      76.660  41.793  21.940  1.00  0.00     0.293 HD
ENDBRANCH   6  14
TORSDOF 4
ENDMDL
MODEL 5
REMARK VINA RESULT:    -4.208      2.064      5.446
REMARK INTER + INTRA:          -5.075
REMARK INTER:                  -4.942
REMARK INTRA:                  -0.133
REMARK UNBOUND:                -0.129
REMARK SMILES O=C([O-])C=Cc1ccc(O)c(O)c1
REMARK SMILES IDX 6 1 13 2 7 3 11 4 8 5 9 6 5 7 4 8 2 9 1 10 3 11 12 12 10 14
REMARK H PARENT 12 13 10 15
REMARK Flexibility Score: inf
ROOT
ATOM      1  C   UNL     1      69.928  37.622  19.767  1.00  0.00    -0.022 A 
ATOM      2  C   UNL     1      69.429  38.754  20.429  1.00  0.00     0.058 A 
ATOM      3  C   UNL     1      69.017  36.699  19.220  1.00  0.00     0.012 A 
ATOM      4  C   UNL     1      68.051  38.962  20.573  1.00  0.00     0.157 A 
ATOM      5  C   UNL     1      67.642  36.899  19.358  1.00  0.00     0.051 A 
ATOM      6  C   UNL     1      67.146  38.019  20.033  1.00  0.00     0.157 A 
ENDROOT
BRANCH   1   7
ATOM      7  C   UNL     1      71.399  37.463  19.639  1.00  0.00     0.010 C 
ATOM      8  C   UNL     1      72.279  38.435  19.915  1.00  0.00     0.025 C 
BRANCH   8   9
ATOM      9  C   UNL     1      73.729  38.237  19.762  1.00  0.00     0.064 C 
ATOM     10  O   UNL     1      74.207  38.000  18.621  1.00  0.00    -0.545 OA
ATOM     11  O   UNL     1      74.582  38.310  20.857  1.00  0.00    -0.545 OA
ENDBRANCH   8   9
ENDBRANCH   1   7
BRANCH   4  12
ATOM     12  O   UNL     1      67.631  40.107  21.252  1.00  0.00    -0.504 OA
ATOM     13  H   UNL     1      66.694  40.478  21.207  1.00  0.00     0.293 HD
ENDBRANCH   4  12
BRANCH   6  14
ATOM     14  O   UNL     1      65.760  38.157  20.137  1.00  0.00    -0.504 OA
ATOM     15  H   UNL     1      65.261  38.193  21.014  1.00  0.00     0.293 HD
ENDBRANCH   6  14
TORSDOF 4
ENDMDL
MODEL 6
REMARK VINA RESULT:    -4.068      1.222      5.926
REMARK INTER + INTRA:          -4.911
REMARK INTER:                  -4.767
REMARK INTRA:                  -0.144
REMARK UNBOUND:                -0.129
REMARK SMILES O=C([O-])C=Cc1ccc(O)c(O)c1
REMARK SMILES IDX 6 1 13 2 7 3 11 4 8 5 9 6 5 7 4 8 2 9 1 10 3 11 12 12 10 14
REMARK H PARENT 12 13 10 15
REMARK Flexibility Score: inf
ROOT
ATOM      1  C   UNL     1      69.953  38.136  20.365  1.00  0.00    -0.022 A 
ATOM      2  C   UNL     1      69.336  37.048  19.728  1.00  0.00     0.058 A 
ATOM      3  C   UNL     1      69.147  39.177  20.861  1.00  0.00     0.012 A 
ATOM      4  C   UNL     1      67.947  36.999  19.559  1.00  0.00     0.157 A 
ATOM      5  C   UNL     1      67.761  39.136  20.698  1.00  0.00     0.051 A 
ATOM      6  C   UNL     1      67.149  38.059  20.048  1.00  0.00     0.157 A 
ENDROOT
BRANCH   1   7
ATOM      7  C   UNL     1      71.430  38.125  20.522  1.00  0.00     0.010 C 
ATOM      8  C   UNL     1      72.086  38.847  21.440  1.00  0.00     0.025 C 
BRANCH   8   9
ATOM      9  C   UNL     1      73.552  38.813  21.553  1.00  0.00     0.064 C 
ATOM     10  O   UNL     1      74.210  37.985  20.869  1.00  0.00    -0.545 OA
ATOM     11  O   UNL     1      74.226  39.685  22.401  1.00  0.00    -0.545 OA
ENDBRANCH   8   9
ENDBRANCH   1   7
BRANCH   4  12
ATOM     12  O   UNL     1      67.408  35.889  18.908  1.00  0.00    -0.504 OA
ATOM     13  H   UNL     1      66.543  35.442  19.174  1.00  0.00     0.293 HD
ENDBRANCH   4  12
BRANCH   6  14
ATOM     14  O   UNL     1      65.759  38.082  19.915  1.00  0.00    -0.504 OA
ATOM     15  H   UNL     1      65.222  38.918  19.739  1.00  0.00     0.293 HD
ENDBRANCH   6  14
TORSDOF 4
ENDMDL
MODEL 7
REMARK VINA RESULT:    -3.966      1.814      2.541
REMARK INTER + INTRA:          -4.790
REMARK INTER:                  -4.663
REMARK INTRA:                  -0.128
REMARK UNBOUND:                -0.129
REMARK SMILES O=C([O-])C=Cc1ccc(O)c(O)c1
REMARK SMILES IDX 6 1 13 2 7 3 11 4 8 5 9 6 5 7 4 8 2 9 1 10 3 11 12 12 10 14
REMARK H PARENT 12 13 10 15
REMARK Flexibility Score: inf
ROOT
ATOM      1  C   UNL     1      71.131  37.357  19.239  1.00  0.00    -0.022 A 
ATOM      2  C   UNL     1      71.896  37.382  20.415  1.00  0.00     0.058 A 
ATOM      3  C   UNL     1      71.733  37.749  18.029  1.00  0.00     0.012 A 
ATOM      4  C   UNL     1      73.228  37.815  20.405  1.00  0.00     0.157 A 
ATOM      5  C   UNL     1      73.060  38.181  18.009  1.00  0.00     0.051 A 
ATOM      6  C   UNL     1      73.817  38.223  19.185  1.00  0.00     0.157 A 
ENDROOT
BRANCH   1   7
ATOM      7  C   UNL     1      69.727  36.878  19.314  1.00  0.00     0.010 C 
ATOM      8  C   UNL     1      68.678  37.681  19.539  1.00  0.00     0.025 C 
BRANCH   8   9
ATOM      9  C   UNL     1      67.304  37.161  19.617  1.00  0.00     0.064 C 
ATOM     10  O   UNL     1      66.367  37.929  19.962  1.00  0.00    -0.545 OA
ATOM     11  O   UNL     1      67.021  35.833  19.314  1.00  0.00    -0.545 OA
ENDBRANCH   8   9
ENDBRANCH   1   7
BRANCH   4  12
ATOM     12  O   UNL     1      73.921  37.822  21.616  1.00  0.00    -0.504 OA
ATOM     13  H   UNL     1      74.890  37.557  21.714  1.00  0.00     0.293 HD
ENDBRANCH   4  12
BRANCH   6  14
ATOM     14  O   UNL     1      75.138  38.667  19.096  1.00  0.00    -0.504 OA
ATOM     15  H   UNL     1      75.542  39.073  18.264  1.00  0.00     0.293 HD
ENDBRANCH   6  14
TORSDOF 4
ENDMDL
MODEL 8
REMARK VINA RESULT:    -3.835      1.461      5.872
REMARK INTER + INTRA:          -4.637
REMARK INTER:                  -4.507
REMARK INTRA:                  -0.129
REMARK UNBOUND:                -0.129
REMARK SMILES O=C([O-])C=Cc1ccc(O)c(O)c1
REMARK SMILES IDX 6 1 13 2 7 3 11 4 8 5 9 6 5 7 4 8 2 9 1 10 3 11 12 12 10 14
REMARK H PARENT 12 13 10 15
REMARK Flexibility Score: inf
ROOT
ATOM      1  C   UNL     1      69.319  38.688  20.183  1.00  0.00    -0.022 A 
ATOM      2  C   UNL     1      67.928  38.833  20.293  1.00  0.00     0.058 A 
ATOM      3  C   UNL     1      69.835  37.526  19.579  1.00  0.00     0.012 A 
ATOM      4  C   UNL     1      67.057  37.834  19.839  1.00  0.00     0.157 A 
ATOM      5  C   UNL     1      68.974  36.527  19.122  1.00  0.00     0.051 A 
ATOM      6  C   UNL     1      67.587  36.664  19.248  1.00  0.00     0.157 A 
ENDROOT
BRANCH   1   7
ATOM      7  C   UNL     1      70.190  39.786  20.675  1.00  0.00     0.010 C 
ATOM      8  C   UNL     1      71.121  39.629  21.625  1.00  0.00     0.025 C 
BRANCH   8   9
ATOM      9  C   UNL     1      71.954  40.749  22.090  1.00  0.00     0.064 C 
ATOM     10  O   UNL     1      71.403  41.785  22.548  1.00  0.00    -0.545 OA
ATOM     11  O   UNL     1      73.342  40.683  22.035  1.00  0.00    -0.545 OA
ENDBRANCH   8   9
ENDBRANCH   1   7
BRANCH   4  12
ATOM     12  O   UNL     1      65.686  38.046  19.992  1.00  0.00    -0.504 OA
ATOM     13  H   UNL     1      65.209  38.043  20.882  1.00  0.00     0.293 HD
ENDBRANCH   4  12
BRANCH   6  14
ATOM     14  O   UNL     1      66.783  35.626  18.773  1.00  0.00    -0.504 OA
ATOM     15  H   UNL     1      66.533  34.812  19.316  1.00  0.00     0.293 HD
ENDBRANCH   6  14
TORSDOF 4
ENDMDL
MODEL 9
REMARK VINA RESULT:    -3.673      2.591      3.659
REMARK INTER + INTRA:          -4.446
REMARK INTER:                  -4.308
REMARK INTRA:                  -0.138
REMARK UNBOUND:                -0.129
REMARK SMILES O=C([O-])C=Cc1ccc(O)c(O)c1
REMARK SMILES IDX 6 1 13 2 7 3 11 4 8 5 9 6 5 7 4 8 2 9 1 10 3 11 12 12 10 14
REMARK H PARENT 12 13 10 15
REMARK Flexibility Score: inf
ROOT
ATOM      1  C   UNL     1      73.636  38.678  20.361  1.00  0.00    -0.022 A 
ATOM      2  C   UNL     1      74.456  39.590  19.678  1.00  0.00     0.058 A 
ATOM      3  C   UNL     1      73.469  38.825  21.751  1.00  0.00     0.012 A 
ATOM      4  C   UNL     1      75.126  40.615  20.360  1.00  0.00     0.157 A 
ATOM      5  C   UNL     1      74.131  39.844  22.437  1.00  0.00     0.051 A 
ATOM      6  C   UNL     1      74.963  40.741  21.759  1.00  0.00     0.157 A 
ENDROOT
BRANCH   1   7
ATOM      7  C   UNL     1      72.946  37.620  19.581  1.00  0.00     0.010 C 
ATOM      8  C   UNL     1      71.709  37.183  19.851  1.00  0.00     0.025 C 
BRANCH   8   9
ATOM      9  C   UNL     1      71.068  36.122  19.058  1.00  0.00     0.064 C 
ATOM     10  O   UNL     1      69.828  36.167  18.846  1.00  0.00    -0.545 OA
ATOM     11  O   UNL     1      71.811  35.069  18.536  1.00  0.00    -0.545 OA
ENDBRANCH   8   9
ENDBRANCH   1   7
BRANCH   4  12
ATOM     12  O   UNL     1      75.932  41.476  19.614  1.00  0.00    -0.504 OA
ATOM     13  H   UNL     1      76.693  42.014  20.001  1.00  0.00     0.293 HD
ENDBRANCH   4  12
BRANCH   6  14
ATOM     14  O   UNL     1      75.598  41.736  22.506  1.00  0.00    -0.504 OA
ATOM     15  H   UNL     1      75.203  42.648  22.681  1.00  0.00     0.293 HD
ENDBRANCH   6  14
TORSDOF 4
ENDMDL
