MODEL 1
REMARK VINA RESULT:    -5.195      0.000      0.000
REMARK INTER + INTRA:          -6.392
REMARK INTER:                  -6.106
REMARK INTRA:                  -0.286
REMARK UNBOUND:                -0.286
REMARK SMILES O=C([O-])C=Cc1ccc(O)c(O)c1
REMARK SMILES IDX 6 1 13 2 7 3 11 4 8 5 9 6 5 7 4 8 2 9 1 10 3 11 12 12 10 14
REMARK H PARENT 12 13 10 15
REMARK Flexibility Score: inf
ROOT
ATOM      1  C   UNL     1       8.653 -32.819 -19.289  1.00  0.00    -0.022 A 
ATOM      2  C   UNL     1       8.289 -32.036 -18.182  1.00  0.00     0.058 A 
ATOM      3  C   UNL     1       8.376 -32.349 -20.583  1.00  0.00     0.012 A 
ATOM      4  C   UNL     1       7.703 -30.775 -18.365  1.00  0.00     0.157 A 
ATOM      5  C   UNL     1       7.792 -31.092 -20.768  1.00  0.00     0.051 A 
ATOM      6  C   UNL     1       7.457 -30.301 -19.660  1.00  0.00     0.157 A 
ENDROOT
BRANCH   1   7
ATOM      7  C   UNL     1       9.220 -34.164 -19.068  1.00  0.00     0.010 C 
ATOM      8  C   UNL     1      10.528 -34.462 -19.046  1.00  0.00     0.025 C 
BRANCH   8   9
ATOM      9  C   UNL     1      11.629 -33.480 -19.049  1.00  0.00     0.064 C 
ATOM     10  O   UNL     1      12.124 -33.113 -20.146  1.00  0.00    -0.545 OA
ATOM     11  O   UNL     1      12.180 -33.005 -17.865  1.00  0.00    -0.545 OA
ENDBRANCH   8   9
ENDBRANCH   1   7
BRANCH   4  12
ATOM     12  O   UNL     1       7.358 -29.991 -17.266  1.00  0.00    -0.504 OA
ATOM     13  H   UNL     1       7.293 -28.983 -17.335  1.00  0.00     0.293 HD
ENDBRANCH   4  12
BRANCH   6  14
ATOM     14  O   UNL     1       6.877 -29.046 -19.839  1.00  0.00    -0.504 OA
ATOM     15  H   UNL     1       7.159 -28.248 -19.281  1.00  0.00     0.293 HD
ENDBRANCH   6  14
TORSDOF 4
ENDMDL
MODEL 2
REMARK VINA RESULT:    -5.163      5.744      8.730
REMARK INTER + INTRA:          -6.355
REMARK INTER:                  -6.082
REMARK INTRA:                  -0.272
REMARK UNBOUND:                -0.286
REMARK SMILES O=C([O-])C=Cc1ccc(O)c(O)c1
REMARK SMILES IDX 6 1 13 2 7 3 11 4 8 5 9 6 5 7 4 8 2 9 1 10 3 11 12 12 10 14
REMARK H PARENT 12 13 10 15
REMARK Flexibility Score: inf
ROOT
ATOM      1  C   UNL     1      15.870 -32.582 -21.180  1.00  0.00    -0.022 A 
ATOM      2  C   UNL     1      16.874 -33.558 -21.279  1.00  0.00     0.058 A 
ATOM      3  C   UNL     1      16.225 -31.224 -21.223  1.00  0.00     0.012 A 
ATOM      4  C   UNL     1      18.212 -33.184 -21.471  1.00  0.00     0.157 A 
ATOM      5  C   UNL     1      17.558 -30.849 -21.414  1.00  0.00     0.051 A 
ATOM      6  C   UNL     1      18.554 -31.827 -21.542  1.00  0.00     0.157 A 
ENDROOT
BRANCH   1   7
ATOM      7  C   UNL     1      14.477 -33.002 -20.926  1.00  0.00     0.010 C 
ATOM      8  C   UNL     1      13.971 -33.331 -19.728  1.00  0.00     0.025 C 
BRANCH   8   9
ATOM      9  C   UNL     1      14.655 -33.152 -18.432  1.00  0.00     0.064 C 
ATOM     10  O   UNL     1      14.450 -32.103 -17.768  1.00  0.00    -0.545 OA
ATOM     11  O   UNL     1      15.574 -34.082 -17.962  1.00  0.00    -0.545 OA
ENDBRANCH   8   9
ENDBRANCH   1   7
BRANCH   4  12
ATOM     12  O   UNL     1      19.207 -34.153 -21.587  1.00  0.00    -0.504 OA
ATOM     13  H   UNL     1      20.125 -33.928 -21.949  1.00  0.00     0.293 HD
ENDBRANCH   4  12
BRANCH   6  14
ATOM     14  O   UNL     1      19.884 -31.458 -21.734  1.00  0.00    -0.504 OA
ATOM     15  H   UNL     1      20.138 -30.693 -22.349  1.00  0.00     0.293 HD
ENDBRANCH   6  14
TORSDOF 4
ENDMDL
MODEL 3
REMARK VINA RESULT:    -5.149      1.795      2.820
REMARK INTER + INTRA:          -6.338
REMARK INTER:                  -6.089
REMARK INTRA:                  -0.249
REMARK UNBOUND:                -0.286
REMARK SMILES O=C([O-])C=Cc1ccc(O)c(O)c1
REMARK SMILES IDX 6 1 13 2 7 3 11 4 8 5 9 6 5 7 4 8 2 9 1 10 3 11 12 12 10 14
REMARK H PARENT 12 13 10 15
REMARK Flexibility Score: inf
ROOT
ATOM      1  C   UNL     1       8.323 -31.142 -20.533  1.00  0.00    -0.022 A 
ATOM      2  C   UNL     1       7.187 -30.332 -20.385  1.00  0.00     0.058 A 
ATOM      3  C   UNL     1       9.531 -30.561 -20.954  1.00  0.00     0.012 A 
ATOM      4  C   UNL     1       7.267 -28.949 -20.605  1.00  0.00     0.157 A 
ATOM      5  C   UNL     1       9.612 -29.183 -21.173  1.00  0.00     0.051 A 
ATOM      6  C   UNL     1       8.482 -28.373 -20.996  1.00  0.00     0.157 A 
ENDROOT
BRANCH   1   7
ATOM      7  C   UNL     1       8.200 -32.602 -20.347  1.00  0.00     0.010 C 
ATOM      8  C   UNL     1       8.702 -33.299 -19.315  1.00  0.00     0.025 C 
BRANCH   8   9
ATOM      9  C   UNL     1       9.296 -32.715 -18.097  1.00  0.00     0.064 C 
ATOM     10  O   UNL     1      10.538 -32.805 -17.915  1.00  0.00    -0.545 OA
ATOM     11  O   UNL     1       8.508 -32.132 -17.112  1.00  0.00    -0.545 OA
ENDBRANCH   8   9
ENDBRANCH   1   7
BRANCH   4  12
ATOM     12  O   UNL     1       6.142 -28.142 -20.441  1.00  0.00    -0.504 OA
ATOM     13  H   UNL     1       5.227 -28.539 -20.263  1.00  0.00     0.293 HD
ENDBRANCH   4  12
BRANCH   6  14
ATOM     14  O   UNL     1       8.559 -26.998 -21.211  1.00  0.00    -0.504 OA
ATOM     15  H   UNL     1       7.725 -26.436 -21.344  1.00  0.00     0.293 HD
ENDBRANCH   6  14
TORSDOF 4
ENDMDL
MODEL 4
REMARK VINA RESULT:    -5.066      8.902     10.039
REMARK INTER + INTRA:          -6.241
REMARK INTER:                  -6.129
REMARK INTRA:                  -0.112
REMARK UNBOUND:                -0.286
REMARK SMILES O=C([O-])C=Cc1ccc(O)c(O)c1
REMARK SMILES IDX 6 1 13 2 7 3 11 4 8 5 9 6 5 7 4 8 2 9 1 10 3 11 12 12 10 14
REMARK H PARENT 12 13 10 15
REMARK Flexibility Score: inf
ROOT
ATOM      1  C   UNL     1      10.599 -27.162 -10.527  1.00  0.00    -0.022 A 
ATOM      2  C   UNL     1      11.433 -26.293  -9.805  1.00  0.00     0.058 A 
ATOM      3  C   UNL     1       9.660 -26.625 -11.424  1.00  0.00     0.012 A 
ATOM      4  C   UNL     1      11.367 -24.909 -10.015  1.00  0.00     0.157 A 
ATOM      5  C   UNL     1       9.593 -25.244 -11.633  1.00  0.00     0.051 A 
ATOM      6  C   UNL     1      10.448 -24.384 -10.933  1.00  0.00     0.157 A 
ENDROOT
BRANCH   1   7
ATOM      7  C   UNL     1      10.651 -28.611 -10.250  1.00  0.00     0.010 C 
ATOM      8  C   UNL     1      10.863 -29.570 -11.165  1.00  0.00     0.025 C 
BRANCH   8   9
ATOM      9  C   UNL     1      11.268 -29.342 -12.565  1.00  0.00     0.064 C 
ATOM     10  O   UNL     1      12.473 -29.088 -12.823  1.00  0.00    -0.545 OA
ATOM     11  O   UNL     1      10.338 -29.330 -13.598  1.00  0.00    -0.545 OA
ENDBRANCH   8   9
ENDBRANCH   1   7
BRANCH   4  12
ATOM     12  O   UNL     1      12.208 -24.048  -9.311  1.00  0.00    -0.504 OA
ATOM     13  H   UNL     1      12.989 -24.397  -8.769  1.00  0.00     0.293 HD
ENDBRANCH   4  12
BRANCH   6  14
ATOM     14  O   UNL     1      10.388 -23.006 -11.140  1.00  0.00    -0.504 OA
ATOM     15  H   UNL     1       9.964 -22.614 -11.973  1.00  0.00     0.293 HD
ENDBRANCH   6  14
TORSDOF 4
ENDMDL
MODEL 5
REMARK VINA RESULT:    -5.053      1.539      5.049
REMARK INTER + INTRA:          -6.226
REMARK INTER:                  -6.010
REMARK INTRA:                  -0.215
REMARK UNBOUND:                -0.286
REMARK SMILES O=C([O-])C=Cc1ccc(O)c(O)c1
REMARK SMILES IDX 6 1 13 2 7 3 11 4 8 5 9 6 5 7 4 8 2 9 1 10 3 11 12 12 10 14
REMARK H PARENT 12 13 10 15
REMARK Flexibility Score: inf
ROOT
ATOM      1  C   UNL     1       9.725 -33.171 -19.902  1.00  0.00    -0.022 A 
ATOM      2  C   UNL     1       9.702 -34.477 -19.387  1.00  0.00     0.058 A 
ATOM      3  C   UNL     1      10.876 -32.385 -19.727  1.00  0.00     0.012 A 
ATOM      4  C   UNL     1      10.831 -35.010 -18.751  1.00  0.00     0.157 A 
ATOM      5  C   UNL     1      12.003 -32.915 -19.093  1.00  0.00     0.051 A 
ATOM      6  C   UNL     1      11.985 -34.229 -18.606  1.00  0.00     0.157 A 
ENDROOT
BRANCH   1   7
ATOM      7  C   UNL     1       8.505 -32.616 -20.521  1.00  0.00     0.010 C 
ATOM      8  C   UNL     1       7.583 -31.873 -19.889  1.00  0.00     0.025 C 
BRANCH   8   9
ATOM      9  C   UNL     1       7.714 -31.323 -18.526  1.00  0.00     0.064 C 
ATOM     10  O   UNL     1       7.003 -31.793 -17.602  1.00  0.00    -0.545 OA
ATOM     11  O   UNL     1       8.554 -30.249 -18.255  1.00  0.00    -0.545 OA
ENDBRANCH   8   9
ENDBRANCH   1   7
BRANCH   4  12
ATOM     12  O   UNL     1      10.813 -36.313 -18.255  1.00  0.00    -0.504 OA
ATOM     13  H   UNL     1      10.152 -36.999 -18.596  1.00  0.00     0.293 HD
ENDBRANCH   4  12
BRANCH   6  14
ATOM     14  O   UNL     1      13.108 -34.763 -17.975  1.00  0.00    -0.504 OA
ATOM     15  H   UNL     1      14.011 -34.792 -18.435  1.00  0.00     0.293 HD
ENDBRANCH   6  14
TORSDOF 4
ENDMDL
MODEL 6
REMARK VINA RESULT:    -5.012      9.270     10.447
REMARK INTER + INTRA:          -6.176
REMARK INTER:                  -5.986
REMARK INTRA:                  -0.191
REMARK UNBOUND:                -0.286
REMARK SMILES O=C([O-])C=Cc1ccc(O)c(O)c1
REMARK SMILES IDX 6 1 13 2 7 3 11 4 8 5 9 6 5 7 4 8 2 9 1 10 3 11 12 12 10 14
REMARK H PARENT 12 13 10 15
REMARK Flexibility Score: inf
ROOT
ATOM      1  C   UNL     1       9.621 -25.416 -11.091  1.00  0.00    -0.022 A 
ATOM      2  C   UNL     1       8.878 -24.931 -12.179  1.00  0.00     0.058 A 
ATOM      3  C   UNL     1       9.039 -25.428  -9.812  1.00  0.00     0.012 A 
ATOM      4  C   UNL     1       7.552 -24.511 -12.003  1.00  0.00     0.157 A 
ATOM      5  C   UNL     1       7.716 -25.010  -9.636  1.00  0.00     0.051 A 
ATOM      6  C   UNL     1       6.969 -24.554 -10.730  1.00  0.00     0.157 A 
ENDROOT
BRANCH   1   7
ATOM      7  C   UNL     1      11.032 -25.802 -11.293  1.00  0.00     0.010 C 
ATOM      8  C   UNL     1      11.531 -27.037 -11.128  1.00  0.00     0.025 C 
BRANCH   8   9
ATOM      9  C   UNL     1      10.734 -28.259 -10.902  1.00  0.00     0.064 C 
ATOM     10  O   UNL     1      10.112 -28.774 -11.867  1.00  0.00    -0.545 OA
ATOM     11  O   UNL     1      10.597 -28.813  -9.635  1.00  0.00    -0.545 OA
ENDBRANCH   8   9
ENDBRANCH   1   7
BRANCH   4  12
ATOM     12  O   UNL     1       6.810 -24.046 -13.087  1.00  0.00    -0.504 OA
ATOM     13  H   UNL     1       5.850 -24.335 -13.234  1.00  0.00     0.293 HD
ENDBRANCH   4  12
BRANCH   6  14
ATOM     14  O   UNL     1       5.650 -24.138 -10.559  1.00  0.00    -0.504 OA
ATOM     15  H   UNL     1       5.002 -24.099 -11.338  1.00  0.00     0.293 HD
ENDBRANCH   6  14
TORSDOF 4
ENDMDL
MODEL 7
REMARK VINA RESULT:    -4.993      1.792      4.835
REMARK INTER + INTRA:          -6.154
REMARK INTER:                  -5.994
REMARK INTRA:                  -0.161
REMARK UNBOUND:                -0.286
REMARK SMILES O=C([O-])C=Cc1ccc(O)c(O)c1
REMARK SMILES IDX 6 1 13 2 7 3 11 4 8 5 9 6 5 7 4 8 2 9 1 10 3 11 12 12 10 14
REMARK H PARENT 12 13 10 15
REMARK Flexibility Score: inf
ROOT
ATOM      1  C   UNL     1       8.901 -33.089 -19.098  1.00  0.00    -0.022 A 
ATOM      2  C   UNL     1       9.702 -34.162 -19.520  1.00  0.00     0.058 A 
ATOM      3  C   UNL     1       9.055 -32.588 -17.795  1.00  0.00     0.012 A 
ATOM      4  C   UNL     1      10.681 -34.695 -18.669  1.00  0.00     0.157 A 
ATOM      5  C   UNL     1      10.030 -33.119 -16.945  1.00  0.00     0.051 A 
ATOM      6  C   UNL     1      10.847 -34.170 -17.381  1.00  0.00     0.157 A 
ENDROOT
BRANCH   1   7
ATOM      7  C   UNL     1       7.843 -32.581 -19.994  1.00  0.00     0.010 C 
ATOM      8  C   UNL     1       7.750 -31.323 -20.451  1.00  0.00     0.025 C 
BRANCH   8   9
ATOM      9  C   UNL     1       8.782 -30.278 -20.298  1.00  0.00     0.064 C 
ATOM     10  O   UNL     1       9.761 -30.261 -21.088  1.00  0.00    -0.545 OA
ATOM     11  O   UNL     1       8.734 -29.358 -19.259  1.00  0.00    -0.545 OA
ENDBRANCH   8   9
ENDBRANCH   1   7
BRANCH   4  12
ATOM     12  O   UNL     1      11.488 -35.749 -19.095  1.00  0.00    -0.504 OA
ATOM     13  H   UNL     1      12.457 -35.823 -18.809  1.00  0.00     0.293 HD
ENDBRANCH   4  12
BRANCH   6  14
ATOM     14  O   UNL     1      11.823 -34.701 -16.538  1.00  0.00    -0.504 OA
ATOM     15  H   UNL     1      12.742 -34.953 -16.885  1.00  0.00     0.293 HD
ENDBRANCH   6  14
TORSDOF 4
ENDMDL
MODEL 8
REMARK VINA RESULT:    -4.881      7.472      9.385
REMARK INTER + INTRA:          -6.023
REMARK INTER:                  -5.740
REMARK INTRA:                  -0.283
REMARK UNBOUND:                -0.286
REMARK SMILES O=C([O-])C=Cc1ccc(O)c(O)c1
REMARK SMILES IDX 6 1 13 2 7 3 11 4 8 5 9 6 5 7 4 8 2 9 1 10 3 11 12 12 10 14
REMARK H PARENT 12 13 10 15
REMARK Flexibility Score: inf
ROOT
ATOM      1  C   UNL     1      16.556 -31.176 -20.252  1.00  0.00    -0.022 A 
ATOM      2  C   UNL     1      17.746 -30.656 -20.783  1.00  0.00     0.058 A 
ATOM      3  C   UNL     1      16.214 -32.514 -20.512  1.00  0.00     0.012 A 
ATOM      4  C   UNL     1      18.612 -31.475 -21.521  1.00  0.00     0.157 A 
ATOM      5  C   UNL     1      17.077 -33.332 -21.248  1.00  0.00     0.051 A 
ATOM      6  C   UNL     1      18.279 -32.816 -21.751  1.00  0.00     0.157 A 
ENDROOT
BRANCH   1   7
ATOM      7  C   UNL     1      15.636 -30.280 -19.523  1.00  0.00     0.010 C 
ATOM      8  C   UNL     1      15.617 -30.100 -18.194  1.00  0.00     0.025 C 
BRANCH   8   9
ATOM      9  C   UNL     1      16.625 -30.614 -17.246  1.00  0.00     0.064 C 
ATOM     10  O   UNL     1      16.340 -31.600 -16.519  1.00  0.00    -0.545 OA
ATOM     11  O   UNL     1      17.857 -29.991 -17.088  1.00  0.00    -0.545 OA
ENDBRANCH   8   9
ENDBRANCH   1   7
BRANCH   4  12
ATOM     12  O   UNL     1      19.803 -30.962 -22.034  1.00  0.00    -0.504 OA
ATOM     13  H   UNL     1      19.811 -30.163 -22.655  1.00  0.00     0.293 HD
ENDBRANCH   4  12
BRANCH   6  14
ATOM     14  O   UNL     1      19.144 -33.628 -22.483  1.00  0.00    -0.504 OA
ATOM     15  H   UNL     1      20.143 -33.458 -22.500  1.00  0.00     0.293 HD
ENDBRANCH   6  14
TORSDOF 4
ENDMDL
MODEL 9
REMARK VINA RESULT:    -4.810      1.296      5.033
REMARK INTER + INTRA:          -5.939
REMARK INTER:                  -5.666
REMARK INTRA:                  -0.274
REMARK UNBOUND:                -0.286
REMARK SMILES O=C([O-])C=Cc1ccc(O)c(O)c1
REMARK SMILES IDX 6 1 13 2 7 3 11 4 8 5 9 6 5 7 4 8 2 9 1 10 3 11 12 12 10 14
REMARK H PARENT 12 13 10 15
REMARK Flexibility Score: inf
ROOT
ATOM      1  C   UNL     1       9.614 -33.344 -19.630  1.00  0.00    -0.022 A 
ATOM      2  C   UNL     1      10.729 -32.585 -20.017  1.00  0.00     0.058 A 
ATOM      3  C   UNL     1       9.800 -34.476 -18.820  1.00  0.00     0.012 A 
ATOM      4  C   UNL     1      12.010 -32.920 -19.558  1.00  0.00     0.157 A 
ATOM      5  C   UNL     1      11.078 -34.811 -18.360  1.00  0.00     0.051 A 
ATOM      6  C   UNL     1      12.184 -34.034 -18.725  1.00  0.00     0.157 A 
ENDROOT
BRANCH   1   7
ATOM      7  C   UNL     1       8.282 -33.001 -20.171  1.00  0.00     0.010 C 
ATOM      8  C   UNL     1       7.404 -32.164 -19.597  1.00  0.00     0.025 C 
BRANCH   8   9
ATOM      9  C   UNL     1       7.680 -31.297 -18.435  1.00  0.00     0.064 C 
ATOM     10  O   UNL     1       7.433 -31.723 -17.278  1.00  0.00    -0.545 OA
ATOM     11  O   UNL     1       8.140 -29.996 -18.594  1.00  0.00    -0.545 OA
ENDBRANCH   8   9
ENDBRANCH   1   7
BRANCH   4  12
ATOM     12  O   UNL     1      13.116 -32.155 -19.927  1.00  0.00    -0.504 OA
ATOM     13  H   UNL     1      13.371 -32.030 -20.899  1.00  0.00     0.293 HD
ENDBRANCH   4  12
BRANCH   6  14
ATOM     14  O   UNL     1      13.460 -34.363 -18.268  1.00  0.00    -0.504 OA
ATOM     15  H   UNL     1      13.602 -35.078 -17.564  1.00  0.00     0.293 HD
ENDBRANCH   6  14
TORSDOF 4
ENDMDL
