MODEL 1
REMARK VINA RESULT:    -3.325      0.000      0.000
REMARK INTER + INTRA:          -7.559
REMARK INTER:                  -5.075
REMARK INTRA:                  -2.485
REMARK UNBOUND:                -2.485
REMARK SMILES CC(=O)CCC=C(C)CCC=C(C)CCC=C(C)C
REMARK SMILES IDX 10 1 11 2 12 3 13 4 14 5 15 6 16 7 18 8 17 9 19 10 9 11 7 12
REMARK SMILES IDX 6 13 8 14 5 15 4 16 2 17 3 18 1 19
REMARK H PARENT
REMARK Flexibility Score: inf
ROOT
ATOM      1  C   UNL     1      67.037  -1.565  36.107  1.00  0.00     0.032 C 
ENDROOT
BRANCH   1   2
ATOM      2  C   UNL     1      66.747  -0.859  34.806  1.00  0.00    -0.028 C 
ATOM      3  C   UNL     1      67.013   0.450  34.604  1.00  0.00    -0.077 C 
ATOM      4  C   UNL     1      67.640   1.302  35.683  1.00  0.00     0.039 C 
BRANCH   3   5
ATOM      5  C   UNL     1      66.682   1.072  33.265  1.00  0.00     0.034 C 
BRANCH   5   6
ATOM      6  C   UNL     1      67.277   2.481  33.156  1.00  0.00     0.032 C 
BRANCH   6   7
ATOM      7  C   UNL     1      67.992   2.660  31.841  1.00  0.00    -0.028 C 
ATOM      8  C   UNL     1      70.077   3.544  32.913  1.00  0.00     0.039 C 
ATOM      9  C   UNL     1      69.241   3.159  31.713  1.00  0.00    -0.080 C 
ATOM     10  C   UNL     1      69.816   3.314  30.329  1.00  0.00     0.039 C 
ENDBRANCH   6   7
ENDBRANCH   5   6
ENDBRANCH   3   5
ENDBRANCH   1   2
BRANCH   1  11
ATOM     11  C   UNL     1      68.239  -2.508  35.972  1.00  0.00     0.034 C 
BRANCH  11  12
ATOM     12  C   UNL     1      69.532  -1.807  36.348  1.00  0.00    -0.077 C 
ATOM     13  C   UNL     1      70.433  -1.370  35.437  1.00  0.00    -0.028 C 
ATOM     14  C   UNL     1      69.831  -1.568  37.807  1.00  0.00     0.039 C 
BRANCH  13  15
ATOM     15  C   UNL     1      70.321  -1.523  33.935  1.00  0.00     0.035 C 
BRANCH  15  16
ATOM     16  C   UNL     1      70.254  -0.157  33.239  1.00  0.00     0.079 C 
BRANCH  16  17
ATOM     17  C   UNL     1      71.487   0.116  32.419  1.00  0.00     0.130 C 
ATOM     18  O   UNL     1      72.515   0.474  32.974  1.00  0.00    -0.300 OA
ATOM     19  C   UNL     1      71.465  -0.012  30.926  1.00  0.00     0.087 C 
ENDBRANCH  16  17
ENDBRANCH  15  16
ENDBRANCH  13  15
ENDBRANCH  11  12
ENDBRANCH   1  11
TORSDOF 9
ENDMDL
MODEL 2
REMARK VINA RESULT:    -3.284     17.249     19.459
REMARK INTER + INTRA:          -7.497
REMARK INTER:                  -4.671
REMARK INTRA:                  -2.826
REMARK UNBOUND:                -2.485
REMARK SMILES CC(=O)CCC=C(C)CCC=C(C)CCC=C(C)C
REMARK SMILES IDX 10 1 11 2 12 3 13 4 14 5 15 6 16 7 18 8 17 9 19 10 9 11 7 12
REMARK SMILES IDX 6 13 8 14 5 15 4 16 2 17 3 18 1 19
REMARK H PARENT
REMARK Flexibility Score: inf
ROOT
ATOM      1  C   UNL     1      66.148  14.991  45.519  1.00  0.00     0.032 C 
ENDROOT
BRANCH   1   2
ATOM      2  C   UNL     1      65.620  14.232  46.711  1.00  0.00    -0.028 C 
ATOM      3  C   UNL     1      65.496  14.782  47.938  1.00  0.00    -0.077 C 
ATOM      4  C   UNL     1      65.874  16.221  48.198  1.00  0.00     0.039 C 
BRANCH   3   5
ATOM      5  C   UNL     1      64.960  13.937  49.074  1.00  0.00     0.034 C 
BRANCH   5   6
ATOM      6  C   UNL     1      63.645  13.258  48.676  1.00  0.00     0.032 C 
BRANCH   6   7
ATOM      7  C   UNL     1      63.749  11.762  48.822  1.00  0.00    -0.028 C 
ATOM      8  C   UNL     1      63.160  11.325  46.428  1.00  0.00     0.039 C 
ATOM      9  C   UNL     1      63.510  10.879  47.828  1.00  0.00    -0.080 C 
ATOM     10  C   UNL     1      63.620   9.407  48.132  1.00  0.00     0.039 C 
ENDBRANCH   6   7
ENDBRANCH   5   6
ENDBRANCH   3   5
ENDBRANCH   1   2
BRANCH   1  11
ATOM     11  C   UNL     1      67.541  14.491  45.114  1.00  0.00     0.034 C 
BRANCH  11  12
ATOM     12  C   UNL     1      68.615  15.060  46.024  1.00  0.00    -0.077 C 
ATOM     13  C   UNL     1      69.351  14.302  46.870  1.00  0.00    -0.028 C 
ATOM     14  C   UNL     1      68.893  16.542  45.980  1.00  0.00     0.039 C 
BRANCH  13  15
ATOM     15  C   UNL     1      69.216  12.807  47.066  1.00  0.00     0.035 C 
BRANCH  15  16
ATOM     16  C   UNL     1      68.496  12.481  48.381  1.00  0.00     0.079 C 
BRANCH  16  17
ATOM     17  C   UNL     1      67.517  11.347  48.219  1.00  0.00     0.130 C 
ATOM     18  O   UNL     1      67.093  10.769  49.208  1.00  0.00    -0.300 OA
ATOM     19  C   UNL     1      67.080  10.893  46.859  1.00  0.00     0.087 C 
ENDBRANCH  16  17
ENDBRANCH  15  16
ENDBRANCH  13  15
ENDBRANCH  11  12
ENDBRANCH   1  11
TORSDOF 9
ENDMDL
MODEL 3
REMARK VINA RESULT:    -3.276     17.349     19.478
REMARK INTER + INTRA:          -7.485
REMARK INTER:                  -5.092
REMARK INTRA:                  -2.393
REMARK UNBOUND:                -2.485
REMARK SMILES CC(=O)CCC=C(C)CCC=C(C)CCC=C(C)C
REMARK SMILES IDX 10 1 11 2 12 3 13 4 14 5 15 6 16 7 18 8 17 9 19 10 9 11 7 12
REMARK SMILES IDX 6 13 8 14 5 15 4 16 2 17 3 18 1 19
REMARK H PARENT
REMARK Flexibility Score: inf
ROOT
ATOM      1  C   UNL     1      68.651  15.679  44.445  1.00  0.00     0.032 C 
ENDROOT
BRANCH   1   2
ATOM      2  C   UNL     1      67.402  16.105  43.714  1.00  0.00    -0.028 C 
ATOM      3  C   UNL     1      66.448  15.236  43.317  1.00  0.00    -0.077 C 
ATOM      4  C   UNL     1      66.566  13.756  43.596  1.00  0.00     0.039 C 
BRANCH   3   5
ATOM      5  C   UNL     1      65.231  15.758  42.585  1.00  0.00     0.034 C 
BRANCH   5   6
ATOM      6  C   UNL     1      64.228  14.630  42.318  1.00  0.00     0.032 C 
BRANCH   6   7
ATOM      7  C   UNL     1      62.874  14.972  42.885  1.00  0.00    -0.028 C 
ATOM      8  C   UNL     1      62.543  12.701  43.888  1.00  0.00     0.039 C 
ATOM      9  C   UNL     1      62.094  14.109  43.572  1.00  0.00    -0.080 C 
ATOM     10  C   UNL     1      60.746  14.583  44.050  1.00  0.00     0.039 C 
ENDBRANCH   6   7
ENDBRANCH   5   6
ENDBRANCH   3   5
ENDBRANCH   1   2
BRANCH   1  11
ATOM     11  C   UNL     1      68.581  16.054  45.931  1.00  0.00     0.034 C 
BRANCH  11  12
ATOM     12  C   UNL     1      68.059  14.899  46.765  1.00  0.00    -0.077 C 
ATOM     13  C   UNL     1      66.798  14.845  47.254  1.00  0.00    -0.028 C 
ATOM     14  C   UNL     1      68.980  13.741  47.059  1.00  0.00     0.039 C 
BRANCH  13  15
ATOM     15  C   UNL     1      65.733  15.906  47.079  1.00  0.00     0.035 C 
BRANCH  15  16
ATOM     16  C   UNL     1      64.552  15.380  46.252  1.00  0.00     0.079 C 
BRANCH  16  17
ATOM     17  C   UNL     1      63.268  15.385  47.039  1.00  0.00     0.130 C 
ATOM     18  O   UNL     1      62.398  16.199  46.772  1.00  0.00    -0.300 OA
ATOM     19  C   UNL     1      63.053  14.425  48.170  1.00  0.00     0.087 C 
ENDBRANCH  16  17
ENDBRANCH  15  16
ENDBRANCH  13  15
ENDBRANCH  11  12
ENDBRANCH   1  11
TORSDOF 9
ENDMDL
MODEL 4
REMARK VINA RESULT:    -3.150      1.975      6.137
REMARK INTER + INTRA:          -7.291
REMARK INTER:                  -4.464
REMARK INTRA:                  -2.828
REMARK UNBOUND:                -2.485
REMARK SMILES CC(=O)CCC=C(C)CCC=C(C)CCC=C(C)C
REMARK SMILES IDX 10 1 11 2 12 3 13 4 14 5 15 6 16 7 18 8 17 9 19 10 9 11 7 12
REMARK SMILES IDX 6 13 8 14 5 15 4 16 2 17 3 18 1 19
REMARK H PARENT
REMARK Flexibility Score: inf
ROOT
ATOM      1  C   UNL     1      71.690   2.257  32.581  1.00  0.00     0.032 C 
ENDROOT
BRANCH   1   2
ATOM      2  C   UNL     1      71.274   1.016  33.332  1.00  0.00    -0.028 C 
ATOM      3  C   UNL     1      70.916  -0.132  32.716  1.00  0.00    -0.077 C 
ATOM      4  C   UNL     1      70.922  -0.252  31.211  1.00  0.00     0.039 C 
BRANCH   3   5
ATOM      5  C   UNL     1      70.509  -1.324  33.555  1.00  0.00     0.034 C 
BRANCH   5   6
ATOM      6  C   UNL     1      70.739  -1.046  35.045  1.00  0.00     0.032 C 
BRANCH   6   7
ATOM      7  C   UNL     1      69.471  -1.260  35.832  1.00  0.00    -0.028 C 
ATOM      8  C   UNL     1      69.285   1.148  36.493  1.00  0.00     0.039 C 
ATOM      9  C   UNL     1      68.819  -0.290  36.508  1.00  0.00    -0.080 C 
ATOM     10  C   UNL     1      67.580  -0.660  37.282  1.00  0.00     0.039 C 
ENDBRANCH   6   7
ENDBRANCH   5   6
ENDBRANCH   3   5
ENDBRANCH   1   2
BRANCH   1  11
ATOM     11  C   UNL     1      70.599   3.333  32.640  1.00  0.00     0.034 C 
BRANCH  11  12
ATOM     12  C   UNL     1      69.539   3.100  31.579  1.00  0.00    -0.077 C 
ATOM     13  C   UNL     1      68.302   2.625  31.855  1.00  0.00    -0.028 C 
ATOM     14  C   UNL     1      69.866   3.425  30.143  1.00  0.00     0.039 C 
BRANCH  13  15
ATOM     15  C   UNL     1      67.788   2.233  33.224  1.00  0.00     0.035 C 
BRANCH  15  16
ATOM     16  C   UNL     1      67.265   0.790  33.230  1.00  0.00     0.079 C 
BRANCH  16  17
ATOM     17  C   UNL     1      66.084   0.624  34.150  1.00  0.00     0.130 C 
ATOM     18  O   UNL     1      65.608  -0.486  34.329  1.00  0.00    -0.300 OA
ATOM     19  C   UNL     1      65.462   1.808  34.828  1.00  0.00     0.087 C 
ENDBRANCH  16  17
ENDBRANCH  15  16
ENDBRANCH  13  15
ENDBRANCH  11  12
ENDBRANCH   1  11
TORSDOF 9
ENDMDL
MODEL 5
REMARK VINA RESULT:    -3.105      7.927     10.168
REMARK INTER + INTRA:          -7.224
REMARK INTER:                  -4.771
REMARK INTRA:                  -2.453
REMARK UNBOUND:                -2.485
REMARK SMILES CC(=O)CCC=C(C)CCC=C(C)CCC=C(C)C
REMARK SMILES IDX 10 1 11 2 12 3 13 4 14 5 15 6 16 7 18 8 17 9 19 10 9 11 7 12
REMARK SMILES IDX 6 13 8 14 5 15 4 16 2 17 3 18 1 19
REMARK H PARENT
REMARK Flexibility Score: inf
ROOT
ATOM      1  C   UNL     1      62.753   3.487  33.851  1.00  0.00     0.032 C 
ENDROOT
BRANCH   1   2
ATOM      2  C   UNL     1      62.819   4.347  32.612  1.00  0.00    -0.028 C 
ATOM      3  C   UNL     1      62.741   5.695  32.647  1.00  0.00    -0.077 C 
ATOM      4  C   UNL     1      62.592   6.442  33.951  1.00  0.00     0.039 C 
BRANCH   3   5
ATOM      5  C   UNL     1      62.812   6.471  31.350  1.00  0.00     0.034 C 
BRANCH   5   6
ATOM      6  C   UNL     1      61.653   7.469  31.247  1.00  0.00     0.032 C 
BRANCH   6   7
ATOM      7  C   UNL     1      60.367   6.762  30.901  1.00  0.00    -0.028 C 
ATOM      8  C   UNL     1      59.152   7.653  32.902  1.00  0.00     0.039 C 
ATOM      9  C   UNL     1      59.242   6.815  31.647  1.00  0.00    -0.080 C 
ATOM     10  C   UNL     1      58.041   6.026  31.195  1.00  0.00     0.039 C 
ENDBRANCH   6   7
ENDBRANCH   5   6
ENDBRANCH   3   5
ENDBRANCH   1   2
BRANCH   1  11
ATOM     11  C   UNL     1      61.561   2.523  33.794  1.00  0.00     0.034 C 
BRANCH  11  12
ATOM     12  C   UNL     1      60.272   3.260  33.478  1.00  0.00    -0.077 C 
ATOM     13  C   UNL     1      59.629   3.156  32.291  1.00  0.00    -0.028 C 
ATOM     14  C   UNL     1      59.662   4.143  34.537  1.00  0.00     0.039 C 
BRANCH  13  15
ATOM     15  C   UNL     1      60.084   2.334  31.105  1.00  0.00     0.035 C 
BRANCH  15  16
ATOM     16  C   UNL     1      59.130   1.161  30.841  1.00  0.00     0.079 C 
BRANCH  16  17
ATOM     17  C   UNL     1      59.791  -0.169  31.093  1.00  0.00     0.130 C 
ATOM     18  O   UNL     1      60.346  -0.752  30.174  1.00  0.00    -0.300 OA
ATOM     19  C   UNL     1      59.752  -0.806  32.449  1.00  0.00     0.087 C 
ENDBRANCH  16  17
ENDBRANCH  15  16
ENDBRANCH  13  15
ENDBRANCH  11  12
ENDBRANCH   1  11
TORSDOF 9
ENDMDL
MODEL 6
REMARK VINA RESULT:    -3.082     17.654     19.192
REMARK INTER + INTRA:          -7.188
REMARK INTER:                  -4.763
REMARK INTRA:                  -2.425
REMARK UNBOUND:                -2.485
REMARK SMILES CC(=O)CCC=C(C)CCC=C(C)CCC=C(C)C
REMARK SMILES IDX 10 1 11 2 12 3 13 4 14 5 15 6 16 7 18 8 17 9 19 10 9 11 7 12
REMARK SMILES IDX 6 13 8 14 5 15 4 16 2 17 3 18 1 19
REMARK H PARENT
REMARK Flexibility Score: inf
ROOT
ATOM      1  C   UNL     1      62.250  12.787  46.237  1.00  0.00     0.032 C 
ENDROOT
BRANCH   1   2
ATOM      2  C   UNL     1      63.495  13.082  47.036  1.00  0.00    -0.028 C 
ATOM      3  C   UNL     1      63.755  14.293  47.575  1.00  0.00    -0.077 C 
ATOM      4  C   UNL     1      62.792  15.446  47.420  1.00  0.00     0.039 C 
BRANCH   3   5
ATOM      5  C   UNL     1      65.035  14.493  48.357  1.00  0.00     0.034 C 
BRANCH   5   6
ATOM      6  C   UNL     1      66.260  14.195  47.485  1.00  0.00     0.032 C 
BRANCH   6   7
ATOM      7  C   UNL     1      66.921  15.472  47.035  1.00  0.00    -0.028 C 
ATOM      8  C   UNL     1      68.989  14.309  46.234  1.00  0.00     0.039 C 
ATOM      9  C   UNL     1      68.156  15.543  46.493  1.00  0.00    -0.080 C 
ATOM     10  C   UNL     1      68.703  16.898  46.122  1.00  0.00     0.039 C 
ENDBRANCH   6   7
ENDBRANCH   5   6
ENDBRANCH   3   5
ENDBRANCH   1   2
BRANCH   1  11
ATOM     11  C   UNL     1      62.554  12.731  44.734  1.00  0.00     0.034 C 
BRANCH  11  12
ATOM     12  C   UNL     1      62.357  14.088  44.083  1.00  0.00    -0.077 C 
ATOM     13  C   UNL     1      63.381  14.897  43.725  1.00  0.00    -0.028 C 
ATOM     14  C   UNL     1      60.952  14.561  43.803  1.00  0.00     0.039 C 
BRANCH  13  15
ATOM     15  C   UNL     1      64.853  14.608  43.930  1.00  0.00     0.035 C 
BRANCH  15  16
ATOM     16  C   UNL     1      65.718  15.811  43.531  1.00  0.00     0.079 C 
BRANCH  16  17
ATOM     17  C   UNL     1      67.054  15.384  42.981  1.00  0.00     0.130 C 
ATOM     18  O   UNL     1      67.380  14.208  43.030  1.00  0.00    -0.300 OA
ATOM     19  C   UNL     1      68.007  16.387  42.404  1.00  0.00     0.087 C 
ENDBRANCH  16  17
ENDBRANCH  15  16
ENDBRANCH  13  15
ENDBRANCH  11  12
ENDBRANCH   1  11
TORSDOF 9
ENDMDL
MODEL 7
REMARK VINA RESULT:    -3.079     16.142     18.496
REMARK INTER + INTRA:          -7.184
REMARK INTER:                  -4.528
REMARK INTRA:                  -2.656
REMARK UNBOUND:                -2.485
REMARK SMILES CC(=O)CCC=C(C)CCC=C(C)CCC=C(C)C
REMARK SMILES IDX 10 1 11 2 12 3 13 4 14 5 15 6 16 7 18 8 17 9 19 10 9 11 7 12
REMARK SMILES IDX 6 13 8 14 5 15 4 16 2 17 3 18 1 19
REMARK H PARENT
REMARK Flexibility Score: inf
ROOT
ATOM      1  C   UNL     1      62.121   9.644  46.368  1.00  0.00     0.032 C 
ENDROOT
BRANCH   1   2
ATOM      2  C   UNL     1      62.656  10.084  47.709  1.00  0.00    -0.028 C 
ATOM      3  C   UNL     1      63.798   9.598  48.241  1.00  0.00    -0.077 C 
ATOM      4  C   UNL     1      64.634   8.574  47.509  1.00  0.00     0.039 C 
BRANCH   3   5
ATOM      5  C   UNL     1      64.252  10.097  49.595  1.00  0.00     0.034 C 
BRANCH   5   6
ATOM      6  C   UNL     1      65.708  10.575  49.542  1.00  0.00     0.032 C 
BRANCH   6   7
ATOM      7  C   UNL     1      65.781  12.021  49.123  1.00  0.00    -0.028 C 
ATOM      8  C   UNL     1      66.937  11.503  46.963  1.00  0.00     0.039 C 
ATOM      9  C   UNL     1      66.353  12.456  47.979  1.00  0.00    -0.080 C 
ATOM     10  C   UNL     1      66.383  13.938  47.709  1.00  0.00     0.039 C 
ENDBRANCH   6   7
ENDBRANCH   5   6
ENDBRANCH   3   5
ENDBRANCH   1   2
BRANCH   1  11
ATOM     11  C   UNL     1      62.014  10.826  45.397  1.00  0.00     0.034 C 
BRANCH  11  12
ATOM     12  C   UNL     1      63.387  11.330  44.992  1.00  0.00    -0.077 C 
ATOM     13  C   UNL     1      63.837  12.575  45.278  1.00  0.00    -0.028 C 
ATOM     14  C   UNL     1      64.310  10.401  44.244  1.00  0.00     0.039 C 
BRANCH  13  15
ATOM     15  C   UNL     1      63.062  13.652  46.006  1.00  0.00     0.035 C 
BRANCH  15  16
ATOM     16  C   UNL     1      62.938  14.921  45.153  1.00  0.00     0.079 C 
BRANCH  16  17
ATOM     17  C   UNL     1      62.093  14.694  43.926  1.00  0.00     0.130 C 
ATOM     18  O   UNL     1      62.606  14.757  42.819  1.00  0.00    -0.300 OA
ATOM     19  C   UNL     1      60.624  14.422  44.040  1.00  0.00     0.087 C 
ENDBRANCH  16  17
ENDBRANCH  15  16
ENDBRANCH  13  15
ENDBRANCH  11  12
ENDBRANCH   1  11
TORSDOF 9
ENDMDL
MODEL 8
REMARK VINA RESULT:    -3.047     17.128     19.292
REMARK INTER + INTRA:          -7.134
REMARK INTER:                  -4.446
REMARK INTRA:                  -2.688
REMARK UNBOUND:                -2.485
REMARK SMILES CC(=O)CCC=C(C)CCC=C(C)CCC=C(C)C
REMARK SMILES IDX 10 1 11 2 12 3 13 4 14 5 15 6 16 7 18 8 17 9 19 10 9 11 7 12
REMARK SMILES IDX 6 13 8 14 5 15 4 16 2 17 3 18 1 19
REMARK H PARENT
REMARK Flexibility Score: inf
ROOT
ATOM      1  C   UNL     1      68.592  16.055  44.422  1.00  0.00     0.032 C 
ENDROOT
BRANCH   1   2
ATOM      2  C   UNL     1      67.208  16.300  43.874  1.00  0.00    -0.028 C 
ATOM      3  C   UNL     1      66.439  15.320  43.351  1.00  0.00    -0.077 C 
ATOM      4  C   UNL     1      66.920  13.890  43.292  1.00  0.00     0.039 C 
BRANCH   3   5
ATOM      5  C   UNL     1      65.064  15.665  42.821  1.00  0.00     0.034 C 
BRANCH   5   6
ATOM      6  C   UNL     1      63.996  14.759  43.445  1.00  0.00     0.032 C 
BRANCH   6   7
ATOM      7  C   UNL     1      63.836  15.054  44.915  1.00  0.00    -0.028 C 
ATOM      8  C   UNL     1      64.297  12.690  45.602  1.00  0.00     0.039 C 
ATOM      9  C   UNL     1      63.944  14.130  45.895  1.00  0.00    -0.080 C 
ATOM     10  C   UNL     1      63.724  14.564  47.320  1.00  0.00     0.039 C 
ENDBRANCH   6   7
ENDBRANCH   5   6
ENDBRANCH   3   5
ENDBRANCH   1   2
BRANCH   1  11
ATOM     11  C   UNL     1      68.704  16.523  45.879  1.00  0.00     0.034 C 
BRANCH  11  12
ATOM     12  C   UNL     1      67.537  16.021  46.708  1.00  0.00    -0.077 C 
ATOM     13  C   UNL     1      67.411  14.735  47.114  1.00  0.00    -0.028 C 
ATOM     14  C   UNL     1      66.465  16.999  47.119  1.00  0.00     0.039 C 
BRANCH  13  15
ATOM     15  C   UNL     1      68.370  13.608  46.797  1.00  0.00     0.035 C 
BRANCH  15  16
ATOM     16  C   UNL     1      67.700  12.239  46.979  1.00  0.00     0.079 C 
BRANCH  16  17
ATOM     17  C   UNL     1      67.373  11.961  48.423  1.00  0.00     0.130 C 
ATOM     18  O   UNL     1      68.277  11.778  49.223  1.00  0.00    -0.300 OA
ATOM     19  C   UNL     1      65.950  11.873  48.888  1.00  0.00     0.087 C 
ENDBRANCH  16  17
ENDBRANCH  15  16
ENDBRANCH  13  15
ENDBRANCH  11  12
ENDBRANCH   1  11
TORSDOF 9
ENDMDL
MODEL 9
REMARK VINA RESULT:    -3.007      2.641      6.247
REMARK INTER + INTRA:          -7.073
REMARK INTER:                  -4.517
REMARK INTRA:                  -2.556
REMARK UNBOUND:                -2.485
REMARK SMILES CC(=O)CCC=C(C)CCC=C(C)CCC=C(C)C
REMARK SMILES IDX 10 1 11 2 12 3 13 4 14 5 15 6 16 7 18 8 17 9 19 10 9 11 7 12
REMARK SMILES IDX 6 13 8 14 5 15 4 16 2 17 3 18 1 19
REMARK H PARENT
REMARK Flexibility Score: inf
ROOT
ATOM      1  C   UNL     1      69.808   4.561  33.081  1.00  0.00     0.032 C 
ENDROOT
BRANCH   1   2
ATOM      2  C   UNL     1      71.008   4.294  33.956  1.00  0.00    -0.028 C 
ATOM      3  C   UNL     1      72.267   4.630  33.601  1.00  0.00    -0.077 C 
ATOM      4  C   UNL     1      72.558   5.319  32.288  1.00  0.00     0.039 C 
BRANCH   3   5
ATOM      5  C   UNL     1      73.408   4.316  34.544  1.00  0.00     0.034 C 
BRANCH   5   6
ATOM      6  C   UNL     1      73.851   2.855  34.397  1.00  0.00     0.032 C 
BRANCH   6   7
ATOM      7  C   UNL     1      73.374   2.031  35.565  1.00  0.00    -0.028 C 
ATOM      8  C   UNL     1      74.177  -0.126  34.577  1.00  0.00     0.039 C 
ATOM      9  C   UNL     1      73.491   0.688  35.650  1.00  0.00    -0.080 C 
ATOM     10  C   UNL     1      72.934  -0.007  36.866  1.00  0.00     0.039 C 
ENDBRANCH   6   7
ENDBRANCH   5   6
ENDBRANCH   3   5
ENDBRANCH   1   2
BRANCH   1  11
ATOM     11  C   UNL     1      69.274   3.265  32.458  1.00  0.00     0.034 C 
BRANCH  11  12
ATOM     12  C   UNL     1      70.110   2.845  31.263  1.00  0.00    -0.077 C 
ATOM     13  C   UNL     1      70.993   1.819  31.296  1.00  0.00    -0.028 C 
ATOM     14  C   UNL     1      69.947   3.593  29.963  1.00  0.00     0.039 C 
BRANCH  13  15
ATOM     15  C   UNL     1      71.306   0.959  32.502  1.00  0.00     0.035 C 
BRANCH  15  16
ATOM     16  C   UNL     1      70.433  -0.303  32.528  1.00  0.00     0.079 C 
BRANCH  16  17
ATOM     17  C   UNL     1      69.670  -0.432  33.821  1.00  0.00     0.130 C 
ATOM     18  O   UNL     1      68.916  -1.378  33.986  1.00  0.00    -0.300 OA
ATOM     19  C   UNL     1      69.798   0.602  34.898  1.00  0.00     0.087 C 
ENDBRANCH  16  17
ENDBRANCH  15  16
ENDBRANCH  13  15
ENDBRANCH  11  12
ENDBRANCH   1  11
TORSDOF 9
ENDMDL
