MODEL 1
REMARK VINA RESULT:    -4.007      0.000      0.000
REMARK INTER + INTRA:          -4.199
REMARK INTER:                  -4.944
REMARK INTRA:                   0.745
REMARK UNBOUND:                 0.745
REMARK SMILES CC1=CC=CC(C)(C)CC1=O
REMARK SMILES IDX 1 1 2 2 3 3 10 4 11 5 9 6 4 8 5 9 6 10 7 11 8 12
REMARK H PARENT
REMARK Flexibility Score: 80.00
ROOT
ATOM      1  C   UNL     1     210.407 152.466 182.074  1.00  0.00     0.048 C 
ATOM      2  C   UNL     1     211.607 151.979 182.852  1.00  0.00    -0.008 C 
ATOM      3  C   UNL     1     212.037 152.741 183.880  1.00  0.00     0.007 C 
ENDROOT
BRANCH   2   4
ATOM      4  C   UNL     1     212.263 150.736 182.375  1.00  0.00     0.159 C 
ATOM      5  O   UNL     1     211.921 150.258 181.258  1.00  0.00    -0.295 OA
BRANCH   4   6
ATOM      6  C   UNL     1     213.309 150.002 183.155  1.00  0.00     0.091 CG0
ATOM      7  G   UNL     1     214.548 150.868 183.479  1.00  0.00     0.000 G0
ENDBRANCH   4   6
ENDBRANCH   2   4
BRANCH   3   8
ATOM      8  C   UNL     1     213.186 152.544 184.796  1.00  0.00    -0.003 C 
ATOM      9  C   UNL     1     214.262 151.763 184.644  1.00  0.00    -0.020 C 
BRANCH   9  10
ATOM     10  C   UNL     1     214.551 150.851 183.475  1.00  0.00    -0.010 CG0
ATOM     11  C   UNL     1     215.048 151.680 182.268  1.00  0.00     0.016 C 
ATOM     12  C   UNL     1     215.683 149.881 183.885  1.00  0.00     0.016 C 
ATOM     13  G   UNL     1     213.295 150.012 183.145  1.00  0.00     0.000 G0
ENDBRANCH   9  10
ENDBRANCH   3   8
TORSDOF 0
ENDMDL
MODEL 2
REMARK VINA RESULT:    -3.872      1.877      2.930
REMARK INTER + INTRA:          -4.032
REMARK INTER:                  -4.782
REMARK INTRA:                   0.750
REMARK UNBOUND:                 0.745
REMARK SMILES CC1=CC=CC(C)(C)CC1=O
REMARK SMILES IDX 1 1 2 2 3 3 10 4 11 5 9 6 4 8 5 9 6 10 7 11 8 12
REMARK H PARENT
REMARK Flexibility Score: 80.00
ROOT
ATOM      1  C   UNL     1     211.568 153.945 184.652  1.00  0.00     0.048 C 
ATOM      2  C   UNL     1     211.967 153.019 183.528  1.00  0.00    -0.008 C 
ATOM      3  C   UNL     1     210.979 152.408 182.840  1.00  0.00     0.007 C 
ENDROOT
BRANCH   2   4
ATOM      4  C   UNL     1     213.420 152.796 183.319  1.00  0.00     0.159 C 
ATOM      5  O   UNL     1     214.230 153.204 184.196  1.00  0.00    -0.295 OA
BRANCH   4   6
ATOM      6  C   UNL     1     213.986 152.119 182.109  1.00  0.00     0.091 CG0
ATOM      7  G   UNL     1     213.467 150.675 181.919  1.00  0.00     0.000 G0
ENDBRANCH   4   6
ENDBRANCH   2   4
BRANCH   3   8
ATOM      8  C   UNL     1     211.056 151.439 181.720  1.00  0.00    -0.003 C 
ATOM      9  C   UNL     1     212.091 150.689 181.324  1.00  0.00    -0.020 C 
BRANCH   9  10
ATOM     10  C   UNL     1     213.475 150.677 181.929  1.00  0.00    -0.010 CG0
ATOM     11  C   UNL     1     213.466 149.875 183.252  1.00  0.00     0.016 C 
ATOM     12  C   UNL     1     214.429 149.961 180.945  1.00  0.00     0.016 C 
ATOM     13  G   UNL     1     213.976 152.127 182.114  1.00  0.00     0.000 G0
ENDBRANCH   9  10
ENDBRANCH   3   8
TORSDOF 0
ENDMDL
MODEL 3
REMARK VINA RESULT:    -3.836      2.547      3.552
REMARK INTER + INTRA:          -3.988
REMARK INTER:                  -4.745
REMARK INTRA:                   0.757
REMARK UNBOUND:                 0.745
REMARK SMILES CC1=CC=CC(C)(C)CC1=O
REMARK SMILES IDX 1 1 2 2 3 3 10 4 11 5 9 6 4 8 5 9 6 10 7 11 8 12
REMARK H PARENT
REMARK Flexibility Score: 80.00
ROOT
ATOM      1  C   UNL     1     211.224 154.246 184.487  1.00  0.00     0.048 C 
ATOM      2  C   UNL     1     211.546 153.508 183.209  1.00  0.00    -0.008 C 
ATOM      3  C   UNL     1     210.788 152.435 182.898  1.00  0.00     0.007 C 
ENDROOT
BRANCH   2   4
ATOM      4  C   UNL     1     212.721 153.978 182.434  1.00  0.00     0.159 C 
ATOM      5  O   UNL     1     213.490 154.833 182.954  1.00  0.00    -0.295 OA
BRANCH   4   6
ATOM      6  C   UNL     1     213.044 153.502 181.051  1.00  0.00     0.091 CG0
ATOM      7  G   UNL     1     213.232 151.971 180.963  1.00  0.00     0.000 G0
ENDBRANCH   4   6
ENDBRANCH   2   4
BRANCH   3   8
ATOM      8  C   UNL     1     210.876 151.508 181.745  1.00  0.00    -0.003 C 
ATOM      9  C   UNL     1     211.907 151.283 180.920  1.00  0.00    -0.020 C 
BRANCH   9  10
ATOM     10  C   UNL     1     213.253 151.966 180.960  1.00  0.00    -0.010 CG0
ATOM     11  C   UNL     1     214.098 151.401 182.125  1.00  0.00     0.016 C 
ATOM     12  C   UNL     1     213.994 151.654 179.639  1.00  0.00     0.016 C 
ATOM     13  G   UNL     1     213.059 153.497 181.052  1.00  0.00     0.000 G0
ENDBRANCH   9  10
ENDBRANCH   3   8
TORSDOF 0
ENDMDL
MODEL 4
REMARK VINA RESULT:    -3.689      2.073      3.258
REMARK INTER + INTRA:          -3.807
REMARK INTER:                  -4.824
REMARK INTRA:                   1.017
REMARK UNBOUND:                 0.745
REMARK SMILES CC1=CC=CC(C)(C)CC1=O
REMARK SMILES IDX 1 1 2 2 3 3 10 4 11 5 9 6 4 8 5 9 6 10 7 11 8 12
REMARK H PARENT
REMARK Flexibility Score: 80.00
ROOT
ATOM      1  C   UNL     1     213.096 152.275 185.003  1.00  0.00     0.048 C 
ATOM      2  C   UNL     1     212.778 151.795 183.607  1.00  0.00    -0.008 C 
ATOM      3  C   UNL     1     211.544 152.050 183.123  1.00  0.00     0.007 C 
ENDROOT
BRANCH   2   4
ATOM      4  C   UNL     1     213.827 151.013 182.905  1.00  0.00     0.159 C 
ATOM      5  O   UNL     1     215.004 151.031 183.359  1.00  0.00    -0.295 OA
BRANCH   4   6
ATOM      6  C   UNL     1     213.570 150.207 181.669  1.00  0.00     0.091 CG0
ATOM      7  G   UNL     1     213.040 151.054 180.489  1.00  0.00     0.000 G0
ENDBRANCH   4   6
ENDBRANCH   2   4
BRANCH   3   8
ATOM      8  C   UNL     1     210.937 151.688 181.819  1.00  0.00    -0.003 C 
ATOM      9  C   UNL     1     211.535 151.252 180.703  1.00  0.00    -0.020 C 
BRANCH   9  10
ATOM     10  C   UNL     1     213.017 151.048 180.500  1.00  0.00    -0.010 CG0
ATOM     11  C   UNL     1     213.276 150.388 179.125  1.00  0.00     0.016 C 
ATOM     12  C   UNL     1     213.701 152.435 180.499  1.00  0.00     0.016 C 
ATOM     13  G   UNL     1     213.597 150.227 181.674  1.00  0.00     0.000 G0
ENDBRANCH   9  10
ENDBRANCH   3   8
TORSDOF 0
ENDMDL
MODEL 5
REMARK VINA RESULT:    -3.586      1.382      2.046
REMARK INTER + INTRA:          -3.679
REMARK INTER:                  -4.418
REMARK INTRA:                   0.739
REMARK UNBOUND:                 0.745
REMARK SMILES CC1=CC=CC(C)(C)CC1=O
REMARK SMILES IDX 1 1 2 2 3 3 10 4 11 5 9 6 4 8 5 9 6 10 7 11 8 12
REMARK H PARENT
REMARK Flexibility Score: 80.00
ROOT
ATOM      1  C   UNL     1     211.536 153.394 184.461  1.00  0.00     0.048 C 
ATOM      2  C   UNL     1     212.451 152.362 183.844  1.00  0.00    -0.008 C 
ATOM      3  C   UNL     1     213.471 151.900 184.599  1.00  0.00     0.007 C 
ENDROOT
BRANCH   2   4
ATOM      4  C   UNL     1     212.198 151.992 182.429  1.00  0.00     0.159 C 
ATOM      5  O   UNL     1     211.362 152.666 181.765  1.00  0.00    -0.295 OA
BRANCH   4   6
ATOM      6  C   UNL     1     212.873 150.847 181.740  1.00  0.00     0.091 CG0
ATOM      7  G   UNL     1     214.415 150.955 181.748  1.00  0.00     0.000 G0
ENDBRANCH   4   6
ENDBRANCH   2   4
BRANCH   3   8
ATOM      8  C   UNL     1     214.534 150.921 184.267  1.00  0.00    -0.003 C 
ATOM      9  C   UNL     1     214.956 150.509 183.065  1.00  0.00    -0.020 C 
BRANCH   9  10
ATOM     10  C   UNL     1     214.410 150.942 181.725  1.00  0.00    -0.010 CG0
ATOM     11  C   UNL     1     214.940 152.350 181.369  1.00  0.00     0.016 C 
ATOM     12  C   UNL     1     214.922 149.954 180.651  1.00  0.00     0.016 C 
ATOM     13  G   UNL     1     212.866 150.873 181.745  1.00  0.00     0.000 G0
ENDBRANCH   9  10
ENDBRANCH   3   8
TORSDOF 0
ENDMDL
MODEL 6
REMARK VINA RESULT:    -3.419      1.865      2.648
REMARK INTER + INTRA:          -3.473
REMARK INTER:                  -4.215
REMARK INTRA:                   0.742
REMARK UNBOUND:                 0.745
REMARK SMILES CC1=CC=CC(C)(C)CC1=O
REMARK SMILES IDX 1 1 2 2 3 3 10 4 11 5 9 6 4 8 5 9 6 10 7 11 8 12
REMARK H PARENT
REMARK Flexibility Score: 80.00
ROOT
ATOM      1  C   UNL     1     212.504 150.519 179.123  1.00  0.00     0.048 C 
ATOM      2  C   UNL     1     212.669 150.953 180.560  1.00  0.00    -0.008 C 
ATOM      3  C   UNL     1     211.556 151.309 181.238  1.00  0.00     0.007 C 
ENDROOT
BRANCH   2   4
ATOM      4  C   UNL     1     214.053 151.023 181.091  1.00  0.00     0.159 C 
ATOM      5  O   UNL     1     215.019 150.917 180.286  1.00  0.00    -0.295 OA
BRANCH   4   6
ATOM      6  C   UNL     1     214.374 151.201 182.543  1.00  0.00     0.091 CG0
ATOM      7  G   UNL     1     213.804 152.509 183.137  1.00  0.00     0.000 G0
ENDBRANCH   4   6
ENDBRANCH   2   4
BRANCH   3   8
ATOM      8  C   UNL     1     211.404 151.797 182.630  1.00  0.00    -0.003 C 
ATOM      9  C   UNL     1     212.330 152.311 183.450  1.00  0.00    -0.020 C 
BRANCH   9  10
ATOM     10  C   UNL     1     213.797 152.492 183.144  1.00  0.00    -0.010 CG0
ATOM     11  C   UNL     1     214.000 153.730 182.239  1.00  0.00     0.016 C 
ATOM     12  C   UNL     1     214.541 152.750 184.476  1.00  0.00     0.016 C 
ATOM     13  G   UNL     1     214.364 151.197 182.520  1.00  0.00     0.000 G0
ENDBRANCH   9  10
ENDBRANCH   3   8
TORSDOF 0
ENDMDL
MODEL 7
REMARK VINA RESULT:    -3.400      1.688      2.649
REMARK INTER + INTRA:          -3.450
REMARK INTER:                  -4.201
REMARK INTRA:                   0.750
REMARK UNBOUND:                 0.745
REMARK SMILES CC1=CC=CC(C)(C)CC1=O
REMARK SMILES IDX 1 1 2 2 3 3 10 4 11 5 9 6 4 8 5 9 6 10 7 11 8 12
REMARK H PARENT
REMARK Flexibility Score: 80.00
ROOT
ATOM      1  C   UNL     1     209.952 150.974 181.372  1.00  0.00     0.048 C 
ATOM      2  C   UNL     1     211.401 151.177 181.745  1.00  0.00    -0.008 C 
ATOM      3  C   UNL     1     212.248 150.142 181.552  1.00  0.00     0.007 C 
ENDROOT
BRANCH   2   4
ATOM      4  C   UNL     1     211.765 152.475 182.365  1.00  0.00     0.159 C 
ATOM      5  O   UNL     1     210.842 153.260 182.719  1.00  0.00    -0.295 OA
BRANCH   4   6
ATOM      6  C   UNL     1     213.179 152.919 182.585  1.00  0.00     0.091 CG0
ATOM      7  G   UNL     1     213.992 151.947 183.469  1.00  0.00     0.000 G0
ENDBRANCH   4   6
ENDBRANCH   2   4
BRANCH   3   8
ATOM      8  C   UNL     1     213.697 150.030 181.843  1.00  0.00    -0.003 C 
ATOM      9  C   UNL     1     214.454 150.776 182.656  1.00  0.00    -0.020 C 
BRANCH   9  10
ATOM     10  C   UNL     1     213.996 151.961 183.473  1.00  0.00    -0.010 CG0
ATOM     11  C   UNL     1     213.217 151.476 184.717  1.00  0.00     0.016 C 
ATOM     12  C   UNL     1     215.248 152.725 183.963  1.00  0.00     0.016 C 
ATOM     13  G   UNL     1     213.167 152.917 182.585  1.00  0.00     0.000 G0
ENDBRANCH   9  10
ENDBRANCH   3   8
TORSDOF 0
ENDMDL
MODEL 8
REMARK VINA RESULT:    -3.395      2.452      3.245
REMARK INTER + INTRA:          -3.445
REMARK INTER:                  -4.186
REMARK INTRA:                   0.741
REMARK UNBOUND:                 0.745
REMARK SMILES CC1=CC=CC(C)(C)CC1=O
REMARK SMILES IDX 1 1 2 2 3 3 10 4 11 5 9 6 4 8 5 9 6 10 7 11 8 12
REMARK H PARENT
REMARK Flexibility Score: 80.00
ROOT
ATOM      1  C   UNL     1     213.426 151.401 178.029  1.00  0.00     0.048 C 
ATOM      2  C   UNL     1     213.563 150.877 179.439  1.00  0.00    -0.008 C 
ATOM      3  C   UNL     1     212.437 150.756 180.174  1.00  0.00     0.007 C 
ENDROOT
BRANCH   2   4
ATOM      4  C   UNL     1     214.938 150.606 179.929  1.00  0.00     0.159 C 
ATOM      5  O   UNL     1     215.918 150.995 179.236  1.00  0.00    -0.295 OA
BRANCH   4   6
ATOM      6  C   UNL     1     215.233 149.879 181.205  1.00  0.00     0.091 CG0
ATOM      7  G   UNL     1     214.641 150.574 182.452  1.00  0.00     0.000 G0
ENDBRANCH   4   6
ENDBRANCH   2   4
BRANCH   3   8
ATOM      8  C   UNL     1     212.258 150.305 181.575  1.00  0.00    -0.003 C 
ATOM      9  C   UNL     1     213.164 150.222 182.557  1.00  0.00    -0.020 C 
BRANCH   9  10
ATOM     10  C   UNL     1     214.633 150.555 182.453  1.00  0.00    -0.010 CG0
ATOM     11  C   UNL     1     214.830 152.089 182.476  1.00  0.00     0.016 C 
ATOM     12  C   UNL     1     215.353 149.963 183.687  1.00  0.00     0.016 C 
ATOM     13  G   UNL     1     215.229 149.896 181.188  1.00  0.00     0.000 G0
ENDBRANCH   9  10
ENDBRANCH   3   8
TORSDOF 0
ENDMDL
MODEL 9
REMARK VINA RESULT:    -3.295      3.245      3.899
REMARK INTER + INTRA:          -3.321
REMARK INTER:                  -4.054
REMARK INTRA:                   0.734
REMARK UNBOUND:                 0.745
REMARK SMILES CC1=CC=CC(C)(C)CC1=O
REMARK SMILES IDX 1 1 2 2 3 3 10 4 11 5 9 6 4 8 5 9 6 10 7 11 8 12
REMARK H PARENT
REMARK Flexibility Score: 80.00
ROOT
ATOM      1  C   UNL     1     212.647 153.186 176.879  1.00  0.00     0.048 C 
ATOM      2  C   UNL     1     213.129 152.907 178.282  1.00  0.00    -0.008 C 
ATOM      3  C   UNL     1     214.143 153.663 178.757  1.00  0.00     0.007 C 
ENDROOT
BRANCH   2   4
ATOM      4  C   UNL     1     212.499 151.772 179.002  1.00  0.00     0.159 C 
ATOM      5  O   UNL     1     211.764 150.976 178.355  1.00  0.00    -0.295 OA
BRANCH   4   6
ATOM      6  C   UNL     1     212.675 151.523 180.468  1.00  0.00     0.091 CG0
ATOM      7  G   UNL     1     214.148 151.293 180.874  1.00  0.00     0.000 G0
ENDBRANCH   4   6
ENDBRANCH   2   4
BRANCH   3   8
ATOM      8  C   UNL     1     214.839 153.609 180.065  1.00  0.00    -0.003 C 
ATOM      9  C   UNL     1     214.866 152.620 180.967  1.00  0.00    -0.020 C 
BRANCH   9  10
ATOM     10  C   UNL     1     214.146 151.296 180.868  1.00  0.00    -0.010 CG0
ATOM     11  C   UNL     1     214.906 150.352 179.907  1.00  0.00     0.016 C 
ATOM     12  C   UNL     1     214.138 150.643 182.270  1.00  0.00     0.016 C 
ATOM     13  G   UNL     1     212.680 151.530 180.438  1.00  0.00     0.000 G0
ENDBRANCH   9  10
ENDBRANCH   3   8
TORSDOF 0
ENDMDL
