MODEL 1
REMARK VINA RESULT:    -4.353      0.000      0.000
REMARK INTER + INTRA:          -4.353
REMARK INTER:                  -4.353
REMARK INTRA:                   0.000
REMARK UNBOUND:                 0.000
REMARK SMILES CC1(C)[C@H]2CC[C@]1(C)C(=O)C2
REMARK SMILES IDX 1 1 2 2 4 3 5 4 6 5 7 6 9 7 10 8 11 9 8 10 3 11
REMARK H PARENT
REMARK Flexibility Score: inf
ROOT
ATOM      1  C   UNL     1     -11.412 -42.797   5.344  1.00  0.00     0.012 C 
ATOM      2  C   UNL     1     -12.370 -41.684   4.822  1.00  0.00    -0.020 C 
ATOM      3  C   UNL     1     -13.140 -40.944   5.943  1.00  0.00     0.003 C 
ATOM      4  C   UNL     1     -12.000 -40.239   6.730  1.00  0.00     0.005 C 
ATOM      5  C   UNL     1     -10.998 -39.849   5.616  1.00  0.00     0.015 C 
ATOM      6  C   UNL     1     -11.684 -40.389   4.339  1.00  0.00     0.032 C 
ATOM      7  C   UNL     1     -12.883 -39.495   4.138  1.00  0.00     0.139 C 
ATOM      8  O   UNL     1     -12.978 -38.594   3.319  1.00  0.00    -0.299 OA
ATOM      9  C   UNL     1     -13.905 -39.826   5.182  1.00  0.00     0.080 C 
ATOM     10  C   UNL     1     -10.762 -40.518   3.120  1.00  0.00     0.020 C 
ATOM     11  C   UNL     1     -13.301 -42.361   3.769  1.00  0.00     0.012 C 
ENDROOT
TORSDOF 0
ENDMDL
MODEL 2
REMARK VINA RESULT:    -4.303      1.867      3.138
REMARK INTER + INTRA:          -4.303
REMARK INTER:                  -4.303
REMARK INTRA:                   0.000
REMARK UNBOUND:                 0.000
REMARK SMILES CC1(C)[C@H]2CC[C@]1(C)C(=O)C2
REMARK SMILES IDX 1 1 2 2 4 3 5 4 6 5 7 6 9 7 10 8 11 9 8 10 3 11
REMARK H PARENT
REMARK Flexibility Score: inf
ROOT
ATOM      1  C   UNL     1     -12.386 -39.794   2.370  1.00  0.00     0.012 C 
ATOM      2  C   UNL     1     -12.251 -40.056   3.901  1.00  0.00    -0.020 C 
ATOM      3  C   UNL     1     -13.538 -39.750   4.705  1.00  0.00     0.003 C 
ATOM      4  C   UNL     1     -14.544 -40.795   4.145  1.00  0.00     0.005 C 
ATOM      5  C   UNL     1     -13.652 -42.035   3.891  1.00  0.00     0.015 C 
ATOM      6  C   UNL     1     -12.252 -41.540   4.324  1.00  0.00     0.032 C 
ATOM      7  C   UNL     1     -12.339 -41.403   5.824  1.00  0.00     0.139 C 
ATOM      8  O   UNL     1     -11.873 -42.179   6.644  1.00  0.00    -0.299 OA
ATOM      9  C   UNL     1     -13.184 -40.210   6.146  1.00  0.00     0.080 C 
ATOM     10  C   UNL     1     -11.084 -42.395   3.819  1.00  0.00     0.020 C 
ATOM     11  C   UNL     1     -11.009 -39.242   4.380  1.00  0.00     0.012 C 
ENDROOT
TORSDOF 0
ENDMDL
MODEL 3
REMARK VINA RESULT:    -4.251      1.472      2.697
REMARK INTER + INTRA:          -4.251
REMARK INTER:                  -4.251
REMARK INTRA:                   0.000
REMARK UNBOUND:                 0.000
REMARK SMILES CC1(C)[C@H]2CC[C@]1(C)C(=O)C2
REMARK SMILES IDX 1 1 2 2 4 3 5 4 6 5 7 6 9 7 10 8 11 9 8 10 3 11
REMARK H PARENT
REMARK Flexibility Score: inf
ROOT
ATOM      1  C   UNL     1     -13.460 -39.877   6.609  1.00  0.00     0.012 C 
ATOM      2  C   UNL     1     -12.864 -40.785   5.492  1.00  0.00    -0.020 C 
ATOM      3  C   UNL     1     -13.927 -41.394   4.546  1.00  0.00     0.003 C 
ATOM      4  C   UNL     1     -14.523 -40.139   3.849  1.00  0.00     0.005 C 
ATOM      5  C   UNL     1     -13.294 -39.209   3.700  1.00  0.00     0.015 C 
ATOM      6  C   UNL     1     -12.158 -40.042   4.338  1.00  0.00     0.032 C 
ATOM      7  C   UNL     1     -11.926 -41.180   3.373  1.00  0.00     0.139 C 
ATOM      8  O   UNL     1     -11.001 -41.273   2.582  1.00  0.00    -0.299 OA
ATOM      9  C   UNL     1     -13.079 -42.131   3.472  1.00  0.00     0.080 C 
ATOM     10  C   UNL     1     -10.903 -39.241   4.707  1.00  0.00     0.020 C 
ATOM     11  C   UNL     1     -11.986 -41.853   6.214  1.00  0.00     0.012 C 
ENDROOT
TORSDOF 0
ENDMDL
MODEL 4
REMARK VINA RESULT:    -4.165      1.402      2.892
REMARK INTER + INTRA:          -4.165
REMARK INTER:                  -4.165
REMARK INTRA:                   0.000
REMARK UNBOUND:                 0.000
REMARK SMILES CC1(C)[C@H]2CC[C@]1(C)C(=O)C2
REMARK SMILES IDX 1 1 2 2 4 3 5 4 6 5 7 6 9 7 10 8 11 9 8 10 3 11
REMARK H PARENT
REMARK Flexibility Score: inf
ROOT
ATOM      1  C   UNL     1     -15.086 -40.884   3.945  1.00  0.00     0.012 C 
ATOM      2  C   UNL     1     -13.726 -40.478   4.590  1.00  0.00    -0.020 C 
ATOM      3  C   UNL     1     -12.787 -41.674   4.879  1.00  0.00     0.003 C 
ATOM      4  C   UNL     1     -12.478 -42.215   3.456  1.00  0.00     0.005 C 
ATOM      5  C   UNL     1     -12.416 -40.927   2.599  1.00  0.00     0.015 C 
ATOM      6  C   UNL     1     -12.709 -39.816   3.636  1.00  0.00     0.032 C 
ATOM      7  C   UNL     1     -11.484 -39.779   4.516  1.00  0.00     0.139 C 
ATOM      8  O   UNL     1     -10.594 -38.942   4.473  1.00  0.00    -0.299 OA
ATOM      9  C   UNL     1     -11.482 -40.998   5.385  1.00  0.00     0.080 C 
ATOM     10  C   UNL     1     -13.115 -38.466   3.033  1.00  0.00     0.020 C 
ATOM     11  C   UNL     1     -14.073 -39.637   5.858  1.00  0.00     0.012 C 
ENDROOT
TORSDOF 0
ENDMDL
MODEL 5
REMARK VINA RESULT:    -4.146      1.803      2.761
REMARK INTER + INTRA:          -4.146
REMARK INTER:                  -4.146
REMARK INTRA:                   0.000
REMARK UNBOUND:                 0.000
REMARK SMILES CC1(C)[C@H]2CC[C@]1(C)C(=O)C2
REMARK SMILES IDX 1 1 2 2 4 3 5 4 6 5 7 6 9 7 10 8 11 9 8 10 3 11
REMARK H PARENT
REMARK Flexibility Score: inf
ROOT
ATOM      1  C   UNL     1     -13.986 -41.729   3.877  1.00  0.00     0.012 C 
ATOM      2  C   UNL     1     -12.523 -41.208   4.005  1.00  0.00    -0.020 C 
ATOM      3  C   UNL     1     -12.408 -39.826   4.692  1.00  0.00     0.003 C 
ATOM      4  C   UNL     1     -12.920 -40.118   6.130  1.00  0.00     0.005 C 
ATOM      5  C   UNL     1     -12.397 -41.549   6.402  1.00  0.00     0.015 C 
ATOM      6  C   UNL     1     -11.664 -41.898   5.085  1.00  0.00     0.032 C 
ATOM      7  C   UNL     1     -10.442 -41.013   5.079  1.00  0.00     0.139 C 
ATOM      8  O   UNL     1      -9.300 -41.364   5.333  1.00  0.00    -0.299 OA
ATOM      9  C   UNL     1     -10.874 -39.605   4.810  1.00  0.00     0.080 C 
ATOM     10  C   UNL     1     -11.382 -43.392   4.884  1.00  0.00     0.020 C 
ATOM     11  C   UNL     1     -11.915 -41.243   2.568  1.00  0.00     0.012 C 
ENDROOT
TORSDOF 0
ENDMDL
MODEL 6
REMARK VINA RESULT:    -4.138      1.437      2.532
REMARK INTER + INTRA:          -4.138
REMARK INTER:                  -4.138
REMARK INTRA:                   0.000
REMARK UNBOUND:                 0.000
REMARK SMILES CC1(C)[C@H]2CC[C@]1(C)C(=O)C2
REMARK SMILES IDX 1 1 2 2 4 3 5 4 6 5 7 6 9 7 10 8 11 9 8 10 3 11
REMARK H PARENT
REMARK Flexibility Score: inf
ROOT
ATOM      1  C   UNL     1     -10.651 -42.002   3.486  1.00  0.00     0.012 C 
ATOM      2  C   UNL     1     -11.389 -41.584   4.793  1.00  0.00    -0.020 C 
ATOM      3  C   UNL     1     -10.774 -40.347   5.491  1.00  0.00     0.003 C 
ATOM      4  C   UNL     1     -11.007 -39.217   4.449  1.00  0.00     0.005 C 
ATOM      5  C   UNL     1     -12.380 -39.588   3.836  1.00  0.00     0.015 C 
ATOM      6  C   UNL     1     -12.750 -40.885   4.594  1.00  0.00     0.032 C 
ATOM      7  C   UNL     1     -13.043 -40.436   6.005  1.00  0.00     0.139 C 
ATOM      8  O   UNL     1     -14.152 -40.310   6.502  1.00  0.00    -0.299 OA
ATOM      9  C   UNL     1     -11.752 -40.068   6.666  1.00  0.00     0.080 C 
ATOM     10  C   UNL     1     -13.857 -41.719   3.937  1.00  0.00     0.020 C 
ATOM     11  C   UNL     1     -11.434 -42.853   5.700  1.00  0.00     0.012 C 
ENDROOT
TORSDOF 0
ENDMDL
MODEL 7
REMARK VINA RESULT:    -4.125      1.426      2.805
REMARK INTER + INTRA:          -4.125
REMARK INTER:                  -4.125
REMARK INTRA:                   0.000
REMARK UNBOUND:                 0.000
REMARK SMILES CC1(C)[C@H]2CC[C@]1(C)C(=O)C2
REMARK SMILES IDX 1 1 2 2 4 3 5 4 6 5 7 6 9 7 10 8 11 9 8 10 3 11
REMARK H PARENT
REMARK Flexibility Score: inf
ROOT
ATOM      1  C   UNL     1     -11.082 -40.582   2.817  1.00  0.00     0.012 C 
ATOM      2  C   UNL     1     -12.342 -40.212   3.657  1.00  0.00    -0.020 C 
ATOM      3  C   UNL     1     -13.565 -41.120   3.385  1.00  0.00     0.003 C 
ATOM      4  C   UNL     1     -13.074 -42.510   3.878  1.00  0.00     0.005 C 
ATOM      5  C   UNL     1     -12.197 -42.154   5.103  1.00  0.00     0.015 C 
ATOM      6  C   UNL     1     -12.287 -40.610   5.148  1.00  0.00     0.032 C 
ATOM      7  C   UNL     1     -13.708 -40.320   5.567  1.00  0.00     0.139 C 
ATOM      8  O   UNL     1     -14.070 -39.968   6.679  1.00  0.00    -0.299 OA
ATOM      9  C   UNL     1     -14.617 -40.634   4.420  1.00  0.00     0.080 C 
ATOM     10  C   UNL     1     -11.209 -39.928   5.998  1.00  0.00     0.020 C 
ATOM     11  C   UNL     1     -12.618 -38.699   3.396  1.00  0.00     0.012 C 
ENDROOT
TORSDOF 0
ENDMDL
MODEL 8
REMARK VINA RESULT:    -4.107     13.087     14.618
REMARK INTER + INTRA:          -4.107
REMARK INTER:                  -4.107
REMARK INTRA:                   0.000
REMARK UNBOUND:                 0.000
REMARK SMILES CC1(C)[C@H]2CC[C@]1(C)C(=O)C2
REMARK SMILES IDX 1 1 2 2 4 3 5 4 6 5 7 6 9 7 10 8 11 9 8 10 3 11
REMARK H PARENT
REMARK Flexibility Score: inf
ROOT
ATOM      1  C   UNL     1       1.320 -35.640  -1.125  1.00  0.00     0.012 C 
ATOM      2  C   UNL     1       1.422 -35.715   0.428  1.00  0.00    -0.020 C 
ATOM      3  C   UNL     1       0.798 -34.501   1.157  1.00  0.00     0.003 C 
ATOM      4  C   UNL     1      -0.708 -34.619   0.787  1.00  0.00     0.005 C 
ATOM      5  C   UNL     1      -0.941 -36.149   0.764  1.00  0.00     0.015 C 
ATOM      6  C   UNL     1       0.459 -36.711   1.110  1.00  0.00     0.032 C 
ATOM      7  C   UNL     1       0.669 -36.354   2.561  1.00  0.00     0.139 C 
ATOM      8  O   UNL     1       0.574 -37.119   3.509  1.00  0.00    -0.299 OA
ATOM      9  C   UNL     1       0.911 -34.880   2.660  1.00  0.00     0.080 C 
ATOM     10  C   UNL     1       0.657 -38.193   0.772  1.00  0.00     0.020 C 
ATOM     11  C   UNL     1       2.930 -35.935   0.762  1.00  0.00     0.012 C 
ENDROOT
TORSDOF 0
ENDMDL
MODEL 9
REMARK VINA RESULT:    -4.106     13.037     14.627
REMARK INTER + INTRA:          -4.106
REMARK INTER:                  -4.106
REMARK INTRA:                   0.000
REMARK UNBOUND:                 0.000
REMARK SMILES CC1(C)[C@H]2CC[C@]1(C)C(=O)C2
REMARK SMILES IDX 1 1 2 2 4 3 5 4 6 5 7 6 9 7 10 8 11 9 8 10 3 11
REMARK H PARENT
REMARK Flexibility Score: inf
ROOT
ATOM      1  C   UNL     1       0.820 -33.614   1.829  1.00  0.00     0.012 C 
ATOM      2  C   UNL     1       0.537 -35.124   1.564  1.00  0.00    -0.020 C 
ATOM      3  C   UNL     1      -0.868 -35.405   0.978  1.00  0.00     0.003 C 
ATOM      4  C   UNL     1      -0.808 -34.697  -0.405  1.00  0.00     0.005 C 
ATOM      5  C   UNL     1       0.657 -34.930  -0.851  1.00  0.00     0.015 C 
ATOM      6  C   UNL     1       1.250 -35.728   0.335  1.00  0.00     0.032 C 
ATOM      7  C   UNL     1       0.583 -37.079   0.261  1.00  0.00     0.139 C 
ATOM      8  O   UNL     1       1.090 -38.108  -0.158  1.00  0.00    -0.299 OA
ATOM      9  C   UNL     1      -0.844 -36.932   0.691  1.00  0.00     0.080 C 
ATOM     10  C   UNL     1       2.782 -35.764   0.383  1.00  0.00     0.020 C 
ATOM     11  C   UNL     1       0.813 -35.867   2.908  1.00  0.00     0.012 C 
ENDROOT
TORSDOF 0
ENDMDL
