MODEL 1
REMARK VINA RESULT:    -4.849      0.000      0.000
REMARK INTER + INTRA:          -7.163
REMARK INTER:                  -6.975
REMARK INTRA:                  -0.188
REMARK UNBOUND:                -0.188
REMARK SMILES CCCCCCCCCO
REMARK SMILES IDX 6 1 5 2 4 3 3 4 2 5 1 6 7 7 8 8 9 9 10 10
REMARK H PARENT 10 11
REMARK Flexibility Score: inf
ROOT
ATOM      1  C   UNL     1      -4.176  -6.269   2.496  1.00  0.00     0.000 C 
ENDROOT
BRANCH   1   2
ATOM      2  C   UNL     1      -3.164  -7.414   2.679  1.00  0.00     0.000 C 
BRANCH   2   3
ATOM      3  C   UNL     1      -2.848  -8.138   1.361  1.00  0.00    -0.000 C 
BRANCH   3   4
ATOM      4  C   UNL     1      -1.364  -8.524   1.241  1.00  0.00    -0.000 C 
BRANCH   4   5
ATOM      5  C   UNL     1      -0.930  -8.746  -0.215  1.00  0.00    -0.003 C 
ATOM      6  C   UNL     1       0.443  -8.146  -0.519  1.00  0.00     0.004 C 
ENDBRANCH   4   5
ENDBRANCH   3   4
ENDBRANCH   2   3
ENDBRANCH   1   2
BRANCH   1   7
ATOM      7  C   UNL     1      -3.678  -4.942   3.088  1.00  0.00     0.002 C 
BRANCH   7   8
ATOM      8  C   UNL     1      -4.645  -4.359   4.130  1.00  0.00     0.028 C 
BRANCH   8   9
ATOM      9  C   UNL     1      -5.489  -5.463   4.774  1.00  0.00     0.156 C 
BRANCH   9  10
ATOM     10  O   UNL     1      -5.019  -5.741   6.065  1.00  0.00    -0.396 OA
ATOM     11  H   UNL     1      -5.752  -6.213   6.540  1.00  0.00     0.210 HD
ENDBRANCH   9  10
ENDBRANCH   8   9
ENDBRANCH   7   8
ENDBRANCH   1   7
TORSDOF 8
ENDMDL
MODEL 2
REMARK VINA RESULT:    -4.773      3.315      6.518
REMARK INTER + INTRA:          -7.054
REMARK INTER:                  -6.894
REMARK INTRA:                  -0.160
REMARK UNBOUND:                -0.188
REMARK SMILES CCCCCCCCCO
REMARK SMILES IDX 6 1 5 2 4 3 3 4 2 5 1 6 7 7 8 8 9 9 10 10
REMARK H PARENT 10 11
REMARK Flexibility Score: inf
ROOT
ATOM      1  C   UNL     1      -1.286  -8.572   1.184  1.00  0.00     0.000 C 
ENDROOT
BRANCH   1   2
ATOM      2  C   UNL     1      -2.775  -8.185   1.229  1.00  0.00     0.000 C 
BRANCH   2   3
ATOM      3  C   UNL     1      -3.182  -7.563   2.575  1.00  0.00    -0.000 C 
BRANCH   3   4
ATOM      4  C   UNL     1      -3.988  -6.264   2.405  1.00  0.00    -0.000 C 
BRANCH   4   5
ATOM      5  C   UNL     1      -3.506  -5.146   3.340  1.00  0.00    -0.003 C 
ATOM      6  C   UNL     1      -4.659  -4.332   3.929  1.00  0.00     0.004 C 
ENDBRANCH   4   5
ENDBRANCH   3   4
ENDBRANCH   2   3
ENDBRANCH   1   2
BRANCH   1   7
ATOM      7  C   UNL     1      -0.789  -8.837  -0.245  1.00  0.00     0.002 C 
BRANCH   7   8
ATOM      8  C   UNL     1       0.655  -8.362  -0.466  1.00  0.00     0.028 C 
BRANCH   8   9
ATOM      9  C   UNL     1       1.648  -9.510  -0.267  1.00  0.00     0.156 C 
BRANCH   9  10
ATOM     10  O   UNL     1       1.048 -10.733  -0.598  1.00  0.00    -0.396 OA
ATOM     11  H   UNL     1       0.476 -10.987   0.172  1.00  0.00     0.210 HD
ENDBRANCH   9  10
ENDBRANCH   8   9
ENDBRANCH   7   8
ENDBRANCH   1   7
TORSDOF 8
ENDMDL
MODEL 3
REMARK VINA RESULT:    -4.738      2.225      3.351
REMARK INTER + INTRA:          -7.003
REMARK INTER:                  -6.498
REMARK INTRA:                  -0.505
REMARK UNBOUND:                -0.188
REMARK SMILES CCCCCCCCCO
REMARK SMILES IDX 6 1 5 2 4 3 3 4 2 5 1 6 7 7 8 8 9 9 10 10
REMARK H PARENT 10 11
REMARK Flexibility Score: inf
ROOT
ATOM      1  C   UNL     1      -3.850  -5.907   2.325  1.00  0.00     0.000 C 
ENDROOT
BRANCH   1   2
ATOM      2  C   UNL     1      -3.488  -7.401   2.372  1.00  0.00     0.000 C 
BRANCH   2   3
ATOM      3  C   UNL     1      -4.723  -8.304   2.520  1.00  0.00    -0.000 C 
BRANCH   3   4
ATOM      4  C   UNL     1      -6.023  -7.599   2.095  1.00  0.00    -0.000 C 
BRANCH   4   5
ATOM      5  C   UNL     1      -6.917  -8.491   1.222  1.00  0.00    -0.003 C 
ATOM      6  C   UNL     1      -6.192  -9.021  -0.015  1.00  0.00     0.004 C 
ENDBRANCH   4   5
ENDBRANCH   3   4
ENDBRANCH   2   3
ENDBRANCH   1   2
BRANCH   1   7
ATOM      7  C   UNL     1      -3.581  -5.192   3.658  1.00  0.00     0.002 C 
BRANCH   7   8
ATOM      8  C   UNL     1      -4.813  -4.438   4.183  1.00  0.00     0.028 C 
BRANCH   8   9
ATOM      9  C   UNL     1      -5.664  -5.337   5.084  1.00  0.00     0.156 C 
BRANCH   9  10
ATOM     10  O   UNL     1      -4.911  -5.772   6.183  1.00  0.00    -0.396 OA
ATOM     11  H   UNL     1      -4.908  -6.765   6.151  1.00  0.00     0.210 HD
ENDBRANCH   9  10
ENDBRANCH   8   9
ENDBRANCH   7   8
ENDBRANCH   1   7
TORSDOF 8
ENDMDL
MODEL 4
REMARK VINA RESULT:    -4.735      6.555      7.915
REMARK INTER + INTRA:          -6.999
REMARK INTER:                  -6.685
REMARK INTRA:                  -0.314
REMARK UNBOUND:                -0.188
REMARK SMILES CCCCCCCCCO
REMARK SMILES IDX 6 1 5 2 4 3 3 4 2 5 1 6 7 7 8 8 9 9 10 10
REMARK H PARENT 10 11
REMARK Flexibility Score: inf
ROOT
ATOM      1  C   UNL     1       1.337  -8.500   0.617  1.00  0.00     0.000 C 
ENDROOT
BRANCH   1   2
ATOM      2  C   UNL     1       1.026  -7.529  -0.535  1.00  0.00     0.000 C 
BRANCH   2   3
ATOM      3  C   UNL     1       1.943  -6.295  -0.530  1.00  0.00    -0.000 C 
BRANCH   3   4
ATOM      4  C   UNL     1       1.714  -5.385  -1.749  1.00  0.00    -0.000 C 
BRANCH   4   5
ATOM      5  C   UNL     1       2.455  -5.878  -3.000  1.00  0.00    -0.003 C 
ATOM      6  C   UNL     1       3.917  -6.225  -2.721  1.00  0.00     0.004 C 
ENDBRANCH   4   5
ENDBRANCH   3   4
ENDBRANCH   2   3
ENDBRANCH   1   2
BRANCH   1   7
ATOM      7  C   UNL     1       2.574  -9.367   0.340  1.00  0.00     0.002 C 
BRANCH   7   8
ATOM      8  C   UNL     1       3.446  -9.569   1.589  1.00  0.00     0.028 C 
BRANCH   8   9
ATOM      9  C   UNL     1       4.890  -9.134   1.328  1.00  0.00     0.156 C 
BRANCH   9  10
ATOM     10  O   UNL     1       5.777 -10.156   1.693  1.00  0.00    -0.396 OA
ATOM     11  H   UNL     1       5.484 -10.973   1.210  1.00  0.00     0.210 HD
ENDBRANCH   9  10
ENDBRANCH   8   9
ENDBRANCH   7   8
ENDBRANCH   1   7
TORSDOF 8
ENDMDL
MODEL 5
REMARK VINA RESULT:    -4.732      3.184      5.599
REMARK INTER + INTRA:          -6.995
REMARK INTER:                  -6.411
REMARK INTRA:                  -0.585
REMARK UNBOUND:                -0.188
REMARK SMILES CCCCCCCCCO
REMARK SMILES IDX 6 1 5 2 4 3 3 4 2 5 1 6 7 7 8 8 9 9 10 10
REMARK H PARENT 10 11
REMARK Flexibility Score: inf
ROOT
ATOM      1  C   UNL     1      -3.594  -7.590   2.432  1.00  0.00     0.000 C 
ENDROOT
BRANCH   1   2
ATOM      2  C   UNL     1      -4.134  -6.171   2.183  1.00  0.00     0.000 C 
BRANCH   2   3
ATOM      3  C   UNL     1      -3.483  -5.123   3.100  1.00  0.00    -0.000 C 
BRANCH   3   4
ATOM      4  C   UNL     1      -4.506  -4.408   3.999  1.00  0.00    -0.000 C 
BRANCH   4   5
ATOM      5  C   UNL     1      -4.949  -5.273   5.188  1.00  0.00    -0.003 C 
ATOM      6  C   UNL     1      -6.449  -5.565   5.179  1.00  0.00     0.004 C 
ENDBRANCH   4   5
ENDBRANCH   3   4
ENDBRANCH   2   3
ENDBRANCH   1   2
BRANCH   1   7
ATOM      7  C   UNL     1      -4.696  -8.659   2.378  1.00  0.00     0.002 C 
BRANCH   7   8
ATOM      8  C   UNL     1      -6.010  -8.123   1.789  1.00  0.00     0.028 C 
BRANCH   8   9
ATOM      9  C   UNL     1      -6.310  -8.772   0.435  1.00  0.00     0.156 C 
BRANCH   9  10
ATOM     10  O   UNL     1      -5.308  -8.448  -0.490  1.00  0.00    -0.396 OA
ATOM     11  H   UNL     1      -4.445  -8.726  -0.083  1.00  0.00     0.210 HD
ENDBRANCH   9  10
ENDBRANCH   8   9
ENDBRANCH   7   8
ENDBRANCH   1   7
TORSDOF 8
ENDMDL
MODEL 6
REMARK VINA RESULT:    -4.713      3.073      5.418
REMARK INTER + INTRA:          -6.968
REMARK INTER:                  -6.448
REMARK INTRA:                  -0.520
REMARK UNBOUND:                -0.188
REMARK SMILES CCCCCCCCCO
REMARK SMILES IDX 6 1 5 2 4 3 3 4 2 5 1 6 7 7 8 8 9 9 10 10
REMARK H PARENT 10 11
REMARK Flexibility Score: inf
ROOT
ATOM      1  C   UNL     1      -4.334  -8.384   2.362  1.00  0.00     0.000 C 
ENDROOT
BRANCH   1   2
ATOM      2  C   UNL     1      -3.432  -7.140   2.432  1.00  0.00     0.000 C 
BRANCH   2   3
ATOM      3  C   UNL     1      -4.221  -5.830   2.280  1.00  0.00    -0.000 C 
BRANCH   3   4
ATOM      4  C   UNL     1      -3.848  -4.788   3.348  1.00  0.00    -0.000 C 
BRANCH   4   5
ATOM      5  C   UNL     1      -4.507  -5.074   4.705  1.00  0.00    -0.003 C 
ATOM      6  C   UNL     1      -5.995  -5.404   4.580  1.00  0.00     0.004 C 
ENDBRANCH   4   5
ENDBRANCH   3   4
ENDBRANCH   2   3
ENDBRANCH   1   2
BRANCH   1   7
ATOM      7  C   UNL     1      -5.722  -8.074   1.782  1.00  0.00     0.002 C 
BRANCH   7   8
ATOM      8  C   UNL     1      -5.930  -8.687   0.388  1.00  0.00     0.028 C 
BRANCH   8   9
ATOM      9  C   UNL     1      -7.307  -9.348   0.278  1.00  0.00     0.156 C 
BRANCH   9  10
ATOM     10  O   UNL     1      -7.993  -9.244   1.496  1.00  0.00    -0.396 OA
ATOM     11  H   UNL     1      -8.355  -8.321   1.541  1.00  0.00     0.210 HD
ENDBRANCH   9  10
ENDBRANCH   8   9
ENDBRANCH   7   8
ENDBRANCH   1   7
TORSDOF 8
ENDMDL
MODEL 7
REMARK VINA RESULT:    -4.693      4.028      6.301
REMARK INTER + INTRA:          -6.938
REMARK INTER:                  -6.427
REMARK INTRA:                  -0.512
REMARK UNBOUND:                -0.188
REMARK SMILES CCCCCCCCCO
REMARK SMILES IDX 6 1 5 2 4 3 3 4 2 5 1 6 7 7 8 8 9 9 10 10
REMARK H PARENT 10 11
REMARK Flexibility Score: inf
ROOT
ATOM      1  C   UNL     1       1.868  -9.182  -0.320  1.00  0.00     0.000 C 
ENDROOT
BRANCH   1   2
ATOM      2  C   UNL     1       3.224  -8.458  -0.384  1.00  0.00     0.000 C 
BRANCH   2   3
ATOM      3  C   UNL     1       3.275  -7.399  -1.497  1.00  0.00    -0.000 C 
BRANCH   3   4
ATOM      4  C   UNL     1       3.498  -5.978  -0.949  1.00  0.00    -0.000 C 
BRANCH   4   5
ATOM      5  C   UNL     1       2.283  -5.065  -1.172  1.00  0.00    -0.003 C 
ATOM      6  C   UNL     1       1.374  -5.557  -2.298  1.00  0.00     0.004 C 
ENDBRANCH   4   5
ENDBRANCH   3   4
ENDBRANCH   2   3
ENDBRANCH   1   2
BRANCH   1   7
ATOM      7  C   UNL     1       0.717  -8.245   0.078  1.00  0.00     0.002 C 
BRANCH   7   8
ATOM      8  C   UNL     1      -0.665  -8.871  -0.167  1.00  0.00     0.028 C 
BRANCH   8   9
ATOM      9  C   UNL     1      -1.649  -8.481   0.940  1.00  0.00     0.156 C 
BRANCH   9  10
ATOM     10  O   UNL     1      -2.194  -9.629   1.530  1.00  0.00    -0.396 OA
ATOM     11  H   UNL     1      -1.618 -10.391   1.256  1.00  0.00     0.210 HD
ENDBRANCH   9  10
ENDBRANCH   8   9
ENDBRANCH   7   8
ENDBRANCH   1   7
TORSDOF 8
ENDMDL
MODEL 8
REMARK VINA RESULT:    -4.625      3.287      4.930
REMARK INTER + INTRA:          -6.841
REMARK INTER:                  -6.667
REMARK INTRA:                  -0.174
REMARK UNBOUND:                -0.188
REMARK SMILES CCCCCCCCCO
REMARK SMILES IDX 6 1 5 2 4 3 3 4 2 5 1 6 7 7 8 8 9 9 10 10
REMARK H PARENT 10 11
REMARK Flexibility Score: inf
ROOT
ATOM      1  C   UNL     1      -0.125  -8.517   0.669  1.00  0.00     0.000 C 
ENDROOT
BRANCH   1   2
ATOM      2  C   UNL     1       0.427  -7.745  -0.543  1.00  0.00     0.000 C 
BRANCH   2   3
ATOM      3  C   UNL     1       1.864  -7.249  -0.321  1.00  0.00    -0.000 C 
BRANCH   3   4
ATOM      4  C   UNL     1       2.074  -5.807  -0.814  1.00  0.00    -0.000 C 
BRANCH   4   5
ATOM      5  C   UNL     1       1.967  -5.687  -2.341  1.00  0.00    -0.003 C 
ATOM      6  C   UNL     1       3.229  -6.165  -3.060  1.00  0.00     0.004 C 
ENDBRANCH   4   5
ENDBRANCH   3   4
ENDBRANCH   2   3
ENDBRANCH   1   2
BRANCH   1   7
ATOM      7  C   UNL     1      -1.661  -8.536   0.707  1.00  0.00     0.002 C 
BRANCH   7   8
ATOM      8  C   UNL     1      -2.215  -8.641   2.137  1.00  0.00     0.028 C 
BRANCH   8   9
ATOM      9  C   UNL     1      -3.734  -8.833   2.125  1.00  0.00     0.156 C 
BRANCH   9  10
ATOM     10  O   UNL     1      -4.060 -10.139   2.514  1.00  0.00    -0.396 OA
ATOM     11  H   UNL     1      -4.385 -10.084   3.451  1.00  0.00     0.210 HD
ENDBRANCH   9  10
ENDBRANCH   8   9
ENDBRANCH   7   8
ENDBRANCH   1   7
TORSDOF 8
ENDMDL
MODEL 9
REMARK VINA RESULT:    -4.574      2.846      5.552
REMARK INTER + INTRA:          -6.767
REMARK INTER:                  -6.311
REMARK INTRA:                  -0.456
REMARK UNBOUND:                -0.188
REMARK SMILES CCCCCCCCCO
REMARK SMILES IDX 6 1 5 2 4 3 3 4 2 5 1 6 7 7 8 8 9 9 10 10
REMARK H PARENT 10 11
REMARK Flexibility Score: inf
ROOT
ATOM      1  C   UNL     1      -4.517  -8.573   2.250  1.00  0.00     0.000 C 
ENDROOT
BRANCH   1   2
ATOM      2  C   UNL     1      -5.793  -7.715   2.320  1.00  0.00     0.000 C 
BRANCH   2   3
ATOM      3  C   UNL     1      -5.501  -6.254   2.694  1.00  0.00    -0.000 C 
BRANCH   3   4
ATOM      4  C   UNL     1      -5.668  -5.985   4.200  1.00  0.00    -0.000 C 
BRANCH   4   5
ATOM      5  C   UNL     1      -4.570  -5.071   4.760  1.00  0.00    -0.003 C 
ATOM      6  C   UNL     1      -3.751  -4.392   3.662  1.00  0.00     0.004 C 
ENDBRANCH   4   5
ENDBRANCH   3   4
ENDBRANCH   2   3
ENDBRANCH   1   2
BRANCH   1   7
ATOM      7  C   UNL     1      -3.242  -7.725   2.121  1.00  0.00     0.002 C 
BRANCH   7   8
ATOM      8  C   UNL     1      -1.970  -8.581   2.034  1.00  0.00     0.028 C 
BRANCH   8   9
ATOM      9  C   UNL     1      -1.342  -8.493   0.640  1.00  0.00     0.156 C 
BRANCH   9  10
ATOM     10  O   UNL     1      -0.929  -9.763   0.213  1.00  0.00    -0.396 OA
ATOM     11  H   UNL     1      -1.552 -10.417   0.625  1.00  0.00     0.210 HD
ENDBRANCH   9  10
ENDBRANCH   8   9
ENDBRANCH   7   8
ENDBRANCH   1   7
TORSDOF 8
ENDMDL
