MODEL 1
REMARK VINA RESULT:    -3.491      0.000      0.000
REMARK INTER + INTRA:          -4.467
REMARK INTER:                  -4.308
REMARK INTRA:                  -0.160
REMARK UNBOUND:                -0.160
REMARK SMILES CCCCCC(=O)[O-]
REMARK SMILES IDX 4 1 5 2 6 3 7 4 8 5 3 6 2 7 1 8
REMARK H PARENT
REMARK Flexibility Score: inf
ROOT
ATOM      1  C   UNL     1      54.265  -1.378  31.077  1.00  0.00     0.006 C 
ENDROOT
BRANCH   1   2
ATOM      2  C   UNL     1      53.700  -1.391  29.651  1.00  0.00     0.053 C 
BRANCH   2   3
ATOM      3  C   UNL     1      54.784  -1.535  28.626  1.00  0.00     0.041 C 
ATOM      4  O   UNL     1      55.104  -0.558  27.900  1.00  0.00    -0.550 OA
ATOM      5  O   UNL     1      55.462  -2.740  28.497  1.00  0.00    -0.550 OA
ENDBRANCH   2   3
ENDBRANCH   1   2
BRANCH   1   6
ATOM      6  C   UNL     1      54.073  -2.724  31.791  1.00  0.00     0.000 C 
BRANCH   6   7
ATOM      7  C   UNL     1      55.398  -3.490  31.881  1.00  0.00    -0.003 C 
ATOM      8  C   UNL     1      55.170  -4.997  31.802  1.00  0.00     0.004 C 
ENDBRANCH   6   7
ENDBRANCH   1   6
TORSDOF 4
ENDMDL
MODEL 2
REMARK VINA RESULT:    -3.412      1.983      2.772
REMARK INTER + INTRA:          -4.369
REMARK INTER:                  -4.090
REMARK INTRA:                  -0.279
REMARK UNBOUND:                -0.160
REMARK SMILES CCCCCC(=O)[O-]
REMARK SMILES IDX 4 1 5 2 6 3 7 4 8 5 3 6 2 7 1 8
REMARK H PARENT
REMARK Flexibility Score: inf
ROOT
ATOM      1  C   UNL     1      55.228  -3.908  32.053  1.00  0.00     0.006 C 
ENDROOT
BRANCH   1   2
ATOM      2  C   UNL     1      54.068  -2.934  31.805  1.00  0.00     0.053 C 
BRANCH   2   3
ATOM      3  C   UNL     1      54.506  -1.740  31.013  1.00  0.00     0.041 C 
ATOM      4  O   UNL     1      55.382  -0.961  31.472  1.00  0.00    -0.550 OA
ATOM      5  O   UNL     1      53.970  -1.507  29.753  1.00  0.00    -0.550 OA
ENDBRANCH   2   3
ENDBRANCH   1   2
BRANCH   1   6
ATOM      6  C   UNL     1      55.839  -4.429  30.744  1.00  0.00     0.000 C 
BRANCH   6   7
ATOM      7  C   UNL     1      57.351  -4.177  30.707  1.00  0.00    -0.003 C 
ATOM      8  C   UNL     1      57.854  -3.644  32.046  1.00  0.00     0.004 C 
ENDBRANCH   6   7
ENDBRANCH   1   6
TORSDOF 4
ENDMDL
MODEL 3
REMARK VINA RESULT:    -3.384      2.048      2.493
REMARK INTER + INTRA:          -4.334
REMARK INTER:                  -4.078
REMARK INTRA:                  -0.257
REMARK UNBOUND:                -0.160
REMARK SMILES CCCCCC(=O)[O-]
REMARK SMILES IDX 4 1 5 2 6 3 7 4 8 5 3 6 2 7 1 8
REMARK H PARENT
REMARK Flexibility Score: inf
ROOT
ATOM      1  C   UNL     1      56.808  -2.370  30.000  1.00  0.00     0.006 C 
ENDROOT
BRANCH   1   2
ATOM      2  C   UNL     1      55.525  -2.095  29.205  1.00  0.00     0.053 C 
BRANCH   2   3
ATOM      3  C   UNL     1      54.445  -1.526  30.074  1.00  0.00     0.041 C 
ATOM      4  O   UNL     1      54.682  -1.246  31.279  1.00  0.00    -0.550 OA
ATOM      5  O   UNL     1      53.186  -1.275  29.544  1.00  0.00    -0.550 OA
ENDBRANCH   2   3
ENDBRANCH   1   2
BRANCH   1   6
ATOM      6  C   UNL     1      57.014  -3.867  30.270  1.00  0.00     0.000 C 
BRANCH   6   7
ATOM      7  C   UNL     1      56.630  -4.222  31.712  1.00  0.00    -0.003 C 
ATOM      8  C   UNL     1      55.253  -4.878  31.770  1.00  0.00     0.004 C 
ENDBRANCH   6   7
ENDBRANCH   1   6
TORSDOF 4
ENDMDL
MODEL 4
REMARK VINA RESULT:    -3.376      2.970      4.293
REMARK INTER + INTRA:          -4.326
REMARK INTER:                  -4.202
REMARK INTRA:                  -0.123
REMARK UNBOUND:                -0.160
REMARK SMILES CCCCCC(=O)[O-]
REMARK SMILES IDX 4 1 5 2 6 3 7 4 8 5 3 6 2 7 1 8
REMARK H PARENT
REMARK Flexibility Score: inf
ROOT
ATOM      1  C   UNL     1      56.731  -1.271  31.100  1.00  0.00     0.006 C 
ENDROOT
BRANCH   1   2
ATOM      2  C   UNL     1      55.374  -0.598  31.342  1.00  0.00     0.053 C 
BRANCH   2   3
ATOM      3  C   UNL     1      54.235  -1.500  30.975  1.00  0.00     0.041 C 
ATOM      4  O   UNL     1      53.895  -2.438  31.743  1.00  0.00    -0.550 OA
ATOM      5  O   UNL     1      53.527  -1.282  29.799  1.00  0.00    -0.550 OA
ENDBRANCH   2   3
ENDBRANCH   1   2
BRANCH   1   6
ATOM      6  C   UNL     1      57.753  -0.311  30.475  1.00  0.00     0.000 C 
BRANCH   6   7
ATOM      7  C   UNL     1      57.135   1.074  30.246  1.00  0.00    -0.003 C 
ATOM      8  C   UNL     1      57.112   1.428  28.762  1.00  0.00     0.004 C 
ENDBRANCH   6   7
ENDBRANCH   1   6
TORSDOF 4
ENDMDL
MODEL 5
REMARK VINA RESULT:    -3.337      1.651      2.111
REMARK INTER + INTRA:          -4.276
REMARK INTER:                  -4.181
REMARK INTRA:                  -0.096
REMARK UNBOUND:                -0.160
REMARK SMILES CCCCCC(=O)[O-]
REMARK SMILES IDX 4 1 5 2 6 3 7 4 8 5 3 6 2 7 1 8
REMARK H PARENT
REMARK Flexibility Score: inf
ROOT
ATOM      1  C   UNL     1      56.657  -2.573  29.865  1.00  0.00     0.006 C 
ENDROOT
BRANCH   1   2
ATOM      2  C   UNL     1      55.604  -2.718  28.758  1.00  0.00     0.053 C 
BRANCH   2   3
ATOM      3  C   UNL     1      54.761  -1.485  28.631  1.00  0.00     0.041 C 
ATOM      4  O   UNL     1      55.111  -0.555  27.857  1.00  0.00    -0.550 OA
ATOM      5  O   UNL     1      53.572  -1.379  29.342  1.00  0.00    -0.550 OA
ENDBRANCH   2   3
ENDBRANCH   1   2
BRANCH   1   6
ATOM      6  C   UNL     1      57.130  -3.933  30.398  1.00  0.00     0.000 C 
BRANCH   6   7
ATOM      7  C   UNL     1      56.602  -4.181  31.816  1.00  0.00    -0.003 C 
ATOM      8  C   UNL     1      55.255  -4.898  31.785  1.00  0.00     0.004 C 
ENDBRANCH   6   7
ENDBRANCH   1   6
TORSDOF 4
ENDMDL
MODEL 6
REMARK VINA RESULT:    -3.297      2.282      2.930
REMARK INTER + INTRA:          -4.228
REMARK INTER:                  -4.005
REMARK INTRA:                  -0.223
REMARK UNBOUND:                -0.160
REMARK SMILES CCCCCC(=O)[O-]
REMARK SMILES IDX 4 1 5 2 6 3 7 4 8 5 3 6 2 7 1 8
REMARK H PARENT
REMARK Flexibility Score: inf
ROOT
ATOM      1  C   UNL     1      57.331  -2.814  31.755  1.00  0.00     0.006 C 
ENDROOT
BRANCH   1   2
ATOM      2  C   UNL     1      57.271  -1.528  30.919  1.00  0.00     0.053 C 
BRANCH   2   3
ATOM      3  C   UNL     1      55.875  -0.994  30.823  1.00  0.00     0.041 C 
ATOM      4  O   UNL     1      55.451  -0.170  31.676  1.00  0.00    -0.550 OA
ATOM      5  O   UNL     1      55.053  -1.381  29.772  1.00  0.00    -0.550 OA
ENDBRANCH   2   3
ENDBRANCH   1   2
BRANCH   1   6
ATOM      6  C   UNL     1      57.478  -4.068  30.881  1.00  0.00     0.000 C 
BRANCH   6   7
ATOM      7  C   UNL     1      56.109  -4.686  30.573  1.00  0.00    -0.003 C 
ATOM      8  C   UNL     1      55.254  -4.787  31.834  1.00  0.00     0.004 C 
ENDBRANCH   6   7
ENDBRANCH   1   6
TORSDOF 4
ENDMDL
MODEL 7
REMARK VINA RESULT:    -3.178      2.435      4.222
REMARK INTER + INTRA:          -4.080
REMARK INTER:                  -3.926
REMARK INTRA:                  -0.154
REMARK UNBOUND:                -0.160
REMARK SMILES CCCCCC(=O)[O-]
REMARK SMILES IDX 4 1 5 2 6 3 7 4 8 5 3 6 2 7 1 8
REMARK H PARENT
REMARK Flexibility Score: inf
ROOT
ATOM      1  C   UNL     1      54.967  -1.867  28.752  1.00  0.00     0.006 C 
ENDROOT
BRANCH   1   2
ATOM      2  C   UNL     1      56.113  -2.788  29.192  1.00  0.00     0.053 C 
BRANCH   2   3
ATOM      3  C   UNL     1      55.800  -3.484  30.482  1.00  0.00     0.041 C 
ATOM      4  O   UNL     1      55.331  -2.837  31.455  1.00  0.00    -0.550 OA
ATOM      5  O   UNL     1      55.996  -4.854  30.597  1.00  0.00    -0.550 OA
ENDBRANCH   2   3
ENDBRANCH   1   2
BRANCH   1   6
ATOM      6  C   UNL     1      55.468  -0.483  28.317  1.00  0.00     0.000 C 
BRANCH   6   7
ATOM      7  C   UNL     1      56.690  -0.059  29.140  1.00  0.00    -0.003 C 
ATOM      8  C   UNL     1      57.088   1.383  28.834  1.00  0.00     0.004 C 
ENDBRANCH   6   7
ENDBRANCH   1   6
TORSDOF 4
ENDMDL
MODEL 8
REMARK VINA RESULT:    -3.132      2.593      2.965
REMARK INTER + INTRA:          -4.024
REMARK INTER:                  -3.876
REMARK INTRA:                  -0.148
REMARK UNBOUND:                -0.160
REMARK SMILES CCCCCC(=O)[O-]
REMARK SMILES IDX 4 1 5 2 6 3 7 4 8 5 3 6 2 7 1 8
REMARK H PARENT
REMARK Flexibility Score: inf
ROOT
ATOM      1  C   UNL     1      55.960  -3.142  29.287  1.00  0.00     0.006 C 
ENDROOT
BRANCH   1   2
ATOM      2  C   UNL     1      55.643  -1.791  29.941  1.00  0.00     0.053 C 
BRANCH   2   3
ATOM      3  C   UNL     1      54.204  -1.695  30.348  1.00  0.00     0.041 C 
ATOM      4  O   UNL     1      53.339  -1.288  29.527  1.00  0.00    -0.550 OA
ATOM      5  O   UNL     1      53.814  -2.086  31.622  1.00  0.00    -0.550 OA
ENDBRANCH   2   3
ENDBRANCH   1   2
BRANCH   1   6
ATOM      6  C   UNL     1      56.344  -4.212  30.319  1.00  0.00     0.000 C 
BRANCH   6   7
ATOM      7  C   UNL     1      57.753  -3.962  30.869  1.00  0.00    -0.003 C 
ATOM      8  C   UNL     1      58.798  -4.034  29.758  1.00  0.00     0.004 C 
ENDBRANCH   6   7
ENDBRANCH   1   6
TORSDOF 4
ENDMDL
MODEL 9
REMARK VINA RESULT:    -3.130      2.586      4.190
REMARK INTER + INTRA:          -4.022
REMARK INTER:                  -3.873
REMARK INTRA:                  -0.149
REMARK UNBOUND:                -0.160
REMARK SMILES CCCCCC(=O)[O-]
REMARK SMILES IDX 4 1 5 2 6 3 7 4 8 5 3 6 2 7 1 8
REMARK H PARENT
REMARK Flexibility Score: inf
ROOT
ATOM      1  C   UNL     1      56.009  -0.975  31.010  1.00  0.00     0.006 C 
ENDROOT
BRANCH   1   2
ATOM      2  C   UNL     1      56.522  -2.405  31.226  1.00  0.00     0.053 C 
BRANCH   2   3
ATOM      3  C   UNL     1      56.057  -3.330  30.143  1.00  0.00     0.041 C 
ATOM      4  O   UNL     1      55.995  -4.571  30.352  1.00  0.00    -0.550 OA
ATOM      5  O   UNL     1      55.659  -2.819  28.915  1.00  0.00    -0.550 OA
ENDBRANCH   2   3
ENDBRANCH   1   2
BRANCH   1   6
ATOM      6  C   UNL     1      57.151   0.050  30.953  1.00  0.00     0.000 C 
BRANCH   6   7
ATOM      7  C   UNL     1      57.711   0.167  29.530  1.00  0.00    -0.003 C 
ATOM      8  C   UNL     1      57.124   1.375  28.805  1.00  0.00     0.004 C 
ENDBRANCH   6   7
ENDBRANCH   1   6
TORSDOF 4
ENDMDL
