MODEL 1
REMARK VINA RESULT:    -6.130      0.000      0.000
REMARK INTER + INTRA:          -9.193
REMARK INTER:                  -8.281
REMARK INTRA:                  -0.913
REMARK UNBOUND:                -0.913
REMARK SMILES CC(=O)CCC=C(C)CCC=C(C)C
REMARK SMILES IDX 7 1 6 2 8 3 9 4 10 5 11 6 13 7 12 8 14 9 5 10 4 11 2 12 3 13
REMARK SMILES IDX 1 14
REMARK H PARENT
REMARK Flexibility Score: inf
ROOT
ATOM      1  C   UNL     1      28.673 -12.453  26.820  1.00  0.00    -0.077 C 
ATOM      2  C   UNL     1      29.841 -12.514  27.497  1.00  0.00    -0.028 C 
ATOM      3  C   UNL     1      28.502 -11.375  25.780  1.00  0.00     0.039 C 
ENDROOT
BRANCH   1   4
ATOM      4  C   UNL     1      27.537 -13.435  27.051  1.00  0.00     0.034 C 
BRANCH   4   5
ATOM      5  C   UNL     1      26.463 -12.862  27.989  1.00  0.00     0.032 C 
BRANCH   5   6
ATOM      6  C   UNL     1      26.675 -13.295  29.420  1.00  0.00    -0.028 C 
ATOM      7  C   UNL     1      24.998 -15.149  29.286  1.00  0.00     0.039 C 
ATOM      8  C   UNL     1      26.048 -14.338  30.007  1.00  0.00    -0.080 C 
ATOM      9  C   UNL     1      26.404 -14.679  31.431  1.00  0.00     0.039 C 
ENDBRANCH   5   6
ENDBRANCH   4   5
ENDBRANCH   1   4
BRANCH   2  10
ATOM     10  C   UNL     1      30.130 -13.519  28.586  1.00  0.00     0.035 C 
BRANCH  10  11
ATOM     11  C   UNL     1      31.461 -13.217  29.282  1.00  0.00     0.079 C 
BRANCH  11  12
ATOM     12  C   UNL     1      31.239 -12.869  30.730  1.00  0.00     0.130 C 
ATOM     13  O   UNL     1      32.179 -12.478  31.405  1.00  0.00    -0.300 OA
ATOM     14  C   UNL     1      29.884 -12.980  31.363  1.00  0.00     0.087 C 
ENDBRANCH  11  12
ENDBRANCH  10  11
ENDBRANCH   2  10
TORSDOF 6
ENDMDL
MODEL 2
REMARK VINA RESULT:    -6.122      1.508      4.071
REMARK INTER + INTRA:          -9.182
REMARK INTER:                  -8.210
REMARK INTRA:                  -0.972
REMARK UNBOUND:                -0.913
REMARK SMILES CC(=O)CCC=C(C)CCC=C(C)C
REMARK SMILES IDX 7 1 6 2 8 3 9 4 10 5 11 6 13 7 12 8 14 9 5 10 4 11 2 12 3 13
REMARK SMILES IDX 1 14
REMARK H PARENT
REMARK Flexibility Score: inf
ROOT
ATOM      1  C   UNL     1      27.784 -13.250  31.220  1.00  0.00    -0.077 C 
ATOM      2  C   UNL     1      29.012 -13.365  31.772  1.00  0.00    -0.028 C 
ATOM      3  C   UNL     1      26.728 -14.256  31.603  1.00  0.00     0.039 C 
ENDROOT
BRANCH   1   4
ATOM      4  C   UNL     1      27.420 -12.141  30.247  1.00  0.00     0.034 C 
BRANCH   4   5
ATOM      5  C   UNL     1      27.074 -12.689  28.853  1.00  0.00     0.032 C 
BRANCH   5   6
ATOM      6  C   UNL     1      27.680 -11.850  27.752  1.00  0.00    -0.028 C 
ATOM      7  C   UNL     1      27.920 -13.783  26.179  1.00  0.00     0.039 C 
ATOM      8  C   UNL     1      28.036 -12.321  26.537  1.00  0.00    -0.080 C 
ATOM      9  C   UNL     1      28.581 -11.348  25.523  1.00  0.00     0.039 C 
ENDBRANCH   5   6
ENDBRANCH   4   5
ENDBRANCH   1   4
BRANCH   2  10
ATOM     10  C   UNL     1      30.167 -12.447  31.449  1.00  0.00     0.035 C 
BRANCH  10  11
ATOM     11  C   UNL     1      31.277 -13.194  30.704  1.00  0.00     0.079 C 
BRANCH  11  12
ATOM     12  C   UNL     1      31.130 -13.022  29.215  1.00  0.00     0.130 C 
ATOM     13  O   UNL     1      30.752 -11.950  28.768  1.00  0.00    -0.300 OA
ATOM     14  C   UNL     1      31.449 -14.137  28.263  1.00  0.00     0.087 C 
ENDBRANCH  11  12
ENDBRANCH  10  11
ENDBRANCH   2  10
TORSDOF 6
ENDMDL
MODEL 3
REMARK VINA RESULT:    -6.118      1.742      5.206
REMARK INTER + INTRA:          -9.176
REMARK INTER:                  -8.313
REMARK INTRA:                  -0.863
REMARK UNBOUND:                -0.913
REMARK SMILES CC(=O)CCC=C(C)CCC=C(C)C
REMARK SMILES IDX 7 1 6 2 8 3 9 4 10 5 11 6 13 7 12 8 14 9 5 10 4 11 2 12 3 13
REMARK SMILES IDX 1 14
REMARK H PARENT
REMARK Flexibility Score: inf
ROOT
ATOM      1  C   UNL     1      26.819 -13.738  30.762  1.00  0.00    -0.077 C 
ATOM      2  C   UNL     1      26.313 -13.959  29.529  1.00  0.00    -0.028 C 
ATOM      3  C   UNL     1      26.691 -14.827  31.797  1.00  0.00     0.039 C 
ENDROOT
BRANCH   1   4
ATOM      4  C   UNL     1      27.528 -12.448  31.140  1.00  0.00     0.034 C 
BRANCH   4   5
ATOM      5  C   UNL     1      29.028 -12.668  31.392  1.00  0.00     0.032 C 
BRANCH   5   6
ATOM      6  C   UNL     1      29.749 -13.116  30.143  1.00  0.00    -0.028 C 
ATOM      7  C   UNL     1      32.014 -12.529  31.036  1.00  0.00     0.039 C 
ATOM      8  C   UNL     1      31.090 -13.089  29.980  1.00  0.00    -0.080 C 
ATOM      9  C   UNL     1      31.667 -13.617  28.692  1.00  0.00     0.039 C 
ENDBRANCH   5   6
ENDBRANCH   4   5
ENDBRANCH   1   4
BRANCH   2  10
ATOM     10  C   UNL     1      26.343 -12.942  28.413  1.00  0.00     0.035 C 
BRANCH  10  11
ATOM     11  C   UNL     1      27.569 -13.138  27.517  1.00  0.00     0.079 C 
BRANCH  11  12
ATOM     12  C   UNL     1      28.178 -11.811  27.147  1.00  0.00     0.130 C 
ATOM     13  O   UNL     1      28.308 -10.950  28.003  1.00  0.00    -0.300 OA
ATOM     14  C   UNL     1      28.641 -11.525  25.749  1.00  0.00     0.087 C 
ENDBRANCH  11  12
ENDBRANCH  10  11
ENDBRANCH   2  10
TORSDOF 6
ENDMDL
MODEL 4
REMARK VINA RESULT:    -5.997      1.344      1.815
REMARK INTER + INTRA:          -9.014
REMARK INTER:                  -8.315
REMARK INTRA:                  -0.699
REMARK UNBOUND:                -0.913
REMARK SMILES CC(=O)CCC=C(C)CCC=C(C)C
REMARK SMILES IDX 7 1 6 2 8 3 9 4 10 5 11 6 13 7 12 8 14 9 5 10 4 11 2 12 3 13
REMARK SMILES IDX 1 14
REMARK H PARENT
REMARK Flexibility Score: inf
ROOT
ATOM      1  C   UNL     1      28.550 -11.603  27.227  1.00  0.00    -0.077 C 
ATOM      2  C   UNL     1      29.019 -10.634  28.043  1.00  0.00    -0.028 C 
ATOM      3  C   UNL     1      28.596 -11.371  25.737  1.00  0.00     0.039 C 
ENDROOT
BRANCH   1   4
ATOM      4  C   UNL     1      27.999 -12.920  27.747  1.00  0.00     0.034 C 
BRANCH   4   5
ATOM      5  C   UNL     1      26.642 -12.740  28.445  1.00  0.00     0.032 C 
BRANCH   5   6
ATOM      6  C   UNL     1      25.705 -13.891  28.161  1.00  0.00    -0.028 C 
ATOM      7  C   UNL     1      25.766 -14.742  30.515  1.00  0.00     0.039 C 
ATOM      8  C   UNL     1      25.279 -14.779  29.086  1.00  0.00    -0.080 C 
ATOM      9  C   UNL     1      24.303 -15.845  28.660  1.00  0.00     0.039 C 
ENDBRANCH   5   6
ENDBRANCH   4   5
ENDBRANCH   1   4
BRANCH   2  10
ATOM     10  C   UNL     1      29.000 -10.722  29.550  1.00  0.00     0.035 C 
BRANCH  10  11
ATOM     11  C   UNL     1      30.383 -11.082  30.103  1.00  0.00     0.079 C 
BRANCH  11  12
ATOM     12  C   UNL     1      30.315 -12.331  30.941  1.00  0.00     0.130 C 
ATOM     13  O   UNL     1      31.350 -12.872  31.298  1.00  0.00    -0.300 OA
ATOM     14  C   UNL     1      29.001 -12.923  31.358  1.00  0.00     0.087 C 
ENDBRANCH  11  12
ENDBRANCH  10  11
ENDBRANCH   2  10
TORSDOF 6
ENDMDL
MODEL 5
REMARK VINA RESULT:    -5.967      1.987      3.638
REMARK INTER + INTRA:          -8.972
REMARK INTER:                  -7.598
REMARK INTRA:                  -1.374
REMARK UNBOUND:                -0.913
REMARK SMILES CC(=O)CCC=C(C)CCC=C(C)C
REMARK SMILES IDX 7 1 6 2 8 3 9 4 10 5 11 6 13 7 12 8 14 9 5 10 4 11 2 12 3 13
REMARK SMILES IDX 1 14
REMARK H PARENT
REMARK Flexibility Score: inf
ROOT
ATOM      1  C   UNL     1      27.821 -10.849  31.246  1.00  0.00    -0.077 C 
ATOM      2  C   UNL     1      28.040 -12.095  31.723  1.00  0.00    -0.028 C 
ATOM      3  C   UNL     1      27.058  -9.876  32.108  1.00  0.00     0.039 C 
ENDROOT
BRANCH   1   4
ATOM      4  C   UNL     1      28.328 -10.387  29.891  1.00  0.00     0.034 C 
BRANCH   4   5
ATOM      5  C   UNL     1      27.295 -10.625  28.778  1.00  0.00     0.032 C 
BRANCH   5   6
ATOM      6  C   UNL     1      27.811 -11.577  27.725  1.00  0.00    -0.028 C 
ATOM      7  C   UNL     1      26.236 -13.414  28.370  1.00  0.00     0.039 C 
ATOM      8  C   UNL     1      27.325 -12.820  27.510  1.00  0.00    -0.080 C 
ATOM      9  C   UNL     1      27.911 -13.634  26.385  1.00  0.00     0.039 C 
ENDBRANCH   5   6
ENDBRANCH   4   5
ENDBRANCH   1   4
BRANCH   2  10
ATOM     10  C   UNL     1      28.759 -13.176  30.951  1.00  0.00     0.035 C 
BRANCH  10  11
ATOM     11  C   UNL     1      30.162 -13.421  31.514  1.00  0.00     0.079 C 
BRANCH  11  12
ATOM     12  C   UNL     1      31.214 -12.894  30.573  1.00  0.00     0.130 C 
ATOM     13  O   UNL     1      32.259 -12.454  31.027  1.00  0.00    -0.300 OA
ATOM     14  C   UNL     1      31.013 -12.910  29.087  1.00  0.00     0.087 C 
ENDBRANCH  11  12
ENDBRANCH  10  11
ENDBRANCH   2  10
TORSDOF 6
ENDMDL
MODEL 6
REMARK VINA RESULT:    -5.937      2.421      4.495
REMARK INTER + INTRA:          -8.932
REMARK INTER:                  -7.977
REMARK INTRA:                  -0.955
REMARK UNBOUND:                -0.913
REMARK SMILES CC(=O)CCC=C(C)CCC=C(C)C
REMARK SMILES IDX 7 1 6 2 8 3 9 4 10 5 11 6 13 7 12 8 14 9 5 10 4 11 2 12 3 13
REMARK SMILES IDX 1 14
REMARK H PARENT
REMARK Flexibility Score: inf
ROOT
ATOM      1  C   UNL     1      30.369 -13.046  28.488  1.00  0.00    -0.077 C 
ATOM      2  C   UNL     1      29.341 -13.305  27.650  1.00  0.00    -0.028 C 
ATOM      3  C   UNL     1      31.554 -13.978  28.479  1.00  0.00     0.039 C 
ENDROOT
BRANCH   1   4
ATOM      4  C   UNL     1      30.387 -11.846  29.420  1.00  0.00     0.034 C 
BRANCH   4   5
ATOM      5  C   UNL     1      30.557 -12.263  30.890  1.00  0.00     0.032 C 
BRANCH   5   6
ATOM      6  C   UNL     1      29.460 -13.199  31.340  1.00  0.00    -0.028 C 
ATOM      7  C   UNL     1      27.791 -11.361  31.665  1.00  0.00     0.039 C 
ATOM      8  C   UNL     1      28.205 -12.813  31.661  1.00  0.00    -0.080 C 
ATOM      9  C   UNL     1      27.205 -13.873  32.044  1.00  0.00     0.039 C 
ENDBRANCH   5   6
ENDBRANCH   4   5
ENDBRANCH   1   4
BRANCH   2  10
ATOM     10  C   UNL     1      28.082 -12.474  27.582  1.00  0.00     0.035 C 
BRANCH  10  11
ATOM     11  C   UNL     1      26.974 -13.073  28.454  1.00  0.00     0.079 C 
BRANCH  11  12
ATOM     12  C   UNL     1      26.163 -14.074  27.673  1.00  0.00     0.130 C 
ATOM     13  O   UNL     1      26.501 -14.366  26.537  1.00  0.00    -0.300 OA
ATOM     14  C   UNL     1      24.951 -14.731  28.265  1.00  0.00     0.087 C 
ENDBRANCH  11  12
ENDBRANCH  10  11
ENDBRANCH   2  10
TORSDOF 6
ENDMDL
MODEL 7
REMARK VINA RESULT:    -5.843      2.929      5.402
REMARK INTER + INTRA:          -8.805
REMARK INTER:                  -7.610
REMARK INTRA:                  -1.195
REMARK UNBOUND:                -0.913
REMARK SMILES CC(=O)CCC=C(C)CCC=C(C)C
REMARK SMILES IDX 7 1 6 2 8 3 9 4 10 5 11 6 13 7 12 8 14 9 5 10 4 11 2 12 3 13
REMARK SMILES IDX 1 14
REMARK H PARENT
REMARK Flexibility Score: inf
ROOT
ATOM      1  C   UNL     1      27.664 -11.119  31.188  1.00  0.00    -0.077 C 
ATOM      2  C   UNL     1      27.495 -12.367  31.678  1.00  0.00    -0.028 C 
ATOM      3  C   UNL     1      27.483  -9.950  32.123  1.00  0.00     0.039 C 
ENDROOT
BRANCH   1   4
ATOM      4  C   UNL     1      28.047 -10.848  29.742  1.00  0.00     0.034 C 
BRANCH   4   5
ATOM      5  C   UNL     1      29.568 -10.737  29.561  1.00  0.00     0.032 C 
BRANCH   5   6
ATOM      6  C   UNL     1      30.127 -11.897  28.771  1.00  0.00    -0.028 C 
ATOM      7  C   UNL     1      31.452 -12.793  30.698  1.00  0.00     0.039 C 
ATOM      8  C   UNL     1      30.948 -12.844  29.275  1.00  0.00    -0.080 C 
ATOM      9  C   UNL     1      31.383 -13.970  28.373  1.00  0.00     0.039 C 
ENDBRANCH   5   6
ENDBRANCH   4   5
ENDBRANCH   1   4
BRANCH   2  10
ATOM     10  C   UNL     1      27.611 -13.620  30.843  1.00  0.00     0.035 C 
BRANCH  10  11
ATOM     11  C   UNL     1      26.275 -14.366  30.772  1.00  0.00     0.079 C 
BRANCH  11  12
ATOM     12  C   UNL     1      25.777 -14.434  29.353  1.00  0.00     0.130 C 
ATOM     13  O   UNL     1      24.905 -15.238  29.060  1.00  0.00    -0.300 OA
ATOM     14  C   UNL     1      26.319 -13.526  28.289  1.00  0.00     0.087 C 
ENDBRANCH  11  12
ENDBRANCH  10  11
ENDBRANCH   2  10
TORSDOF 6
ENDMDL
MODEL 8
REMARK VINA RESULT:    -5.781      2.237      3.981
REMARK INTER + INTRA:          -8.722
REMARK INTER:                  -7.625
REMARK INTRA:                  -1.097
REMARK UNBOUND:                -0.913
REMARK SMILES CC(=O)CCC=C(C)CCC=C(C)C
REMARK SMILES IDX 7 1 6 2 8 3 9 4 10 5 11 6 13 7 12 8 14 9 5 10 4 11 2 12 3 13
REMARK SMILES IDX 1 14
REMARK H PARENT
REMARK Flexibility Score: inf
ROOT
ATOM      1  C   UNL     1      29.978 -12.422  29.635  1.00  0.00    -0.077 C 
ATOM      2  C   UNL     1      29.595 -13.221  30.656  1.00  0.00    -0.028 C 
ATOM      3  C   UNL     1      31.108 -12.882  28.750  1.00  0.00     0.039 C 
ENDROOT
BRANCH   1   4
ATOM      4  C   UNL     1      29.304 -11.094  29.333  1.00  0.00     0.034 C 
BRANCH   4   5
ATOM      5  C   UNL     1      28.423 -11.169  28.076  1.00  0.00     0.032 C 
BRANCH   5   6
ATOM      6  C   UNL     1      27.214 -12.048  28.288  1.00  0.00    -0.028 C 
ATOM      7  C   UNL     1      27.886 -13.689  26.520  1.00  0.00     0.039 C 
ATOM      8  C   UNL     1      26.974 -13.198  27.620  1.00  0.00    -0.080 C 
ATOM      9  C   UNL     1      25.747 -13.994  27.979  1.00  0.00     0.039 C 
ENDBRANCH   5   6
ENDBRANCH   4   5
ENDBRANCH   1   4
BRANCH   2  10
ATOM     10  C   UNL     1      28.503 -12.865  31.637  1.00  0.00     0.035 C 
BRANCH  10  11
ATOM     11  C   UNL     1      27.204 -13.610  31.315  1.00  0.00     0.079 C 
BRANCH  11  12
ATOM     12  C   UNL     1      26.697 -14.348  32.527  1.00  0.00     0.130 C 
ATOM     13  O   UNL     1      26.673 -15.569  32.520  1.00  0.00    -0.300 OA
ATOM     14  C   UNL     1      26.232 -13.615  33.751  1.00  0.00     0.087 C 
ENDBRANCH  11  12
ENDBRANCH  10  11
ENDBRANCH   2  10
TORSDOF 6
ENDMDL
MODEL 9
REMARK VINA RESULT:    -5.772      2.229      4.135
REMARK INTER + INTRA:          -8.710
REMARK INTER:                  -7.703
REMARK INTRA:                  -1.006
REMARK UNBOUND:                -0.913
REMARK SMILES CC(=O)CCC=C(C)CCC=C(C)C
REMARK SMILES IDX 7 1 6 2 8 3 9 4 10 5 11 6 13 7 12 8 14 9 5 10 4 11 2 12 3 13
REMARK SMILES IDX 1 14
REMARK H PARENT
REMARK Flexibility Score: inf
ROOT
ATOM      1  C   UNL     1      29.923 -12.119  30.380  1.00  0.00    -0.077 C 
ATOM      2  C   UNL     1      29.999 -11.746  29.084  1.00  0.00    -0.028 C 
ATOM      3  C   UNL     1      30.883 -13.166  30.883  1.00  0.00     0.039 C 
ENDROOT
BRANCH   1   4
ATOM      4  C   UNL     1      28.925 -11.512  31.353  1.00  0.00     0.034 C 
BRANCH   4   5
ATOM      5  C   UNL     1      27.938 -12.560  31.892  1.00  0.00     0.032 C 
BRANCH   5   6
ATOM      6  C   UNL     1      27.120 -13.184  30.786  1.00  0.00    -0.028 C 
ATOM      7  C   UNL     1      26.380 -15.118  32.194  1.00  0.00     0.039 C 
ATOM      8  C   UNL     1      26.391 -14.314  30.915  1.00  0.00    -0.080 C 
ATOM      9  C   UNL     1      25.585 -14.787  29.733  1.00  0.00     0.039 C 
ENDBRANCH   5   6
ENDBRANCH   4   5
ENDBRANCH   1   4
BRANCH   2  10
ATOM     10  C   UNL     1      29.076 -10.736  28.444  1.00  0.00     0.035 C 
BRANCH  10  11
ATOM     11  C   UNL     1      27.861 -11.418  27.808  1.00  0.00     0.079 C 
BRANCH  11  12
ATOM     12  C   UNL     1      28.254 -12.141  26.547  1.00  0.00     0.130 C 
ATOM     13  O   UNL     1      28.839 -11.534  25.663  1.00  0.00    -0.300 OA
ATOM     14  C   UNL     1      27.955 -13.598  26.355  1.00  0.00     0.087 C 
ENDBRANCH  11  12
ENDBRANCH  10  11
ENDBRANCH   2  10
TORSDOF 6
ENDMDL
