MODEL 1
REMARK VINA RESULT:    -5.188      0.000      0.000
REMARK INTER + INTRA:          -5.930
REMARK INTER:                  -6.249
REMARK INTRA:                   0.319
REMARK UNBOUND:                 0.319
REMARK SMILES O=c1c(O)c(-c2ccc(O)c(O)c2)oc2cc(O)cc(O)c12
REMARK SMILES IDX 5 1 3 2 2 3 1 4 22 5 20 6 19 7 17 8 16 9 15 10 14 11 6 12
REMARK SMILES IDX 7 13 8 14 9 15 13 16 11 17 10 18 12 20 4 22 21 24 18 26
REMARK H PARENT 10 19 12 21 4 23 21 25 18 27
REMARK Flexibility Score: inf
ROOT
ATOM      1  C   UNL     1      19.041  25.658  53.304  1.00  0.00     0.180 A 
ATOM      2  C   UNL     1      17.865  24.980  53.669  1.00  0.00     0.208 A 
ATOM      3  C   UNL     1      17.629  23.698  53.146  1.00  0.00     0.238 A 
ATOM      4  O   UNL     1      16.540  23.128  53.417  1.00  0.00    -0.285 OA
ATOM      5  C   UNL     1      18.595  23.088  52.311  1.00  0.00     0.111 A 
ATOM      6  C   UNL     1      18.481  21.774  51.761  1.00  0.00     0.134 A 
ATOM      7  C   UNL     1      19.452  21.316  50.861  1.00  0.00     0.093 A 
ATOM      8  C   UNL     1      20.564  22.097  50.542  1.00  0.00     0.123 A 
ATOM      9  C   UNL     1      20.713  23.357  51.116  1.00  0.00     0.094 A 
ATOM     10  C   UNL     1      19.743  23.858  51.987  1.00  0.00     0.146 A 
ATOM     11  O   UNL     1      19.913  25.073  52.493  1.00  0.00    -0.452 OA
ENDROOT
BRANCH   1  12
ATOM     12  C   UNL     1      19.353  27.017  53.802  1.00  0.00     0.025 A 
ATOM     13  C   UNL     1      20.684  27.463  53.799  1.00  0.00     0.016 A 
ATOM     14  C   UNL     1      21.000  28.749  54.245  1.00  0.00     0.051 A 
ATOM     15  C   UNL     1      19.993  29.613  54.684  1.00  0.00     0.157 A 
ATOM     16  C   UNL     1      18.339  27.894  54.225  1.00  0.00     0.062 A 
ATOM     17  C   UNL     1      18.654  29.186  54.670  1.00  0.00     0.158 A 
BRANCH  15  18
ATOM     18  O   UNL     1      20.339  30.890  55.125  1.00  0.00    -0.504 OA
ATOM     19  H   UNL     1      20.564  31.082  56.094  1.00  0.00     0.293 HD
ENDBRANCH  15  18
BRANCH  17  20
ATOM     20  O   UNL     1      17.643  30.047  55.093  1.00  0.00    -0.504 OA
ATOM     21  H   UNL     1      17.074  29.841  55.906  1.00  0.00     0.293 HD
ENDBRANCH  17  20
ENDBRANCH   1  12
BRANCH   2  22
ATOM     22  O   UNL     1      16.959  25.568  54.555  1.00  0.00    -0.502 OA
ATOM     23  H   UNL     1      17.010  25.430  55.557  1.00  0.00     0.293 HD
ENDBRANCH   2  22
BRANCH   6  24
ATOM     24  O   UNL     1      17.457  20.877  52.081  1.00  0.00    -0.507 OA
ATOM     25  H   UNL     1      16.671  21.087  52.677  1.00  0.00     0.293 HD
ENDBRANCH   6  24
BRANCH   8  26
ATOM     26  O   UNL     1      21.534  21.625  49.659  1.00  0.00    -0.508 OA
ATOM     27  H   UNL     1      22.433  22.081  49.567  1.00  0.00     0.293 HD
ENDBRANCH   8  26
TORSDOF 6
ENDMDL
MODEL 2
REMARK VINA RESULT:    -4.830      1.496      6.661
REMARK INTER + INTRA:          -5.499
REMARK INTER:                  -5.176
REMARK INTRA:                  -0.323
REMARK UNBOUND:                 0.319
REMARK SMILES O=c1c(O)c(-c2ccc(O)c(O)c2)oc2cc(O)cc(O)c12
REMARK SMILES IDX 5 1 3 2 2 3 1 4 22 5 20 6 19 7 17 8 16 9 15 10 14 11 6 12
REMARK SMILES IDX 7 13 8 14 9 15 13 16 11 17 10 18 12 20 4 22 21 24 18 26
REMARK H PARENT 10 19 12 21 4 23 21 25 18 27
REMARK Flexibility Score: inf
ROOT
ATOM      1  C   UNL     1      19.261  25.365  53.274  1.00  0.00     0.180 A 
ATOM      2  C   UNL     1      17.875  25.297  53.493  1.00  0.00     0.208 A 
ATOM      3  C   UNL     1      17.212  26.420  54.015  1.00  0.00     0.238 A 
ATOM      4  O   UNL     1      15.985  26.327  54.278  1.00  0.00    -0.285 OA
ATOM      5  C   UNL     1      17.933  27.613  54.262  1.00  0.00     0.111 A 
ATOM      6  C   UNL     1      17.356  28.825  54.749  1.00  0.00     0.134 A 
ATOM      7  C   UNL     1      18.186  29.912  55.055  1.00  0.00     0.093 A 
ATOM      8  C   UNL     1      19.563  29.851  54.832  1.00  0.00     0.123 A 
ATOM      9  C   UNL     1      20.129  28.692  54.305  1.00  0.00     0.094 A 
ATOM     10  C   UNL     1      19.332  27.579  54.025  1.00  0.00     0.146 A 
ATOM     11  O   UNL     1      19.916  26.488  53.546  1.00  0.00    -0.452 OA
ENDROOT
BRANCH   1  12
ATOM     12  C   UNL     1      20.032  24.220  52.740  1.00  0.00     0.025 A 
ATOM     13  C   UNL     1      20.539  23.257  53.626  1.00  0.00     0.016 A 
ATOM     14  C   UNL     1      21.251  22.156  53.144  1.00  0.00     0.051 A 
ATOM     15  C   UNL     1      21.454  21.992  51.771  1.00  0.00     0.157 A 
ATOM     16  C   UNL     1      20.219  24.042  51.358  1.00  0.00     0.062 A 
ATOM     17  C   UNL     1      20.932  22.936  50.872  1.00  0.00     0.158 A 
BRANCH  15  18
ATOM     18  O   UNL     1      22.170  20.884  51.319  1.00  0.00    -0.504 OA
ATOM     19  H   UNL     1      23.011  20.561  51.783  1.00  0.00     0.293 HD
ENDBRANCH  15  18
BRANCH  17  20
ATOM     20  O   UNL     1      21.117  22.771  49.500  1.00  0.00    -0.504 OA
ATOM     21  H   UNL     1      21.903  23.188  49.016  1.00  0.00     0.293 HD
ENDBRANCH  17  20
ENDBRANCH   1  12
BRANCH   2  22
ATOM     22  O   UNL     1      17.168  24.136  53.172  1.00  0.00    -0.502 OA
ATOM     23  H   UNL     1      17.325  23.622  52.314  1.00  0.00     0.293 HD
ENDBRANCH   2  22
BRANCH   6  24
ATOM     24  O   UNL     1      15.983  29.024  54.924  1.00  0.00    -0.507 OA
ATOM     25  H   UNL     1      15.303  28.289  55.039  1.00  0.00     0.293 HD
ENDBRANCH   6  24
BRANCH   8  26
ATOM     26  O   UNL     1      20.379  30.942  55.124  1.00  0.00    -0.508 OA
ATOM     27  H   UNL     1      21.062  31.286  54.459  1.00  0.00     0.293 HD
ENDBRANCH   8  26
TORSDOF 6
ENDMDL
MODEL 3
REMARK VINA RESULT:    -4.148      1.422      3.179
REMARK INTER + INTRA:          -4.678
REMARK INTER:                  -5.046
REMARK INTRA:                   0.368
REMARK UNBOUND:                 0.319
REMARK SMILES O=c1c(O)c(-c2ccc(O)c(O)c2)oc2cc(O)cc(O)c12
REMARK SMILES IDX 5 1 3 2 2 3 1 4 22 5 20 6 19 7 17 8 16 9 15 10 14 11 6 12
REMARK SMILES IDX 7 13 8 14 9 15 13 16 11 17 10 18 12 20 4 22 21 24 18 26
REMARK H PARENT 10 19 12 21 4 23 21 25 18 27
REMARK Flexibility Score: inf
ROOT
ATOM      1  C   UNL     1      18.513  26.206  53.209  1.00  0.00     0.180 A 
ATOM      2  C   UNL     1      19.834  25.918  52.823  1.00  0.00     0.208 A 
ATOM      3  C   UNL     1      20.147  24.620  52.387  1.00  0.00     0.238 A 
ATOM      4  O   UNL     1      21.345  24.349  52.115  1.00  0.00    -0.285 OA
ATOM      5  C   UNL     1      19.127  23.643  52.289  1.00  0.00     0.111 A 
ATOM      6  C   UNL     1      19.322  22.309  51.818  1.00  0.00     0.134 A 
ATOM      7  C   UNL     1      18.259  21.398  51.865  1.00  0.00     0.093 A 
ATOM      8  C   UNL     1      16.994  21.789  52.307  1.00  0.00     0.123 A 
ATOM      9  C   UNL     1      16.779  23.102  52.717  1.00  0.00     0.094 A 
ATOM     10  C   UNL     1      17.828  24.025  52.717  1.00  0.00     0.146 A 
ATOM     11  O   UNL     1      17.585  25.260  53.137  1.00  0.00    -0.452 OA
ENDROOT
BRANCH   1  12
ATOM     12  C   UNL     1      18.109  27.545  53.693  1.00  0.00     0.025 A 
ATOM     13  C   UNL     1      16.748  27.885  53.726  1.00  0.00     0.016 A 
ATOM     14  C   UNL     1      16.341  29.135  54.199  1.00  0.00     0.051 A 
ATOM     15  C   UNL     1      17.284  30.058  54.659  1.00  0.00     0.157 A 
ATOM     16  C   UNL     1      19.055  28.467  54.175  1.00  0.00     0.062 A 
ATOM     17  C   UNL     1      18.648  29.723  54.652  1.00  0.00     0.158 A 
BRANCH  15  18
ATOM     18  O   UNL     1      16.848  31.299  55.123  1.00  0.00    -0.504 OA
ATOM     19  H   UNL     1      16.861  31.540  56.106  1.00  0.00     0.293 HD
ENDBRANCH  15  18
BRANCH  17  20
ATOM     20  O   UNL     1      19.593  30.632  55.123  1.00  0.00    -0.504 OA
ATOM     21  H   UNL     1      20.582  30.517  54.935  1.00  0.00     0.293 HD
ENDBRANCH  17  20
ENDBRANCH   1  12
BRANCH   2  22
ATOM     22  O   UNL     1      20.810  26.916  52.854  1.00  0.00    -0.502 OA
ATOM     23  H   UNL     1      21.667  26.824  53.386  1.00  0.00     0.293 HD
ENDBRANCH   2  22
BRANCH   6  24
ATOM     24  O   UNL     1      20.521  21.838  51.274  1.00  0.00    -0.507 OA
ATOM     25  H   UNL     1      21.218  22.413  50.826  1.00  0.00     0.293 HD
ENDBRANCH   6  24
BRANCH   8  26
ATOM     26  O   UNL     1      15.938  20.880  52.334  1.00  0.00    -0.508 OA
ATOM     27  H   UNL     1      15.099  21.058  52.874  1.00  0.00     0.293 HD
ENDBRANCH   8  26
TORSDOF 6
ENDMDL
MODEL 4
REMARK VINA RESULT:    -4.082      1.590      7.254
REMARK INTER + INTRA:          -4.599
REMARK INTER:                  -4.571
REMARK INTRA:                  -0.028
REMARK UNBOUND:                 0.319
REMARK SMILES O=c1c(O)c(-c2ccc(O)c(O)c2)oc2cc(O)cc(O)c12
REMARK SMILES IDX 5 1 3 2 2 3 1 4 22 5 20 6 19 7 17 8 16 9 15 10 14 11 6 12
REMARK SMILES IDX 7 13 8 14 9 15 13 16 11 17 10 18 12 20 4 22 21 24 18 26
REMARK H PARENT 10 19 12 21 4 23 21 25 18 27
REMARK Flexibility Score: inf
ROOT
ATOM      1  C   UNL     1      20.091  25.936  52.732  1.00  0.00     0.180 A 
ATOM      2  C   UNL     1      21.225  26.748  52.905  1.00  0.00     0.208 A 
ATOM      3  C   UNL     1      21.078  28.001  53.522  1.00  0.00     0.238 A 
ATOM      4  O   UNL     1      22.083  28.753  53.606  1.00  0.00    -0.285 OA
ATOM      5  C   UNL     1      19.810  28.404  54.006  1.00  0.00     0.111 A 
ATOM      6  C   UNL     1      19.553  29.633  54.686  1.00  0.00     0.134 A 
ATOM      7  C   UNL     1      18.237  29.973  55.026  1.00  0.00     0.093 A 
ATOM      8  C   UNL     1      17.178  29.100  54.768  1.00  0.00     0.123 A 
ATOM      9  C   UNL     1      17.426  27.874  54.155  1.00  0.00     0.094 A 
ATOM     10  C   UNL     1      18.722  27.524  53.769  1.00  0.00     0.146 A 
ATOM     11  O   UNL     1      18.909  26.356  53.167  1.00  0.00    -0.452 OA
ENDROOT
BRANCH   1  12
ATOM     12  C   UNL     1      20.163  24.610  52.078  1.00  0.00     0.025 A 
ATOM     13  C   UNL     1      20.737  24.501  50.802  1.00  0.00     0.016 A 
ATOM     14  C   UNL     1      20.836  23.257  50.174  1.00  0.00     0.051 A 
ATOM     15  C   UNL     1      20.378  22.103  50.816  1.00  0.00     0.157 A 
ATOM     16  C   UNL     1      19.722  23.445  52.731  1.00  0.00     0.062 A 
ATOM     17  C   UNL     1      19.823  22.195  52.103  1.00  0.00     0.158 A 
BRANCH  15  18
ATOM     18  O   UNL     1      20.488  20.875  50.164  1.00  0.00    -0.504 OA
ATOM     19  H   UNL     1      21.364  20.549  49.773  1.00  0.00     0.293 HD
ENDBRANCH  15  18
BRANCH  17  20
ATOM     20  O   UNL     1      19.377  21.047  52.755  1.00  0.00    -0.504 OA
ATOM     21  H   UNL     1      19.612  20.120  52.420  1.00  0.00     0.293 HD
ENDBRANCH  17  20
ENDBRANCH   1  12
BRANCH   2  22
ATOM     22  O   UNL     1      22.481  26.300  52.489  1.00  0.00    -0.502 OA
ATOM     23  H   UNL     1      22.831  25.375  52.710  1.00  0.00     0.293 HD
ENDBRANCH   2  22
BRANCH   6  24
ATOM     24  O   UNL     1      20.548  30.538  55.071  1.00  0.00    -0.507 OA
ATOM     25  H   UNL     1      20.513  31.534  54.918  1.00  0.00     0.293 HD
ENDBRANCH   6  24
BRANCH   8  26
ATOM     26  O   UNL     1      15.875  29.439  55.125  1.00  0.00    -0.508 OA
ATOM     27  H   UNL     1      15.660  30.326  55.565  1.00  0.00     0.293 HD
ENDBRANCH   8  26
TORSDOF 6
ENDMDL
MODEL 5
REMARK VINA RESULT:    -3.736     18.099     21.163
REMARK INTER + INTRA:          -4.181
REMARK INTER:                  -4.601
REMARK INTRA:                   0.419
REMARK UNBOUND:                 0.319
REMARK SMILES O=c1c(O)c(-c2ccc(O)c(O)c2)oc2cc(O)cc(O)c12
REMARK SMILES IDX 5 1 3 2 2 3 1 4 22 5 20 6 19 7 17 8 16 9 15 10 14 11 6 12
REMARK SMILES IDX 7 13 8 14 9 15 13 16 11 17 10 18 12 20 4 22 21 24 18 26
REMARK H PARENT 10 19 12 21 4 23 21 25 18 27
REMARK Flexibility Score: inf
ROOT
ATOM      1  C   UNL     1      33.378  25.218  37.692  1.00  0.00     0.180 A 
ATOM      2  C   UNL     1      34.634  24.624  37.481  1.00  0.00     0.208 A 
ATOM      3  C   UNL     1      34.972  23.469  38.204  1.00  0.00     0.238 A 
ATOM      4  O   UNL     1      36.125  22.985  38.066  1.00  0.00    -0.285 OA
ATOM      5  C   UNL     1      34.029  22.891  39.089  1.00  0.00     0.111 A 
ATOM      6  C   UNL     1      34.247  21.696  39.841  1.00  0.00     0.134 A 
ATOM      7  C   UNL     1      33.281  21.276  40.765  1.00  0.00     0.093 A 
ATOM      8  C   UNL     1      32.081  21.972  40.919  1.00  0.00     0.123 A 
ATOM      9  C   UNL     1      31.835  23.107  40.151  1.00  0.00     0.094 A 
ATOM     10  C   UNL     1      32.794  23.572  39.248  1.00  0.00     0.146 A 
ATOM     11  O   UNL     1      32.529  24.671  38.553  1.00  0.00    -0.452 OA
ENDROOT
BRANCH   1  12
ATOM     12  C   UNL     1      32.957  26.444  36.978  1.00  0.00     0.025 A 
ATOM     13  C   UNL     1      31.620  26.863  37.057  1.00  0.00     0.016 A 
ATOM     14  C   UNL     1      31.203  28.028  36.408  1.00  0.00     0.051 A 
ATOM     15  C   UNL     1      32.117  28.800  35.686  1.00  0.00     0.157 A 
ATOM     16  C   UNL     1      33.880  27.233  36.268  1.00  0.00     0.062 A 
ATOM     17  C   UNL     1      33.463  28.405  35.619  1.00  0.00     0.158 A 
BRANCH  15  18
ATOM     18  O   UNL     1      31.672  29.958  35.048  1.00  0.00    -0.504 OA
ATOM     19  H   UNL     1      30.947  30.545  35.442  1.00  0.00     0.293 HD
ENDBRANCH  15  18
BRANCH  17  20
ATOM     20  O   UNL     1      34.384  29.178  34.913  1.00  0.00    -0.504 OA
ATOM     21  H   UNL     1      34.329  30.190  34.899  1.00  0.00     0.293 HD
ENDBRANCH  17  20
ENDBRANCH   1  12
BRANCH   2  22
ATOM     22  O   UNL     1      35.521  25.166  36.547  1.00  0.00    -0.502 OA
ATOM     23  H   UNL     1      35.208  25.623  35.700  1.00  0.00     0.293 HD
ENDBRANCH   2  22
BRANCH   6  24
ATOM     24  O   UNL     1      35.371  20.876  39.701  1.00  0.00    -0.507 OA
ATOM     25  H   UNL     1      36.245  21.007  40.187  1.00  0.00     0.293 HD
ENDBRANCH   6  24
BRANCH   8  26
ATOM     26  O   UNL     1      31.119  21.537  41.829  1.00  0.00    -0.508 OA
ATOM     27  H   UNL     1      30.239  22.025  41.944  1.00  0.00     0.293 HD
ENDBRANCH   8  26
TORSDOF 6
ENDMDL
MODEL 6
REMARK VINA RESULT:    -2.302      1.406      3.284
REMARK INTER + INTRA:          -2.454
REMARK INTER:                  -2.667
REMARK INTRA:                   0.213
REMARK UNBOUND:                 0.319
REMARK SMILES O=c1c(O)c(-c2ccc(O)c(O)c2)oc2cc(O)cc(O)c12
REMARK SMILES IDX 5 1 3 2 2 3 1 4 22 5 20 6 19 7 17 8 16 9 15 10 14 11 6 12
REMARK SMILES IDX 7 13 8 14 9 15 13 16 11 17 10 18 12 20 4 22 21 24 18 26
REMARK H PARENT 10 19 12 21 4 23 21 25 18 27
REMARK Flexibility Score: inf
ROOT
ATOM      1  C   UNL     1      19.499  25.455  53.032  1.00  0.00     0.180 A 
ATOM      2  C   UNL     1      20.216  24.914  51.951  1.00  0.00     0.208 A 
ATOM      3  C   UNL     1      19.919  23.610  51.521  1.00  0.00     0.238 A 
ATOM      4  O   UNL     1      20.615  23.105  50.603  1.00  0.00    -0.285 OA
ATOM      5  C   UNL     1      18.874  22.884  52.142  1.00  0.00     0.111 A 
ATOM      6  C   UNL     1      18.457  21.572  51.759  1.00  0.00     0.134 A 
ATOM      7  C   UNL     1      17.481  20.910  52.515  1.00  0.00     0.093 A 
ATOM      8  C   UNL     1      16.862  21.535  53.599  1.00  0.00     0.123 A 
ATOM      9  C   UNL     1      17.222  22.835  53.946  1.00  0.00     0.094 A 
ATOM     10  C   UNL     1      18.219  23.508  53.236  1.00  0.00     0.146 A 
ATOM     11  O   UNL     1      18.547  24.737  53.615  1.00  0.00    -0.452 OA
ENDROOT
BRANCH   1  12
ATOM     12  C   UNL     1      19.765  26.815  53.551  1.00  0.00     0.025 A 
ATOM     13  C   UNL     1      18.717  27.549  54.130  1.00  0.00     0.016 A 
ATOM     14  C   UNL     1      18.948  28.826  54.645  1.00  0.00     0.051 A 
ATOM     15  C   UNL     1      20.229  29.384  54.605  1.00  0.00     0.157 A 
ATOM     16  C   UNL     1      21.057  27.369  53.530  1.00  0.00     0.062 A 
ATOM     17  C   UNL     1      21.291  28.652  54.049  1.00  0.00     0.158 A 
BRANCH  15  18
ATOM     18  O   UNL     1      20.429  30.663  55.125  1.00  0.00    -0.504 OA
ATOM     19  H   UNL     1      21.029  31.341  54.671  1.00  0.00     0.293 HD
ENDBRANCH  15  18
BRANCH  17  20
ATOM     20  O   UNL     1      22.574  29.195  54.019  1.00  0.00    -0.504 OA
ATOM     21  H   UNL     1      23.154  29.236  54.848  1.00  0.00     0.293 HD
ENDBRANCH  17  20
ENDBRANCH   1  12
BRANCH   2  22
ATOM     22  O   UNL     1      21.192  25.674  51.303  1.00  0.00    -0.502 OA
ATOM     23  H   UNL     1      21.048  26.077  50.385  1.00  0.00     0.293 HD
ENDBRANCH   2  22
BRANCH   6  24
ATOM     24  O   UNL     1      18.947  20.890  50.641  1.00  0.00    -0.507 OA
ATOM     25  H   UNL     1      18.707  21.101  49.685  1.00  0.00     0.293 HD
ENDBRANCH   6  24
BRANCH   8  26
ATOM     26  O   UNL     1      15.880  20.875  54.334  1.00  0.00    -0.508 OA
ATOM     27  H   UNL     1      15.264  20.195  53.905  1.00  0.00     0.293 HD
ENDBRANCH   8  26
TORSDOF 6
ENDMDL
