MODEL 1
REMARK VINA RESULT:    -3.091      0.000      0.000
REMARK INTER + INTRA:          -3.799
REMARK INTER:                  -3.723
REMARK INTRA:                  -0.076
REMARK UNBOUND:                -0.076
REMARK SMILES CC[C@@H](C)[C@H]([NH3+])C(=O)[O-]
REMARK SMILES IDX 3 1 4 2 5 3 6 4 7 8 8 9 9 10 2 11 1 12
REMARK H PARENT 6 5 6 6 6 7
REMARK Flexibility Score: inf
ROOT
ATOM      1  C   UNL     1     191.795 194.358 193.883  1.00  0.00     0.050 C 
ATOM      2  C   UNL     1     191.043 194.874 195.122  1.00  0.00     0.014 C 
ENDROOT
BRANCH   1   3
ATOM      3  C   UNL     1     190.927 194.414 192.583  1.00  0.00     0.230 C 
BRANCH   3   4
ATOM      4  N   UNL     1     190.427 193.084 192.210  1.00  0.00    -0.350 N 
ATOM      5  H   UNL     1     190.478 192.443 193.036  1.00  0.00     0.345 HD
ATOM      6  H   UNL     1     191.020 192.677 191.450  1.00  0.00     0.345 HD
ATOM      7  H   UNL     1     189.435 193.130 191.883  1.00  0.00     0.345 HD
ENDBRANCH   3   4
BRANCH   3   8
ATOM      8  C   UNL     1     191.601 195.092 191.409  1.00  0.00     0.099 C 
ATOM      9  O   UNL     1     192.279 194.412 190.594  1.00  0.00    -0.544 OA
ATOM     10  O   UNL     1     191.528 196.470 191.241  1.00  0.00    -0.544 OA
ENDBRANCH   3   8
ENDBRANCH   1   3
BRANCH   1  11
ATOM     11  C   UNL     1     193.224 194.957 193.782  1.00  0.00     0.006 C 
ATOM     12  C   UNL     1     194.364 193.939 193.723  1.00  0.00     0.004 C 
ENDBRANCH   1  11
TORSDOF 4
ENDMDL
MODEL 2
REMARK VINA RESULT:    -3.015      2.718      3.620
REMARK INTER + INTRA:          -3.707
REMARK INTER:                  -3.616
REMARK INTRA:                  -0.091
REMARK UNBOUND:                -0.076
REMARK SMILES CC[C@@H](C)[C@H]([NH3+])C(=O)[O-]
REMARK SMILES IDX 3 1 4 2 5 3 6 4 7 8 8 9 9 10 2 11 1 12
REMARK H PARENT 6 5 6 6 6 7
REMARK Flexibility Score: inf
ROOT
ATOM      1  C   UNL     1     193.956 195.905 193.095  1.00  0.00     0.050 C 
ATOM      2  C   UNL     1     195.478 196.097 193.226  1.00  0.00     0.014 C 
ENDROOT
BRANCH   1   3
ATOM      3  C   UNL     1     193.426 194.695 193.931  1.00  0.00     0.230 C 
BRANCH   3   4
ATOM      4  N   UNL     1     194.005 193.425 193.471  1.00  0.00    -0.350 N 
ATOM      5  H   UNL     1     193.294 192.662 193.556  1.00  0.00     0.345 HD
ATOM      6  H   UNL     1     194.826 193.168 194.065  1.00  0.00     0.345 HD
ATOM      7  H   UNL     1     194.310 193.488 192.473  1.00  0.00     0.345 HD
ENDBRANCH   3   4
BRANCH   3   8
ATOM      8  C   UNL     1     191.917 194.606 194.016  1.00  0.00     0.099 C 
ATOM      9  O   UNL     1     191.339 194.752 195.125  1.00  0.00    -0.544 OA
ATOM     10  O   UNL     1     191.154 194.312 192.891  1.00  0.00    -0.544 OA
ENDBRANCH   3   8
ENDBRANCH   1   3
BRANCH   1  11
ATOM     11  C   UNL     1     193.188 197.244 193.260  1.00  0.00     0.006 C 
ATOM     12  C   UNL     1     194.052 198.506 193.258  1.00  0.00     0.004 C 
ENDBRANCH   1  11
TORSDOF 4
ENDMDL
MODEL 3
REMARK VINA RESULT:    -3.003      1.874      2.520
REMARK INTER + INTRA:          -3.694
REMARK INTER:                  -3.573
REMARK INTRA:                  -0.120
REMARK UNBOUND:                -0.076
REMARK SMILES CC[C@@H](C)[C@H]([NH3+])C(=O)[O-]
REMARK SMILES IDX 3 1 4 2 5 3 6 4 7 8 8 9 9 10 2 11 1 12
REMARK H PARENT 6 5 6 6 6 7
REMARK Flexibility Score: inf
ROOT
ATOM      1  C   UNL     1     192.808 195.168 193.154  1.00  0.00     0.050 C 
ATOM      2  C   UNL     1     193.922 194.428 193.916  1.00  0.00     0.014 C 
ENDROOT
BRANCH   1   3
ATOM      3  C   UNL     1     191.391 194.558 193.414  1.00  0.00     0.230 C 
BRANCH   3   4
ATOM      4  N   UNL     1     191.444 193.470 194.400  1.00  0.00    -0.350 N 
ATOM      5  H   UNL     1     191.669 193.860 195.344  1.00  0.00     0.345 HD
ATOM      6  H   UNL     1     192.195 192.789 194.144  1.00  0.00     0.345 HD
ATOM      7  H   UNL     1     190.529 192.966 194.456  1.00  0.00     0.345 HD
ENDBRANCH   3   4
BRANCH   3   8
ATOM      8  C   UNL     1     190.657 194.125 192.163  1.00  0.00     0.099 C 
ATOM      9  O   UNL     1     191.294 193.934 191.094  1.00  0.00    -0.544 OA
ATOM     10  O   UNL     1     189.274 193.984 192.159  1.00  0.00    -0.544 OA
ENDBRANCH   3   8
ENDBRANCH   1   3
BRANCH   1  11
ATOM     11  C   UNL     1     192.931 196.708 193.300  1.00  0.00     0.006 C 
ATOM     12  C   UNL     1     192.588 197.520 192.051  1.00  0.00     0.004 C 
ENDBRANCH   1  11
TORSDOF 4
ENDMDL
MODEL 4
REMARK VINA RESULT:    -2.984      1.253      2.165
REMARK INTER + INTRA:          -3.670
REMARK INTER:                  -3.563
REMARK INTRA:                  -0.107
REMARK UNBOUND:                -0.076
REMARK SMILES CC[C@@H](C)[C@H]([NH3+])C(=O)[O-]
REMARK SMILES IDX 3 1 4 2 5 3 6 4 7 8 8 9 9 10 2 11 1 12
REMARK H PARENT 6 5 6 6 6 7
REMARK Flexibility Score: inf
ROOT
ATOM      1  C   UNL     1     192.772 195.103 193.448  1.00  0.00     0.050 C 
ATOM      2  C   UNL     1     193.934 194.138 193.742  1.00  0.00     0.014 C 
ENDROOT
BRANCH   1   3
ATOM      3  C   UNL     1     191.859 194.610 192.278  1.00  0.00     0.230 C 
BRANCH   3   4
ATOM      4  N   UNL     1     192.521 193.570 191.477  1.00  0.00    -0.350 N 
ATOM      5  H   UNL     1     192.064 192.645 191.653  1.00  0.00     0.345 HD
ATOM      6  H   UNL     1     193.527 193.492 191.750  1.00  0.00     0.345 HD
ATOM      7  H   UNL     1     192.459 193.784 190.455  1.00  0.00     0.345 HD
ENDBRANCH   3   4
BRANCH   3   8
ATOM      8  C   UNL     1     191.319 195.715 191.396  1.00  0.00     0.099 C 
ATOM      9  O   UNL     1     190.378 195.479 190.594  1.00  0.00    -0.544 OA
ATOM     10  O   UNL     1     191.883 196.986 191.418  1.00  0.00    -0.544 OA
ENDBRANCH   3   8
ENDBRANCH   1   3
BRANCH   1  11
ATOM     11  C   UNL     1     192.046 195.547 194.746  1.00  0.00     0.006 C 
ATOM     12  C   UNL     1     190.810 194.730 195.125  1.00  0.00     0.004 C 
ENDBRANCH   1  11
TORSDOF 4
ENDMDL
MODEL 5
REMARK VINA RESULT:    -2.977      2.390      3.323
REMARK INTER + INTRA:          -3.662
REMARK INTER:                  -3.527
REMARK INTRA:                  -0.135
REMARK UNBOUND:                -0.076
REMARK SMILES CC[C@@H](C)[C@H]([NH3+])C(=O)[O-]
REMARK SMILES IDX 3 1 4 2 5 3 6 4 7 8 8 9 9 10 2 11 1 12
REMARK H PARENT 6 5 6 6 6 7
REMARK Flexibility Score: inf
ROOT
ATOM      1  C   UNL     1     191.773 195.865 192.116  1.00  0.00     0.050 C 
ATOM      2  C   UNL     1     191.016 195.918 190.778  1.00  0.00     0.014 C 
ENDROOT
BRANCH   1   3
ATOM      3  C   UNL     1     191.934 194.408 192.662  1.00  0.00     0.230 C 
BRANCH   3   4
ATOM      4  N   UNL     1     190.636 193.729 192.781  1.00  0.00    -0.350 N 
ATOM      5  H   UNL     1     190.733 192.889 193.397  1.00  0.00     0.345 HD
ATOM      6  H   UNL     1     190.312 193.406 191.841  1.00  0.00     0.345 HD
ATOM      7  H   UNL     1     189.913 194.364 193.193  1.00  0.00     0.345 HD
ENDBRANCH   3   4
BRANCH   3   8
ATOM      8  C   UNL     1     192.721 194.306 193.951  1.00  0.00     0.099 C 
ATOM      9  O   UNL     1     192.266 194.814 195.009  1.00  0.00    -0.544 OA
ATOM     10  O   UNL     1     193.973 193.702 193.977  1.00  0.00    -0.544 OA
ENDBRANCH   3   8
ENDBRANCH   1   3
BRANCH   1  11
ATOM     11  C   UNL     1     193.059 196.735 192.089  1.00  0.00     0.006 C 
ATOM     12  C   UNL     1     193.130 197.841 193.143  1.00  0.00     0.004 C 
ENDBRANCH   1  11
TORSDOF 4
ENDMDL
MODEL 6
REMARK VINA RESULT:    -2.971      3.284      3.958
REMARK INTER + INTRA:          -3.654
REMARK INTER:                  -3.531
REMARK INTRA:                  -0.123
REMARK UNBOUND:                -0.076
REMARK SMILES CC[C@@H](C)[C@H]([NH3+])C(=O)[O-]
REMARK SMILES IDX 3 1 4 2 5 3 6 4 7 8 8 9 9 10 2 11 1 12
REMARK H PARENT 6 5 6 6 6 7
REMARK Flexibility Score: inf
ROOT
ATOM      1  C   UNL     1     193.177 195.609 193.771  1.00  0.00     0.050 C 
ATOM      2  C   UNL     1     191.997 194.720 194.199  1.00  0.00     0.014 C 
ENDROOT
BRANCH   1   3
ATOM      3  C   UNL     1     194.404 194.782 193.264  1.00  0.00     0.230 C 
BRANCH   3   4
ATOM      4  N   UNL     1     194.281 193.361 193.617  1.00  0.00    -0.350 N 
ATOM      5  H   UNL     1     193.794 193.268 194.538  1.00  0.00     0.345 HD
ATOM      6  H   UNL     1     195.229 192.930 193.708  1.00  0.00     0.345 HD
ATOM      7  H   UNL     1     193.734 192.838 192.895  1.00  0.00     0.345 HD
ENDBRANCH   3   4
BRANCH   3   8
ATOM      8  C   UNL     1     195.748 195.334 193.687  1.00  0.00     0.099 C 
ATOM      9  O   UNL     1     196.320 194.881 194.714  1.00  0.00    -0.544 OA
ATOM     10  O   UNL     1     196.346 196.376 192.987  1.00  0.00    -0.544 OA
ENDBRANCH   3   8
ENDBRANCH   1   3
BRANCH   1  11
ATOM     11  C   UNL     1     192.718 196.783 192.866  1.00  0.00     0.006 C 
ATOM     12  C   UNL     1     193.207 198.171 193.285  1.00  0.00     0.004 C 
ENDBRANCH   1  11
TORSDOF 4
ENDMDL
MODEL 7
REMARK VINA RESULT:    -2.963      1.439      2.240
REMARK INTER + INTRA:          -3.645
REMARK INTER:                  -3.528
REMARK INTRA:                  -0.117
REMARK UNBOUND:                -0.076
REMARK SMILES CC[C@@H](C)[C@H]([NH3+])C(=O)[O-]
REMARK SMILES IDX 3 1 4 2 5 3 6 4 7 8 8 9 9 10 2 11 1 12
REMARK H PARENT 6 5 6 6 6 7
REMARK Flexibility Score: inf
ROOT
ATOM      1  C   UNL     1     191.782 194.829 192.642  1.00  0.00     0.050 C 
ATOM      2  C   UNL     1     192.975 194.513 191.723  1.00  0.00     0.014 C 
ENDROOT
BRANCH   1   3
ATOM      3  C   UNL     1     190.412 194.402 192.021  1.00  0.00     0.230 C 
BRANCH   3   4
ATOM      4  N   UNL     1     190.201 192.951 192.124  1.00  0.00    -0.350 N 
ATOM      5  H   UNL     1     189.586 192.742 192.945  1.00  0.00     0.345 HD
ATOM      6  H   UNL     1     191.114 192.465 192.273  1.00  0.00     0.345 HD
ATOM      7  H   UNL     1     189.747 192.573 191.261  1.00  0.00     0.345 HD
ENDBRANCH   3   4
BRANCH   3   8
ATOM      8  C   UNL     1     190.189 194.885 190.605  1.00  0.00     0.099 C 
ATOM      9  O   UNL     1     190.043 194.053 189.671  1.00  0.00    -0.544 OA
ATOM     10  O   UNL     1     190.192 196.243 190.304  1.00  0.00    -0.544 OA
ENDBRANCH   3   8
ENDBRANCH   1   3
BRANCH   1  11
ATOM     11  C   UNL     1     192.044 194.382 194.105  1.00  0.00     0.006 C 
ATOM     12  C   UNL     1     190.986 194.806 195.125  1.00  0.00     0.004 C 
ENDBRANCH   1  11
TORSDOF 4
ENDMDL
MODEL 8
REMARK VINA RESULT:    -2.868      2.557      3.737
REMARK INTER + INTRA:          -3.530
REMARK INTER:                  -3.437
REMARK INTRA:                  -0.093
REMARK UNBOUND:                -0.076
REMARK SMILES CC[C@@H](C)[C@H]([NH3+])C(=O)[O-]
REMARK SMILES IDX 3 1 4 2 5 3 6 4 7 8 8 9 9 10 2 11 1 12
REMARK H PARENT 6 5 6 6 6 7
REMARK Flexibility Score: inf
ROOT
ATOM      1  C   UNL     1     192.254 194.729 192.034  1.00  0.00     0.050 C 
ATOM      2  C   UNL     1     192.282 196.170 191.494  1.00  0.00     0.014 C 
ENDROOT
BRANCH   1   3
ATOM      3  C   UNL     1     192.980 194.586 193.411  1.00  0.00     0.230 C 
BRANCH   3   4
ATOM      4  N   UNL     1     193.956 193.487 193.397  1.00  0.00    -0.350 N 
ATOM      5  H   UNL     1     194.699 193.685 192.686  1.00  0.00     0.345 HD
ATOM      6  H   UNL     1     193.485 192.592 193.131  1.00  0.00     0.345 HD
ATOM      7  H   UNL     1     194.410 193.372 194.332  1.00  0.00     0.345 HD
ENDBRANCH   3   4
BRANCH   3   8
ATOM      8  C   UNL     1     192.050 194.472 194.600  1.00  0.00     0.099 C 
ATOM      9  O   UNL     1     191.804 193.343 195.101  1.00  0.00    -0.544 OA
ATOM     10  O   UNL     1     191.416 195.594 195.121  1.00  0.00    -0.544 OA
ENDBRANCH   3   8
ENDBRANCH   1   3
BRANCH   1  11
ATOM     11  C   UNL     1     190.838 194.101 191.934  1.00  0.00     0.006 C 
ATOM     12  C   UNL     1     189.857 194.827 191.013  1.00  0.00     0.004 C 
ENDBRANCH   1  11
TORSDOF 4
ENDMDL
MODEL 9
REMARK VINA RESULT:    -2.648      2.748      3.528
REMARK INTER + INTRA:          -3.265
REMARK INTER:                  -3.096
REMARK INTRA:                  -0.170
REMARK UNBOUND:                -0.076
REMARK SMILES CC[C@@H](C)[C@H]([NH3+])C(=O)[O-]
REMARK SMILES IDX 3 1 4 2 5 3 6 4 7 8 8 9 9 10 2 11 1 12
REMARK H PARENT 6 5 6 6 6 7
REMARK Flexibility Score: inf
ROOT
ATOM      1  C   UNL     1     192.520 195.222 192.899  1.00  0.00     0.050 C 
ATOM      2  C   UNL     1     192.090 196.346 191.940  1.00  0.00     0.014 C 
ENDROOT
BRANCH   1   3
ATOM      3  C   UNL     1     193.972 194.713 192.620  1.00  0.00     0.230 C 
BRANCH   3   4
ATOM      4  N   UNL     1     194.063 193.250 192.731  1.00  0.00    -0.350 N 
ATOM      5  H   UNL     1     194.990 192.984 193.137  1.00  0.00     0.345 HD
ATOM      6  H   UNL     1     193.987 192.812 191.784  1.00  0.00     0.345 HD
ATOM      7  H   UNL     1     193.307 192.870 193.346  1.00  0.00     0.345 HD
ENDBRANCH   3   4
BRANCH   3   8
ATOM      8  C   UNL     1     195.042 195.388 193.450  1.00  0.00     0.099 C 
ATOM      9  O   UNL     1     195.621 194.753 194.371  1.00  0.00    -0.544 OA
ATOM     10  O   UNL     1     195.365 196.726 193.248  1.00  0.00    -0.544 OA
ENDBRANCH   3   8
ENDBRANCH   1   3
BRANCH   1  11
ATOM     11  C   UNL     1     192.181 195.559 194.375  1.00  0.00     0.006 C 
ATOM     12  C   UNL     1     191.369 194.501 195.125  1.00  0.00     0.004 C 
ENDBRANCH   1  11
TORSDOF 4
ENDMDL
