MODEL 1
REMARK VINA RESULT:    -4.138      0.000      0.000
REMARK INTER + INTRA:          -9.114
REMARK INTER:                  -7.646
REMARK INTRA:                  -1.468
REMARK UNBOUND:                -1.468
REMARK SMILES CCCCCCCCCCCCCCCCO
REMARK SMILES IDX 9 1 8 2 7 3 6 4 5 5 4 6 3 7 2 8 1 9 10 10 11 11 12 12 13 13
REMARK SMILES IDX 14 14 15 15 16 16 17 17
REMARK H PARENT 17 18
REMARK Flexibility Score: inf
ROOT
ATOM      1  C   UNL     1       2.846  29.120  12.731  1.00  0.00     0.000 C 
ENDROOT
BRANCH   1   2
ATOM      2  C   UNL     1       1.516  29.877  12.593  1.00  0.00    -0.000 C 
BRANCH   2   3
ATOM      3  C   UNL     1       1.566  30.966  11.507  1.00  0.00    -0.000 C 
BRANCH   3   4
ATOM      4  C   UNL     1       2.873  31.774  11.540  1.00  0.00    -0.000 C 
BRANCH   4   5
ATOM      5  C   UNL     1       3.457  32.012  10.140  1.00  0.00    -0.000 C 
BRANCH   5   6
ATOM      6  C   UNL     1       4.988  31.938  10.163  1.00  0.00    -0.000 C 
BRANCH   6   7
ATOM      7  C   UNL     1       5.466  30.580  10.696  1.00  0.00    -0.000 C 
BRANCH   7   8
ATOM      8  C   UNL     1       6.113  30.686  12.086  1.00  0.00    -0.003 C 
ATOM      9  C   UNL     1       6.467  32.125  12.464  1.00  0.00     0.004 C 
ENDBRANCH   7   8
ENDBRANCH   6   7
ENDBRANCH   5   6
ENDBRANCH   4   5
ENDBRANCH   3   4
ENDBRANCH   2   3
ENDBRANCH   1   2
BRANCH   1  10
ATOM     10  C   UNL     1       2.651  27.644  13.107  1.00  0.00     0.000 C 
BRANCH  10  11
ATOM     11  C   UNL     1       2.746  26.744  11.870  1.00  0.00     0.000 C 
BRANCH  11  12
ATOM     12  C   UNL     1       3.689  27.350  10.820  1.00  0.00     0.000 C 
BRANCH  12  13
ATOM     13  C   UNL     1       3.782  26.494   9.546  1.00  0.00     0.000 C 
BRANCH  13  14
ATOM     14  C   UNL     1       3.871  24.989   9.849  1.00  0.00     0.002 C 
BRANCH  14  15
ATOM     15  C   UNL     1       5.094  24.324   9.194  1.00  0.00     0.028 C 
BRANCH  15  16
ATOM     16  C   UNL     1       6.167  23.887  10.202  1.00  0.00     0.156 C 
BRANCH  16  17
ATOM     17  O   UNL     1       5.814  24.259  11.509  1.00  0.00    -0.396 OA
ATOM     18  H   UNL     1       6.419  23.760  12.118  1.00  0.00     0.210 HD
ENDBRANCH  16  17
ENDBRANCH  15  16
ENDBRANCH  14  15
ENDBRANCH  13  14
ENDBRANCH  12  13
ENDBRANCH  11  12
ENDBRANCH  10  11
ENDBRANCH   1  10
TORSDOF 15
ENDMDL
MODEL 2
REMARK VINA RESULT:    -4.127      2.341      4.060
REMARK INTER + INTRA:          -9.092
REMARK INTER:                  -7.572
REMARK INTRA:                  -1.520
REMARK UNBOUND:                -1.468
REMARK SMILES CCCCCCCCCCCCCCCCO
REMARK SMILES IDX 9 1 8 2 7 3 6 4 5 5 4 6 3 7 2 8 1 9 10 10 11 11 12 12 13 13
REMARK SMILES IDX 14 14 15 15 16 16 17 17
REMARK H PARENT 17 18
REMARK Flexibility Score: inf
ROOT
ATOM      1  C   UNL     1       3.985  31.261   9.621  1.00  0.00     0.000 C 
ENDROOT
BRANCH   1   2
ATOM      2  C   UNL     1       2.626  31.716   9.070  1.00  0.00    -0.000 C 
BRANCH   2   3
ATOM      3  C   UNL     1       1.485  31.535  10.087  1.00  0.00    -0.000 C 
BRANCH   3   4
ATOM      4  C   UNL     1       1.991  31.462  11.536  1.00  0.00    -0.000 C 
BRANCH   4   5
ATOM      5  C   UNL     1       1.718  30.100  12.191  1.00  0.00    -0.000 C 
BRANCH   5   6
ATOM      6  C   UNL     1       3.026  29.349  12.467  1.00  0.00    -0.000 C 
BRANCH   6   7
ATOM      7  C   UNL     1       2.963  28.611  13.812  1.00  0.00    -0.000 C 
BRANCH   7   8
ATOM      8  C   UNL     1       1.616  28.801  14.527  1.00  0.00    -0.003 C 
ATOM      9  C   UNL     1       1.733  28.685  16.047  1.00  0.00     0.004 C 
ENDBRANCH   7   8
ENDBRANCH   6   7
ENDBRANCH   5   6
ENDBRANCH   4   5
ENDBRANCH   3   4
ENDBRANCH   2   3
ENDBRANCH   1   2
BRANCH   1  10
ATOM     10  C   UNL     1       4.534  30.023   8.895  1.00  0.00     0.000 C 
BRANCH  10  11
ATOM     11  C   UNL     1       3.587  28.828   9.053  1.00  0.00     0.000 C 
BRANCH  11  12
ATOM     12  C   UNL     1       4.373  27.531   9.297  1.00  0.00     0.000 C 
BRANCH  12  13
ATOM     13  C   UNL     1       3.456  26.319   9.530  1.00  0.00     0.000 C 
BRANCH  13  14
ATOM     14  C   UNL     1       3.661  25.680  10.914  1.00  0.00     0.002 C 
BRANCH  14  15
ATOM     15  C   UNL     1       2.375  25.670  11.758  1.00  0.00     0.028 C 
BRANCH  15  16
ATOM     16  C   UNL     1       1.238  24.850  11.133  1.00  0.00     0.156 C 
BRANCH  16  17
ATOM     17  O   UNL     1       0.003  25.173  11.716  1.00  0.00    -0.396 OA
ATOM     18  H   UNL     1      -0.245  24.406  12.297  1.00  0.00     0.210 HD
ENDBRANCH  16  17
ENDBRANCH  15  16
ENDBRANCH  14  15
ENDBRANCH  13  14
ENDBRANCH  12  13
ENDBRANCH  11  12
ENDBRANCH  10  11
ENDBRANCH   1  10
TORSDOF 15
ENDMDL
MODEL 3
REMARK VINA RESULT:    -4.105      3.871      7.930
REMARK INTER + INTRA:          -9.053
REMARK INTER:                  -8.049
REMARK INTRA:                  -1.004
REMARK UNBOUND:                -1.468
REMARK SMILES CCCCCCCCCCCCCCCCO
REMARK SMILES IDX 9 1 8 2 7 3 6 4 5 5 4 6 3 7 2 8 1 9 10 10 11 11 12 12 13 13
REMARK SMILES IDX 14 14 15 15 16 16 17 17
REMARK H PARENT 17 18
REMARK Flexibility Score: inf
ROOT
ATOM      1  C   UNL     1       3.534  25.119   9.976  1.00  0.00     0.000 C 
ENDROOT
BRANCH   1   2
ATOM      2  C   UNL     1       2.722  24.040   9.243  1.00  0.00    -0.000 C 
BRANCH   2   3
ATOM      3  C   UNL     1       1.214  24.135   9.535  1.00  0.00    -0.000 C 
BRANCH   3   4
ATOM      4  C   UNL     1       0.918  24.650  10.953  1.00  0.00    -0.000 C 
BRANCH   4   5
ATOM      5  C   UNL     1      -0.032  23.728  11.731  1.00  0.00    -0.000 C 
BRANCH   5   6
ATOM      6  C   UNL     1      -0.061  22.323  11.116  1.00  0.00    -0.000 C 
BRANCH   6   7
ATOM      7  C   UNL     1      -0.759  21.327  12.054  1.00  0.00    -0.000 C 
BRANCH   7   8
ATOM      8  C   UNL     1      -2.075  21.877  12.625  1.00  0.00    -0.003 C 
ATOM      9  C   UNL     1      -3.249  20.915  12.437  1.00  0.00     0.004 C 
ENDBRANCH   7   8
ENDBRANCH   6   7
ENDBRANCH   5   6
ENDBRANCH   4   5
ENDBRANCH   3   4
ENDBRANCH   2   3
ENDBRANCH   1   2
BRANCH   1  10
ATOM     10  C   UNL     1       4.168  26.136   9.016  1.00  0.00     0.000 C 
BRANCH  10  11
ATOM     11  C   UNL     1       4.147  27.546   9.616  1.00  0.00     0.000 C 
BRANCH  11  12
ATOM     12  C   UNL     1       3.563  27.531  11.037  1.00  0.00     0.000 C 
BRANCH  12  13
ATOM     13  C   UNL     1       3.677  28.896  11.737  1.00  0.00     0.000 C 
BRANCH  13  14
ATOM     14  C   UNL     1       2.308  29.563  11.959  1.00  0.00     0.002 C 
BRANCH  14  15
ATOM     15  C   UNL     1       1.585  29.028  13.208  1.00  0.00     0.028 C 
BRANCH  15  16
ATOM     16  C   UNL     1       2.539  28.589  14.327  1.00  0.00     0.156 C 
BRANCH  16  17
ATOM     17  O   UNL     1       2.477  27.202  14.529  1.00  0.00    -0.396 OA
ATOM     18  H   UNL     1       3.068  26.789  13.846  1.00  0.00     0.210 HD
ENDBRANCH  16  17
ENDBRANCH  15  16
ENDBRANCH  14  15
ENDBRANCH  13  14
ENDBRANCH  12  13
ENDBRANCH  11  12
ENDBRANCH  10  11
ENDBRANCH   1  10
TORSDOF 15
ENDMDL
MODEL 4
REMARK VINA RESULT:    -3.965      3.930      5.587
REMARK INTER + INTRA:          -8.793
REMARK INTER:                  -7.741
REMARK INTRA:                  -1.052
REMARK UNBOUND:                -1.468
REMARK SMILES CCCCCCCCCCCCCCCCO
REMARK SMILES IDX 9 1 8 2 7 3 6 4 5 5 4 6 3 7 2 8 1 9 10 10 11 11 12 12 13 13
REMARK SMILES IDX 14 14 15 15 16 16 17 17
REMARK H PARENT 17 18
REMARK Flexibility Score: inf
ROOT
ATOM      1  C   UNL     1       3.483  24.985  10.499  1.00  0.00     0.000 C 
ENDROOT
BRANCH   1   2
ATOM      2  C   UNL     1       4.243  26.270  10.136  1.00  0.00    -0.000 C 
BRANCH   2   3
ATOM      3  C   UNL     1       3.411  27.540  10.387  1.00  0.00    -0.000 C 
BRANCH   3   4
ATOM      4  C   UNL     1       4.273  28.734  10.825  1.00  0.00    -0.000 C 
BRANCH   4   5
ATOM      5  C   UNL     1       3.817  29.333  12.164  1.00  0.00    -0.000 C 
BRANCH   5   6
ATOM      6  C   UNL     1       2.423  29.959  12.040  1.00  0.00    -0.000 C 
BRANCH   6   7
ATOM      7  C   UNL     1       1.429  29.280  12.993  1.00  0.00    -0.000 C 
BRANCH   7   8
ATOM      8  C   UNL     1       2.103  28.251  13.914  1.00  0.00    -0.003 C 
ATOM      9  C   UNL     1       1.873  28.546  15.397  1.00  0.00     0.004 C 
ENDBRANCH   7   8
ENDBRANCH   6   7
ENDBRANCH   5   6
ENDBRANCH   4   5
ENDBRANCH   3   4
ENDBRANCH   2   3
ENDBRANCH   1   2
BRANCH   1  10
ATOM     10  C   UNL     1       2.712  24.398   9.307  1.00  0.00     0.000 C 
BRANCH  10  11
ATOM     11  C   UNL     1       1.227  24.221   9.645  1.00  0.00     0.000 C 
BRANCH  11  12
ATOM     12  C   UNL     1       0.940  24.635  11.096  1.00  0.00     0.000 C 
BRANCH  12  13
ATOM     13  C   UNL     1      -0.162  23.782  11.746  1.00  0.00     0.000 C 
BRANCH  13  14
ATOM     14  C   UNL     1      -0.159  22.328  11.243  1.00  0.00     0.002 C 
BRANCH  14  15
ATOM     15  C   UNL     1      -0.905  21.372  12.190  1.00  0.00     0.028 C 
BRANCH  15  16
ATOM     16  C   UNL     1      -2.394  21.708  12.351  1.00  0.00     0.156 C 
BRANCH  16  17
ATOM     17  O   UNL     1      -3.202  20.691  11.821  1.00  0.00    -0.396 OA
ATOM     18  H   UNL     1      -2.733  20.346  11.016  1.00  0.00     0.210 HD
ENDBRANCH  16  17
ENDBRANCH  15  16
ENDBRANCH  14  15
ENDBRANCH  13  14
ENDBRANCH  12  13
ENDBRANCH  11  12
ENDBRANCH  10  11
ENDBRANCH   1  10
TORSDOF 15
ENDMDL
MODEL 5
REMARK VINA RESULT:    -3.921      2.232      5.595
REMARK INTER + INTRA:          -8.712
REMARK INTER:                  -6.919
REMARK INTRA:                  -1.793
REMARK UNBOUND:                -1.468
REMARK SMILES CCCCCCCCCCCCCCCCO
REMARK SMILES IDX 9 1 8 2 7 3 6 4 5 5 4 6 3 7 2 8 1 9 10 10 11 11 12 12 13 13
REMARK SMILES IDX 14 14 15 15 16 16 17 17
REMARK H PARENT 17 18
REMARK Flexibility Score: inf
ROOT
ATOM      1  C   UNL     1       3.833  26.202  10.838  1.00  0.00     0.000 C 
ENDROOT
BRANCH   1   2
ATOM      2  C   UNL     1       4.051  24.704  10.575  1.00  0.00    -0.000 C 
BRANCH   2   3
ATOM      3  C   UNL     1       5.129  24.442   9.509  1.00  0.00    -0.000 C 
BRANCH   3   4
ATOM      4  C   UNL     1       6.471  24.008  10.121  1.00  0.00    -0.000 C 
BRANCH   4   5
ATOM      5  C   UNL     1       7.662  24.797   9.555  1.00  0.00    -0.000 C 
BRANCH   5   6
ATOM      6  C   UNL     1       7.309  26.280   9.389  1.00  0.00    -0.000 C 
BRANCH   6   7
ATOM      7  C   UNL     1       8.478  27.175   9.825  1.00  0.00    -0.000 C 
BRANCH   7   8
ATOM      8  C   UNL     1       8.089  28.660   9.899  1.00  0.00    -0.003 C 
ATOM      9  C   UNL     1       8.386  29.281  11.265  1.00  0.00     0.004 C 
ENDBRANCH   7   8
ENDBRANCH   6   7
ENDBRANCH   5   6
ENDBRANCH   4   5
ENDBRANCH   3   4
ENDBRANCH   2   3
ENDBRANCH   1   2
BRANCH   1  10
ATOM     10  C   UNL     1       3.557  26.994   9.552  1.00  0.00     0.000 C 
BRANCH  10  11
ATOM     11  C   UNL     1       3.907  28.476   9.733  1.00  0.00     0.000 C 
BRANCH  11  12
ATOM     12  C   UNL     1       4.621  28.713  11.072  1.00  0.00     0.000 C 
BRANCH  12  13
ATOM     13  C   UNL     1       3.891  29.738  11.956  1.00  0.00     0.000 C 
BRANCH  13  14
ATOM     14  C   UNL     1       2.363  29.683  11.788  1.00  0.00     0.002 C 
BRANCH  14  15
ATOM     15  C   UNL     1       1.656  29.060  13.004  1.00  0.00     0.028 C 
BRANCH  15  16
ATOM     16  C   UNL     1       2.624  28.486  14.048  1.00  0.00     0.156 C 
BRANCH  16  17
ATOM     17  O   UNL     1       2.621  27.083  14.023  1.00  0.00    -0.396 OA
ATOM     18  H   UNL     1       3.352  26.786  14.626  1.00  0.00     0.210 HD
ENDBRANCH  16  17
ENDBRANCH  15  16
ENDBRANCH  14  15
ENDBRANCH  13  14
ENDBRANCH  12  13
ENDBRANCH  11  12
ENDBRANCH  10  11
ENDBRANCH   1  10
TORSDOF 15
ENDMDL
MODEL 6
REMARK VINA RESULT:    -3.891      1.941      6.170
REMARK INTER + INTRA:          -8.657
REMARK INTER:                  -7.246
REMARK INTRA:                  -1.410
REMARK UNBOUND:                -1.468
REMARK SMILES CCCCCCCCCCCCCCCCO
REMARK SMILES IDX 9 1 8 2 7 3 6 4 5 5 4 6 3 7 2 8 1 9 10 10 11 11 12 12 13 13
REMARK SMILES IDX 14 14 15 15 16 16 17 17
REMARK H PARENT 17 18
REMARK Flexibility Score: inf
ROOT
ATOM      1  C   UNL     1       5.657  29.212  10.622  1.00  0.00     0.000 C 
ENDROOT
BRANCH   1   2
ATOM      2  C   UNL     1       6.956  28.753   9.941  1.00  0.00    -0.000 C 
BRANCH   2   3
ATOM      3  C   UNL     1       6.787  27.426   9.181  1.00  0.00    -0.000 C 
BRANCH   3   4
ATOM      4  C   UNL     1       7.761  26.340   9.665  1.00  0.00    -0.000 C 
BRANCH   4   5
ATOM      5  C   UNL     1       7.322  24.926   9.256  1.00  0.00    -0.000 C 
BRANCH   5   6
ATOM      6  C   UNL     1       6.453  24.284  10.344  1.00  0.00    -0.000 C 
BRANCH   6   7
ATOM      7  C   UNL     1       4.991  24.177   9.888  1.00  0.00    -0.000 C 
BRANCH   7   8
ATOM      8  C   UNL     1       4.025  24.922  10.823  1.00  0.00    -0.003 C 
ATOM      9  C   UNL     1       3.493  26.219  10.212  1.00  0.00     0.004 C 
ENDBRANCH   7   8
ENDBRANCH   6   7
ENDBRANCH   5   6
ENDBRANCH   4   5
ENDBRANCH   3   4
ENDBRANCH   2   3
ENDBRANCH   1   2
BRANCH   1  10
ATOM     10  C   UNL     1       5.902  30.259  11.719  1.00  0.00     0.000 C 
BRANCH  10  11
ATOM     11  C   UNL     1       4.736  31.251  11.803  1.00  0.00     0.000 C 
BRANCH  11  12
ATOM     12  C   UNL     1       3.521  30.739  11.014  1.00  0.00     0.000 C 
BRANCH  12  13
ATOM     13  C   UNL     1       2.189  31.261  11.578  1.00  0.00     0.000 C 
BRANCH  13  14
ATOM     14  C   UNL     1       1.398  30.176  12.327  1.00  0.00     0.002 C 
BRANCH  14  15
ATOM     15  C   UNL     1       2.207  28.882  12.524  1.00  0.00     0.028 C 
BRANCH  15  16
ATOM     16  C   UNL     1       2.320  28.448  13.992  1.00  0.00     0.156 C 
BRANCH  16  17
ATOM     17  O   UNL     1       2.701  27.101  14.093  1.00  0.00    -0.396 OA
ATOM     18  H   UNL     1       2.023  26.577  13.592  1.00  0.00     0.210 HD
ENDBRANCH  16  17
ENDBRANCH  15  16
ENDBRANCH  14  15
ENDBRANCH  13  14
ENDBRANCH  12  13
ENDBRANCH  11  12
ENDBRANCH  10  11
ENDBRANCH   1  10
TORSDOF 15
ENDMDL
MODEL 7
REMARK VINA RESULT:    -3.846      1.917      2.805
REMARK INTER + INTRA:          -8.574
REMARK INTER:                  -6.906
REMARK INTRA:                  -1.668
REMARK UNBOUND:                -1.468
REMARK SMILES CCCCCCCCCCCCCCCCO
REMARK SMILES IDX 9 1 8 2 7 3 6 4 5 5 4 6 3 7 2 8 1 9 10 10 11 11 12 12 13 13
REMARK SMILES IDX 14 14 15 15 16 16 17 17
REMARK H PARENT 17 18
REMARK Flexibility Score: inf
ROOT
ATOM      1  C   UNL     1       3.030  27.743  11.880  1.00  0.00     0.000 C 
ENDROOT
BRANCH   1   2
ATOM      2  C   UNL     1       2.854  28.884  12.894  1.00  0.00    -0.000 C 
BRANCH   2   3
ATOM      3  C   UNL     1       1.449  29.509  12.841  1.00  0.00    -0.000 C 
BRANCH   3   4
ATOM      4  C   UNL     1       1.340  30.631  11.797  1.00  0.00    -0.000 C 
BRANCH   4   5
ATOM      5  C   UNL     1       2.491  31.643  11.894  1.00  0.00    -0.000 C 
BRANCH   5   6
ATOM      6  C   UNL     1       3.262  31.728  10.571  1.00  0.00    -0.000 C 
BRANCH   6   7
ATOM      7  C   UNL     1       4.725  32.125  10.812  1.00  0.00    -0.000 C 
BRANCH   7   8
ATOM      8  C   UNL     1       5.226  31.715  12.206  1.00  0.00    -0.003 C 
ATOM      9  C   UNL     1       6.325  30.654  12.151  1.00  0.00     0.004 C 
ENDBRANCH   7   8
ENDBRANCH   6   7
ENDBRANCH   5   6
ENDBRANCH   4   5
ENDBRANCH   3   4
ENDBRANCH   2   3
ENDBRANCH   1   2
BRANCH   1  10
ATOM     10  C   UNL     1       4.020  28.096  10.759  1.00  0.00     0.000 C 
BRANCH  10  11
ATOM     11  C   UNL     1       3.991  27.040   9.648  1.00  0.00     0.000 C 
BRANCH  11  12
ATOM     12  C   UNL     1       3.735  25.640  10.225  1.00  0.00     0.000 C 
BRANCH  12  13
ATOM     13  C   UNL     1       3.616  24.564   9.133  1.00  0.00     0.000 C 
BRANCH  13  14
ATOM     14  C   UNL     1       2.295  23.781   9.216  1.00  0.00     0.002 C 
BRANCH  14  15
ATOM     15  C   UNL     1       1.111  24.660   9.655  1.00  0.00     0.028 C 
BRANCH  15  16
ATOM     16  C   UNL     1       0.525  24.262  11.017  1.00  0.00     0.156 C 
BRANCH  16  17
ATOM     17  O   UNL     1       0.314  25.390  11.825  1.00  0.00    -0.396 OA
ATOM     18  H   UNL     1       0.981  25.342  12.559  1.00  0.00     0.210 HD
ENDBRANCH  16  17
ENDBRANCH  15  16
ENDBRANCH  14  15
ENDBRANCH  13  14
ENDBRANCH  12  13
ENDBRANCH  11  12
ENDBRANCH  10  11
ENDBRANCH   1  10
TORSDOF 15
ENDMDL
MODEL 8
REMARK VINA RESULT:    -3.821      2.498      5.925
REMARK INTER + INTRA:          -8.528
REMARK INTER:                  -6.763
REMARK INTRA:                  -1.765
REMARK UNBOUND:                -1.468
REMARK SMILES CCCCCCCCCCCCCCCCO
REMARK SMILES IDX 9 1 8 2 7 3 6 4 5 5 4 6 3 7 2 8 1 9 10 10 11 11 12 12 13 13
REMARK SMILES IDX 14 14 15 15 16 16 17 17
REMARK H PARENT 17 18
REMARK Flexibility Score: inf
ROOT
ATOM      1  C   UNL     1       4.368  31.300  10.631  1.00  0.00     0.000 C 
ENDROOT
BRANCH   1   2
ATOM      2  C   UNL     1       4.668  30.147   9.660  1.00  0.00    -0.000 C 
BRANCH   2   3
ATOM      3  C   UNL     1       5.405  28.979  10.340  1.00  0.00    -0.000 C 
BRANCH   3   4
ATOM      4  C   UNL     1       5.150  27.634   9.641  1.00  0.00    -0.000 C 
BRANCH   4   5
ATOM      5  C   UNL     1       3.656  27.290   9.546  1.00  0.00    -0.000 C 
BRANCH   5   6
ATOM      6  C   UNL     1       3.451  25.789   9.314  1.00  0.00    -0.000 C 
BRANCH   6   7
ATOM      7  C   UNL     1       3.466  25.020  10.644  1.00  0.00    -0.000 C 
BRANCH   7   8
ATOM      8  C   UNL     1       2.359  25.481  11.604  1.00  0.00    -0.003 C 
ATOM      9  C   UNL     1       0.999  24.863  11.279  1.00  0.00     0.004 C 
ENDBRANCH   7   8
ENDBRANCH   6   7
ENDBRANCH   5   6
ENDBRANCH   4   5
ENDBRANCH   3   4
ENDBRANCH   2   3
ENDBRANCH   1   2
BRANCH   1  10
ATOM     10  C   UNL     1       3.057  32.027  10.299  1.00  0.00     0.000 C 
BRANCH  10  11
ATOM     11  C   UNL     1       1.849  31.105  10.508  1.00  0.00     0.000 C 
BRANCH  11  12
ATOM     12  C   UNL     1       1.724  30.686  11.980  1.00  0.00     0.000 C 
BRANCH  12  13
ATOM     13  C   UNL     1       2.091  29.210  12.208  1.00  0.00     0.000 C 
BRANCH  13  14
ATOM     14  C   UNL     1       2.998  29.008  13.433  1.00  0.00     0.002 C 
BRANCH  14  15
ATOM     15  C   UNL     1       2.438  27.967  14.419  1.00  0.00     0.028 C 
BRANCH  15  16
ATOM     16  C   UNL     1       1.661  28.587  15.588  1.00  0.00     0.156 C 
BRANCH  16  17
ATOM     17  O   UNL     1       0.371  28.972  15.190  1.00  0.00    -0.396 OA
ATOM     18  H   UNL     1       0.379  29.963  15.126  1.00  0.00     0.210 HD
ENDBRANCH  16  17
ENDBRANCH  15  16
ENDBRANCH  14  15
ENDBRANCH  13  14
ENDBRANCH  12  13
ENDBRANCH  11  12
ENDBRANCH  10  11
ENDBRANCH   1  10
TORSDOF 15
ENDMDL
MODEL 9
REMARK VINA RESULT:    -3.767      2.178      5.027
REMARK INTER + INTRA:          -8.427
REMARK INTER:                  -6.956
REMARK INTRA:                  -1.471
REMARK UNBOUND:                -1.468
REMARK SMILES CCCCCCCCCCCCCCCCO
REMARK SMILES IDX 9 1 8 2 7 3 6 4 5 5 4 6 3 7 2 8 1 9 10 10 11 11 12 12 13 13
REMARK SMILES IDX 14 14 15 15 16 16 17 17
REMARK H PARENT 17 18
REMARK Flexibility Score: inf
ROOT
ATOM      1  C   UNL     1       7.045  24.186   9.185  1.00  0.00     0.000 C 
ENDROOT
BRANCH   1   2
ATOM      2  C   UNL     1       7.981  25.403   9.237  1.00  0.00    -0.000 C 
BRANCH   2   3
ATOM      3  C   UNL     1       7.216  26.738   9.237  1.00  0.00    -0.000 C 
BRANCH   3   4
ATOM      4  C   UNL     1       7.998  27.866   9.928  1.00  0.00    -0.000 C 
BRANCH   4   5
ATOM      5  C   UNL     1       7.097  29.037  10.351  1.00  0.00    -0.000 C 
BRANCH   5   6
ATOM      6  C   UNL     1       7.924  30.172  10.968  1.00  0.00    -0.000 C 
BRANCH   6   7
ATOM      7  C   UNL     1       7.018  31.191  11.674  1.00  0.00    -0.000 C 
BRANCH   7   8
ATOM      8  C   UNL     1       5.746  30.550  12.250  1.00  0.00    -0.003 C 
ATOM      9  C   UNL     1       4.470  31.271  11.814  1.00  0.00     0.004 C 
ENDBRANCH   7   8
ENDBRANCH   6   7
ENDBRANCH   5   6
ENDBRANCH   4   5
ENDBRANCH   3   4
ENDBRANCH   2   3
ENDBRANCH   1   2
BRANCH   1  10
ATOM     10  C   UNL     1       6.094  24.120  10.389  1.00  0.00     0.000 C 
BRANCH  10  11
ATOM     11  C   UNL     1       4.632  24.235   9.943  1.00  0.00     0.000 C 
BRANCH  11  12
ATOM     12  C   UNL     1       3.834  25.137  10.897  1.00  0.00     0.000 C 
BRANCH  12  13
ATOM     13  C   UNL     1       3.502  26.504  10.277  1.00  0.00     0.000 C 
BRANCH  13  14
ATOM     14  C   UNL     1       3.666  27.662  11.276  1.00  0.00     0.002 C 
BRANCH  14  15
ATOM     15  C   UNL     1       2.461  27.803  12.222  1.00  0.00     0.028 C 
BRANCH  15  16
ATOM     16  C   UNL     1       2.845  28.247  13.640  1.00  0.00     0.156 C 
BRANCH  16  17
ATOM     17  O   UNL     1       2.534  27.254  14.582  1.00  0.00    -0.396 OA
ATOM     18  H   UNL     1       3.332  26.666  14.648  1.00  0.00     0.210 HD
ENDBRANCH  16  17
ENDBRANCH  15  16
ENDBRANCH  14  15
ENDBRANCH  13  14
ENDBRANCH  12  13
ENDBRANCH  11  12
ENDBRANCH  10  11
ENDBRANCH   1  10
TORSDOF 15
ENDMDL
