MODEL 1
REMARK VINA RESULT:    -3.833      0.000      0.000
REMARK INTER + INTRA:          -5.262
REMARK INTER:                  -4.954
REMARK INTRA:                  -0.308
REMARK UNBOUND:                -0.308
REMARK SMILES CO[C@@]1(CO)O[C@@H](CO)[C@@H](O)[C@H]1O
REMARK SMILES IDX 3 1 12 2 10 3 7 4 6 5 2 6 1 7 4 8 5 9 13 11 11 13 8 15 9 16
REMARK H PARENT 5 10 13 12 11 14 9 17
REMARK Flexibility Score: inf
ROOT
ATOM      1  C   UNL     1       6.435  32.484  33.798  1.00  0.00     0.221 C 
ATOM      2  C   UNL     1       7.443  31.330  33.921  1.00  0.00     0.207 C 
ATOM      3  C   UNL     1       8.768  32.047  33.846  1.00  0.00     0.180 C 
ATOM      4  C   UNL     1       8.423  33.206  32.909  1.00  0.00     0.179 C 
ATOM      5  O   UNL     1       7.040  33.484  32.995  1.00  0.00    -0.337 OA
ENDROOT
BRANCH   1   6
ATOM      6  O   UNL     1       6.189  32.989  35.110  1.00  0.00    -0.349 OA
ATOM      7  C   UNL     1       5.626  34.288  35.113  1.00  0.00     0.198 C 
ENDBRANCH   1   6
BRANCH   1   8
ATOM      8  C   UNL     1       5.126  31.987  33.129  1.00  0.00     0.224 C 
BRANCH   8   9
ATOM      9  O   UNL     1       5.216  32.030  31.728  1.00  0.00    -0.391 OA
ATOM     10  H   UNL     1       4.385  31.617  31.375  1.00  0.00     0.210 HD
ENDBRANCH   8   9
ENDBRANCH   1   8
BRANCH   2  11
ATOM     11  O   UNL     1       7.283  30.620  35.125  1.00  0.00    -0.385 OA
ATOM     12  H   UNL     1       8.171  30.234  35.345  1.00  0.00     0.211 HD
ENDBRANCH   2  11
BRANCH   3  13
ATOM     13  O   UNL     1       9.157  32.512  35.116  1.00  0.00    -0.387 OA
ATOM     14  H   UNL     1       8.932  31.796  35.765  1.00  0.00     0.211 HD
ENDBRANCH   3  13
BRANCH   4  15
ATOM     15  C   UNL     1       9.242  34.482  33.148  1.00  0.00     0.191 C 
BRANCH  15  16
ATOM     16  O   UNL     1      10.554  34.321  32.680  1.00  0.00    -0.394 OA
ATOM     17  H   UNL     1      11.129  34.861  33.283  1.00  0.00     0.210 HD
ENDBRANCH  15  16
ENDBRANCH   4  15
TORSDOF 7
ENDMDL
MODEL 2
REMARK VINA RESULT:    -3.819      1.552      4.026
REMARK INTER + INTRA:          -5.244
REMARK INTER:                  -4.618
REMARK INTRA:                  -0.626
REMARK UNBOUND:                -0.308
REMARK SMILES CO[C@@]1(CO)O[C@@H](CO)[C@@H](O)[C@H]1O
REMARK SMILES IDX 3 1 12 2 10 3 7 4 6 5 2 6 1 7 4 8 5 9 13 11 11 13 8 15 9 16
REMARK H PARENT 5 10 13 12 11 14 9 17
REMARK Flexibility Score: inf
ROOT
ATOM      1  C   UNL     1       7.904  33.347  34.041  1.00  0.00     0.221 C 
ATOM      2  C   UNL     1       7.957  32.151  33.077  1.00  0.00     0.207 C 
ATOM      3  C   UNL     1       6.508  31.745  32.983  1.00  0.00     0.180 C 
ATOM      4  C   UNL     1       6.011  32.096  34.387  1.00  0.00     0.179 C 
ATOM      5  O   UNL     1       6.819  33.122  34.928  1.00  0.00    -0.337 OA
ENDROOT
BRANCH   1   6
ATOM      6  O   UNL     1       7.668  34.522  33.266  1.00  0.00    -0.349 OA
ATOM      7  C   UNL     1       7.107  35.584  34.015  1.00  0.00     0.198 C 
ENDBRANCH   1   6
BRANCH   1   8
ATOM      8  C   UNL     1       9.229  33.455  34.841  1.00  0.00     0.224 C 
BRANCH   8   9
ATOM      9  O   UNL     1      10.347  33.305  34.006  1.00  0.00    -0.391 OA
ATOM     10  H   UNL     1      10.053  32.761  33.228  1.00  0.00     0.210 HD
ENDBRANCH   8   9
ENDBRANCH   1   8
BRANCH   2  11
ATOM     11  O   UNL     1       8.498  32.508  31.830  1.00  0.00    -0.385 OA
ATOM     12  H   UNL     1       8.481  31.688  31.270  1.00  0.00     0.211 HD
ENDBRANCH   2  11
BRANCH   3  13
ATOM     13  O   UNL     1       5.841  32.498  31.999  1.00  0.00    -0.387 OA
ATOM     14  H   UNL     1       6.540  32.866  31.398  1.00  0.00     0.211 HD
ENDBRANCH   3  13
BRANCH   4  15
ATOM     15  C   UNL     1       4.529  32.490  34.457  1.00  0.00     0.191 C 
BRANCH  15  16
ATOM     16  O   UNL     1       3.755  31.637  33.658  1.00  0.00    -0.394 OA
ATOM     17  H   UNL     1       4.114  30.723  33.804  1.00  0.00     0.210 HD
ENDBRANCH  15  16
ENDBRANCH   4  15
TORSDOF 7
ENDMDL
MODEL 3
REMARK VINA RESULT:    -3.771      1.588      2.108
REMARK INTER + INTRA:          -5.181
REMARK INTER:                  -4.636
REMARK INTRA:                  -0.545
REMARK UNBOUND:                -0.308
REMARK SMILES CO[C@@]1(CO)O[C@@H](CO)[C@@H](O)[C@H]1O
REMARK SMILES IDX 3 1 12 2 10 3 7 4 6 5 2 6 1 7 4 8 5 9 13 11 11 13 8 15 9 16
REMARK H PARENT 5 10 13 12 11 14 9 17
REMARK Flexibility Score: inf
ROOT
ATOM      1  C   UNL     1       6.766  32.590  33.746  1.00  0.00     0.221 C 
ATOM      2  C   UNL     1       7.764  32.756  32.589  1.00  0.00     0.207 C 
ATOM      3  C   UNL     1       8.672  33.848  33.098  1.00  0.00     0.180 C 
ATOM      4  C   UNL     1       7.694  34.680  33.931  1.00  0.00     0.179 C 
ATOM      5  O   UNL     1       6.632  33.857  34.370  1.00  0.00    -0.337 OA
ENDROOT
BRANCH   1   6
ATOM      6  O   UNL     1       7.317  31.646  34.664  1.00  0.00    -0.349 OA
ATOM      7  C   UNL     1       6.403  30.633  35.041  1.00  0.00     0.198 C 
ENDBRANCH   1   6
BRANCH   1   8
ATOM      8  C   UNL     1       5.390  32.117  33.208  1.00  0.00     0.224 C 
BRANCH   8   9
ATOM      9  O   UNL     1       5.330  32.197  31.807  1.00  0.00    -0.391 OA
ATOM     10  H   UNL     1       5.233  33.159  31.579  1.00  0.00     0.210 HD
ENDBRANCH   8   9
ENDBRANCH   1   8
BRANCH   2  11
ATOM     11  O   UNL     1       8.456  31.563  32.318  1.00  0.00    -0.385 OA
ATOM     12  H   UNL     1       8.859  31.669  31.417  1.00  0.00     0.211 HD
ENDBRANCH   2  11
BRANCH   3  13
ATOM     13  O   UNL     1       9.699  33.311  33.897  1.00  0.00    -0.387 OA
ATOM     14  H   UNL     1       9.294  33.098  34.777  1.00  0.00     0.211 HD
ENDBRANCH   3  13
BRANCH   4  15
ATOM     15  C   UNL     1       8.334  35.408  35.122  1.00  0.00     0.191 C 
BRANCH  15  16
ATOM     16  O   UNL     1       9.480  36.105  34.714  1.00  0.00    -0.394 OA
ATOM     17  H   UNL     1       9.638  36.801  35.404  1.00  0.00     0.210 HD
ENDBRANCH  15  16
ENDBRANCH   4  15
TORSDOF 7
ENDMDL
MODEL 4
REMARK VINA RESULT:    -3.575      1.773      2.873
REMARK INTER + INTRA:          -4.928
REMARK INTER:                  -4.311
REMARK INTRA:                  -0.617
REMARK UNBOUND:                -0.308
REMARK SMILES CO[C@@]1(CO)O[C@@H](CO)[C@@H](O)[C@H]1O
REMARK SMILES IDX 3 1 12 2 10 3 7 4 6 5 2 6 1 7 4 8 5 9 13 11 11 13 8 15 9 16
REMARK H PARENT 5 10 13 12 11 14 9 17
REMARK Flexibility Score: inf
ROOT
ATOM      1  C   UNL     1       5.746  31.936  34.252  1.00  0.00     0.221 C 
ATOM      2  C   UNL     1       5.835  32.813  32.992  1.00  0.00     0.207 C 
ATOM      3  C   UNL     1       7.312  33.105  32.905  1.00  0.00     0.180 C 
ATOM      4  C   UNL     1       7.694  33.140  34.386  1.00  0.00     0.179 C 
ATOM      5  O   UNL     1       6.785  32.349  35.124  1.00  0.00    -0.337 OA
ENDROOT
BRANCH   1   6
ATOM      6  O   UNL     1       5.948  30.581  33.854  1.00  0.00    -0.349 OA
ATOM      7  C   UNL     1       5.429  29.643  34.779  1.00  0.00     0.198 C 
ENDBRANCH   1   6
BRANCH   1   8
ATOM      8  C   UNL     1       4.368  32.123  34.942  1.00  0.00     0.224 C 
BRANCH   8   9
ATOM      9  O   UNL     1       3.332  32.234  34.001  1.00  0.00    -0.391 OA
ATOM     10  H   UNL     1       3.737  32.067  33.109  1.00  0.00     0.210 HD
ENDBRANCH   8   9
ENDBRANCH   1   8
BRANCH   2  11
ATOM     11  O   UNL     1       5.350  32.146  31.854  1.00  0.00    -0.385 OA
ATOM     12  H   UNL     1       5.747  31.235  31.870  1.00  0.00     0.211 HD
ENDBRANCH   2  11
BRANCH   3  13
ATOM     13  O   UNL     1       7.986  32.073  32.225  1.00  0.00    -0.387 OA
ATOM     14  H   UNL     1       8.847  31.934  32.698  1.00  0.00     0.211 HD
ENDBRANCH   3  13
BRANCH   4  15
ATOM     15  C   UNL     1       9.138  32.710  34.680  1.00  0.00     0.191 C 
BRANCH  15  16
ATOM     16  O   UNL     1       9.283  31.325  34.514  1.00  0.00    -0.394 OA
ATOM     17  H   UNL     1       9.069  31.138  33.563  1.00  0.00     0.210 HD
ENDBRANCH  15  16
ENDBRANCH   4  15
TORSDOF 7
ENDMDL
MODEL 5
REMARK VINA RESULT:    -3.297      1.579      4.253
REMARK INTER + INTRA:          -4.569
REMARK INTER:                  -4.211
REMARK INTRA:                  -0.358
REMARK UNBOUND:                -0.308
REMARK SMILES CO[C@@]1(CO)O[C@@H](CO)[C@@H](O)[C@H]1O
REMARK SMILES IDX 3 1 12 2 10 3 7 4 6 5 2 6 1 7 4 8 5 9 13 11 11 13 8 15 9 16
REMARK H PARENT 5 10 13 12 11 14 9 17
REMARK Flexibility Score: inf
ROOT
ATOM      1  C   UNL     1       9.067  34.107  33.645  1.00  0.00     0.221 C 
ATOM      2  C   UNL     1       8.093  35.273  33.881  1.00  0.00     0.207 C 
ATOM      3  C   UNL     1       6.749  34.594  33.798  1.00  0.00     0.180 C 
ATOM      4  C   UNL     1       7.035  33.496  32.771  1.00  0.00     0.179 C 
ATOM      5  O   UNL     1       8.413  33.180  32.794  1.00  0.00    -0.337 OA
ENDROOT
BRANCH   1   6
ATOM      6  O   UNL     1       9.340  33.505  34.910  1.00  0.00    -0.349 OA
ATOM      7  C   UNL     1       9.864  32.194  34.804  1.00  0.00     0.198 C 
ENDBRANCH   1   6
BRANCH   1   8
ATOM      8  C   UNL     1      10.368  34.619  32.971  1.00  0.00     0.224 C 
BRANCH   8   9
ATOM      9  O   UNL     1      10.215  35.928  32.487  1.00  0.00    -0.391 OA
ATOM     10  H   UNL     1       9.703  36.430  33.175  1.00  0.00     0.210 HD
ENDBRANCH   8   9
ENDBRANCH   1   8
BRANCH   2  11
ATOM     11  O   UNL     1       8.308  35.891  35.125  1.00  0.00    -0.385 OA
ATOM     12  H   UNL     1       8.482  36.851  34.936  1.00  0.00     0.211 HD
ENDBRANCH   2  11
BRANCH   3  13
ATOM     13  O   UNL     1       6.386  34.049  35.044  1.00  0.00    -0.387 OA
ATOM     14  H   UNL     1       5.737  33.321  34.860  1.00  0.00     0.211 HD
ENDBRANCH   3  13
BRANCH   4  15
ATOM     15  C   UNL     1       6.192  32.225  32.947  1.00  0.00     0.191 C 
BRANCH  15  16
ATOM     16  O   UNL     1       5.213  32.142  31.947  1.00  0.00    -0.394 OA
ATOM     17  H   UNL     1       4.403  32.579  32.318  1.00  0.00     0.210 HD
ENDBRANCH  15  16
ENDBRANCH   4  15
TORSDOF 7
ENDMDL
MODEL 6
REMARK VINA RESULT:    -3.257      2.167      3.334
REMARK INTER + INTRA:          -4.517
REMARK INTER:                  -3.935
REMARK INTRA:                  -0.582
REMARK UNBOUND:                -0.308
REMARK SMILES CO[C@@]1(CO)O[C@@H](CO)[C@@H](O)[C@H]1O
REMARK SMILES IDX 3 1 12 2 10 3 7 4 6 5 2 6 1 7 4 8 5 9 13 11 11 13 8 15 9 16
REMARK H PARENT 5 10 13 12 11 14 9 17
REMARK Flexibility Score: inf
ROOT
ATOM      1  C   UNL     1       8.004  33.596  33.605  1.00  0.00     0.221 C 
ATOM      2  C   UNL     1       9.305  34.309  33.205  1.00  0.00     0.207 C 
ATOM      3  C   UNL     1       9.107  35.691  33.776  1.00  0.00     0.180 C 
ATOM      4  C   UNL     1       7.592  35.853  33.637  1.00  0.00     0.179 C 
ATOM      5  O   UNL     1       6.981  34.578  33.639  1.00  0.00    -0.337 OA
ENDROOT
BRANCH   1   6
ATOM      6  O   UNL     1       8.194  33.040  34.906  1.00  0.00    -0.349 OA
ATOM      7  C   UNL     1       7.724  31.710  35.020  1.00  0.00     0.198 C 
ENDBRANCH   1   6
BRANCH   1   8
ATOM      8  C   UNL     1       7.650  32.498  32.568  1.00  0.00     0.224 C 
BRANCH   8   9
ATOM      9  O   UNL     1       8.576  32.470  31.512  1.00  0.00    -0.391 OA
ATOM     10  H   UNL     1       9.471  32.625  31.913  1.00  0.00     0.210 HD
ENDBRANCH   8   9
ENDBRANCH   1   8
BRANCH   2  11
ATOM     11  O   UNL     1      10.439  33.667  33.732  1.00  0.00    -0.385 OA
ATOM     12  H   UNL     1      10.418  32.734  33.393  1.00  0.00     0.211 HD
ENDBRANCH   2  11
BRANCH   3  13
ATOM     13  O   UNL     1       9.506  35.736  35.125  1.00  0.00    -0.387 OA
ATOM     14  H   UNL     1       8.945  36.426  35.566  1.00  0.00     0.211 HD
ENDBRANCH   3  13
BRANCH   4  15
ATOM     15  C   UNL     1       6.948  36.755  34.700  1.00  0.00     0.191 C 
BRANCH  15  16
ATOM     16  O   UNL     1       7.590  38.001  34.741  1.00  0.00    -0.394 OA
ATOM     17  H   UNL     1       6.874  38.675  34.877  1.00  0.00     0.210 HD
ENDBRANCH  15  16
ENDBRANCH   4  15
TORSDOF 7
ENDMDL
MODEL 7
REMARK VINA RESULT:    -3.226      2.335      4.163
REMARK INTER + INTRA:          -4.476
REMARK INTER:                  -3.889
REMARK INTRA:                  -0.588
REMARK UNBOUND:                -0.308
REMARK SMILES CO[C@@]1(CO)O[C@@H](CO)[C@@H](O)[C@H]1O
REMARK SMILES IDX 3 1 12 2 10 3 7 4 6 5 2 6 1 7 4 8 5 9 13 11 11 13 8 15 9 16
REMARK H PARENT 5 10 13 12 11 14 9 17
REMARK Flexibility Score: inf
ROOT
ATOM      1  C   UNL     1       9.083  34.335  34.106  1.00  0.00     0.221 C 
ATOM      2  C   UNL     1       9.986  35.538  33.789  1.00  0.00     0.207 C 
ATOM      3  C   UNL     1      11.368  34.948  33.915  1.00  0.00     0.180 C 
ATOM      4  C   UNL     1      11.146  33.907  35.014  1.00  0.00     0.179 C 
ATOM      5  O   UNL     1       9.790  33.508  35.016  1.00  0.00    -0.337 OA
ENDROOT
BRANCH   1   6
ATOM      6  O   UNL     1       8.848  33.633  32.886  1.00  0.00    -0.349 OA
ATOM      7  C   UNL     1       8.199  32.389  33.071  1.00  0.00     0.198 C 
ENDBRANCH   1   6
BRANCH   1   8
ATOM      8  C   UNL     1       7.753  34.813  34.747  1.00  0.00     0.224 C 
BRANCH   8   9
ATOM      9  O   UNL     1       7.067  35.703  33.905  1.00  0.00    -0.391 OA
ATOM     10  H   UNL     1       7.756  36.192  33.382  1.00  0.00     0.210 HD
ENDBRANCH   8   9
ENDBRANCH   1   8
BRANCH   2  11
ATOM     11  O   UNL     1       9.737  36.057  32.507  1.00  0.00    -0.385 OA
ATOM     12  H   UNL     1       8.789  36.354  32.502  1.00  0.00     0.211 HD
ENDBRANCH   2  11
BRANCH   3  13
ATOM     13  O   UNL     1      11.764  34.342  32.708  1.00  0.00    -0.387 OA
ATOM     14  H   UNL     1      11.056  33.690  32.469  1.00  0.00     0.211 HD
ENDBRANCH   3  13
BRANCH   4  15
ATOM     15  C   UNL     1      12.064  32.680  34.923  1.00  0.00     0.191 C 
BRANCH  15  16
ATOM     16  O   UNL     1      13.343  33.053  34.486  1.00  0.00    -0.394 OA
ATOM     17  H   UNL     1      13.744  32.240  34.084  1.00  0.00     0.210 HD
ENDBRANCH  15  16
ENDBRANCH   4  15
TORSDOF 7
ENDMDL
MODEL 8
REMARK VINA RESULT:    -3.192      1.893      3.385
REMARK INTER + INTRA:          -4.433
REMARK INTER:                  -3.743
REMARK INTRA:                  -0.690
REMARK UNBOUND:                -0.308
REMARK SMILES CO[C@@]1(CO)O[C@@H](CO)[C@@H](O)[C@H]1O
REMARK SMILES IDX 3 1 12 2 10 3 7 4 6 5 2 6 1 7 4 8 5 9 13 11 11 13 8 15 9 16
REMARK H PARENT 5 10 13 12 11 14 9 17
REMARK Flexibility Score: inf
ROOT
ATOM      1  C   UNL     1       8.227  33.638  34.180  1.00  0.00     0.221 C 
ATOM      2  C   UNL     1       7.891  35.035  34.723  1.00  0.00     0.207 C 
ATOM      3  C   UNL     1       9.040  35.868  34.211  1.00  0.00     0.180 C 
ATOM      4  C   UNL     1      10.178  34.845  34.234  1.00  0.00     0.179 C 
ATOM      5  O   UNL     1       9.641  33.543  34.114  1.00  0.00    -0.337 OA
ENDROOT
BRANCH   1   6
ATOM      6  O   UNL     1       7.667  33.532  32.872  1.00  0.00    -0.349 OA
ATOM      7  C   UNL     1       8.124  32.399  32.156  1.00  0.00     0.198 C 
ENDBRANCH   1   6
BRANCH   1   8
ATOM      8  C   UNL     1       7.666  32.542  35.125  1.00  0.00     0.224 C 
BRANCH   8   9
ATOM      9  O   UNL     1       6.262  32.533  35.124  1.00  0.00    -0.391 OA
ATOM     10  H   UNL     1       5.978  32.170  36.004  1.00  0.00     0.210 HD
ENDBRANCH   8   9
ENDBRANCH   1   8
BRANCH   2  11
ATOM     11  O   UNL     1       6.646  35.493  34.257  1.00  0.00    -0.385 OA
ATOM     12  H   UNL     1       6.613  35.283  33.287  1.00  0.00     0.211 HD
ENDBRANCH   2  11
BRANCH   3  13
ATOM     13  O   UNL     1       8.784  36.323  32.905  1.00  0.00    -0.387 OA
ATOM     14  H   UNL     1       8.645  37.304  32.965  1.00  0.00     0.211 HD
ENDBRANCH   3  13
BRANCH   4  15
ATOM     15  C   UNL     1      11.261  35.077  33.171  1.00  0.00     0.191 C 
BRANCH  15  16
ATOM     16  O   UNL     1      10.810  34.662  31.910  1.00  0.00    -0.394 OA
ATOM     17  H   UNL     1      10.660  33.683  31.980  1.00  0.00     0.210 HD
ENDBRANCH  15  16
ENDBRANCH   4  15
TORSDOF 7
ENDMDL
MODEL 9
REMARK VINA RESULT:    -3.174      3.474      5.373
REMARK INTER + INTRA:          -4.410
REMARK INTER:                  -3.693
REMARK INTRA:                  -0.716
REMARK UNBOUND:                -0.308
REMARK SMILES CO[C@@]1(CO)O[C@@H](CO)[C@@H](O)[C@H]1O
REMARK SMILES IDX 3 1 12 2 10 3 7 4 6 5 2 6 1 7 4 8 5 9 13 11 11 13 8 15 9 16
REMARK H PARENT 5 10 13 12 11 14 9 17
REMARK Flexibility Score: inf
ROOT
ATOM      1  C   UNL     1      11.225  34.587  34.103  1.00  0.00     0.221 C 
ATOM      2  C   UNL     1       9.749  34.497  33.682  1.00  0.00     0.207 C 
ATOM      3  C   UNL     1       9.335  35.947  33.640  1.00  0.00     0.180 C 
ATOM      4  C   UNL     1      10.201  36.534  34.758  1.00  0.00     0.179 C 
ATOM      5  O   UNL     1      11.358  35.738  34.922  1.00  0.00    -0.337 OA
ENDROOT
BRANCH   1   6
ATOM      6  O   UNL     1      12.008  34.733  32.919  1.00  0.00    -0.349 OA
ATOM      7  C   UNL     1      13.365  35.038  33.180  1.00  0.00     0.198 C 
ENDBRANCH   1   6
BRANCH   1   8
ATOM      8  C   UNL     1      11.636  33.320  34.900  1.00  0.00     0.224 C 
BRANCH   8   9
ATOM      9  O   UNL     1      10.733  32.265  34.690  1.00  0.00    -0.391 OA
ATOM     10  H   UNL     1      11.127  31.689  33.983  1.00  0.00     0.210 HD
ENDBRANCH   8   9
ENDBRANCH   1   8
BRANCH   2  11
ATOM     11  O   UNL     1       9.597  33.858  32.439  1.00  0.00    -0.385 OA
ATOM     12  H   UNL     1      10.491  33.863  32.008  1.00  0.00     0.211 HD
ENDBRANCH   2  11
BRANCH   3  13
ATOM     13  O   UNL     1       9.648  36.520  32.394  1.00  0.00    -0.387 OA
ATOM     14  H   UNL     1      10.494  37.026  32.516  1.00  0.00     0.211 HD
ENDBRANCH   3  13
BRANCH   4  15
ATOM     15  C   UNL     1      10.589  38.005  34.555  1.00  0.00     0.191 C 
BRANCH  15  16
ATOM     16  O   UNL     1      11.621  38.117  33.613  1.00  0.00    -0.394 OA
ATOM     17  H   UNL     1      12.281  38.748  34.002  1.00  0.00     0.210 HD
ENDBRANCH  15  16
ENDBRANCH   4  15
TORSDOF 7
ENDMDL
