MODEL 1
REMARK VINA RESULT:    -6.914      0.000      0.000
REMARK INTER + INTRA:          -7.520
REMARK INTER:                  -7.520
REMARK INTRA:                   0.000
REMARK UNBOUND:                 0.000
REMARK SMILES Cc1cc(O)c2c(c1)C(=O)c1cc(O)cc(O)c1C2=O
REMARK SMILES IDX 1 1 2 2 8 3 7 4 6 5 4 6 3 7 19 8 20 9 18 10 11 11 9 12 10 13
REMARK SMILES IDX 12 14 13 15 15 16 16 17 5 18 17 20 14 22
REMARK H PARENT 5 19 17 21 14 23
REMARK Flexibility Score: inf
ROOT
ATOM      1  C   UNL     1      17.139 184.011  17.930  1.00  0.00     0.044 C 
ATOM      2  C   UNL     1      16.869 184.016  16.454  1.00  0.00    -0.047 A 
ATOM      3  C   UNL     1      17.717 184.710  15.586  1.00  0.00     0.016 A 
ATOM      4  C   UNL     1      17.457 184.743  14.205  1.00  0.00     0.038 A 
ATOM      5  C   UNL     1      16.328 184.070  13.685  1.00  0.00     0.076 A 
ATOM      6  C   UNL     1      15.426 183.440  14.581  1.00  0.00     0.127 A 
ATOM      7  C   UNL     1      15.717 183.403  15.948  1.00  0.00     0.050 A 
ATOM      8  C   UNL     1      16.168 184.003  12.210  1.00  0.00     0.201 C 
ATOM      9  O   UNL     1      15.586 183.015  11.688  1.00  0.00    -0.288 OA
ATOM     10  C   UNL     1      16.854 184.999  11.347  1.00  0.00     0.076 A 
ATOM     11  C   UNL     1      17.982 185.672  11.870  1.00  0.00     0.041 A 
ATOM     12  C   UNL     1      18.358 185.487  13.292  1.00  0.00     0.194 C 
ATOM     13  O   UNL     1      19.431 185.984  13.731  1.00  0.00    -0.289 OA
ATOM     14  C   UNL     1      18.738 186.517  11.041  1.00  0.00     0.059 A 
ATOM     15  C   UNL     1      18.374 186.710   9.706  1.00  0.00     0.120 A 
ATOM     16  C   UNL     1      17.241 186.080   9.197  1.00  0.00     0.093 A 
ATOM     17  C   UNL     1      16.459 185.250  10.007  1.00  0.00     0.131 A 
ENDROOT
BRANCH   6  18
ATOM     18  O   UNL     1      14.219 182.875  14.163  1.00  0.00    -0.507 OA
ATOM     19  H   UNL     1      14.010 182.654  13.200  1.00  0.00     0.293 HD
ENDBRANCH   6  18
BRANCH  17  20
ATOM     20  O   UNL     1      15.288 184.726   9.453  1.00  0.00    -0.507 OA
ATOM     21  H   UNL     1      15.006 183.761   9.554  1.00  0.00     0.293 HD
ENDBRANCH  17  20
BRANCH  15  22
ATOM     22  O   UNL     1      19.131 187.538   8.877  1.00  0.00    -0.508 OA
ATOM     23  H   UNL     1      20.114 187.705   9.050  1.00  0.00     0.293 HD
ENDBRANCH  15  22
TORSDOF 3
ENDMDL
MODEL 2
REMARK VINA RESULT:    -6.025      1.360      5.509
REMARK INTER + INTRA:          -6.554
REMARK INTER:                  -6.554
REMARK INTRA:                   0.000
REMARK UNBOUND:                 0.000
REMARK SMILES Cc1cc(O)c2c(c1)C(=O)c1cc(O)cc(O)c1C2=O
REMARK SMILES IDX 1 1 2 2 8 3 7 4 6 5 4 6 3 7 19 8 20 9 18 10 11 11 9 12 10 13
REMARK SMILES IDX 12 14 13 15 15 16 16 17 5 18 17 20 14 22
REMARK H PARENT 5 19 17 21 14 23
REMARK Flexibility Score: inf
ROOT
ATOM      1  C   UNL     1      19.574 187.379   8.875  1.00  0.00     0.044 C 
ATOM      2  C   UNL     1      18.636 186.717   9.841  1.00  0.00    -0.047 A 
ATOM      3  C   UNL     1      18.959 186.646  11.200  1.00  0.00     0.016 A 
ATOM      4  C   UNL     1      18.099 186.005  12.108  1.00  0.00     0.038 A 
ATOM      5  C   UNL     1      16.896 185.423  11.647  1.00  0.00     0.076 A 
ATOM      6  C   UNL     1      16.616 185.424  10.257  1.00  0.00     0.127 A 
ATOM      7  C   UNL     1      17.476 186.087   9.375  1.00  0.00     0.050 A 
ATOM      8  C   UNL     1      15.945 184.885  12.654  1.00  0.00     0.201 C 
ATOM      9  O   UNL     1      14.708 184.894  12.414  1.00  0.00    -0.288 OA
ATOM     10  C   UNL     1      16.434 184.515  14.007  1.00  0.00     0.076 A 
ATOM     11  C   UNL     1      17.639 185.097  14.464  1.00  0.00     0.041 A 
ATOM     12  C   UNL     1      18.452 185.928  13.546  1.00  0.00     0.194 C 
ATOM     13  O   UNL     1      19.460 186.550  13.982  1.00  0.00    -0.289 OA
ATOM     14  C   UNL     1      18.062 184.879  15.786  1.00  0.00     0.059 A 
ATOM     15  C   UNL     1      17.309 184.079  16.649  1.00  0.00     0.120 A 
ATOM     16  C   UNL     1      16.141 183.472  16.191  1.00  0.00     0.093 A 
ATOM     17  C   UNL     1      15.709 183.655  14.873  1.00  0.00     0.131 A 
ENDROOT
BRANCH   6  18
ATOM     18  O   UNL     1      15.522 184.752   9.707  1.00  0.00    -0.507 OA
ATOM     19  H   UNL     1      14.577 184.853  10.047  1.00  0.00     0.293 HD
ENDBRANCH   6  18
BRANCH  17  20
ATOM     20  O   UNL     1      14.581 182.942  14.460  1.00  0.00    -0.507 OA
ATOM     21  H   UNL     1      14.523 181.934  14.472  1.00  0.00     0.293 HD
ENDBRANCH  17  20
BRANCH  15  22
ATOM     22  O   UNL     1      17.719 183.872  17.966  1.00  0.00    -0.508 OA
ATOM     23  H   UNL     1      17.502 184.536  18.699  1.00  0.00     0.293 HD
ENDBRANCH  15  22
TORSDOF 3
ENDMDL
MODEL 3
REMARK VINA RESULT:    -5.152      6.949     10.631
REMARK INTER + INTRA:          -5.604
REMARK INTER:                  -5.604
REMARK INTRA:                   0.000
REMARK UNBOUND:                 0.000
REMARK SMILES Cc1cc(O)c2c(c1)C(=O)c1cc(O)cc(O)c1C2=O
REMARK SMILES IDX 1 1 2 2 8 3 7 4 6 5 4 6 3 7 19 8 20 9 18 10 11 11 9 12 10 13
REMARK SMILES IDX 12 14 13 15 15 16 16 17 5 18 17 20 14 22
REMARK H PARENT 5 19 17 21 14 23
REMARK Flexibility Score: inf
ROOT
ATOM      1  C   UNL     1      14.378 183.619  27.699  1.00  0.00     0.044 C 
ATOM      2  C   UNL     1      15.128 183.896  26.429  1.00  0.00    -0.047 A 
ATOM      3  C   UNL     1      14.531 183.643  25.190  1.00  0.00     0.016 A 
ATOM      4  C   UNL     1      15.235 183.873  23.995  1.00  0.00     0.038 A 
ATOM      5  C   UNL     1      16.560 184.364  24.044  1.00  0.00     0.076 A 
ATOM      6  C   UNL     1      17.188 184.536  25.304  1.00  0.00     0.127 A 
ATOM      7  C   UNL     1      16.461 184.320  26.479  1.00  0.00     0.050 A 
ATOM      8  C   UNL     1      17.219 184.734  22.765  1.00  0.00     0.201 C 
ATOM      9  O   UNL     1      18.083 185.651  22.748  1.00  0.00    -0.288 OA
ATOM     10  C   UNL     1      16.726 184.157  21.487  1.00  0.00     0.076 A 
ATOM     11  C   UNL     1      15.402 183.666  21.443  1.00  0.00     0.041 A 
ATOM     12  C   UNL     1      14.598 183.597  22.686  1.00  0.00     0.194 C 
ATOM     13  O   UNL     1      13.378 183.279  22.633  1.00  0.00    -0.289 OA
ATOM     14  C   UNL     1      14.855 183.240  20.221  1.00  0.00     0.059 A 
ATOM     15  C   UNL     1      15.616 183.284  19.050  1.00  0.00     0.120 A 
ATOM     16  C   UNL     1      16.935 183.731  19.096  1.00  0.00     0.093 A 
ATOM     17  C   UNL     1      17.510 184.140  20.304  1.00  0.00     0.131 A 
ENDROOT
BRANCH   6  18
ATOM     18  O   UNL     1      18.535 184.883  25.435  1.00  0.00    -0.507 OA
ATOM     19  H   UNL     1      19.296 184.267  25.188  1.00  0.00     0.293 HD
ENDBRANCH   6  18
BRANCH  17  20
ATOM     20  O   UNL     1      18.863 184.488  20.288  1.00  0.00    -0.507 OA
ATOM     21  H   UNL     1      19.613 183.811  20.291  1.00  0.00     0.293 HD
ENDBRANCH  17  20
BRANCH  15  22
ATOM     22  O   UNL     1      15.072 182.875  17.833  1.00  0.00    -0.508 OA
ATOM     23  H   UNL     1      15.006 183.505  17.043  1.00  0.00     0.293 HD
ENDBRANCH  15  22
TORSDOF 3
ENDMDL
MODEL 4
REMARK VINA RESULT:    -5.150      5.562      8.613
REMARK INTER + INTRA:          -5.601
REMARK INTER:                  -5.601
REMARK INTRA:                   0.000
REMARK UNBOUND:                 0.000
REMARK SMILES Cc1cc(O)c2c(c1)C(=O)c1cc(O)cc(O)c1C2=O
REMARK SMILES IDX 1 1 2 2 8 3 7 4 6 5 4 6 3 7 19 8 20 9 18 10 11 11 9 12 10 13
REMARK SMILES IDX 12 14 13 15 15 16 16 17 5 18 17 20 14 22
REMARK H PARENT 5 19 17 21 14 23
REMARK Flexibility Score: inf
ROOT
ATOM      1  C   UNL     1      18.492 185.716  25.703  1.00  0.00     0.044 C 
ATOM      2  C   UNL     1      17.702 185.172  24.548  1.00  0.00    -0.047 A 
ATOM      3  C   UNL     1      18.341 184.860  23.343  1.00  0.00     0.016 A 
ATOM      4  C   UNL     1      17.605 184.376  22.248  1.00  0.00     0.038 A 
ATOM      5  C   UNL     1      16.207 184.203  22.360  1.00  0.00     0.076 A 
ATOM      6  C   UNL     1      15.555 184.602  23.555  1.00  0.00     0.127 A 
ATOM      7  C   UNL     1      16.310 185.062  24.639  1.00  0.00     0.050 A 
ATOM      8  C   UNL     1      15.487 183.553  21.235  1.00  0.00     0.201 C 
ATOM      9  O   UNL     1      14.450 182.875  21.464  1.00  0.00    -0.288 OA
ATOM     10  C   UNL     1      16.092 183.545  19.878  1.00  0.00     0.076 A 
ATOM     11  C   UNL     1      17.490 183.721  19.769  1.00  0.00     0.041 A 
ATOM     12  C   UNL     1      18.289 184.054  20.972  1.00  0.00     0.194 C 
ATOM     13  O   UNL     1      19.548 184.089  20.905  1.00  0.00    -0.289 OA
ATOM     14  C   UNL     1      18.116 183.584  18.519  1.00  0.00     0.059 A 
ATOM     15  C   UNL     1      17.364 183.290  17.378  1.00  0.00     0.120 A 
ATOM     16  C   UNL     1      15.981 183.155  17.474  1.00  0.00     0.093 A 
ATOM     17  C   UNL     1      15.331 183.308  18.704  1.00  0.00     0.131 A 
ENDROOT
BRANCH   6  18
ATOM     18  O   UNL     1      14.165 184.594  23.695  1.00  0.00    -0.507 OA
ATOM     19  H   UNL     1      13.607 183.753  23.670  1.00  0.00     0.293 HD
ENDBRANCH   6  18
BRANCH  17  20
ATOM     20  O   UNL     1      13.935 183.250  18.706  1.00  0.00    -0.507 OA
ATOM     21  H   UNL     1      13.400 182.717  19.378  1.00  0.00     0.293 HD
ENDBRANCH  17  20
BRANCH  15  22
ATOM     22  O   UNL     1      17.984 183.140  16.138  1.00  0.00    -0.508 OA
ATOM     23  H   UNL     1      17.954 183.872  15.438  1.00  0.00     0.293 HD
ENDBRANCH  15  22
TORSDOF 3
ENDMDL
MODEL 5
REMARK VINA RESULT:    -4.692      6.801     11.250
REMARK INTER + INTRA:          -5.103
REMARK INTER:                  -5.103
REMARK INTRA:                   0.000
REMARK UNBOUND:                 0.000
REMARK SMILES Cc1cc(O)c2c(c1)C(=O)c1cc(O)cc(O)c1C2=O
REMARK SMILES IDX 1 1 2 2 8 3 7 4 6 5 4 6 3 7 19 8 20 9 18 10 11 11 9 12 10 13
REMARK SMILES IDX 12 14 13 15 15 16 16 17 5 18 17 20 14 22
REMARK H PARENT 5 19 17 21 14 23
REMARK Flexibility Score: inf
ROOT
ATOM      1  C   UNL     1      16.660 182.875  17.274  1.00  0.00     0.044 C 
ATOM      2  C   UNL     1      17.152 183.295  18.629  1.00  0.00    -0.047 A 
ATOM      3  C   UNL     1      16.254 183.432  19.692  1.00  0.00     0.016 A 
ATOM      4  C   UNL     1      16.701 183.851  20.957  1.00  0.00     0.038 A 
ATOM      5  C   UNL     1      18.069 184.140  21.160  1.00  0.00     0.076 A 
ATOM      6  C   UNL     1      18.959 184.082  20.056  1.00  0.00     0.127 A 
ATOM      7  C   UNL     1      18.495 183.642  18.812  1.00  0.00     0.050 A 
ATOM      8  C   UNL     1      18.528 184.437  22.541  1.00  0.00     0.201 C 
ATOM      9  O   UNL     1      19.703 184.142  22.888  1.00  0.00    -0.288 OA
ATOM     10  C   UNL     1      17.550 184.903  23.558  1.00  0.00     0.076 A 
ATOM     11  C   UNL     1      16.182 184.615  23.352  1.00  0.00     0.041 A 
ATOM     12  C   UNL     1      15.741 184.000  22.078  1.00  0.00     0.194 C 
ATOM     13  O   UNL     1      14.544 183.626  21.937  1.00  0.00    -0.289 OA
ATOM     14  C   UNL     1      15.245 184.917  24.354  1.00  0.00     0.059 A 
ATOM     15  C   UNL     1      15.653 185.516  25.549  1.00  0.00     0.120 A 
ATOM     16  C   UNL     1      16.995 185.838  25.740  1.00  0.00     0.093 A 
ATOM     17  C   UNL     1      17.945 185.566  24.750  1.00  0.00     0.131 A 
ENDROOT
BRANCH   6  18
ATOM     18  O   UNL     1      20.293 184.484  20.141  1.00  0.00    -0.507 OA
ATOM     19  H   UNL     1      20.800 184.558  21.011  1.00  0.00     0.293 HD
ENDBRANCH   6  18
BRANCH  17  20
ATOM     20  O   UNL     1      19.254 186.000  24.975  1.00  0.00    -0.507 OA
ATOM     21  H   UNL     1      19.659 186.098  25.896  1.00  0.00     0.293 HD
ENDBRANCH  17  20
BRANCH  15  22
ATOM     22  O   UNL     1      14.728 185.805  26.551  1.00  0.00    -0.508 OA
ATOM     23  H   UNL     1      14.837 186.608  27.158  1.00  0.00     0.293 HD
ENDBRANCH  15  22
TORSDOF 3
ENDMDL
MODEL 6
REMARK VINA RESULT:    -4.680      9.021     11.897
REMARK INTER + INTRA:          -5.091
REMARK INTER:                  -5.091
REMARK INTRA:                   0.000
REMARK UNBOUND:                 0.000
REMARK SMILES Cc1cc(O)c2c(c1)C(=O)c1cc(O)cc(O)c1C2=O
REMARK SMILES IDX 1 1 2 2 8 3 7 4 6 5 4 6 3 7 19 8 20 9 18 10 11 11 9 12 10 13
REMARK SMILES IDX 12 14 13 15 15 16 16 17 5 18 17 20 14 22
REMARK H PARENT 5 19 17 21 14 23
REMARK Flexibility Score: inf
ROOT
ATOM      1  C   UNL     1      13.413 183.117  22.748  1.00  0.00     0.044 C 
ATOM      2  C   UNL     1      14.794 183.704  22.725  1.00  0.00    -0.047 A 
ATOM      3  C   UNL     1      15.286 184.390  23.841  1.00  0.00     0.016 A 
ATOM      4  C   UNL     1      16.567 184.967  23.819  1.00  0.00     0.038 A 
ATOM      5  C   UNL     1      17.369 184.855  22.660  1.00  0.00     0.076 A 
ATOM      6  C   UNL     1      16.831 184.233  21.504  1.00  0.00     0.127 A 
ATOM      7  C   UNL     1      15.561 183.649  21.556  1.00  0.00     0.050 A 
ATOM      8  C   UNL     1      18.769 185.347  22.725  1.00  0.00     0.201 C 
ATOM      9  O   UNL     1      19.658 184.803  22.016  1.00  0.00    -0.288 OA
ATOM     10  C   UNL     1      19.153 186.347  23.755  1.00  0.00     0.076 A 
ATOM     11  C   UNL     1      18.348 186.457  24.912  1.00  0.00     0.041 A 
ATOM     12  C   UNL     1      17.079 185.698  25.002  1.00  0.00     0.194 C 
ATOM     13  O   UNL     1      16.421 185.694  26.079  1.00  0.00    -0.289 OA
ATOM     14  C   UNL     1      18.753 187.290  25.968  1.00  0.00     0.059 A 
ATOM     15  C   UNL     1      19.939 188.024  25.877  1.00  0.00     0.120 A 
ATOM     16  C   UNL     1      20.715 187.948  24.723  1.00  0.00     0.093 A 
ATOM     17  C   UNL     1      20.324 187.142  23.648  1.00  0.00     0.131 A 
ENDROOT
BRANCH   6  18
ATOM     18  O   UNL     1      17.503 184.206  20.280  1.00  0.00    -0.507 OA
ATOM     19  H   UNL     1      17.229 183.617  19.506  1.00  0.00     0.293 HD
ENDBRANCH   6  18
BRANCH  17  20
ATOM     20  O   UNL     1      21.104 187.189  22.490  1.00  0.00    -0.507 OA
ATOM     21  H   UNL     1      21.914 186.604  22.339  1.00  0.00     0.293 HD
ENDBRANCH  17  20
BRANCH  15  22
ATOM     22  O   UNL     1      20.350 188.841  26.930  1.00  0.00    -0.508 OA
ATOM     23  H   UNL     1      19.833 188.886  27.799  1.00  0.00     0.293 HD
ENDBRANCH  15  22
TORSDOF 3
ENDMDL
MODEL 7
REMARK VINA RESULT:    -4.576      7.590     10.756
REMARK INTER + INTRA:          -4.977
REMARK INTER:                  -4.977
REMARK INTRA:                   0.000
REMARK UNBOUND:                 0.000
REMARK SMILES Cc1cc(O)c2c(c1)C(=O)c1cc(O)cc(O)c1C2=O
REMARK SMILES IDX 1 1 2 2 8 3 7 4 6 5 4 6 3 7 19 8 20 9 18 10 11 11 9 12 10 13
REMARK SMILES IDX 12 14 13 15 15 16 16 17 5 18 17 20 14 22
REMARK H PARENT 5 19 17 21 14 23
REMARK Flexibility Score: inf
ROOT
ATOM      1  C   UNL     1      19.768 187.308  25.844  1.00  0.00     0.044 C 
ATOM      2  C   UNL     1      18.655 186.447  25.321  1.00  0.00    -0.047 A 
ATOM      3  C   UNL     1      18.676 185.997  23.997  1.00  0.00     0.016 A 
ATOM      4  C   UNL     1      17.625 185.213  23.491  1.00  0.00     0.038 A 
ATOM      5  C   UNL     1      16.535 184.875  24.324  1.00  0.00     0.076 A 
ATOM      6  C   UNL     1      16.479 185.406  25.639  1.00  0.00     0.127 A 
ATOM      7  C   UNL     1      17.546 186.166  26.128  1.00  0.00     0.050 A 
ATOM      8  C   UNL     1      15.519 183.926  23.801  1.00  0.00     0.201 C 
ATOM      9  O   UNL     1      14.900 183.170  24.597  1.00  0.00    -0.288 OA
ATOM     10  C   UNL     1      15.371 183.738  22.335  1.00  0.00     0.076 A 
ATOM     11  C   UNL     1      16.462 184.079  21.504  1.00  0.00     0.041 A 
ATOM     12  C   UNL     1      17.651 184.746  22.084  1.00  0.00     0.194 C 
ATOM     13  O   UNL     1      18.677 184.939  21.374  1.00  0.00    -0.289 OA
ATOM     14  C   UNL     1      16.412 183.788  20.130  1.00  0.00     0.059 A 
ATOM     15  C   UNL     1      15.284 183.178  19.576  1.00  0.00     0.120 A 
ATOM     16  C   UNL     1      14.190 182.876  20.384  1.00  0.00     0.093 A 
ATOM     17  C   UNL     1      14.206 183.174  21.751  1.00  0.00     0.131 A 
ENDROOT
BRANCH   6  18
ATOM     18  O   UNL     1      15.374 185.234  26.475  1.00  0.00    -0.507 OA
ATOM     19  H   UNL     1      15.353 184.583  27.247  1.00  0.00     0.293 HD
ENDBRANCH   6  18
BRANCH  17  20
ATOM     20  O   UNL     1      13.039 182.926  22.478  1.00  0.00    -0.507 OA
ATOM     21  H   UNL     1      12.970 183.044  23.479  1.00  0.00     0.293 HD
ENDBRANCH  17  20
BRANCH  15  22
ATOM     22  O   UNL     1      15.237 182.876  18.215  1.00  0.00    -0.508 OA
ATOM     23  H   UNL     1      14.382 182.974  17.680  1.00  0.00     0.293 HD
ENDBRANCH  15  22
TORSDOF 3
ENDMDL
MODEL 8
REMARK VINA RESULT:    -4.406      7.513     10.188
REMARK INTER + INTRA:          -4.793
REMARK INTER:                  -4.793
REMARK INTRA:                   0.000
REMARK UNBOUND:                 0.000
REMARK SMILES Cc1cc(O)c2c(c1)C(=O)c1cc(O)cc(O)c1C2=O
REMARK SMILES IDX 1 1 2 2 8 3 7 4 6 5 4 6 3 7 19 8 20 9 18 10 11 11 9 12 10 13
REMARK SMILES IDX 12 14 13 15 15 16 16 17 5 18 17 20 14 22
REMARK H PARENT 5 19 17 21 14 23
REMARK Flexibility Score: inf
ROOT
ATOM      1  C   UNL     1      15.349 185.498  27.538  1.00  0.00     0.044 C 
ATOM      2  C   UNL     1      15.489 185.078  26.105  1.00  0.00    -0.047 A 
ATOM      3  C   UNL     1      16.754 184.814  25.569  1.00  0.00     0.016 A 
ATOM      4  C   UNL     1      16.898 184.446  24.220  1.00  0.00     0.038 A 
ATOM      5  C   UNL     1      15.757 184.342  23.394  1.00  0.00     0.076 A 
ATOM      6  C   UNL     1      14.487 184.694  23.921  1.00  0.00     0.127 A 
ATOM      7  C   UNL     1      14.366 185.037  25.271  1.00  0.00     0.050 A 
ATOM      8  C   UNL     1      15.931 183.810  22.018  1.00  0.00     0.201 C 
ATOM      9  O   UNL     1      14.992 183.175  21.468  1.00  0.00    -0.288 OA
ATOM     10  C   UNL     1      17.268 183.861  21.371  1.00  0.00     0.076 A 
ATOM     11  C   UNL     1      18.408 183.967  22.201  1.00  0.00     0.041 A 
ATOM     12  C   UNL     1      18.243 184.174  23.659  1.00  0.00     0.194 C 
ATOM     13  O   UNL     1      19.250 184.144  24.419  1.00  0.00    -0.289 OA
ATOM     14  C   UNL     1      19.692 183.881  21.637  1.00  0.00     0.059 A 
ATOM     15  C   UNL     1      19.852 183.707  20.260  1.00  0.00     0.120 A 
ATOM     16  C   UNL     1      18.732 183.642  19.434  1.00  0.00     0.093 A 
ATOM     17  C   UNL     1      17.442 183.746  19.967  1.00  0.00     0.131 A 
ENDROOT
BRANCH   6  18
ATOM     18  O   UNL     1      13.334 184.752  23.135  1.00  0.00    -0.507 OA
ATOM     19  H   UNL     1      12.403 184.606  23.498  1.00  0.00     0.293 HD
ENDBRANCH   6  18
BRANCH  17  20
ATOM     20  O   UNL     1      16.373 183.763  19.069  1.00  0.00    -0.507 OA
ATOM     21  H   UNL     1      16.200 183.033  18.392  1.00  0.00     0.293 HD
ENDBRANCH  17  20
BRANCH  15  22
ATOM     22  O   UNL     1      21.125 183.608  19.700  1.00  0.00    -0.508 OA
ATOM     23  H   UNL     1      21.574 182.711  19.561  1.00  0.00     0.293 HD
ENDBRANCH  15  22
TORSDOF 3
ENDMDL
