MODEL 1
REMARK VINA RESULT:    -7.074      0.000      0.000
REMARK INTER + INTRA:          -8.666
REMARK INTER:                  -8.521
REMARK INTRA:                  -0.144
REMARK UNBOUND:                -0.144
REMARK SMILES O=c1c(O)c(-c2ccc(O)cc2O)oc2cc(O)cc(O)c12
REMARK SMILES IDX 5 1 3 2 2 3 1 4 22 5 20 6 19 7 17 8 16 9 15 10 14 11 6 12
REMARK SMILES IDX 8 13 7 14 9 15 11 16 12 17 10 18 13 20 4 22 21 24 18 26
REMARK H PARENT 10 19 13 21 4 23 21 25 18 27
REMARK Flexibility Score: inf
ROOT
ATOM      1  C   UNL     1      28.719  23.130  49.715  1.00  0.00     0.184 A 
ATOM      2  C   UNL     1      29.988  22.630  50.054  1.00  0.00     0.208 A 
ATOM      3  C   UNL     1      30.245  22.283  51.390  1.00  0.00     0.238 A 
ATOM      4  O   UNL     1      31.376  21.822  51.705  1.00  0.00    -0.285 OA
ATOM      5  C   UNL     1      29.237  22.458  52.360  1.00  0.00     0.111 A 
ATOM      6  C   UNL     1      29.415  22.136  53.728  1.00  0.00     0.134 A 
ATOM      7  C   UNL     1      28.366  22.349  54.635  1.00  0.00     0.093 A 
ATOM      8  C   UNL     1      27.147  22.877  54.204  1.00  0.00     0.123 A 
ATOM      9  C   UNL     1      26.965  23.197  52.854  1.00  0.00     0.094 A 
ATOM     10  C   UNL     1      27.997  22.991  51.934  1.00  0.00     0.146 A 
ATOM     11  O   UNL     1      27.797  23.298  50.658  1.00  0.00    -0.451 OA
ENDROOT
BRANCH   1  12
ATOM     12  C   UNL     1      28.379  23.506  48.326  1.00  0.00     0.063 A 
ATOM     13  C   UNL     1      28.975  24.696  46.293  1.00  0.00     0.047 A 
ATOM     14  C   UNL     1      29.268  24.318  47.605  1.00  0.00     0.020 A 
ATOM     15  C   UNL     1      27.784  24.281  45.689  1.00  0.00     0.119 A 
ATOM     16  C   UNL     1      26.880  23.490  46.410  1.00  0.00     0.093 A 
ATOM     17  C   UNL     1      27.164  23.111  47.731  1.00  0.00     0.130 A 
BRANCH  15  18
ATOM     18  O   UNL     1      27.508  24.662  44.379  1.00  0.00    -0.508 OA
ATOM     19  H   UNL     1      26.730  25.271  44.157  1.00  0.00     0.293 HD
ENDBRANCH  15  18
BRANCH  17  20
ATOM     20  O   UNL     1      26.233  22.364  48.453  1.00  0.00    -0.507 OA
ATOM     21  H   UNL     1      26.466  21.946  49.347  1.00  0.00     0.293 HD
ENDBRANCH  17  20
ENDBRANCH   1  12
BRANCH   2  22
ATOM     22  O   UNL     1      30.980  22.511  49.077  1.00  0.00    -0.502 OA
ATOM     23  H   UNL     1      30.777  22.199  48.135  1.00  0.00     0.293 HD
ENDBRANCH   2  22
BRANCH   6  24
ATOM     24  O   UNL     1      30.621  21.608  54.191  1.00  0.00    -0.507 OA
ATOM     25  H   UNL     1      31.258  21.116  53.575  1.00  0.00     0.293 HD
ENDBRANCH   6  24
BRANCH   8  26
ATOM     26  O   UNL     1      26.122  23.079  55.125  1.00  0.00    -0.508 OA
ATOM     27  H   UNL     1      25.169  22.800  54.926  1.00  0.00     0.293 HD
ENDBRANCH   8  26
TORSDOF 6
ENDMDL
MODEL 2
REMARK VINA RESULT:    -6.906     12.426     13.356
REMARK INTER + INTRA:          -8.463
REMARK INTER:                  -8.057
REMARK INTRA:                  -0.406
REMARK UNBOUND:                -0.144
REMARK SMILES O=c1c(O)c(-c2ccc(O)cc2O)oc2cc(O)cc(O)c12
REMARK SMILES IDX 5 1 3 2 2 3 1 4 22 5 20 6 19 7 17 8 16 9 15 10 14 11 6 12
REMARK SMILES IDX 8 13 7 14 9 15 11 16 12 17 10 18 13 20 4 22 21 24 18 26
REMARK H PARENT 10 19 13 21 4 23 21 25 18 27
REMARK Flexibility Score: inf
ROOT
ATOM      1  C   UNL     1      19.200  24.787  41.373  1.00  0.00     0.184 A 
ATOM      2  C   UNL     1      20.010  25.917  41.585  1.00  0.00     0.208 A 
ATOM      3  C   UNL     1      19.755  26.734  42.697  1.00  0.00     0.238 A 
ATOM      4  O   UNL     1      20.483  27.743  42.904  1.00  0.00    -0.285 OA
ATOM      5  C   UNL     1      18.688  26.419  43.562  1.00  0.00     0.111 A 
ATOM      6  C   UNL     1      18.361  27.193  44.703  1.00  0.00     0.134 A 
ATOM      7  C   UNL     1      17.277  26.819  45.510  1.00  0.00     0.093 A 
ATOM      8  C   UNL     1      16.513  25.692  45.200  1.00  0.00     0.123 A 
ATOM      9  C   UNL     1      16.830  24.923  44.075  1.00  0.00     0.094 A 
ATOM     10  C   UNL     1      17.908  25.277  43.258  1.00  0.00     0.146 A 
ATOM     11  O   UNL     1      18.191  24.528  42.200  1.00  0.00    -0.451 OA
ENDROOT
BRANCH   1  12
ATOM     12  C   UNL     1      19.420  23.879  40.228  1.00  0.00     0.063 A 
ATOM     13  C   UNL     1      20.501  21.896  39.329  1.00  0.00     0.047 A 
ATOM     14  C   UNL     1      20.267  22.771  40.392  1.00  0.00     0.020 A 
ATOM     15  C   UNL     1      19.905  22.124  38.085  1.00  0.00     0.119 A 
ATOM     16  C   UNL     1      19.078  23.240  37.905  1.00  0.00     0.093 A 
ATOM     17  C   UNL     1      18.842  24.127  38.966  1.00  0.00     0.130 A 
BRANCH  15  18
ATOM     18  O   UNL     1      20.144  21.240  37.035  1.00  0.00    -0.508 OA
ATOM     19  H   UNL     1      21.032  20.764  36.936  1.00  0.00     0.293 HD
ENDBRANCH  15  18
BRANCH  17  20
ATOM     20  O   UNL     1      18.055  25.261  38.761  1.00  0.00    -0.507 OA
ATOM     21  H   UNL     1      18.024  26.015  39.436  1.00  0.00     0.293 HD
ENDBRANCH  17  20
ENDBRANCH   1  12
BRANCH   2  22
ATOM     22  O   UNL     1      21.032  26.226  40.684  1.00  0.00    -0.502 OA
ATOM     23  H   UNL     1      21.940  25.780  40.721  1.00  0.00     0.293 HD
ENDBRANCH   2  22
BRANCH   6  24
ATOM     24  O   UNL     1      19.104  28.326  45.038  1.00  0.00    -0.507 OA
ATOM     25  H   UNL     1      18.736  29.261  44.913  1.00  0.00     0.293 HD
ENDBRANCH   6  24
BRANCH   8  26
ATOM     26  O   UNL     1      15.440  25.342  46.018  1.00  0.00    -0.508 OA
ATOM     27  H   UNL     1      15.543  24.669  46.767  1.00  0.00     0.293 HD
ENDBRANCH   8  26
TORSDOF 6
ENDMDL
MODEL 3
REMARK VINA RESULT:    -6.883     12.187     13.553
REMARK INTER + INTRA:          -8.436
REMARK INTER:                  -8.138
REMARK INTRA:                  -0.298
REMARK UNBOUND:                -0.144
REMARK SMILES O=c1c(O)c(-c2ccc(O)cc2O)oc2cc(O)cc(O)c12
REMARK SMILES IDX 5 1 3 2 2 3 1 4 22 5 20 6 19 7 17 8 16 9 15 10 14 11 6 12
REMARK SMILES IDX 8 13 7 14 9 15 11 16 12 17 10 18 13 20 4 22 21 24 18 26
REMARK H PARENT 10 19 13 21 4 23 21 25 18 27
REMARK Flexibility Score: inf
ROOT
ATOM      1  C   UNL     1      18.922  25.143  40.987  1.00  0.00     0.184 A 
ATOM      2  C   UNL     1      19.959  26.085  41.110  1.00  0.00     0.208 A 
ATOM      3  C   UNL     1      20.041  26.853  42.281  1.00  0.00     0.238 A 
ATOM      4  O   UNL     1      20.973  27.693  42.408  1.00  0.00    -0.285 OA
ATOM      5  C   UNL     1      19.077  26.680  43.296  1.00  0.00     0.111 A 
ATOM      6  C   UNL     1      19.086  27.417  44.506  1.00  0.00     0.134 A 
ATOM      7  C   UNL     1      18.086  27.193  45.464  1.00  0.00     0.093 A 
ATOM      8  C   UNL     1      17.079  26.251  45.237  1.00  0.00     0.123 A 
ATOM      9  C   UNL     1      17.065  25.521  44.044  1.00  0.00     0.094 A 
ATOM     10  C   UNL     1      18.054  25.727  43.077  1.00  0.00     0.146 A 
ATOM     11  O   UNL     1      18.021  25.017  41.956  1.00  0.00    -0.451 OA
ENDROOT
BRANCH   1  12
ATOM     12  C   UNL     1      18.784  24.295  39.784  1.00  0.00     0.063 A 
ATOM     13  C   UNL     1      17.482  23.653  37.835  1.00  0.00     0.047 A 
ATOM     14  C   UNL     1      17.646  24.443  38.975  1.00  0.00     0.020 A 
ATOM     15  C   UNL     1      18.443  22.695  37.497  1.00  0.00     0.119 A 
ATOM     16  C   UNL     1      19.569  22.523  38.312  1.00  0.00     0.093 A 
ATOM     17  C   UNL     1      19.739  23.309  39.462  1.00  0.00     0.130 A 
BRANCH  15  18
ATOM     18  O   UNL     1      18.267  21.918  36.355  1.00  0.00    -0.508 OA
ATOM     19  H   UNL     1      18.129  20.916  36.412  1.00  0.00     0.293 HD
ENDBRANCH  15  18
BRANCH  17  20
ATOM     20  O   UNL     1      20.840  23.095  40.292  1.00  0.00    -0.507 OA
ATOM     21  H   UNL     1      20.772  23.183  41.299  1.00  0.00     0.293 HD
ENDBRANCH  17  20
ENDBRANCH   1  12
BRANCH   2  22
ATOM     22  O   UNL     1      20.871  26.264  40.067  1.00  0.00    -0.502 OA
ATOM     23  H   UNL     1      21.871  26.304  40.223  1.00  0.00     0.293 HD
ENDBRANCH   2  22
BRANCH   6  24
ATOM     24  O   UNL     1      20.077  28.365  44.762  1.00  0.00    -0.507 OA
ATOM     25  H   UNL     1      19.965  29.337  44.500  1.00  0.00     0.293 HD
ENDBRANCH   6  24
BRANCH   8  26
ATOM     26  O   UNL     1      16.097  26.049  46.204  1.00  0.00    -0.508 OA
ATOM     27  H   UNL     1      15.414  25.306  46.117  1.00  0.00     0.293 HD
ENDBRANCH   8  26
TORSDOF 6
ENDMDL
MODEL 4
REMARK VINA RESULT:    -6.870     12.076     13.663
REMARK INTER + INTRA:          -8.421
REMARK INTER:                  -8.030
REMARK INTRA:                  -0.390
REMARK UNBOUND:                -0.144
REMARK SMILES O=c1c(O)c(-c2ccc(O)cc2O)oc2cc(O)cc(O)c12
REMARK SMILES IDX 5 1 3 2 2 3 1 4 22 5 20 6 19 7 17 8 16 9 15 10 14 11 6 12
REMARK SMILES IDX 8 13 7 14 9 15 11 16 12 17 10 18 13 20 4 22 21 24 18 26
REMARK H PARENT 10 19 13 21 4 23 21 25 18 27
REMARK Flexibility Score: inf
ROOT
ATOM      1  C   UNL     1      18.483  24.408  41.656  1.00  0.00     0.184 A 
ATOM      2  C   UNL     1      17.279  24.051  42.289  1.00  0.00     0.208 A 
ATOM      3  C   UNL     1      16.866  24.776  43.417  1.00  0.00     0.238 A 
ATOM      4  O   UNL     1      15.783  24.472  43.987  1.00  0.00    -0.285 OA
ATOM      5  C   UNL     1      17.670  25.828  43.901  1.00  0.00     0.111 A 
ATOM      6  C   UNL     1      17.328  26.606  45.034  1.00  0.00     0.134 A 
ATOM      7  C   UNL     1      18.186  27.631  45.459  1.00  0.00     0.093 A 
ATOM      8  C   UNL     1      19.377  27.893  44.778  1.00  0.00     0.123 A 
ATOM      9  C   UNL     1      19.721  27.128  43.658  1.00  0.00     0.094 A 
ATOM     10  C   UNL     1      18.879  26.103  43.216  1.00  0.00     0.146 A 
ATOM     11  O   UNL     1      19.225  25.396  42.147  1.00  0.00    -0.451 OA
ENDROOT
BRANCH   1  12
ATOM     12  C   UNL     1      18.971  23.694  40.457  1.00  0.00     0.063 A 
ATOM     13  C   UNL     1      20.463  22.035  39.494  1.00  0.00     0.047 A 
ATOM     14  C   UNL     1      19.976  22.724  40.606  1.00  0.00     0.020 A 
ATOM     15  C   UNL     1      19.965  22.314  38.218  1.00  0.00     0.119 A 
ATOM     16  C   UNL     1      18.979  23.297  38.056  1.00  0.00     0.093 A 
ATOM     17  C   UNL     1      18.488  23.998  39.168  1.00  0.00     0.130 A 
BRANCH  15  18
ATOM     18  O   UNL     1      20.458  21.615  37.118  1.00  0.00    -0.508 OA
ATOM     19  H   UNL     1      19.942  21.566  36.248  1.00  0.00     0.293 HD
ENDBRANCH  15  18
BRANCH  17  20
ATOM     20  O   UNL     1      17.542  25.008  38.989  1.00  0.00    -0.507 OA
ATOM     21  H   UNL     1      16.766  24.900  38.347  1.00  0.00     0.293 HD
ENDBRANCH  17  20
ENDBRANCH   1  12
BRANCH   2  22
ATOM     22  O   UNL     1      16.529  22.974  41.812  1.00  0.00    -0.502 OA
ATOM     23  H   UNL     1      16.754  22.013  42.041  1.00  0.00     0.293 HD
ENDBRANCH   2  22
BRANCH   6  24
ATOM     24  O   UNL     1      16.146  26.369  45.738  1.00  0.00    -0.507 OA
ATOM     25  H   UNL     1      15.333  26.964  45.629  1.00  0.00     0.293 HD
ENDBRANCH   6  24
BRANCH   8  26
ATOM     26  O   UNL     1      20.212  28.916  45.221  1.00  0.00    -0.508 OA
ATOM     27  H   UNL     1      20.299  29.786  44.711  1.00  0.00     0.293 HD
ENDBRANCH   8  26
TORSDOF 6
ENDMDL
MODEL 5
REMARK VINA RESULT:    -6.736      1.347      3.188
REMARK INTER + INTRA:          -8.259
REMARK INTER:                  -8.039
REMARK INTRA:                  -0.220
REMARK UNBOUND:                -0.144
REMARK SMILES O=c1c(O)c(-c2ccc(O)cc2O)oc2cc(O)cc(O)c12
REMARK SMILES IDX 5 1 3 2 2 3 1 4 22 5 20 6 19 7 17 8 16 9 15 10 14 11 6 12
REMARK SMILES IDX 8 13 7 14 9 15 11 16 12 17 10 18 13 20 4 22 21 24 18 26
REMARK H PARENT 10 19 13 21 4 23 21 25 18 27
REMARK Flexibility Score: inf
ROOT
ATOM      1  C   UNL     1      28.176  23.475  49.620  1.00  0.00     0.184 A 
ATOM      2  C   UNL     1      27.246  23.892  50.588  1.00  0.00     0.208 A 
ATOM      3  C   UNL     1      27.476  23.568  51.934  1.00  0.00     0.238 A 
ATOM      4  O   UNL     1      26.655  23.947  52.813  1.00  0.00    -0.285 OA
ATOM      5  C   UNL     1      28.620  22.821  52.284  1.00  0.00     0.111 A 
ATOM      6  C   UNL     1      28.924  22.450  53.616  1.00  0.00     0.134 A 
ATOM      7  C   UNL     1      30.078  21.696  53.882  1.00  0.00     0.093 A 
ATOM      8  C   UNL     1      30.929  21.306  52.846  1.00  0.00     0.123 A 
ATOM      9  C   UNL     1      30.633  21.669  51.528  1.00  0.00     0.094 A 
ATOM     10  C   UNL     1      29.490  22.421  51.241  1.00  0.00     0.146 A 
ATOM     11  O   UNL     1      29.236  22.757  49.982  1.00  0.00    -0.451 OA
ENDROOT
BRANCH   1  12
ATOM     12  C   UNL     1      27.999  23.791  48.187  1.00  0.00     0.063 A 
ATOM     13  C   UNL     1      26.589  23.736  46.208  1.00  0.00     0.047 A 
ATOM     14  C   UNL     1      26.787  23.457  47.562  1.00  0.00     0.020 A 
ATOM     15  C   UNL     1      27.604  24.338  45.457  1.00  0.00     0.119 A 
ATOM     16  C   UNL     1      28.825  24.653  46.067  1.00  0.00     0.093 A 
ATOM     17  C   UNL     1      29.034  24.370  47.425  1.00  0.00     0.130 A 
BRANCH  15  18
ATOM     18  O   UNL     1      27.390  24.615  44.109  1.00  0.00    -0.508 OA
ATOM     19  H   UNL     1      28.006  24.254  43.391  1.00  0.00     0.293 HD
ENDBRANCH  15  18
BRANCH  17  20
ATOM     20  O   UNL     1      30.272  24.644  48.008  1.00  0.00    -0.507 OA
ATOM     21  H   UNL     1      30.828  25.442  47.724  1.00  0.00     0.293 HD
ENDBRANCH  17  20
ENDBRANCH   1  12
BRANCH   2  22
ATOM     22  O   UNL     1      26.099  24.592  50.204  1.00  0.00    -0.502 OA
ATOM     23  H   UNL     1      25.208  24.469  50.669  1.00  0.00     0.293 HD
ENDBRANCH   2  22
BRANCH   6  24
ATOM     24  O   UNL     1      28.094  22.823  54.674  1.00  0.00    -0.507 OA
ATOM     25  H   UNL     1      27.095  22.941  54.550  1.00  0.00     0.293 HD
ENDBRANCH   6  24
BRANCH   8  26
ATOM     26  O   UNL     1      32.067  20.557  53.137  1.00  0.00    -0.508 OA
ATOM     27  H   UNL     1      32.269  19.691  52.652  1.00  0.00     0.293 HD
ENDBRANCH   8  26
TORSDOF 6
ENDMDL
MODEL 6
REMARK VINA RESULT:    -6.312     12.756     15.258
REMARK INTER + INTRA:          -7.749
REMARK INTER:                  -7.332
REMARK INTRA:                  -0.417
REMARK UNBOUND:                -0.144
REMARK SMILES O=c1c(O)c(-c2ccc(O)cc2O)oc2cc(O)cc(O)c12
REMARK SMILES IDX 5 1 3 2 2 3 1 4 22 5 20 6 19 7 17 8 16 9 15 10 14 11 6 12
REMARK SMILES IDX 8 13 7 14 9 15 11 16 12 17 10 18 13 20 4 22 21 24 18 26
REMARK H PARENT 10 19 13 21 4 23 21 25 18 27
REMARK Flexibility Score: inf
ROOT
ATOM      1  C   UNL     1      17.234  25.068  42.495  1.00  0.00     0.184 A 
ATOM      2  C   UNL     1      16.437  25.440  41.398  1.00  0.00     0.208 A 
ATOM      3  C   UNL     1      16.760  24.945  40.126  1.00  0.00     0.238 A 
ATOM      4  O   UNL     1      16.045  25.262  39.137  1.00  0.00    -0.285 OA
ATOM      5  C   UNL     1      17.882  24.104  39.971  1.00  0.00     0.111 A 
ATOM      6  C   UNL     1      18.279  23.566  38.722  1.00  0.00     0.134 A 
ATOM      7  C   UNL     1      19.414  22.744  38.648  1.00  0.00     0.093 A 
ATOM      8  C   UNL     1      20.159  22.453  39.793  1.00  0.00     0.123 A 
ATOM      9  C   UNL     1      19.772  22.983  41.029  1.00  0.00     0.094 A 
ATOM     10  C   UNL     1      18.643  23.802  41.125  1.00  0.00     0.146 A 
ATOM     11  O   UNL     1      18.294  24.286  42.311  1.00  0.00    -0.451 OA
ENDROOT
BRANCH   1  12
ATOM     12  C   UNL     1      16.943  25.545  43.863  1.00  0.00     0.063 A 
ATOM     13  C   UNL     1      15.595  25.376  45.878  1.00  0.00     0.047 A 
ATOM     14  C   UNL     1      15.900  24.945  44.585  1.00  0.00     0.020 A 
ATOM     15  C   UNL     1      16.318  26.421  46.461  1.00  0.00     0.119 A 
ATOM     16  C   UNL     1      17.345  27.042  45.739  1.00  0.00     0.093 A 
ATOM     17  C   UNL     1      17.654  26.619  44.437  1.00  0.00     0.130 A 
BRANCH  15  18
ATOM     18  O   UNL     1      16.005  26.837  47.753  1.00  0.00    -0.508 OA
ATOM     19  H   UNL     1      15.639  27.763  47.937  1.00  0.00     0.293 HD
ENDBRANCH  15  18
BRANCH  17  20
ATOM     20  O   UNL     1      18.647  27.277  43.711  1.00  0.00    -0.507 OA
ATOM     21  H   UNL     1      18.770  27.122  42.718  1.00  0.00     0.293 HD
ENDBRANCH  17  20
ENDBRANCH   1  12
BRANCH   2  22
ATOM     22  O   UNL     1      15.359  26.311  41.578  1.00  0.00    -0.502 OA
ATOM     23  H   UNL     1      14.690  26.503  40.843  1.00  0.00     0.293 HD
ENDBRANCH   2  22
BRANCH   6  24
ATOM     24  O   UNL     1      17.556  23.839  37.560  1.00  0.00    -0.507 OA
ATOM     25  H   UNL     1      16.994  23.130  37.103  1.00  0.00     0.293 HD
ENDBRANCH   6  24
BRANCH   8  26
ATOM     26  O   UNL     1      21.282  21.636  39.693  1.00  0.00    -0.508 OA
ATOM     27  H   UNL     1      22.216  22.024  39.636  1.00  0.00     0.293 HD
ENDBRANCH   8  26
TORSDOF 6
ENDMDL
MODEL 7
REMARK VINA RESULT:    -6.234     11.984     13.005
REMARK INTER + INTRA:          -7.654
REMARK INTER:                  -7.364
REMARK INTRA:                  -0.290
REMARK UNBOUND:                -0.144
REMARK SMILES O=c1c(O)c(-c2ccc(O)cc2O)oc2cc(O)cc(O)c12
REMARK SMILES IDX 5 1 3 2 2 3 1 4 22 5 20 6 19 7 17 8 16 9 15 10 14 11 6 12
REMARK SMILES IDX 8 13 7 14 9 15 11 16 12 17 10 18 13 20 4 22 21 24 18 26
REMARK H PARENT 10 19 13 21 4 23 21 25 18 27
REMARK Flexibility Score: inf
ROOT
ATOM      1  C   UNL     1      17.666  25.899  44.336  1.00  0.00     0.184 A 
ATOM      2  C   UNL     1      17.216  24.573  44.464  1.00  0.00     0.208 A 
ATOM      3  C   UNL     1      16.434  24.228  45.577  1.00  0.00     0.238 A 
ATOM      4  O   UNL     1      16.015  23.045  45.697  1.00  0.00    -0.285 OA
ATOM      5  C   UNL     1      16.132  25.206  46.547  1.00  0.00     0.111 A 
ATOM      6  C   UNL     1      15.354  24.939  47.700  1.00  0.00     0.134 A 
ATOM      7  C   UNL     1      15.106  25.965  48.624  1.00  0.00     0.093 A 
ATOM      8  C   UNL     1      15.621  27.248  48.421  1.00  0.00     0.123 A 
ATOM      9  C   UNL     1      16.391  27.517  47.284  1.00  0.00     0.094 A 
ATOM     10  C   UNL     1      16.648  26.510  46.350  1.00  0.00     0.146 A 
ATOM     11  O   UNL     1      17.377  26.793  45.277  1.00  0.00    -0.451 OA
ENDROOT
BRANCH   1  12
ATOM     12  C   UNL     1      18.484  26.333  43.184  1.00  0.00     0.063 A 
ATOM     13  C   UNL     1      18.741  26.524  40.775  1.00  0.00     0.047 A 
ATOM     14  C   UNL     1      17.991  26.132  41.885  1.00  0.00     0.020 A 
ATOM     15  C   UNL     1      19.999  27.109  40.946  1.00  0.00     0.119 A 
ATOM     16  C   UNL     1      20.511  27.291  42.237  1.00  0.00     0.093 A 
ATOM     17  C   UNL     1      19.765  26.894  43.358  1.00  0.00     0.130 A 
BRANCH  15  18
ATOM     18  O   UNL     1      20.734  27.499  39.829  1.00  0.00    -0.508 OA
ATOM     19  H   UNL     1      20.281  27.841  38.990  1.00  0.00     0.293 HD
ENDBRANCH  15  18
BRANCH  17  20
ATOM     20  O   UNL     1      20.306  27.037  44.636  1.00  0.00    -0.507 OA
ATOM     21  H   UNL     1      19.731  27.286  45.432  1.00  0.00     0.293 HD
ENDBRANCH  17  20
ENDBRANCH   1  12
BRANCH   2  22
ATOM     22  O   UNL     1      17.569  23.617  43.509  1.00  0.00    -0.502 OA
ATOM     23  H   UNL     1      18.024  23.864  42.638  1.00  0.00     0.293 HD
ENDBRANCH   2  22
BRANCH   6  24
ATOM     24  O   UNL     1      14.826  23.669  47.932  1.00  0.00    -0.507 OA
ATOM     25  H   UNL     1      15.354  22.953  48.418  1.00  0.00     0.293 HD
ENDBRANCH   6  24
BRANCH   8  26
ATOM     26  O   UNL     1      15.361  28.248  49.355  1.00  0.00    -0.508 OA
ATOM     27  H   UNL     1      15.089  29.181  49.069  1.00  0.00     0.293 HD
ENDBRANCH   8  26
TORSDOF 6
ENDMDL
MODEL 8
REMARK VINA RESULT:    -6.208     12.070     14.537
REMARK INTER + INTRA:          -7.622
REMARK INTER:                  -7.452
REMARK INTRA:                  -0.170
REMARK UNBOUND:                -0.144
REMARK SMILES O=c1c(O)c(-c2ccc(O)cc2O)oc2cc(O)cc(O)c12
REMARK SMILES IDX 5 1 3 2 2 3 1 4 22 5 20 6 19 7 17 8 16 9 15 10 14 11 6 12
REMARK SMILES IDX 8 13 7 14 9 15 11 16 12 17 10 18 13 20 4 22 21 24 18 26
REMARK H PARENT 10 19 13 21 4 23 21 25 18 27
REMARK Flexibility Score: inf
ROOT
ATOM      1  C   UNL     1      17.340  26.173  44.211  1.00  0.00     0.184 A 
ATOM      2  C   UNL     1      16.626  25.740  43.079  1.00  0.00     0.208 A 
ATOM      3  C   UNL     1      17.252  25.790  41.824  1.00  0.00     0.238 A 
ATOM      4  O   UNL     1      16.627  25.393  40.803  1.00  0.00    -0.285 OA
ATOM      5  C   UNL     1      18.567  26.287  41.721  1.00  0.00     0.111 A 
ATOM      6  C   UNL     1      19.268  26.375  40.493  1.00  0.00     0.134 A 
ATOM      7  C   UNL     1      20.573  26.890  40.473  1.00  0.00     0.093 A 
ATOM      8  C   UNL     1      21.188  27.321  41.650  1.00  0.00     0.123 A 
ATOM      9  C   UNL     1      20.501  27.238  42.866  1.00  0.00     0.094 A 
ATOM     10  C   UNL     1      19.201  26.725  42.909  1.00  0.00     0.146 A 
ATOM     11  O   UNL     1      18.573  26.651  44.076  1.00  0.00    -0.451 OA
ENDROOT
BRANCH   1  12
ATOM     12  C   UNL     1      16.744  26.138  45.563  1.00  0.00     0.063 A 
ATOM     13  C   UNL     1      15.513  24.905  47.258  1.00  0.00     0.047 A 
ATOM     14  C   UNL     1      16.091  24.970  45.989  1.00  0.00     0.020 A 
ATOM     15  C   UNL     1      15.566  26.010  48.113  1.00  0.00     0.119 A 
ATOM     16  C   UNL     1      16.194  27.188  47.689  1.00  0.00     0.093 A 
ATOM     17  C   UNL     1      16.772  27.263  46.412  1.00  0.00     0.130 A 
BRANCH  15  18
ATOM     18  O   UNL     1      14.989  25.928  49.378  1.00  0.00    -0.508 OA
ATOM     19  H   UNL     1      15.534  25.678  50.194  1.00  0.00     0.293 HD
ENDBRANCH  15  18
BRANCH  17  20
ATOM     20  O   UNL     1      17.352  28.457  45.983  1.00  0.00    -0.507 OA
ATOM     21  H   UNL     1      17.914  28.502  45.141  1.00  0.00     0.293 HD
ENDBRANCH  17  20
ENDBRANCH   1  12
BRANCH   2  22
ATOM     22  O   UNL     1      15.308  25.295  43.208  1.00  0.00    -0.502 OA
ATOM     23  H   UNL     1      14.881  25.122  44.111  1.00  0.00     0.293 HD
ENDBRANCH   2  22
BRANCH   6  24
ATOM     24  O   UNL     1      18.681  25.954  39.300  1.00  0.00    -0.507 OA
ATOM     25  H   UNL     1      19.079  25.204  38.746  1.00  0.00     0.293 HD
ENDBRANCH   6  24
BRANCH   8  26
ATOM     26  O   UNL     1      22.484  27.831  41.602  1.00  0.00    -0.508 OA
ATOM     27  H   UNL     1      22.953  28.163  42.435  1.00  0.00     0.293 HD
ENDBRANCH   8  26
TORSDOF 6
ENDMDL
MODEL 9
REMARK VINA RESULT:    -6.151     12.092     14.525
REMARK INTER + INTRA:          -7.554
REMARK INTER:                  -7.450
REMARK INTRA:                  -0.104
REMARK UNBOUND:                -0.144
REMARK SMILES O=c1c(O)c(-c2ccc(O)cc2O)oc2cc(O)cc(O)c12
REMARK SMILES IDX 5 1 3 2 2 3 1 4 22 5 20 6 19 7 17 8 16 9 15 10 14 11 6 12
REMARK SMILES IDX 8 13 7 14 9 15 11 16 12 17 10 18 13 20 4 22 21 24 18 26
REMARK H PARENT 10 19 13 21 4 23 21 25 18 27
REMARK Flexibility Score: inf
ROOT
ATOM      1  C   UNL     1      17.899  26.304  43.991  1.00  0.00     0.184 A 
ATOM      2  C   UNL     1      19.202  26.815  43.861  1.00  0.00     0.208 A 
ATOM      3  C   UNL     1      19.789  26.858  42.587  1.00  0.00     0.238 A 
ATOM      4  O   UNL     1      20.953  27.325  42.455  1.00  0.00    -0.285 OA
ATOM      5  C   UNL     1      19.071  26.374  41.473  1.00  0.00     0.111 A 
ATOM      6  C   UNL     1      19.592  26.378  40.156  1.00  0.00     0.134 A 
ATOM      7  C   UNL     1      18.818  25.870  39.101  1.00  0.00     0.093 A 
ATOM      8  C   UNL     1      17.541  25.357  39.337  1.00  0.00     0.123 A 
ATOM      9  C   UNL     1      17.022  25.350  40.636  1.00  0.00     0.094 A 
ATOM     10  C   UNL     1      17.774  25.854  41.701  1.00  0.00     0.146 A 
ATOM     11  O   UNL     1      17.257  25.841  42.923  1.00  0.00    -0.451 OA
ENDROOT
BRANCH   1  12
ATOM     12  C   UNL     1      17.219  26.239  45.302  1.00  0.00     0.063 A 
ATOM     13  C   UNL     1      16.043  24.916  46.968  1.00  0.00     0.047 A 
ATOM     14  C   UNL     1      16.697  25.011  45.738  1.00  0.00     0.020 A 
ATOM     15  C   UNL     1      15.889  26.049  47.772  1.00  0.00     0.119 A 
ATOM     16  C   UNL     1      16.385  27.284  47.335  1.00  0.00     0.093 A 
ATOM     17  C   UNL     1      17.038  27.389  46.098  1.00  0.00     0.130 A 
BRANCH  15  18
ATOM     18  O   UNL     1      15.239  25.938  48.999  1.00  0.00    -0.508 OA
ATOM     19  H   UNL     1      14.236  26.050  49.079  1.00  0.00     0.293 HD
ENDBRANCH  15  18
BRANCH  17  20
ATOM     20  O   UNL     1      17.484  28.634  45.652  1.00  0.00    -0.507 OA
ATOM     21  H   UNL     1      18.338  29.049  46.004  1.00  0.00     0.293 HD
ENDBRANCH  17  20
ENDBRANCH   1  12
BRANCH   2  22
ATOM     22  O   UNL     1      19.903  27.245  44.990  1.00  0.00    -0.502 OA
ATOM     23  H   UNL     1      20.852  27.596  44.937  1.00  0.00     0.293 HD
ENDBRANCH   2  22
BRANCH   6  24
ATOM     24  O   UNL     1      20.865  26.882  39.888  1.00  0.00    -0.507 OA
ATOM     25  H   UNL     1      21.167  27.091  38.944  1.00  0.00     0.293 HD
ENDBRANCH   6  24
BRANCH   8  26
ATOM     26  O   UNL     1      16.794  24.857  38.273  1.00  0.00    -0.508 OA
ATOM     27  H   UNL     1      15.905  24.395  38.421  1.00  0.00     0.293 HD
ENDBRANCH   8  26
TORSDOF 6
ENDMDL
