MODEL 1
REMARK VINA RESULT:    -3.513      0.000      0.000
REMARK INTER + INTRA:          -4.532
REMARK INTER:                  -4.334
REMARK INTRA:                  -0.198
REMARK UNBOUND:                -0.198
REMARK SMILES CCCCCC(=O)[O-]
REMARK SMILES IDX 4 1 5 2 6 3 7 4 8 5 3 6 2 7 1 8
REMARK H PARENT
REMARK Flexibility Score: inf
ROOT
ATOM      1  C   UNL     1     -19.567  45.280  -6.373  1.00  0.00     0.006 C 
ENDROOT
BRANCH   1   2
ATOM      2  C   UNL     1     -18.794  44.208  -5.601  1.00  0.00     0.053 C 
BRANCH   2   3
ATOM      3  C   UNL     1     -17.422  44.037  -6.172  1.00  0.00     0.041 C 
ATOM      4  O   UNL     1     -16.509  44.854  -5.880  1.00  0.00    -0.550 OA
ATOM      5  O   UNL     1     -17.138  42.949  -6.986  1.00  0.00    -0.550 OA
ENDBRANCH   2   3
ENDBRANCH   1   2
BRANCH   1   6
ATOM      6  C   UNL     1     -20.660  44.650  -7.245  1.00  0.00     0.000 C 
BRANCH   6   7
ATOM      7  C   UNL     1     -20.195  44.516  -8.700  1.00  0.00    -0.003 C 
ATOM      8  C   UNL     1     -20.368  43.088  -9.205  1.00  0.00     0.004 C 
ENDBRANCH   6   7
ENDBRANCH   1   6
TORSDOF 4
ENDMDL
MODEL 2
REMARK VINA RESULT:    -3.490      2.217      3.469
REMARK INTER + INTRA:          -4.504
REMARK INTER:                  -4.260
REMARK INTRA:                  -0.244
REMARK UNBOUND:                -0.198
REMARK SMILES CCCCCC(=O)[O-]
REMARK SMILES IDX 4 1 5 2 6 3 7 4 8 5 3 6 2 7 1 8
REMARK H PARENT
REMARK Flexibility Score: inf
ROOT
ATOM      1  C   UNL     1     -19.657  45.466  -6.717  1.00  0.00     0.006 C 
ENDROOT
BRANCH   1   2
ATOM      2  C   UNL     1     -20.777  44.973  -7.637  1.00  0.00     0.053 C 
BRANCH   2   3
ATOM      3  C   UNL     1     -20.204  44.319  -8.855  1.00  0.00     0.041 C 
ATOM      4  O   UNL     1     -19.341  44.918  -9.549  1.00  0.00    -0.550 OA
ATOM      5  O   UNL     1     -20.586  43.028  -9.196  1.00  0.00    -0.550 OA
ENDBRANCH   2   3
ENDBRANCH   1   2
BRANCH   1   6
ATOM      6  C   UNL     1     -19.168  44.344  -5.794  1.00  0.00     0.000 C 
BRANCH   6   7
ATOM      7  C   UNL     1     -17.642  44.210  -5.850  1.00  0.00    -0.003 C 
ATOM      8  C   UNL     1     -17.213  43.265  -6.968  1.00  0.00     0.004 C 
ENDBRANCH   6   7
ENDBRANCH   1   6
TORSDOF 4
ENDMDL
MODEL 3
REMARK VINA RESULT:    -3.483      2.190      3.592
REMARK INTER + INTRA:          -4.495
REMARK INTER:                  -4.250
REMARK INTRA:                  -0.245
REMARK UNBOUND:                -0.198
REMARK SMILES CCCCCC(=O)[O-]
REMARK SMILES IDX 4 1 5 2 6 3 7 4 8 5 3 6 2 7 1 8
REMARK H PARENT
REMARK Flexibility Score: inf
ROOT
ATOM      1  C   UNL     1     -19.761  45.454  -6.769  1.00  0.00     0.006 C 
ENDROOT
BRANCH   1   2
ATOM      2  C   UNL     1     -20.829  44.924  -7.729  1.00  0.00     0.053 C 
BRANCH   2   3
ATOM      3  C   UNL     1     -20.195  44.160  -8.849  1.00  0.00     0.041 C 
ATOM      4  O   UNL     1     -20.588  42.995  -9.121  1.00  0.00    -0.550 OA
ATOM      5  O   UNL     1     -19.207  44.753  -9.623  1.00  0.00    -0.550 OA
ENDBRANCH   2   3
ENDBRANCH   1   2
BRANCH   1   6
ATOM      6  C   UNL     1     -19.259  44.345  -5.836  1.00  0.00     0.000 C 
BRANCH   6   7
ATOM      7  C   UNL     1     -17.727  44.288  -5.823  1.00  0.00    -0.003 C 
ATOM      8  C   UNL     1     -17.201  43.358  -6.911  1.00  0.00     0.004 C 
ENDBRANCH   6   7
ENDBRANCH   1   6
TORSDOF 4
ENDMDL
MODEL 4
REMARK VINA RESULT:    -3.399      1.688      2.220
REMARK INTER + INTRA:          -4.392
REMARK INTER:                  -4.194
REMARK INTRA:                  -0.198
REMARK UNBOUND:                -0.198
REMARK SMILES CCCCCC(=O)[O-]
REMARK SMILES IDX 4 1 5 2 6 3 7 4 8 5 3 6 2 7 1 8
REMARK H PARENT
REMARK Flexibility Score: inf
ROOT
ATOM      1  C   UNL     1     -20.761  45.155  -7.748  1.00  0.00     0.006 C 
ENDROOT
BRANCH   1   2
ATOM      2  C   UNL     1     -19.560  45.505  -6.865  1.00  0.00     0.053 C 
BRANCH   2   3
ATOM      3  C   UNL     1     -19.374  44.473  -5.798  1.00  0.00     0.041 C 
ATOM      4  O   UNL     1     -20.357  44.094  -5.107  1.00  0.00    -0.550 OA
ATOM      5  O   UNL     1     -18.128  43.894  -5.599  1.00  0.00    -0.550 OA
ENDBRANCH   2   3
ENDBRANCH   1   2
BRANCH   1   6
ATOM      6  C   UNL     1     -20.308  44.704  -9.141  1.00  0.00     0.000 C 
BRANCH   6   7
ATOM      7  C   UNL     1     -20.293  43.174  -9.248  1.00  0.00    -0.003 C 
ATOM      8  C   UNL     1     -18.866  42.641  -9.324  1.00  0.00     0.004 C 
ENDBRANCH   6   7
ENDBRANCH   1   6
TORSDOF 4
ENDMDL
MODEL 5
REMARK VINA RESULT:    -3.344      2.210      2.869
REMARK INTER + INTRA:          -4.325
REMARK INTER:                  -4.073
REMARK INTRA:                  -0.251
REMARK UNBOUND:                -0.198
REMARK SMILES CCCCCC(=O)[O-]
REMARK SMILES IDX 4 1 5 2 6 3 7 4 8 5 3 6 2 7 1 8
REMARK H PARENT
REMARK Flexibility Score: inf
ROOT
ATOM      1  C   UNL     1     -17.018  44.058  -7.022  1.00  0.00     0.006 C 
ENDROOT
BRANCH   1   2
ATOM      2  C   UNL     1     -17.902  43.996  -5.774  1.00  0.00     0.053 C 
BRANCH   2   3
ATOM      3  C   UNL     1     -19.242  44.604  -6.050  1.00  0.00     0.041 C 
ATOM      4  O   UNL     1     -20.245  44.256  -5.375  1.00  0.00    -0.550 OA
ATOM      5  O   UNL     1     -19.371  45.590  -7.019  1.00  0.00    -0.550 OA
ENDBRANCH   2   3
ENDBRANCH   1   2
BRANCH   1   6
ATOM      6  C   UNL     1     -17.151  42.778  -7.856  1.00  0.00     0.000 C 
BRANCH   6   7
ATOM      7  C   UNL     1     -17.707  43.086  -9.252  1.00  0.00    -0.003 C 
ATOM      8  C   UNL     1     -19.166  42.657  -9.371  1.00  0.00     0.004 C 
ENDBRANCH   6   7
ENDBRANCH   1   6
TORSDOF 4
ENDMDL
MODEL 6
REMARK VINA RESULT:    -3.306      2.300      3.324
REMARK INTER + INTRA:          -4.277
REMARK INTER:                  -4.066
REMARK INTRA:                  -0.211
REMARK UNBOUND:                -0.198
REMARK SMILES CCCCCC(=O)[O-]
REMARK SMILES IDX 4 1 5 2 6 3 7 4 8 5 3 6 2 7 1 8
REMARK H PARENT
REMARK Flexibility Score: inf
ROOT
ATOM      1  C   UNL     1     -17.028  44.065  -6.978  1.00  0.00     0.006 C 
ENDROOT
BRANCH   1   2
ATOM      2  C   UNL     1     -17.015  42.755  -7.770  1.00  0.00     0.053 C 
BRANCH   2   3
ATOM      3  C   UNL     1     -17.673  42.940  -9.101  1.00  0.00     0.041 C 
ATOM      4  O   UNL     1     -18.883  42.629  -9.258  1.00  0.00    -0.550 OA
ATOM      5  O   UNL     1     -16.964  43.503 -10.154  1.00  0.00    -0.550 OA
ENDBRANCH   2   3
ENDBRANCH   1   2
BRANCH   1   6
ATOM      6  C   UNL     1     -17.995  43.983  -5.791  1.00  0.00     0.000 C 
BRANCH   6   7
ATOM      7  C   UNL     1     -19.071  45.072  -5.882  1.00  0.00    -0.003 C 
ATOM      8  C   UNL     1     -20.291  44.580  -6.653  1.00  0.00     0.004 C 
ENDBRANCH   6   7
ENDBRANCH   1   6
TORSDOF 4
ENDMDL
MODEL 7
REMARK VINA RESULT:    -3.269      2.500      3.202
REMARK INTER + INTRA:          -4.232
REMARK INTER:                  -4.071
REMARK INTRA:                  -0.161
REMARK UNBOUND:                -0.198
REMARK SMILES CCCCCC(=O)[O-]
REMARK SMILES IDX 4 1 5 2 6 3 7 4 8 5 3 6 2 7 1 8
REMARK H PARENT
REMARK Flexibility Score: inf
ROOT
ATOM      1  C   UNL     1     -17.754  44.236  -5.806  1.00  0.00     0.006 C 
ENDROOT
BRANCH   1   2
ATOM      2  C   UNL     1     -19.034  45.075  -5.838  1.00  0.00     0.053 C 
BRANCH   2   3
ATOM      3  C   UNL     1     -18.708  46.524  -6.019  1.00  0.00     0.041 C 
ATOM      4  O   UNL     1     -19.237  47.179  -6.955  1.00  0.00    -0.550 OA
ATOM      5  O   UNL     1     -17.860  47.162  -5.124  1.00  0.00    -0.550 OA
ENDBRANCH   2   3
ENDBRANCH   1   2
BRANCH   1   6
ATOM      6  C   UNL     1     -17.050  44.252  -7.168  1.00  0.00     0.000 C 
BRANCH   6   7
ATOM      7  C   UNL     1     -17.002  42.846  -7.779  1.00  0.00    -0.003 C 
ATOM      8  C   UNL     1     -17.998  42.710  -8.926  1.00  0.00     0.004 C 
ENDBRANCH   6   7
ENDBRANCH   1   6
TORSDOF 4
ENDMDL
MODEL 8
REMARK VINA RESULT:    -3.255      2.216      2.677
REMARK INTER + INTRA:          -4.214
REMARK INTER:                  -3.954
REMARK INTRA:                  -0.260
REMARK UNBOUND:                -0.198
REMARK SMILES CCCCCC(=O)[O-]
REMARK SMILES IDX 4 1 5 2 6 3 7 4 8 5 3 6 2 7 1 8
REMARK H PARENT
REMARK Flexibility Score: inf
ROOT
ATOM      1  C   UNL     1     -18.287  44.421  -5.706  1.00  0.00     0.006 C 
ENDROOT
BRANCH   1   2
ATOM      2  C   UNL     1     -17.445  45.426  -6.497  1.00  0.00     0.053 C 
BRANCH   2   3
ATOM      3  C   UNL     1     -17.814  46.828  -6.123  1.00  0.00     0.041 C 
ATOM      4  O   UNL     1     -17.564  47.260  -4.967  1.00  0.00    -0.550 OA
ATOM      5  O   UNL     1     -18.387  47.671  -7.066  1.00  0.00    -0.550 OA
ENDBRANCH   2   3
ENDBRANCH   1   2
BRANCH   1   6
ATOM      6  C   UNL     1     -19.782  44.616  -5.984  1.00  0.00     0.000 C 
BRANCH   6   7
ATOM      7  C   UNL     1     -20.122  44.267  -7.438  1.00  0.00    -0.003 C 
ATOM      8  C   UNL     1     -20.863  45.412  -8.120  1.00  0.00     0.004 C 
ENDBRANCH   6   7
ENDBRANCH   1   6
TORSDOF 4
ENDMDL
MODEL 9
REMARK VINA RESULT:    -3.252      2.603      4.090
REMARK INTER + INTRA:          -4.211
REMARK INTER:                  -4.036
REMARK INTRA:                  -0.175
REMARK UNBOUND:                -0.198
REMARK SMILES CCCCCC(=O)[O-]
REMARK SMILES IDX 4 1 5 2 6 3 7 4 8 5 3 6 2 7 1 8
REMARK H PARENT
REMARK Flexibility Score: inf
ROOT
ATOM      1  C   UNL     1     -18.044  43.908  -8.215  1.00  0.00     0.006 C 
ENDROOT
BRANCH   1   2
ATOM      2  C   UNL     1     -18.316  42.718  -9.139  1.00  0.00     0.053 C 
BRANCH   2   3
ATOM      3  C   UNL     1     -19.752  42.698  -9.559  1.00  0.00     0.041 C 
ATOM      4  O   UNL     1     -20.603  43.387  -8.937  1.00  0.00    -0.550 OA
ATOM      5  O   UNL     1     -20.143  41.959 -10.668  1.00  0.00    -0.550 OA
ENDBRANCH   2   3
ENDBRANCH   1   2
BRANCH   1   6
ATOM      6  C   UNL     1     -17.318  43.460  -6.941  1.00  0.00     0.000 C 
BRANCH   6   7
ATOM      7  C   UNL     1     -18.026  43.993  -5.689  1.00  0.00    -0.003 C 
ATOM      8  C   UNL     1     -19.267  44.798  -6.058  1.00  0.00     0.004 C 
ENDBRANCH   6   7
ENDBRANCH   1   6
TORSDOF 4
ENDMDL
