MODEL 1
REMARK VINA RESULT:    -4.010      0.000      0.000
REMARK INTER + INTRA:          -6.609
REMARK INTER:                  -6.120
REMARK INTRA:                  -0.489
REMARK UNBOUND:                -0.489
REMARK SMILES O=C([O-])CCCCCCCCC(=O)[O-]
REMARK SMILES IDX 7 1 6 2 5 3 4 4 2 5 1 6 3 7 8 8 9 9 10 10 11 11 12 12 13 13
REMARK SMILES IDX 14 14
REMARK H PARENT
REMARK Flexibility Score: inf
ROOT
ATOM      1  C   UNL     1     -30.692  21.725  28.062  1.00  0.00     0.000 C 
ENDROOT
BRANCH   1   2
ATOM      2  C   UNL     1     -31.660  22.435  29.020  1.00  0.00     0.000 C 
BRANCH   2   3
ATOM      3  C   UNL     1     -30.906  23.409  29.939  1.00  0.00     0.006 C 
BRANCH   3   4
ATOM      4  C   UNL     1     -31.560  24.797  29.977  1.00  0.00     0.053 C 
BRANCH   4   5
ATOM      5  C   UNL     1     -32.850  24.783  30.738  1.00  0.00     0.041 C 
ATOM      6  O   UNL     1     -33.838  25.443  30.322  1.00  0.00    -0.550 OA
ATOM      7  O   UNL     1     -32.971  24.013  31.888  1.00  0.00    -0.550 OA
ENDBRANCH   4   5
ENDBRANCH   3   4
ENDBRANCH   2   3
ENDBRANCH   1   2
BRANCH   1   8
ATOM      8  C   UNL     1     -29.380  22.501  27.867  1.00  0.00     0.000 C 
BRANCH   8   9
ATOM      9  C   UNL     1     -28.972  22.610  26.387  1.00  0.00     0.000 C 
BRANCH   9  10
ATOM     10  C   UNL     1     -29.374  21.371  25.571  1.00  0.00     0.006 C 
BRANCH  10  11
ATOM     11  C   UNL     1     -29.285  21.608  24.057  1.00  0.00     0.053 C 
BRANCH  11  12
ATOM     12  C   UNL     1     -27.861  21.553  23.604  1.00  0.00     0.041 C 
ATOM     13  O   UNL     1     -27.304  22.583  23.141  1.00  0.00    -0.550 OA
ATOM     14  O   UNL     1     -27.134  20.377  23.737  1.00  0.00    -0.550 OA
ENDBRANCH  11  12
ENDBRANCH  10  11
ENDBRANCH   9  10
ENDBRANCH   8   9
ENDBRANCH   1   8
TORSDOF 9
ENDMDL
MODEL 2
REMARK VINA RESULT:    -3.989      2.700      7.785
REMARK INTER + INTRA:          -6.577
REMARK INTER:                  -6.009
REMARK INTRA:                  -0.568
REMARK UNBOUND:                -0.489
REMARK SMILES O=C([O-])CCCCCCCCC(=O)[O-]
REMARK SMILES IDX 7 1 6 2 5 3 4 4 2 5 1 6 3 7 8 8 9 9 10 10 11 11 12 12 13 13
REMARK SMILES IDX 14 14
REMARK H PARENT
REMARK Flexibility Score: inf
ROOT
ATOM      1  C   UNL     1     -31.443  24.388  29.619  1.00  0.00     0.000 C 
ENDROOT
BRANCH   1   2
ATOM      2  C   UNL     1     -31.995  22.956  29.600  1.00  0.00     0.000 C 
BRANCH   2   3
ATOM      3  C   UNL     1     -31.181  22.067  28.646  1.00  0.00     0.006 C 
BRANCH   3   4
ATOM      4  C   UNL     1     -29.701  21.993  29.044  1.00  0.00     0.053 C 
BRANCH   4   5
ATOM      5  C   UNL     1     -28.798  22.309  27.891  1.00  0.00     0.041 C 
ATOM      6  O   UNL     1     -27.550  22.214  28.020  1.00  0.00    -0.550 OA
ATOM      7  O   UNL     1     -29.339  22.674  26.664  1.00  0.00    -0.550 OA
ENDBRANCH   4   5
ENDBRANCH   3   4
ENDBRANCH   2   3
ENDBRANCH   1   2
BRANCH   1   8
ATOM      8  C   UNL     1     -32.010  25.224  30.778  1.00  0.00     0.000 C 
BRANCH   8   9
ATOM      9  C   UNL     1     -33.539  25.375  30.706  1.00  0.00     0.000 C 
BRANCH   9  10
ATOM     10  C   UNL     1     -34.220  25.149  32.066  1.00  0.00     0.006 C 
BRANCH  10  11
ATOM     11  C   UNL     1     -35.298  24.058  32.011  1.00  0.00     0.053 C 
BRANCH  11  12
ATOM     12  C   UNL     1     -34.864  22.857  32.789  1.00  0.00     0.041 C 
ATOM     13  O   UNL     1     -35.701  22.205  33.467  1.00  0.00    -0.550 OA
ATOM     14  O   UNL     1     -33.544  22.428  32.727  1.00  0.00    -0.550 OA
ENDBRANCH  11  12
ENDBRANCH  10  11
ENDBRANCH   9  10
ENDBRANCH   8   9
ENDBRANCH   1   8
TORSDOF 9
ENDMDL
MODEL 3
REMARK VINA RESULT:    -3.966      1.389      2.188
REMARK INTER + INTRA:          -6.541
REMARK INTER:                  -6.071
REMARK INTRA:                  -0.470
REMARK UNBOUND:                -0.489
REMARK SMILES O=C([O-])CCCCCCCCC(=O)[O-]
REMARK SMILES IDX 7 1 6 2 5 3 4 4 2 5 1 6 3 7 8 8 9 9 10 10 11 11 12 12 13 13
REMARK SMILES IDX 14 14
REMARK H PARENT
REMARK Flexibility Score: inf
ROOT
ATOM      1  C   UNL     1     -31.758  22.848  29.519  1.00  0.00     0.000 C 
ENDROOT
BRANCH   1   2
ATOM      2  C   UNL     1     -31.415  24.345  29.526  1.00  0.00     0.000 C 
BRANCH   2   3
ATOM      3  C   UNL     1     -32.007  25.036  30.765  1.00  0.00     0.006 C 
BRANCH   3   4
ATOM      4  C   UNL     1     -33.527  25.219  30.656  1.00  0.00     0.053 C 
BRANCH   4   5
ATOM      5  C   UNL     1     -34.253  24.514  31.760  1.00  0.00     0.041 C 
ATOM      6  O   UNL     1     -35.509  24.435  31.743  1.00  0.00    -0.550 OA
ATOM      7  O   UNL     1     -33.539  23.914  32.791  1.00  0.00    -0.550 OA
ENDBRANCH   4   5
ENDBRANCH   3   4
ENDBRANCH   2   3
ENDBRANCH   1   2
BRANCH   1   8
ATOM      8  C   UNL     1     -30.896  22.050  28.527  1.00  0.00     0.000 C 
BRANCH   8   9
ATOM      9  C   UNL     1     -29.389  22.282  28.734  1.00  0.00     0.000 C 
BRANCH   9  10
ATOM     10  C   UNL     1     -28.545  21.763  27.558  1.00  0.00     0.006 C 
BRANCH  10  11
ATOM     11  C   UNL     1     -28.630  22.672  26.325  1.00  0.00     0.053 C 
BRANCH  11  12
ATOM     12  C   UNL     1     -28.878  21.859  25.094  1.00  0.00     0.041 C 
ATOM     13  O   UNL     1     -29.874  21.091  25.032  1.00  0.00    -0.550 OA
ATOM     14  O   UNL     1     -28.036  21.984  23.996  1.00  0.00    -0.550 OA
ENDBRANCH  11  12
ENDBRANCH  10  11
ENDBRANCH   9  10
ENDBRANCH   8   9
ENDBRANCH   1   8
TORSDOF 9
ENDMDL
MODEL 4
REMARK VINA RESULT:    -3.961      0.715      7.849
REMARK INTER + INTRA:          -6.534
REMARK INTER:                  -6.223
REMARK INTRA:                  -0.311
REMARK UNBOUND:                -0.489
REMARK SMILES O=C([O-])CCCCCCCCC(=O)[O-]
REMARK SMILES IDX 7 1 6 2 5 3 4 4 2 5 1 6 3 7 8 8 9 9 10 10 11 11 12 12 13 13
REMARK SMILES IDX 14 14
REMARK H PARENT
REMARK Flexibility Score: inf
ROOT
ATOM      1  C   UNL     1     -29.604  22.145  28.269  1.00  0.00     0.000 C 
ENDROOT
BRANCH   1   2
ATOM      2  C   UNL     1     -29.286  22.647  26.853  1.00  0.00     0.000 C 
BRANCH   2   3
ATOM      3  C   UNL     1     -28.705  21.517  25.989  1.00  0.00     0.006 C 
BRANCH   3   4
ATOM      4  C   UNL     1     -29.222  21.565  24.545  1.00  0.00     0.053 C 
BRANCH   4   5
ATOM      5  C   UNL     1     -28.109  21.448  23.550  1.00  0.00     0.041 C 
ATOM      6  O   UNL     1     -27.250  20.535  23.666  1.00  0.00    -0.550 OA
ATOM      7  O   UNL     1     -28.040  22.327  22.476  1.00  0.00    -0.550 OA
ENDBRANCH   4   5
ENDBRANCH   3   4
ENDBRANCH   2   3
ENDBRANCH   1   2
BRANCH   1   8
ATOM      8  C   UNL     1     -31.114  22.077  28.546  1.00  0.00     0.000 C 
BRANCH   8   9
ATOM      9  C   UNL     1     -31.518  22.848  29.815  1.00  0.00     0.000 C 
BRANCH   9  10
ATOM     10  C   UNL     1     -31.599  24.366  29.583  1.00  0.00     0.006 C 
BRANCH  10  11
ATOM     11  C   UNL     1     -31.951  25.140  30.861  1.00  0.00     0.053 C 
BRANCH  11  12
ATOM     12  C   UNL     1     -33.424  25.079  31.117  1.00  0.00     0.041 C 
ATOM     13  O   UNL     1     -33.875  24.365  32.050  1.00  0.00    -0.550 OA
ATOM     14  O   UNL     1     -34.294  25.849  30.356  1.00  0.00    -0.550 OA
ENDBRANCH  11  12
ENDBRANCH  10  11
ENDBRANCH   9  10
ENDBRANCH   8   9
ENDBRANCH   1   8
TORSDOF 9
ENDMDL
MODEL 5
REMARK VINA RESULT:    -3.926      1.445      7.778
REMARK INTER + INTRA:          -6.481
REMARK INTER:                  -6.124
REMARK INTRA:                  -0.357
REMARK UNBOUND:                -0.489
REMARK SMILES O=C([O-])CCCCCCCCC(=O)[O-]
REMARK SMILES IDX 7 1 6 2 5 3 4 4 2 5 1 6 3 7 8 8 9 9 10 10 11 11 12 12 13 13
REMARK SMILES IDX 14 14
REMARK H PARENT
REMARK Flexibility Score: inf
ROOT
ATOM      1  C   UNL     1     -31.165  22.105  28.709  1.00  0.00     0.000 C 
ENDROOT
BRANCH   1   2
ATOM      2  C   UNL     1     -29.670  22.372  28.479  1.00  0.00     0.000 C 
BRANCH   2   3
ATOM      3  C   UNL     1     -29.399  22.741  27.012  1.00  0.00     0.006 C 
BRANCH   3   4
ATOM      4  C   UNL     1     -28.506  21.708  26.309  1.00  0.00     0.053 C 
BRANCH   4   5
ATOM      5  C   UNL     1     -28.776  21.650  24.837  1.00  0.00     0.041 C 
ATOM      6  O   UNL     1     -27.909  22.053  24.018  1.00  0.00    -0.550 OA
ATOM      7  O   UNL     1     -29.972  21.118  24.369  1.00  0.00    -0.550 OA
ENDBRANCH   4   5
ENDBRANCH   3   4
ENDBRANCH   2   3
ENDBRANCH   1   2
BRANCH   1   8
ATOM      8  C   UNL     1     -31.743  22.939  29.863  1.00  0.00     0.000 C 
BRANCH   8   9
ATOM      9  C   UNL     1     -31.561  24.451  29.649  1.00  0.00     0.000 C 
BRANCH   9  10
ATOM     10  C   UNL     1     -32.086  25.283  30.830  1.00  0.00     0.006 C 
BRANCH  10  11
ATOM     11  C   UNL     1     -33.616  25.411  30.826  1.00  0.00     0.053 C 
BRANCH  11  12
ATOM     12  C   UNL     1     -34.189  24.850  32.089  1.00  0.00     0.041 C 
ATOM     13  O   UNL     1     -34.307  25.578  33.109  1.00  0.00    -0.550 OA
ATOM     14  O   UNL     1     -34.638  23.536  32.125  1.00  0.00    -0.550 OA
ENDBRANCH  11  12
ENDBRANCH  10  11
ENDBRANCH   9  10
ENDBRANCH   8   9
ENDBRANCH   1   8
TORSDOF 9
ENDMDL
MODEL 6
REMARK VINA RESULT:    -3.897      0.671      7.636
REMARK INTER + INTRA:          -6.437
REMARK INTER:                  -6.126
REMARK INTRA:                  -0.311
REMARK UNBOUND:                -0.489
REMARK SMILES O=C([O-])CCCCCCCCC(=O)[O-]
REMARK SMILES IDX 7 1 6 2 5 3 4 4 2 5 1 6 3 7 8 8 9 9 10 10 11 11 12 12 13 13
REMARK SMILES IDX 14 14
REMARK H PARENT
REMARK Flexibility Score: inf
ROOT
ATOM      1  C   UNL     1     -30.737  21.211  27.293  1.00  0.00     0.000 C 
ENDROOT
BRANCH   1   2
ATOM      2  C   UNL     1     -30.222  20.682  25.947  1.00  0.00     0.000 C 
BRANCH   2   3
ATOM      3  C   UNL     1     -29.177  21.637  25.347  1.00  0.00     0.006 C 
BRANCH   3   4
ATOM      4  C   UNL     1     -29.091  21.517  23.819  1.00  0.00     0.053 C 
BRANCH   4   5
ATOM      5  C   UNL     1     -27.675  21.580  23.335  1.00  0.00     0.041 C 
ATOM      6  O   UNL     1     -27.090  22.689  23.231  1.00  0.00    -0.550 OA
ATOM      7  O   UNL     1     -26.990  20.408  23.033  1.00  0.00    -0.550 OA
ENDBRANCH   4   5
ENDBRANCH   3   4
ENDBRANCH   2   3
ENDBRANCH   1   2
BRANCH   1   8
ATOM      8  C   UNL     1     -29.912  22.397  27.817  1.00  0.00     0.000 C 
BRANCH   8   9
ATOM      9  C   UNL     1     -30.194  22.706  29.297  1.00  0.00     0.000 C 
BRANCH   9  10
ATOM     10  C   UNL     1     -31.625  23.218  29.531  1.00  0.00     0.006 C 
BRANCH  10  11
ATOM     11  C   UNL     1     -31.662  24.698  29.936  1.00  0.00     0.053 C 
BRANCH  11  12
ATOM     12  C   UNL     1     -32.861  24.976  30.785  1.00  0.00     0.041 C 
ATOM     13  O   UNL     1     -33.894  25.484  30.275  1.00  0.00    -0.550 OA
ATOM     14  O   UNL     1     -32.856  24.630  32.130  1.00  0.00    -0.550 OA
ENDBRANCH  11  12
ENDBRANCH  10  11
ENDBRANCH   9  10
ENDBRANCH   8   9
ENDBRANCH   1   8
TORSDOF 9
ENDMDL
MODEL 7
REMARK VINA RESULT:    -3.816      2.358      7.773
REMARK INTER + INTRA:          -6.313
REMARK INTER:                  -6.011
REMARK INTRA:                  -0.301
REMARK UNBOUND:                -0.489
REMARK SMILES O=C([O-])CCCCCCCCC(=O)[O-]
REMARK SMILES IDX 7 1 6 2 5 3 4 4 2 5 1 6 3 7 8 8 9 9 10 10 11 11 12 12 13 13
REMARK SMILES IDX 14 14
REMARK H PARENT
REMARK Flexibility Score: inf
ROOT
ATOM      1  C   UNL     1     -30.802  22.184  28.545  1.00  0.00     0.000 C 
ENDROOT
BRANCH   1   2
ATOM      2  C   UNL     1     -29.705  22.475  27.510  1.00  0.00     0.000 C 
BRANCH   2   3
ATOM      3  C   UNL     1     -29.682  21.396  26.417  1.00  0.00     0.006 C 
BRANCH   3   4
ATOM      4  C   UNL     1     -30.858  20.417  26.543  1.00  0.00     0.053 C 
BRANCH   4   5
ATOM      5  C   UNL     1     -31.454  20.089  25.208  1.00  0.00     0.041 C 
ATOM      6  O   UNL     1     -30.774  20.231  24.159  1.00  0.00    -0.550 OA
ATOM      7  O   UNL     1     -32.751  19.595  25.128  1.00  0.00    -0.550 OA
ENDBRANCH   4   5
ENDBRANCH   3   4
ENDBRANCH   2   3
ENDBRANCH   1   2
BRANCH   1   8
ATOM      8  C   UNL     1     -30.918  23.287  29.609  1.00  0.00     0.000 C 
BRANCH   8   9
ATOM      9  C   UNL     1     -32.324  23.907  29.666  1.00  0.00     0.000 C 
BRANCH   9  10
ATOM     10  C   UNL     1     -32.400  25.111  30.620  1.00  0.00     0.006 C 
BRANCH  10  11
ATOM     11  C   UNL     1     -33.833  25.634  30.795  1.00  0.00     0.053 C 
BRANCH  11  12
ATOM     12  C   UNL     1     -34.453  25.051  32.025  1.00  0.00     0.041 C 
ATOM     13  O   UNL     1     -35.371  24.195  31.926  1.00  0.00    -0.550 OA
ATOM     14  O   UNL     1     -33.985  25.417  33.280  1.00  0.00    -0.550 OA
ENDBRANCH  11  12
ENDBRANCH  10  11
ENDBRANCH   9  10
ENDBRANCH   8   9
ENDBRANCH   1   8
TORSDOF 9
ENDMDL
MODEL 8
REMARK VINA RESULT:    -3.805     15.206     15.872
REMARK INTER + INTRA:          -6.296
REMARK INTER:                  -5.982
REMARK INTRA:                  -0.314
REMARK UNBOUND:                -0.489
REMARK SMILES O=C([O-])CCCCCCCCC(=O)[O-]
REMARK SMILES IDX 7 1 6 2 5 3 4 4 2 5 1 6 3 7 8 8 9 9 10 10 11 11 12 12 13 13
REMARK SMILES IDX 14 14
REMARK H PARENT
REMARK Flexibility Score: inf
ROOT
ATOM      1  C   UNL     1     -44.503  26.326  24.158  1.00  0.00     0.000 C 
ENDROOT
BRANCH   1   2
ATOM      2  C   UNL     1     -44.364  27.829  23.873  1.00  0.00     0.000 C 
BRANCH   2   3
ATOM      3  C   UNL     1     -43.632  28.539  25.023  1.00  0.00     0.006 C 
BRANCH   3   4
ATOM      4  C   UNL     1     -44.567  29.446  25.835  1.00  0.00     0.053 C 
BRANCH   4   5
ATOM      5  C   UNL     1     -44.309  30.896  25.564  1.00  0.00     0.041 C 
ATOM      6  O   UNL     1     -44.343  31.732  26.504  1.00  0.00    -0.550 OA
ATOM      7  O   UNL     1     -43.996  31.319  24.277  1.00  0.00    -0.550 OA
ENDBRANCH   4   5
ENDBRANCH   3   4
ENDBRANCH   2   3
ENDBRANCH   1   2
BRANCH   1   8
ATOM      8  C   UNL     1     -44.608  25.489  22.873  1.00  0.00     0.000 C 
BRANCH   8   9
ATOM      9  C   UNL     1     -44.799  26.356  21.616  1.00  0.00     0.000 C 
BRANCH   9  10
ATOM     10  C   UNL     1     -44.108  25.763  20.378  1.00  0.00     0.006 C 
BRANCH  10  11
ATOM     11  C   UNL     1     -45.108  25.256  19.330  1.00  0.00     0.053 C 
BRANCH  11  12
ATOM     12  C   UNL     1     -44.399  24.486  18.262  1.00  0.00     0.041 C 
ATOM     13  O   UNL     1     -43.171  24.230  18.376  1.00  0.00    -0.550 OA
ATOM     14  O   UNL     1     -45.104  24.009  17.164  1.00  0.00    -0.550 OA
ENDBRANCH  11  12
ENDBRANCH  10  11
ENDBRANCH   9  10
ENDBRANCH   8   9
ENDBRANCH   1   8
TORSDOF 9
ENDMDL
MODEL 9
REMARK VINA RESULT:    -3.799      3.238      3.603
REMARK INTER + INTRA:          -6.287
REMARK INTER:                  -5.916
REMARK INTRA:                  -0.371
REMARK UNBOUND:                -0.489
REMARK SMILES O=C([O-])CCCCCCCCC(=O)[O-]
REMARK SMILES IDX 7 1 6 2 5 3 4 4 2 5 1 6 3 7 8 8 9 9 10 10 11 11 12 12 13 13
REMARK SMILES IDX 14 14
REMARK H PARENT
REMARK Flexibility Score: inf
ROOT
ATOM      1  C   UNL     1     -29.734  22.264  27.688  1.00  0.00     0.000 C 
ENDROOT
BRANCH   1   2
ATOM      2  C   UNL     1     -30.130  22.386  29.167  1.00  0.00     0.000 C 
BRANCH   2   3
ATOM      3  C   UNL     1     -31.598  22.820  29.308  1.00  0.00     0.006 C 
BRANCH   3   4
ATOM      4  C   UNL     1     -31.731  24.296  29.704  1.00  0.00     0.053 C 
BRANCH   4   5
ATOM      5  C   UNL     1     -32.792  24.500  30.741  1.00  0.00     0.041 C 
ATOM      6  O   UNL     1     -33.112  23.559  31.513  1.00  0.00    -0.550 OA
ATOM      7  O   UNL     1     -33.403  25.741  30.878  1.00  0.00    -0.550 OA
ENDBRANCH   4   5
ENDBRANCH   3   4
ENDBRANCH   2   3
ENDBRANCH   1   2
BRANCH   1   8
ATOM      8  C   UNL     1     -29.804  20.817  27.175  1.00  0.00     0.000 C 
BRANCH   8   9
ATOM      9  C   UNL     1     -31.140  20.499  26.483  1.00  0.00     0.000 C 
BRANCH   9  10
ATOM     10  C   UNL     1     -30.997  19.432  25.384  1.00  0.00     0.006 C 
BRANCH  10  11
ATOM     11  C   UNL     1     -31.890  19.715  24.168  1.00  0.00     0.053 C 
BRANCH  11  12
ATOM     12  C   UNL     1     -33.332  19.574  24.537  1.00  0.00     0.041 C 
ATOM     13  O   UNL     1     -34.117  20.550  24.409  1.00  0.00    -0.550 OA
ATOM     14  O   UNL     1     -33.821  18.350  24.976  1.00  0.00    -0.550 OA
ENDBRANCH  11  12
ENDBRANCH  10  11
ENDBRANCH   9  10
ENDBRANCH   8   9
ENDBRANCH   1   8
TORSDOF 9
ENDMDL
