MODEL 1
REMARK VINA RESULT:    -5.275      0.000      0.000
REMARK INTER + INTRA:          -5.275
REMARK INTER:                  -5.275
REMARK INTRA:                   0.000
REMARK UNBOUND:                 0.000
REMARK SMILES C=C1CCC[C@]2(C)C=C3OC(=O)C(C)=C3C[C@H]12
REMARK SMILES IDX 14 1 13 2 15 3 16 4 17 5 2 6 1 7 3 8 4 9 5 10 6 11 8 12 9 13
REMARK SMILES IDX 10 14 11 15 12 16 7 17
REMARK H PARENT
REMARK Flexibility Score: inf
ROOT
ATOM      1  C   UNL     1     479.034  34.966 460.362  1.00  0.00     0.053 C 
ATOM      2  C   UNL     1     478.039  35.619 461.268  1.00  0.00     0.041 C 
ATOM      3  C   UNL     1     477.723  36.912 461.298  1.00  0.00     0.005 C 
ATOM      4  C   UNL     1     478.212  38.021 460.430  1.00  0.00     0.049 C 
ATOM      5  C   UNL     1     477.975  39.395 461.132  1.00  0.00     0.029 C 
ATOM      6  C   UNL     1     479.082  39.716 462.150  1.00  0.00    -0.073 C 
ATOM      7  C   UNL     1     480.367  39.723 461.751  1.00  0.00     0.008 C 
ATOM      8  C   UNL     1     478.810  40.249 463.547  1.00  0.00     0.031 C 
ATOM      9  C   UNL     1     477.336  40.405 463.931  1.00  0.00     0.005 C 
ATOM     10  C   UNL     1     476.446  40.689 462.721  1.00  0.00     0.012 C 
ATOM     11  C   UNL     1     476.503  39.526 461.708  1.00  0.00    -0.004 C 
ATOM     12  C   UNL     1     476.006  38.252 462.395  1.00  0.00     0.027 C 
ATOM     13  C   UNL     1     476.591  37.081 462.179  1.00  0.00     0.131 C 
ATOM     14  O   UNL     1     476.213  35.862 462.721  1.00  0.00    -0.423 OA
ATOM     15  C   UNL     1     477.096  34.945 462.165  1.00  0.00     0.339 C 
ATOM     16  O   UNL     1     477.064  33.708 462.398  1.00  0.00    -0.246 OA
ATOM     17  C   UNL     1     475.522  39.837 460.557  1.00  0.00     0.016 C 
ENDROOT
TORSDOF 0
ENDMDL
MODEL 2
REMARK VINA RESULT:    -4.936      2.017      3.559
REMARK INTER + INTRA:          -4.936
REMARK INTER:                  -4.936
REMARK INTRA:                   0.000
REMARK UNBOUND:                 0.000
REMARK SMILES C=C1CCC[C@]2(C)C=C3OC(=O)C(C)=C3C[C@H]12
REMARK SMILES IDX 14 1 13 2 15 3 16 4 17 5 2 6 1 7 3 8 4 9 5 10 6 11 8 12 9 13
REMARK SMILES IDX 10 14 11 15 12 16 7 17
REMARK H PARENT
REMARK Flexibility Score: inf
ROOT
ATOM      1  C   UNL     1     477.724  34.619 461.680  1.00  0.00     0.053 C 
ATOM      2  C   UNL     1     478.424  35.638 460.837  1.00  0.00     0.041 C 
ATOM      3  C   UNL     1     478.439  36.954 461.033  1.00  0.00     0.005 C 
ATOM      4  C   UNL     1     477.834  37.748 462.141  1.00  0.00     0.049 C 
ATOM      5  C   UNL     1     477.667  39.237 461.705  1.00  0.00     0.029 C 
ATOM      6  C   UNL     1     476.394  39.450 460.870  1.00  0.00    -0.073 C 
ATOM      7  C   UNL     1     475.202  39.078 461.372  1.00  0.00     0.008 C 
ATOM      8  C   UNL     1     476.357  40.263 459.586  1.00  0.00     0.031 C 
ATOM      9  C   UNL     1     477.697  40.833 459.114  1.00  0.00     0.005 C 
ATOM     10  C   UNL     1     478.652  41.114 460.274  1.00  0.00     0.012 C 
ATOM     11  C   UNL     1     478.986  39.816 461.040  1.00  0.00    -0.004 C 
ATOM     12  C   UNL     1     479.659  38.836 460.076  1.00  0.00     0.027 C 
ATOM     13  C   UNL     1     479.381  37.540 460.109  1.00  0.00     0.131 C 
ATOM     14  O   UNL     1     479.945  36.559 459.307  1.00  0.00    -0.423 OA
ATOM     15  C   UNL     1     479.367  35.374 459.747  1.00  0.00     0.339 C 
ATOM     16  O   UNL     1     479.642  34.241 459.274  1.00  0.00    -0.246 OA
ATOM     17  C   UNL     1     480.015  40.155 462.140  1.00  0.00     0.016 C 
ENDROOT
TORSDOF 0
ENDMDL
MODEL 3
REMARK VINA RESULT:    -4.783      2.048      2.885
REMARK INTER + INTRA:          -4.783
REMARK INTER:                  -4.783
REMARK INTRA:                   0.000
REMARK UNBOUND:                 0.000
REMARK SMILES C=C1CCC[C@]2(C)C=C3OC(=O)C(C)=C3C[C@H]12
REMARK SMILES IDX 14 1 13 2 15 3 16 4 17 5 2 6 1 7 3 8 4 9 5 10 6 11 8 12 9 13
REMARK SMILES IDX 10 14 11 15 12 16 7 17
REMARK H PARENT
REMARK Flexibility Score: inf
ROOT
ATOM      1  C   UNL     1     479.442  34.631 459.123  1.00  0.00     0.053 C 
ATOM      2  C   UNL     1     479.075  35.688 460.117  1.00  0.00     0.041 C 
ATOM      3  C   UNL     1     479.306  36.994 460.007  1.00  0.00     0.005 C 
ATOM      4  C   UNL     1     479.919  37.750 458.877  1.00  0.00     0.049 C 
ATOM      5  C   UNL     1     480.439  39.134 459.378  1.00  0.00     0.029 C 
ATOM      6  C   UNL     1     481.822  39.020 460.040  1.00  0.00    -0.073 C 
ATOM      7  C   UNL     1     482.841  38.469 459.355  1.00  0.00     0.008 C 
ATOM      8  C   UNL     1     482.184  39.692 461.354  1.00  0.00     0.031 C 
ATOM      9  C   UNL     1     481.057  40.468 462.043  1.00  0.00     0.005 C 
ATOM     10  C   UNL     1     480.044  41.032 461.046  1.00  0.00     0.012 C 
ATOM     11  C   UNL     1     479.359  39.897 460.255  1.00  0.00    -0.004 C 
ATOM     12  C   UNL     1     478.624  38.985 461.240  1.00  0.00     0.027 C 
ATOM     13  C   UNL     1     478.625  37.667 461.088  1.00  0.00     0.131 C 
ATOM     14  O   UNL     1     477.975  36.747 461.898  1.00  0.00    -0.423 OA
ATOM     15  C   UNL     1     478.240  35.517 461.309  1.00  0.00     0.339 C 
ATOM     16  O   UNL     1     477.800  34.421 461.744  1.00  0.00    -0.246 OA
ATOM     17  C   UNL     1     478.294  40.526 459.331  1.00  0.00     0.016 C 
ENDROOT
TORSDOF 0
ENDMDL
MODEL 4
REMARK VINA RESULT:    -4.687      6.430      8.317
REMARK INTER + INTRA:          -4.687
REMARK INTER:                  -4.687
REMARK INTRA:                   0.000
REMARK UNBOUND:                 0.000
REMARK SMILES C=C1CCC[C@]2(C)C=C3OC(=O)C(C)=C3C[C@H]12
REMARK SMILES IDX 14 1 13 2 15 3 16 4 17 5 2 6 1 7 3 8 4 9 5 10 6 11 8 12 9 13
REMARK SMILES IDX 10 14 11 15 12 16 7 17
REMARK H PARENT
REMARK Flexibility Score: inf
ROOT
ATOM      1  C   UNL     1     484.794  41.412 459.716  1.00  0.00     0.053 C 
ATOM      2  C   UNL     1     484.479  40.092 459.085  1.00  0.00     0.041 C 
ATOM      3  C   UNL     1     483.803  39.895 457.956  1.00  0.00     0.005 C 
ATOM      4  C   UNL     1     483.241  40.898 457.007  1.00  0.00     0.049 C 
ATOM      5  C   UNL     1     482.129  40.243 456.130  1.00  0.00     0.029 C 
ATOM      6  C   UNL     1     480.778  40.193 456.862  1.00  0.00    -0.073 C 
ATOM      7  C   UNL     1     480.244  41.330 457.344  1.00  0.00     0.008 C 
ATOM      8  C   UNL     1     479.881  38.966 456.889  1.00  0.00     0.031 C 
ATOM      9  C   UNL     1     480.425  37.722 456.182  1.00  0.00     0.005 C 
ATOM     10  C   UNL     1     481.356  38.072 455.021  1.00  0.00     0.012 C 
ATOM     11  C   UNL     1     482.591  38.852 455.520  1.00  0.00    -0.004 C 
ATOM     12  C   UNL     1     483.355  37.978 456.517  1.00  0.00     0.027 C 
ATOM     13  C   UNL     1     483.892  38.495 457.614  1.00  0.00     0.131 C 
ATOM     14  O   UNL     1     484.626  37.809 458.570  1.00  0.00    -0.423 OA
ATOM     15  C   UNL     1     485.001  38.783 459.487  1.00  0.00     0.339 C 
ATOM     16  O   UNL     1     485.705  38.555 460.505  1.00  0.00    -0.246 OA
ATOM     17  C   UNL     1     483.526  39.100 454.317  1.00  0.00     0.016 C 
ENDROOT
TORSDOF 0
ENDMDL
MODEL 5
REMARK VINA RESULT:    -4.657      4.338      6.950
REMARK INTER + INTRA:          -4.657
REMARK INTER:                  -4.657
REMARK INTRA:                   0.000
REMARK UNBOUND:                 0.000
REMARK SMILES C=C1CCC[C@]2(C)C=C3OC(=O)C(C)=C3C[C@H]12
REMARK SMILES IDX 14 1 13 2 15 3 16 4 17 5 2 6 1 7 3 8 4 9 5 10 6 11 8 12 9 13
REMARK SMILES IDX 10 14 11 15 12 16 7 17
REMARK H PARENT
REMARK Flexibility Score: inf
ROOT
ATOM      1  C   UNL     1     479.832  38.907 463.683  1.00  0.00     0.053 C 
ATOM      2  C   UNL     1     481.328  38.933 463.679  1.00  0.00     0.041 C 
ATOM      3  C   UNL     1     482.108  39.485 462.753  1.00  0.00     0.005 C 
ATOM      4  C   UNL     1     481.725  40.255 461.535  1.00  0.00     0.049 C 
ATOM      5  C   UNL     1     482.905  40.264 460.513  1.00  0.00     0.029 C 
ATOM      6  C   UNL     1     482.946  38.976 459.675  1.00  0.00    -0.073 C 
ATOM      7  C   UNL     1     481.856  38.605 458.977  1.00  0.00     0.008 C 
ATOM      8  C   UNL     1     484.218  38.192 459.399  1.00  0.00     0.031 C 
ATOM      9  C   UNL     1     485.492  38.727 460.059  1.00  0.00     0.005 C 
ATOM     10  C   UNL     1     485.450  40.242 460.266  1.00  0.00     0.012 C 
ATOM     11  C   UNL     1     484.286  40.639 461.199  1.00  0.00    -0.004 C 
ATOM     12  C   UNL     1     484.492  39.964 462.556  1.00  0.00     0.027 C 
ATOM     13  C   UNL     1     483.471  39.452 463.231  1.00  0.00     0.131 C 
ATOM     14  O   UNL     1     483.532  38.844 464.476  1.00  0.00    -0.423 OA
ATOM     15  C   UNL     1     482.214  38.520 464.771  1.00  0.00     0.339 C 
ATOM     16  O   UNL     1     481.849  37.964 465.840  1.00  0.00    -0.246 OA
ATOM     17  C   UNL     1     484.351  42.164 461.431  1.00  0.00     0.016 C 
ENDROOT
TORSDOF 0
ENDMDL
MODEL 6
REMARK VINA RESULT:    -4.626      2.711      4.724
REMARK INTER + INTRA:          -4.626
REMARK INTER:                  -4.626
REMARK INTRA:                   0.000
REMARK UNBOUND:                 0.000
REMARK SMILES C=C1CCC[C@]2(C)C=C3OC(=O)C(C)=C3C[C@H]12
REMARK SMILES IDX 14 1 13 2 15 3 16 4 17 5 2 6 1 7 3 8 4 9 5 10 6 11 8 12 9 13
REMARK SMILES IDX 10 14 11 15 12 16 7 17
REMARK H PARENT
REMARK Flexibility Score: inf
ROOT
ATOM      1  C   UNL     1     476.805  37.415 462.213  1.00  0.00     0.053 C 
ATOM      2  C   UNL     1     477.792  36.912 461.207  1.00  0.00     0.041 C 
ATOM      3  C   UNL     1     478.584  37.652 460.436  1.00  0.00     0.005 C 
ATOM      4  C   UNL     1     478.748  39.134 460.400  1.00  0.00     0.049 C 
ATOM      5  C   UNL     1     479.378  39.571 459.041  1.00  0.00     0.029 C 
ATOM      6  C   UNL     1     478.324  39.670 457.926  1.00  0.00    -0.073 C 
ATOM      7  C   UNL     1     477.245  40.456 458.102  1.00  0.00     0.008 C 
ATOM      8  C   UNL     1     478.521  39.105 456.529  1.00  0.00     0.031 C 
ATOM      9  C   UNL     1     479.836  38.360 456.287  1.00  0.00     0.005 C 
ATOM     10  C   UNL     1     480.974  38.883 457.164  1.00  0.00     0.012 C 
ATOM     11  C   UNL     1     480.646  38.696 458.661  1.00  0.00    -0.004 C 
ATOM     12  C   UNL     1     480.458  37.203 458.940  1.00  0.00     0.027 C 
ATOM     13  C   UNL     1     479.506  36.771 459.756  1.00  0.00     0.131 C 
ATOM     14  O   UNL     1     479.259  35.452 460.105  1.00  0.00    -0.423 OA
ATOM     15  C   UNL     1     478.204  35.520 461.005  1.00  0.00     0.339 C 
ATOM     16  O   UNL     1     477.697  34.516 461.571  1.00  0.00    -0.246 OA
ATOM     17  C   UNL     1     481.864  39.166 459.485  1.00  0.00     0.016 C 
ENDROOT
TORSDOF 0
ENDMDL
MODEL 7
REMARK VINA RESULT:    -4.572      3.862      5.551
REMARK INTER + INTRA:          -4.572
REMARK INTER:                  -4.572
REMARK INTRA:                   0.000
REMARK UNBOUND:                 0.000
REMARK SMILES C=C1CCC[C@]2(C)C=C3OC(=O)C(C)=C3C[C@H]12
REMARK SMILES IDX 14 1 13 2 15 3 16 4 17 5 2 6 1 7 3 8 4 9 5 10 6 11 8 12 9 13
REMARK SMILES IDX 10 14 11 15 12 16 7 17
REMARK H PARENT
REMARK Flexibility Score: inf
ROOT
ATOM      1  C   UNL     1     484.651  39.577 461.634  1.00  0.00     0.053 C 
ATOM      2  C   UNL     1     483.651  39.079 460.639  1.00  0.00     0.041 C 
ATOM      3  C   UNL     1     482.347  39.345 460.625  1.00  0.00     0.005 C 
ATOM      4  C   UNL     1     481.556  40.228 461.529  1.00  0.00     0.049 C 
ATOM      5  C   UNL     1     480.044  39.848 461.461  1.00  0.00     0.029 C 
ATOM      6  C   UNL     1     479.715  38.647 462.362  1.00  0.00    -0.073 C 
ATOM      7  C   UNL     1     480.024  38.697 463.671  1.00  0.00     0.008 C 
ATOM      8  C   UNL     1     478.854  37.475 461.920  1.00  0.00     0.031 C 
ATOM      9  C   UNL     1     478.359  37.515 460.472  1.00  0.00     0.005 C 
ATOM     10  C   UNL     1     478.186  38.943 459.954  1.00  0.00     0.012 C 
ATOM     11  C   UNL     1     479.531  39.701 459.966  1.00  0.00    -0.004 C 
ATOM     12  C   UNL     1     480.518  38.964 459.057  1.00  0.00     0.027 C 
ATOM     13  C   UNL     1     481.793  38.826 459.396  1.00  0.00     0.131 C 
ATOM     14  O   UNL     1     482.780  38.207 458.644  1.00  0.00    -0.423 OA
ATOM     15  C   UNL     1     483.937  38.357 459.396  1.00  0.00     0.339 C 
ATOM     16  O   UNL     1     485.069  37.939 459.036  1.00  0.00    -0.246 OA
ATOM     17  C   UNL     1     479.304  41.100 459.357  1.00  0.00     0.016 C 
ENDROOT
TORSDOF 0
ENDMDL
MODEL 8
REMARK VINA RESULT:    -4.527      6.860      8.080
REMARK INTER + INTRA:          -4.527
REMARK INTER:                  -4.527
REMARK INTRA:                   0.000
REMARK UNBOUND:                 0.000
REMARK SMILES C=C1CCC[C@]2(C)C=C3OC(=O)C(C)=C3C[C@H]12
REMARK SMILES IDX 14 1 13 2 15 3 16 4 17 5 2 6 1 7 3 8 4 9 5 10 6 11 8 12 9 13
REMARK SMILES IDX 10 14 11 15 12 16 7 17
REMARK H PARENT
REMARK Flexibility Score: inf
ROOT
ATOM      1  C   UNL     1     482.152  40.326 457.215  1.00  0.00     0.053 C 
ATOM      2  C   UNL     1     483.248  39.742 458.048  1.00  0.00     0.041 C 
ATOM      3  C   UNL     1     483.537  40.054 459.309  1.00  0.00     0.005 C 
ATOM      4  C   UNL     1     482.840  40.996 460.230  1.00  0.00     0.049 C 
ATOM      5  C   UNL     1     483.794  41.416 461.392  1.00  0.00     0.029 C 
ATOM      6  C   UNL     1     484.746  42.547 460.970  1.00  0.00    -0.073 C 
ATOM      7  C   UNL     1     484.238  43.692 460.479  1.00  0.00     0.008 C 
ATOM      8  C   UNL     1     486.235  42.550 461.275  1.00  0.00     0.031 C 
ATOM      9  C   UNL     1     486.775  41.312 461.995  1.00  0.00     0.005 C 
ATOM     10  C   UNL     1     485.723  40.650 462.886  1.00  0.00     0.012 C 
ATOM     11  C   UNL     1     484.518  40.167 462.051  1.00  0.00    -0.004 C 
ATOM     12  C   UNL     1     485.010  39.142 461.026  1.00  0.00     0.027 C 
ATOM     13  C   UNL     1     484.535  39.125 459.788  1.00  0.00     0.131 C 
ATOM     14  O   UNL     1     484.883  38.231 458.787  1.00  0.00    -0.423 OA
ATOM     15  C   UNL     1     484.093  38.595 457.704  1.00  0.00     0.339 C 
ATOM     16  O   UNL     1     484.104  37.999 456.595  1.00  0.00    -0.246 OA
ATOM     17  C   UNL     1     483.537  39.438 462.994  1.00  0.00     0.016 C 
ENDROOT
TORSDOF 0
ENDMDL
MODEL 9
REMARK VINA RESULT:    -4.386      6.096      8.208
REMARK INTER + INTRA:          -4.386
REMARK INTER:                  -4.386
REMARK INTRA:                   0.000
REMARK UNBOUND:                 0.000
REMARK SMILES C=C1CCC[C@]2(C)C=C3OC(=O)C(C)=C3C[C@H]12
REMARK SMILES IDX 14 1 13 2 15 3 16 4 17 5 2 6 1 7 3 8 4 9 5 10 6 11 8 12 9 13
REMARK SMILES IDX 10 14 11 15 12 16 7 17
REMARK H PARENT
REMARK Flexibility Score: inf
ROOT
ATOM      1  C   UNL     1     483.098  39.616 454.744  1.00  0.00     0.053 C 
ATOM      2  C   UNL     1     483.410  40.340 456.016  1.00  0.00     0.041 C 
ATOM      3  C   UNL     1     483.466  39.811 457.236  1.00  0.00     0.005 C 
ATOM      4  C   UNL     1     483.297  38.390 457.655  1.00  0.00     0.049 C 
ATOM      5  C   UNL     1     482.946  38.317 459.174  1.00  0.00     0.029 C 
ATOM      6  C   UNL     1     481.449  38.560 459.427  1.00  0.00    -0.073 C 
ATOM      7  C   UNL     1     480.538  37.791 458.801  1.00  0.00     0.008 C 
ATOM      8  C   UNL     1     480.918  39.475 460.518  1.00  0.00     0.031 C 
ATOM      9  C   UNL     1     481.973  40.214 461.346  1.00  0.00     0.005 C 
ATOM     10  C   UNL     1     483.285  39.435 461.449  1.00  0.00     0.012 C 
ATOM     11  C   UNL     1     483.910  39.219 460.054  1.00  0.00    -0.004 C 
ATOM     12  C   UNL     1     484.199  40.586 459.429  1.00  0.00     0.027 C 
ATOM     13  C   UNL     1     483.983  40.811 458.140  1.00  0.00     0.131 C 
ATOM     14  O   UNL     1     484.232  41.995 457.461  1.00  0.00    -0.423 OA
ATOM     15  C   UNL     1     483.887  41.720 456.144  1.00  0.00     0.339 C 
ATOM     16  O   UNL     1     483.992  42.549 455.202  1.00  0.00    -0.246 OA
ATOM     17  C   UNL     1     485.265  38.503 460.237  1.00  0.00     0.016 C 
ENDROOT
TORSDOF 0
ENDMDL
