MODEL 1
REMARK VINA RESULT:    -3.939      0.000      0.000
REMARK INTER + INTRA:          -3.939
REMARK INTER:                  -3.939
REMARK INTRA:                   0.000
REMARK UNBOUND:                 0.000
REMARK SMILES O=C1CCCCC1
REMARK SMILES IDX 5 1 4 2 3 3 2 4 1 5 7 6 6 7
REMARK H PARENT
REMARK Flexibility Score: inf
ROOT
ATOM      1  C   UNL     1      16.051  42.010 -13.680  1.00  0.00     0.001 C 
ATOM      2  C   UNL     1      16.461  43.049 -14.734  1.00  0.00     0.008 C 
ATOM      3  C   UNL     1      15.269  43.911 -15.164  1.00  0.00     0.075 C 
ATOM      4  C   UNL     1      14.560  44.465 -13.958  1.00  0.00     0.132 C 
ATOM      5  O   UNL     1      14.192  45.630 -13.940  1.00  0.00    -0.300 OA
ATOM      6  C   UNL     1      14.226  43.545 -12.816  1.00  0.00     0.075 C 
ATOM      7  C   UNL     1      15.445  42.692 -12.444  1.00  0.00     0.008 C 
ENDROOT
TORSDOF 0
ENDMDL
MODEL 2
REMARK VINA RESULT:    -3.862      1.564      2.760
REMARK INTER + INTRA:          -3.862
REMARK INTER:                  -3.862
REMARK INTRA:                   0.000
REMARK UNBOUND:                 0.000
REMARK SMILES O=C1CCCCC1
REMARK SMILES IDX 5 1 4 2 3 3 2 4 1 5 7 6 6 7
REMARK H PARENT
REMARK Flexibility Score: inf
ROOT
ATOM      1  C   UNL     1      14.107  43.384 -12.739  1.00  0.00     0.001 C 
ATOM      2  C   UNL     1      15.422  42.673 -12.388  1.00  0.00     0.008 C 
ATOM      3  C   UNL     1      16.101  42.100 -13.637  1.00  0.00     0.075 C 
ATOM      4  C   UNL     1      16.208  43.155 -14.705  1.00  0.00     0.132 C 
ATOM      5  O   UNL     1      17.237  43.278 -15.350  1.00  0.00    -0.300 OA
ATOM      6  C   UNL     1      15.001  43.991 -15.033  1.00  0.00     0.075 C 
ATOM      7  C   UNL     1      14.349  44.517 -13.749  1.00  0.00     0.008 C 
ENDROOT
TORSDOF 0
ENDMDL
MODEL 3
REMARK VINA RESULT:    -3.599     13.909     14.751
REMARK INTER + INTRA:          -3.599
REMARK INTER:                  -3.599
REMARK INTRA:                   0.000
REMARK UNBOUND:                 0.000
REMARK SMILES O=C1CCCCC1
REMARK SMILES IDX 5 1 4 2 3 3 2 4 1 5 7 6 6 7
REMARK H PARENT
REMARK Flexibility Score: inf
ROOT
ATOM      1  C   UNL     1      19.657  43.219   1.467  1.00  0.00     0.001 C 
ATOM      2  C   UNL     1      20.112  44.678   1.327  1.00  0.00     0.008 C 
ATOM      3  C   UNL     1      19.718  45.261  -0.036  1.00  0.00     0.075 C 
ATOM      4  C   UNL     1      18.259  45.014  -0.308  1.00  0.00     0.132 C 
ATOM      5  O   UNL     1      17.562  45.898  -0.783  1.00  0.00    -0.300 OA
ATOM      6  C   UNL     1      17.691  43.640  -0.080  1.00  0.00     0.075 C 
ATOM      7  C   UNL     1      18.136  43.098   1.284  1.00  0.00     0.008 C 
ENDROOT
TORSDOF 0
ENDMDL
MODEL 4
REMARK VINA RESULT:    -3.599      1.703      2.973
REMARK INTER + INTRA:          -3.599
REMARK INTER:                  -3.599
REMARK INTRA:                   0.000
REMARK UNBOUND:                 0.000
REMARK SMILES O=C1CCCCC1
REMARK SMILES IDX 5 1 4 2 3 3 2 4 1 5 7 6 6 7
REMARK H PARENT
REMARK Flexibility Score: inf
ROOT
ATOM      1  C   UNL     1      15.159  44.066 -15.360  1.00  0.00     0.001 C 
ATOM      2  C   UNL     1      14.558  44.570 -14.039  1.00  0.00     0.008 C 
ATOM      3  C   UNL     1      14.439  43.440 -13.009  1.00  0.00     0.075 C 
ATOM      4  C   UNL     1      15.747  42.708 -12.882  1.00  0.00     0.132 C 
ATOM      5  O   UNL     1      16.174  42.395 -11.781  1.00  0.00    -0.300 OA
ATOM      6  C   UNL     1      16.475  42.282 -14.128  1.00  0.00     0.075 C 
ATOM      7  C   UNL     1      16.543  43.441 -15.129  1.00  0.00     0.008 C 
ENDROOT
TORSDOF 0
ENDMDL
MODEL 5
REMARK VINA RESULT:    -3.584     14.404     15.402
REMARK INTER + INTRA:          -3.584
REMARK INTER:                  -3.584
REMARK INTRA:                   0.000
REMARK UNBOUND:                 0.000
REMARK SMILES O=C1CCCCC1
REMARK SMILES IDX 5 1 4 2 3 3 2 4 1 5 7 6 6 7
REMARK H PARENT
REMARK Flexibility Score: inf
ROOT
ATOM      1  C   UNL     1      17.401  44.405  -0.220  1.00  0.00     0.001 C 
ATOM      2  C   UNL     1      17.421  43.992   1.259  1.00  0.00     0.008 C 
ATOM      3  C   UNL     1      18.824  43.561   1.702  1.00  0.00     0.075 C 
ATOM      4  C   UNL     1      19.839  44.600   1.312  1.00  0.00     0.132 C 
ATOM      5  O   UNL     1      20.717  44.930   2.095  1.00  0.00    -0.300 OA
ATOM      6  C   UNL     1      19.819  45.158  -0.085  1.00  0.00     0.075 C 
ATOM      7  C   UNL     1      18.391  45.550  -0.483  1.00  0.00     0.008 C 
ENDROOT
TORSDOF 0
ENDMDL
MODEL 6
REMARK VINA RESULT:    -3.554     13.946     14.889
REMARK INTER + INTRA:          -3.554
REMARK INTER:                  -3.554
REMARK INTRA:                   0.000
REMARK UNBOUND:                 0.000
REMARK SMILES O=C1CCCCC1
REMARK SMILES IDX 5 1 4 2 3 3 2 4 1 5 7 6 6 7
REMARK H PARENT
REMARK Flexibility Score: inf
ROOT
ATOM      1  C   UNL     1      20.162  44.770   1.310  1.00  0.00     0.001 C 
ATOM      2  C   UNL     1      19.870  43.271   1.467  1.00  0.00     0.008 C 
ATOM      3  C   UNL     1      18.381  42.965   1.261  1.00  0.00     0.075 C 
ATOM      4  C   UNL     1      17.891  43.584  -0.019  1.00  0.00     0.132 C 
ATOM      5  O   UNL     1      17.159  42.956  -0.768  1.00  0.00    -0.300 OA
ATOM      6  C   UNL     1      18.234  45.018  -0.319  1.00  0.00     0.075 C 
ATOM      7  C   UNL     1      19.727  45.272  -0.075  1.00  0.00     0.008 C 
ENDROOT
TORSDOF 0
ENDMDL
MODEL 7
REMARK VINA RESULT:    -3.485     14.125     15.119
REMARK INTER + INTRA:          -3.485
REMARK INTER:                  -3.485
REMARK INTRA:                   0.000
REMARK UNBOUND:                 0.000
REMARK SMILES O=C1CCCCC1
REMARK SMILES IDX 5 1 4 2 3 3 2 4 1 5 7 6 6 7
REMARK H PARENT
REMARK Flexibility Score: inf
ROOT
ATOM      1  C   UNL     1      19.802  45.241   0.032  1.00  0.00     0.001 C 
ATOM      2  C   UNL     1      18.316  45.156  -0.348  1.00  0.00     0.008 C 
ATOM      3  C   UNL     1      17.819  43.705  -0.350  1.00  0.00     0.075 C 
ATOM      4  C   UNL     1      18.193  43.022   0.937  1.00  0.00     0.132 C 
ATOM      5  O   UNL     1      17.387  42.307   1.513  1.00  0.00    -0.300 OA
ATOM      6  C   UNL     1      19.599  43.152   1.455  1.00  0.00     0.075 C 
ATOM      7  C   UNL     1      20.052  44.616   1.413  1.00  0.00     0.008 C 
ENDROOT
TORSDOF 0
ENDMDL
MODEL 8
REMARK VINA RESULT:    -3.459     14.428     15.114
REMARK INTER + INTRA:          -3.459
REMARK INTER:                  -3.459
REMARK INTRA:                   0.000
REMARK UNBOUND:                 0.000
REMARK SMILES O=C1CCCCC1
REMARK SMILES IDX 5 1 4 2 3 3 2 4 1 5 7 6 6 7
REMARK H PARENT
REMARK Flexibility Score: inf
ROOT
ATOM      1  C   UNL     1      17.721  44.926  -0.182  1.00  0.00     0.001 C 
ATOM      2  C   UNL     1      19.129  45.478  -0.448  1.00  0.00     0.008 C 
ATOM      3  C   UNL     1      20.095  45.122   0.688  1.00  0.00     0.075 C 
ATOM      4  C   UNL     1      20.029  43.650   0.989  1.00  0.00     0.132 C 
ATOM      5  O   UNL     1      21.053  43.013   1.183  1.00  0.00    -0.300 OA
ATOM      6  C   UNL     1      18.685  42.992   1.144  1.00  0.00     0.075 C 
ATOM      7  C   UNL     1      17.755  43.401  -0.004  1.00  0.00     0.008 C 
ENDROOT
TORSDOF 0
ENDMDL
MODEL 9
REMARK VINA RESULT:    -3.425     14.481     15.574
REMARK INTER + INTRA:          -3.425
REMARK INTER:                  -3.425
REMARK INTRA:                   0.000
REMARK UNBOUND:                 0.000
REMARK SMILES O=C1CCCCC1
REMARK SMILES IDX 5 1 4 2 3 3 2 4 1 5 7 6 6 7
REMARK H PARENT
REMARK Flexibility Score: inf
ROOT
ATOM      1  C   UNL     1      17.880  43.979   1.517  1.00  0.00     0.001 C 
ATOM      2  C   UNL     1      17.917  42.644   0.759  1.00  0.00     0.008 C 
ATOM      3  C   UNL     1      19.084  42.595  -0.235  1.00  0.00     0.075 C 
ATOM      4  C   UNL     1      20.368  42.981   0.447  1.00  0.00     0.132 C 
ATOM      5  O   UNL     1      21.393  42.350   0.237  1.00  0.00    -0.300 OA
ATOM      6  C   UNL     1      20.398  44.210   1.315  1.00  0.00     0.075 C 
ATOM      7  C   UNL     1      19.198  44.218   2.270  1.00  0.00     0.008 C 
ENDROOT
TORSDOF 0
ENDMDL
