MODEL 1
REMARK VINA RESULT:    -5.308      0.000      0.000
REMARK INTER + INTRA:          -5.308
REMARK INTER:                  -5.308
REMARK INTRA:                   0.000
REMARK UNBOUND:                 0.000
REMARK SMILES C=C1CCC[C@@]2(C)CC(=O)C(=C(C)C)C[C@@H]12
REMARK SMILES IDX 13 1 12 2 11 3 15 4 16 5 2 6 1 7 3 8 4 9 5 10 6 11 8 12 9 13
REMARK SMILES IDX 10 14 7 15 14 16
REMARK H PARENT
REMARK Flexibility Score: inf
ROOT
ATOM      1  C   UNL     1      22.267  30.626  30.973  1.00  0.00     0.039 C 
ATOM      2  C   UNL     1      21.605  31.895  30.484  1.00  0.00    -0.070 C 
ATOM      3  C   UNL     1      20.245  32.020  30.468  1.00  0.00    -0.006 C 
ATOM      4  C   UNL     1      19.330  30.929  31.006  1.00  0.00     0.047 C 
ATOM      5  C   UNL     1      17.945  30.901  30.294  1.00  0.00     0.025 C 
ATOM      6  C   UNL     1      16.993  29.828  30.851  1.00  0.00    -0.073 C 
ATOM      7  C   UNL     1      17.408  28.740  31.532  1.00  0.00     0.008 C 
ATOM      8  C   UNL     1      15.531  29.935  30.483  1.00  0.00     0.031 C 
ATOM      9  C   UNL     1      14.937  31.308  30.849  1.00  0.00     0.005 C 
ATOM     10  C   UNL     1      15.996  32.381  31.154  1.00  0.00     0.008 C 
ATOM     11  C   UNL     1      17.234  32.325  30.212  1.00  0.00    -0.018 C 
ATOM     12  C   UNL     1      18.179  33.486  30.635  1.00  0.00     0.088 C 
ATOM     13  C   UNL     1      19.553  33.275  30.096  1.00  0.00     0.159 C 
ATOM     14  O   UNL     1      20.059  34.124  29.314  1.00  0.00    -0.295 OA
ATOM     15  C   UNL     1      16.780  32.600  28.753  1.00  0.00     0.012 C 
ATOM     16  C   UNL     1      22.514  33.027  30.061  1.00  0.00     0.039 C 
ENDROOT
TORSDOF 0
ENDMDL
MODEL 2
REMARK VINA RESULT:    -5.258      5.721      9.444
REMARK INTER + INTRA:          -5.258
REMARK INTER:                  -5.258
REMARK INTRA:                   0.000
REMARK UNBOUND:                 0.000
REMARK SMILES C=C1CCC[C@@]2(C)CC(=O)C(=C(C)C)C[C@@H]12
REMARK SMILES IDX 13 1 12 2 11 3 15 4 16 5 2 6 1 7 3 8 4 9 5 10 6 11 8 12 9 13
REMARK SMILES IDX 10 14 7 15 14 16
REMARK H PARENT
REMARK Flexibility Score: inf
ROOT
ATOM      1  C   UNL     1      24.647  28.065  28.991  1.00  0.00     0.039 C 
ATOM      2  C   UNL     1      24.307  29.241  29.879  1.00  0.00    -0.070 C 
ATOM      3  C   UNL     1      25.169  30.290  30.021  1.00  0.00    -0.006 C 
ATOM      4  C   UNL     1      26.475  30.370  29.244  1.00  0.00     0.047 C 
ATOM      5  C   UNL     1      27.581  31.161  30.005  1.00  0.00     0.025 C 
ATOM      6  C   UNL     1      28.897  31.284  29.217  1.00  0.00    -0.073 C 
ATOM      7  C   UNL     1      29.251  30.451  28.217  1.00  0.00     0.008 C 
ATOM      8  C   UNL     1      29.902  32.306  29.696  1.00  0.00     0.031 C 
ATOM      9  C   UNL     1      29.296  33.717  29.796  1.00  0.00     0.005 C 
ATOM     10  C   UNL     1      27.758  33.737  29.756  1.00  0.00     0.008 C 
ATOM     11  C   UNL     1      27.096  32.576  30.555  1.00  0.00    -0.018 C 
ATOM     12  C   UNL     1      25.557  32.765  30.436  1.00  0.00     0.088 C 
ATOM     13  C   UNL     1      24.839  31.509  30.795  1.00  0.00     0.159 C 
ATOM     14  O   UNL     1      24.028  31.502  31.760  1.00  0.00    -0.295 OA
ATOM     15  C   UNL     1      27.469  32.710  32.056  1.00  0.00     0.012 C 
ATOM     16  C   UNL     1      22.957  29.221  30.559  1.00  0.00     0.039 C 
ENDROOT
TORSDOF 0
ENDMDL
MODEL 3
REMARK VINA RESULT:    -5.204      6.560      9.049
REMARK INTER + INTRA:          -5.204
REMARK INTER:                  -5.204
REMARK INTRA:                   0.000
REMARK UNBOUND:                 0.000
REMARK SMILES C=C1CCC[C@@]2(C)CC(=O)C(=C(C)C)C[C@@H]12
REMARK SMILES IDX 13 1 12 2 11 3 15 4 16 5 2 6 1 7 3 8 4 9 5 10 6 11 8 12 9 13
REMARK SMILES IDX 10 14 7 15 14 16
REMARK H PARENT
REMARK Flexibility Score: inf
ROOT
ATOM      1  C   UNL     1      25.757  28.128  27.625  1.00  0.00     0.039 C 
ATOM      2  C   UNL     1      24.897  28.498  28.813  1.00  0.00    -0.070 C 
ATOM      3  C   UNL     1      25.253  29.516  29.650  1.00  0.00    -0.006 C 
ATOM      4  C   UNL     1      26.482  30.377  29.395  1.00  0.00     0.047 C 
ATOM      5  C   UNL     1      27.107  30.938  30.708  1.00  0.00     0.025 C 
ATOM      6  C   UNL     1      28.329  31.840  30.466  1.00  0.00    -0.073 C 
ATOM      7  C   UNL     1      29.073  31.807  29.342  1.00  0.00     0.008 C 
ATOM      8  C   UNL     1      28.795  32.704  31.616  1.00  0.00     0.031 C 
ATOM      9  C   UNL     1      27.669  33.596  32.170  1.00  0.00     0.005 C 
ATOM     10  C   UNL     1      26.261  33.175  31.713  1.00  0.00     0.008 C 
ATOM     11  C   UNL     1      26.050  31.633  31.678  1.00  0.00    -0.018 C 
ATOM     12  C   UNL     1      24.581  31.388  31.229  1.00  0.00     0.088 C 
ATOM     13  C   UNL     1      24.395  29.983  30.764  1.00  0.00     0.159 C 
ATOM     14  O   UNL     1      23.572  29.230  31.349  1.00  0.00    -0.295 OA
ATOM     15  C   UNL     1      26.203  31.063  33.114  1.00  0.00     0.012 C 
ATOM     16  C   UNL     1      23.613  27.724  29.001  1.00  0.00     0.039 C 
ENDROOT
TORSDOF 0
ENDMDL
MODEL 4
REMARK VINA RESULT:    -5.051      5.709      7.685
REMARK INTER + INTRA:          -5.051
REMARK INTER:                  -5.051
REMARK INTRA:                   0.000
REMARK UNBOUND:                 0.000
REMARK SMILES C=C1CCC[C@@]2(C)CC(=O)C(=C(C)C)C[C@@H]12
REMARK SMILES IDX 13 1 12 2 11 3 15 4 16 5 2 6 1 7 3 8 4 9 5 10 6 11 8 12 9 13
REMARK SMILES IDX 10 14 7 15 14 16
REMARK H PARENT
REMARK Flexibility Score: inf
ROOT
ATOM      1  C   UNL     1      29.339  30.933  28.126  1.00  0.00     0.039 C 
ATOM      2  C   UNL     1      28.768  31.926  29.114  1.00  0.00    -0.070 C 
ATOM      3  C   UNL     1      27.591  31.680  29.761  1.00  0.00    -0.006 C 
ATOM      4  C   UNL     1      26.833  30.372  29.584  1.00  0.00     0.047 C 
ATOM      5  C   UNL     1      25.296  30.537  29.775  1.00  0.00     0.025 C 
ATOM      6  C   UNL     1      24.518  29.217  29.636  1.00  0.00    -0.073 C 
ATOM      7  C   UNL     1      24.990  28.134  28.984  1.00  0.00     0.008 C 
ATOM      8  C   UNL     1      23.091  29.194  30.135  1.00  0.00     0.031 C 
ATOM      9  C   UNL     1      22.981  29.638  31.605  1.00  0.00     0.005 C 
ATOM     10  C   UNL     1      24.238  30.348  32.136  1.00  0.00     0.008 C 
ATOM     11  C   UNL     1      24.892  31.315  31.106  1.00  0.00    -0.018 C 
ATOM     12  C   UNL     1      26.118  31.964  31.809  1.00  0.00     0.088 C 
ATOM     13  C   UNL     1      27.044  32.571  30.810  1.00  0.00     0.159 C 
ATOM     14  O   UNL     1      27.291  33.806  30.849  1.00  0.00    -0.295 OA
ATOM     15  C   UNL     1      23.892  32.452  30.764  1.00  0.00     0.012 C 
ATOM     16  C   UNL     1      29.579  33.174  29.382  1.00  0.00     0.039 C 
ENDROOT
TORSDOF 0
ENDMDL
MODEL 5
REMARK VINA RESULT:    -4.985      9.464     12.171
REMARK INTER + INTRA:          -4.985
REMARK INTER:                  -4.985
REMARK INTRA:                   0.000
REMARK UNBOUND:                 0.000
REMARK SMILES C=C1CCC[C@@]2(C)CC(=O)C(=C(C)C)C[C@@H]12
REMARK SMILES IDX 13 1 12 2 11 3 15 4 16 5 2 6 1 7 3 8 4 9 5 10 6 11 8 12 9 13
REMARK SMILES IDX 10 14 7 15 14 16
REMARK H PARENT
REMARK Flexibility Score: inf
ROOT
ATOM      1  C   UNL     1      33.214  33.005  27.571  1.00  0.00     0.039 C 
ATOM      2  C   UNL     1      33.098  33.335  29.043  1.00  0.00    -0.070 C 
ATOM      3  C   UNL     1      32.036  32.899  29.781  1.00  0.00    -0.006 C 
ATOM      4  C   UNL     1      30.957  32.003  29.190  1.00  0.00     0.047 C 
ATOM      5  C   UNL     1      29.570  32.200  29.872  1.00  0.00     0.025 C 
ATOM      6  C   UNL     1      28.476  31.275  29.311  1.00  0.00    -0.073 C 
ATOM      7  C   UNL     1      28.537  30.696  28.094  1.00  0.00     0.008 C 
ATOM      8  C   UNL     1      27.204  31.133  30.116  1.00  0.00     0.031 C 
ATOM      9  C   UNL     1      27.478  30.692  31.565  1.00  0.00     0.005 C 
ATOM     10  C   UNL     1      28.948  30.844  31.994  1.00  0.00     0.008 C 
ATOM     11  C   UNL     1      29.623  32.143  31.464  1.00  0.00    -0.018 C 
ATOM     12  C   UNL     1      31.079  32.152  32.011  1.00  0.00     0.088 C 
ATOM     13  C   UNL     1      31.929  33.107  31.244  1.00  0.00     0.159 C 
ATOM     14  O   UNL     1      32.478  34.076  31.834  1.00  0.00    -0.295 OA
ATOM     15  C   UNL     1      28.892  33.378  32.056  1.00  0.00     0.012 C 
ATOM     16  C   UNL     1      34.230  34.124  29.663  1.00  0.00     0.039 C 
ENDROOT
TORSDOF 0
ENDMDL
MODEL 6
REMARK VINA RESULT:    -4.973      1.900      5.578
REMARK INTER + INTRA:          -4.973
REMARK INTER:                  -4.973
REMARK INTRA:                   0.000
REMARK UNBOUND:                 0.000
REMARK SMILES C=C1CCC[C@@]2(C)CC(=O)C(=C(C)C)C[C@@H]12
REMARK SMILES IDX 13 1 12 2 11 3 15 4 16 5 2 6 1 7 3 8 4 9 5 10 6 11 8 12 9 13
REMARK SMILES IDX 10 14 7 15 14 16
REMARK H PARENT
REMARK Flexibility Score: inf
ROOT
ATOM      1  C   UNL     1      16.443  32.729  29.022  1.00  0.00     0.039 C 
ATOM      2  C   UNL     1      16.814  31.409  29.661  1.00  0.00    -0.070 C 
ATOM      3  C   UNL     1      18.062  31.200  30.173  1.00  0.00    -0.006 C 
ATOM      4  C   UNL     1      19.116  32.297  30.200  1.00  0.00     0.047 C 
ATOM      5  C   UNL     1      20.569  31.737  30.126  1.00  0.00     0.025 C 
ATOM      6  C   UNL     1      21.649  32.831  30.189  1.00  0.00    -0.073 C 
ATOM      7  C   UNL     1      21.423  34.125  29.880  1.00  0.00     0.008 C 
ATOM      8  C   UNL     1      23.068  32.393  30.472  1.00  0.00     0.031 C 
ATOM      9  C   UNL     1      23.176  31.569  31.767  1.00  0.00     0.005 C 
ATOM     10  C   UNL     1      21.824  31.055  32.292  1.00  0.00     0.008 C 
ATOM     11  C   UNL     1      20.862  30.568  31.169  1.00  0.00    -0.018 C 
ATOM     12  C   UNL     1      19.569  30.059  31.869  1.00  0.00     0.088 C 
ATOM     13  C   UNL     1      18.441  29.965  30.899  1.00  0.00     0.159 C 
ATOM     14  O   UNL     1      17.886  28.854  30.684  1.00  0.00    -0.295 OA
ATOM     15  C   UNL     1      21.502  29.360  30.434  1.00  0.00     0.012 C 
ATOM     16  C   UNL     1      15.731  30.357  29.745  1.00  0.00     0.039 C 
ENDROOT
TORSDOF 0
ENDMDL
MODEL 7
REMARK VINA RESULT:    -4.972      1.780      2.984
REMARK INTER + INTRA:          -4.972
REMARK INTER:                  -4.972
REMARK INTRA:                   0.000
REMARK UNBOUND:                 0.000
REMARK SMILES C=C1CCC[C@@]2(C)CC(=O)C(=C(C)C)C[C@@H]12
REMARK SMILES IDX 13 1 12 2 11 3 15 4 16 5 2 6 1 7 3 8 4 9 5 10 6 11 8 12 9 13
REMARK SMILES IDX 10 14 7 15 14 16
REMARK H PARENT
REMARK Flexibility Score: inf
ROOT
ATOM      1  C   UNL     1      22.025  27.758  29.378  1.00  0.00     0.039 C 
ATOM      2  C   UNL     1      22.536  29.113  29.815  1.00  0.00    -0.070 C 
ATOM      3  C   UNL     1      21.675  30.142  30.071  1.00  0.00    -0.006 C 
ATOM      4  C   UNL     1      20.165  29.964  30.006  1.00  0.00     0.047 C 
ATOM      5  C   UNL     1      19.421  31.276  29.619  1.00  0.00     0.025 C 
ATOM      6  C   UNL     1      17.890  31.124  29.584  1.00  0.00    -0.073 C 
ATOM      7  C   UNL     1      17.259  29.940  29.442  1.00  0.00     0.008 C 
ATOM      8  C   UNL     1      17.064  32.389  29.563  1.00  0.00     0.031 C 
ATOM      9  C   UNL     1      17.404  33.327  30.736  1.00  0.00     0.005 C 
ATOM     10  C   UNL     1      18.723  32.978  31.448  1.00  0.00     0.008 C 
ATOM     11  C   UNL     1      19.861  32.544  30.479  1.00  0.00    -0.018 C 
ATOM     12  C   UNL     1      21.117  32.261  31.353  1.00  0.00     0.088 C 
ATOM     13  C   UNL     1      22.118  31.453  30.599  1.00  0.00     0.159 C 
ATOM     14  O   UNL     1      23.270  31.916  30.388  1.00  0.00    -0.295 OA
ATOM     15  C   UNL     1      20.206  33.725  29.532  1.00  0.00     0.012 C 
ATOM     16  C   UNL     1      24.030  29.260  29.997  1.00  0.00     0.039 C 
ENDROOT
TORSDOF 0
ENDMDL
MODEL 8
REMARK VINA RESULT:    -4.894      1.404      5.010
REMARK INTER + INTRA:          -4.894
REMARK INTER:                  -4.894
REMARK INTRA:                   0.000
REMARK UNBOUND:                 0.000
REMARK SMILES C=C1CCC[C@@]2(C)CC(=O)C(=C(C)C)C[C@@H]12
REMARK SMILES IDX 13 1 12 2 11 3 15 4 16 5 2 6 1 7 3 8 4 9 5 10 6 11 8 12 9 13
REMARK SMILES IDX 10 14 7 15 14 16
REMARK H PARENT
REMARK Flexibility Score: inf
ROOT
ATOM      1  C   UNL     1      17.006  30.039  30.150  1.00  0.00     0.039 C 
ATOM      2  C   UNL     1      17.504  31.413  29.761  1.00  0.00    -0.070 C 
ATOM      3  C   UNL     1      18.778  31.810  30.050  1.00  0.00    -0.006 C 
ATOM      4  C   UNL     1      19.784  30.874  30.705  1.00  0.00     0.047 C 
ATOM      5  C   UNL     1      20.837  31.632  31.568  1.00  0.00     0.025 C 
ATOM      6  C   UNL     1      21.884  30.705  32.208  1.00  0.00    -0.073 C 
ATOM      7  C   UNL     1      21.691  29.384  32.410  1.00  0.00     0.008 C 
ATOM      8  C   UNL     1      23.133  31.346  32.768  1.00  0.00     0.031 C 
ATOM      9  C   UNL     1      23.864  32.209  31.724  1.00  0.00     0.005 C 
ATOM     10  C   UNL     1      23.013  32.538  30.485  1.00  0.00     0.008 C 
ATOM     11  C   UNL     1      21.525  32.856  30.814  1.00  0.00    -0.018 C 
ATOM     12  C   UNL     1      20.825  33.194  29.467  1.00  0.00     0.088 C 
ATOM     13  C   UNL     1      19.343  33.103  29.601  1.00  0.00     0.159 C 
ATOM     14  O   UNL     1      18.628  34.119  29.386  1.00  0.00    -0.295 OA
ATOM     15  C   UNL     1      21.458  34.125  31.707  1.00  0.00     0.012 C 
ATOM     16  C   UNL     1      16.545  32.303  29.003  1.00  0.00     0.039 C 
ENDROOT
TORSDOF 0
ENDMDL
MODEL 9
REMARK VINA RESULT:    -4.884      8.474     11.314
REMARK INTER + INTRA:          -4.884
REMARK INTER:                  -4.884
REMARK INTRA:                   0.000
REMARK UNBOUND:                 0.000
REMARK SMILES C=C1CCC[C@@]2(C)CC(=O)C(=C(C)C)C[C@@H]12
REMARK SMILES IDX 13 1 12 2 11 3 15 4 16 5 2 6 1 7 3 8 4 9 5 10 6 11 8 12 9 13
REMARK SMILES IDX 10 14 7 15 14 16
REMARK H PARENT
REMARK Flexibility Score: inf
ROOT
ATOM      1  C   UNL     1      33.337  32.451  31.924  1.00  0.00     0.039 C 
ATOM      2  C   UNL     1      32.747  32.815  30.580  1.00  0.00    -0.070 C 
ATOM      3  C   UNL     1      31.421  32.624  30.317  1.00  0.00    -0.006 C 
ATOM      4  C   UNL     1      30.456  32.109  31.375  1.00  0.00     0.047 C 
ATOM      5  C   UNL     1      29.265  31.310  30.765  1.00  0.00     0.025 C 
ATOM      6  C   UNL     1      28.260  30.813  31.818  1.00  0.00    -0.073 C 
ATOM      7  C   UNL     1      28.558  30.660  33.125  1.00  0.00     0.008 C 
ATOM      8  C   UNL     1      26.912  30.338  31.325  1.00  0.00     0.031 C 
ATOM      9  C   UNL     1      26.196  31.401  30.472  1.00  0.00     0.005 C 
ATOM     10  C   UNL     1      27.114  32.540  29.998  1.00  0.00     0.008 C 
ATOM     11  C   UNL     1      28.532  32.062  29.567  1.00  0.00    -0.018 C 
ATOM     12  C   UNL     1      29.310  33.322  29.091  1.00  0.00     0.088 C 
ATOM     13  C   UNL     1      30.777  33.059  29.056  1.00  0.00     0.159 C 
ATOM     14  O   UNL     1      31.408  33.158  27.969  1.00  0.00    -0.295 OA
ATOM     15  C   UNL     1      28.402  31.106  28.350  1.00  0.00     0.012 C 
ATOM     16  C   UNL     1      33.679  33.439  29.566  1.00  0.00     0.039 C 
ENDROOT
TORSDOF 0
ENDMDL
