MODEL 1
REMARK VINA RESULT:    -3.629      0.000      0.000
REMARK INTER + INTRA:          -8.550
REMARK INTER:                  -6.598
REMARK INTRA:                  -1.951
REMARK UNBOUND:                -1.951
REMARK SMILES CCCCCCCCCCCCCCCC(=O)[O-]
REMARK SMILES IDX 9 1 10 2 11 3 12 4 13 5 14 6 15 7 16 8 17 9 18 10 8 11 7 12
REMARK SMILES IDX 6 13 5 14 4 15 3 16 2 17 1 18
REMARK H PARENT
REMARK Flexibility Score: inf
ROOT
ATOM      1  C   UNL     1       4.900  -0.965  -3.640  1.00  0.00     0.000 C 
ENDROOT
BRANCH   1   2
ATOM      2  C   UNL     1       4.152  -2.132  -4.321  1.00  0.00     0.000 C 
BRANCH   2   3
ATOM      3  C   UNL     1       4.769  -2.562  -5.666  1.00  0.00     0.000 C 
BRANCH   3   4
ATOM      4  C   UNL     1       3.996  -2.099  -6.915  1.00  0.00     0.000 C 
BRANCH   4   5
ATOM      5  C   UNL     1       2.502  -2.472  -6.926  1.00  0.00     0.000 C 
BRANCH   5   6
ATOM      6  C   UNL     1       1.861  -2.338  -8.319  1.00  0.00     0.006 C 
BRANCH   6   7
ATOM      7  C   UNL     1       1.735  -0.873  -8.759  1.00  0.00     0.053 C 
BRANCH   7   8
ATOM      8  C   UNL     1       0.303  -0.441  -8.846  1.00  0.00     0.041 C 
ATOM      9  O   UNL     1      -0.595  -1.278  -9.125  1.00  0.00    -0.550 OA
ATOM     10  O   UNL     1      -0.035   0.892  -8.655  1.00  0.00    -0.550 OA
ENDBRANCH   7   8
ENDBRANCH   6   7
ENDBRANCH   5   6
ENDBRANCH   4   5
ENDBRANCH   3   4
ENDBRANCH   2   3
ENDBRANCH   1   2
BRANCH   1  11
ATOM     11  C   UNL     1       4.208   0.389  -3.872  1.00  0.00     0.000 C 
BRANCH  11  12
ATOM     12  C   UNL     1       2.722   0.240  -4.239  1.00  0.00    -0.000 C 
BRANCH  12  13
ATOM     13  C   UNL     1       2.325   1.089  -5.456  1.00  0.00    -0.000 C 
BRANCH  13  14
ATOM     14  C   UNL     1       3.566   1.519  -6.252  1.00  0.00    -0.000 C 
BRANCH  14  15
ATOM     15  C   UNL     1       3.216   2.317  -7.522  1.00  0.00    -0.000 C 
BRANCH  15  16
ATOM     16  C   UNL     1       3.290   3.850  -7.370  1.00  0.00    -0.000 C 
BRANCH  16  17
ATOM     17  C   UNL     1       3.745   4.345  -5.986  1.00  0.00    -0.003 C 
ATOM     18  C   UNL     1       3.258   5.758  -5.670  1.00  0.00     0.004 C 
ENDBRANCH  16  17
ENDBRANCH  15  16
ENDBRANCH  14  15
ENDBRANCH  13  14
ENDBRANCH  12  13
ENDBRANCH  11  12
ENDBRANCH   1  11
TORSDOF 14
ENDMDL
MODEL 2
REMARK VINA RESULT:    -3.562      2.479      5.106
REMARK INTER + INTRA:          -8.428
REMARK INTER:                  -6.375
REMARK INTRA:                  -2.053
REMARK UNBOUND:                -1.951
REMARK SMILES CCCCCCCCCCCCCCCC(=O)[O-]
REMARK SMILES IDX 9 1 10 2 11 3 12 4 13 5 14 6 15 7 16 8 17 9 18 10 8 11 7 12
REMARK SMILES IDX 6 13 5 14 4 15 3 16 2 17 1 18
REMARK H PARENT
REMARK Flexibility Score: inf
ROOT
ATOM      1  C   UNL     1       2.033  -1.576  -8.160  1.00  0.00     0.000 C 
ENDROOT
BRANCH   1   2
ATOM      2  C   UNL     1       2.985  -0.496  -8.720  1.00  0.00     0.000 C 
BRANCH   2   3
ATOM      3  C   UNL     1       2.293   0.849  -9.010  1.00  0.00     0.000 C 
BRANCH   3   4
ATOM      4  C   UNL     1       0.886   1.003  -8.402  1.00  0.00     0.000 C 
BRANCH   4   5
ATOM      5  C   UNL     1       0.100   2.234  -8.891  1.00  0.00     0.000 C 
BRANCH   5   6
ATOM      6  C   UNL     1      -0.212   3.232  -7.762  1.00  0.00     0.006 C 
BRANCH   6   7
ATOM      7  C   UNL     1       1.057   3.897  -7.211  1.00  0.00     0.053 C 
BRANCH   7   8
ATOM      8  C   UNL     1       0.747   4.839  -6.088  1.00  0.00     0.041 C 
ATOM      9  O   UNL     1      -0.405   5.335  -5.977  1.00  0.00    -0.550 OA
ATOM     10  O   UNL     1       1.741   5.198  -5.186  1.00  0.00    -0.550 OA
ENDBRANCH   7   8
ENDBRANCH   6   7
ENDBRANCH   5   6
ENDBRANCH   4   5
ENDBRANCH   3   4
ENDBRANCH   2   3
ENDBRANCH   1   2
BRANCH   1  11
ATOM     11  C   UNL     1       2.714  -2.469  -7.109  1.00  0.00     0.000 C 
BRANCH  11  12
ATOM     12  C   UNL     1       4.225  -2.209  -6.999  1.00  0.00    -0.000 C 
BRANCH  12  13
ATOM     13  C   UNL     1       4.801  -2.625  -5.638  1.00  0.00    -0.000 C 
BRANCH  13  14
ATOM     14  C   UNL     1       3.874  -2.188  -4.495  1.00  0.00    -0.000 C 
BRANCH  14  15
ATOM     15  C   UNL     1       4.158  -0.754  -4.009  1.00  0.00    -0.000 C 
BRANCH  15  16
ATOM     16  C   UNL     1       2.920   0.163  -3.924  1.00  0.00    -0.000 C 
BRANCH  16  17
ATOM     17  C   UNL     1       2.601   0.945  -5.210  1.00  0.00    -0.003 C 
ATOM     18  C   UNL     1       3.715   1.911  -5.611  1.00  0.00     0.004 C 
ENDBRANCH  16  17
ENDBRANCH  15  16
ENDBRANCH  14  15
ENDBRANCH  13  14
ENDBRANCH  12  13
ENDBRANCH  11  12
ENDBRANCH   1  11
TORSDOF 14
ENDMDL
MODEL 3
REMARK VINA RESULT:    -3.552      2.467      5.155
REMARK INTER + INTRA:          -8.411
REMARK INTER:                  -6.468
REMARK INTRA:                  -1.942
REMARK UNBOUND:                -1.951
REMARK SMILES CCCCCCCCCCCCCCCC(=O)[O-]
REMARK SMILES IDX 9 1 10 2 11 3 12 4 13 5 14 6 15 7 16 8 17 9 18 10 8 11 7 12
REMARK SMILES IDX 6 13 5 14 4 15 3 16 2 17 1 18
REMARK H PARENT
REMARK Flexibility Score: inf
ROOT
ATOM      1  C   UNL     1       2.872   0.313  -4.269  1.00  0.00     0.000 C 
ENDROOT
BRANCH   1   2
ATOM      2  C   UNL     1       2.774   1.371  -5.390  1.00  0.00     0.000 C 
BRANCH   2   3
ATOM      3  C   UNL     1       2.109   0.848  -6.678  1.00  0.00     0.000 C 
BRANCH   3   4
ATOM      4  C   UNL     1       2.608   1.502  -7.980  1.00  0.00     0.000 C 
BRANCH   4   5
ATOM      5  C   UNL     1       1.495   1.967  -8.939  1.00  0.00     0.000 C 
BRANCH   5   6
ATOM      6  C   UNL     1       0.269   2.534  -8.202  1.00  0.00     0.006 C 
BRANCH   6   7
ATOM      7  C   UNL     1       0.350   4.057  -8.032  1.00  0.00     0.053 C 
BRANCH   7   8
ATOM      8  C   UNL     1       0.241   4.461  -6.593  1.00  0.00     0.041 C 
ATOM      9  O   UNL     1       1.261   4.459  -5.856  1.00  0.00    -0.550 OA
ATOM     10  O   UNL     1      -0.994   4.805  -6.058  1.00  0.00    -0.550 OA
ENDBRANCH   7   8
ENDBRANCH   6   7
ENDBRANCH   5   6
ENDBRANCH   4   5
ENDBRANCH   3   4
ENDBRANCH   2   3
ENDBRANCH   1   2
BRANCH   1  11
ATOM     11  C   UNL     1       4.241  -0.386  -4.241  1.00  0.00     0.000 C 
BRANCH  11  12
ATOM     12  C   UNL     1       4.123  -1.919  -4.205  1.00  0.00    -0.000 C 
BRANCH  12  13
ATOM     13  C   UNL     1       3.296  -2.478  -5.371  1.00  0.00    -0.000 C 
BRANCH  13  14
ATOM     14  C   UNL     1       4.079  -2.390  -6.689  1.00  0.00    -0.000 C 
BRANCH  14  15
ATOM     15  C   UNL     1       3.238  -2.792  -7.915  1.00  0.00    -0.000 C 
BRANCH  15  16
ATOM     16  C   UNL     1       1.727  -2.510  -7.789  1.00  0.00    -0.000 C 
BRANCH  16  17
ATOM     17  C   UNL     1       0.966  -2.434  -9.124  1.00  0.00    -0.003 C 
ATOM     18  C   UNL     1      -0.149  -1.389  -9.115  1.00  0.00     0.004 C 
ENDBRANCH  16  17
ENDBRANCH  15  16
ENDBRANCH  14  15
ENDBRANCH  13  14
ENDBRANCH  12  13
ENDBRANCH  11  12
ENDBRANCH   1  11
TORSDOF 14
ENDMDL
MODEL 4
REMARK VINA RESULT:    -3.515     16.724     18.809
REMARK INTER + INTRA:          -8.343
REMARK INTER:                  -7.696
REMARK INTRA:                  -0.648
REMARK UNBOUND:                -1.951
REMARK SMILES CCCCCCCCCCCCCCCC(=O)[O-]
REMARK SMILES IDX 9 1 10 2 11 3 12 4 13 5 14 6 15 7 16 8 17 9 18 10 8 11 7 12
REMARK SMILES IDX 6 13 5 14 4 15 3 16 2 17 1 18
REMARK H PARENT
REMARK Flexibility Score: inf
ROOT
ATOM      1  C   UNL     1      -9.124 -12.826  -2.381  1.00  0.00     0.000 C 
ENDROOT
BRANCH   1   2
ATOM      2  C   UNL     1      -8.214 -13.521  -3.417  1.00  0.00     0.000 C 
BRANCH   2   3
ATOM      3  C   UNL     1      -6.885 -12.783  -3.667  1.00  0.00     0.000 C 
BRANCH   3   4
ATOM      4  C   UNL     1      -5.727 -13.673  -4.155  1.00  0.00     0.000 C 
BRANCH   4   5
ATOM      5  C   UNL     1      -5.018 -13.173  -5.429  1.00  0.00     0.000 C 
BRANCH   5   6
ATOM      6  C   UNL     1      -5.766 -12.015  -6.114  1.00  0.00     0.006 C 
BRANCH   6   7
ATOM      7  C   UNL     1      -6.201 -12.373  -7.542  1.00  0.00     0.053 C 
BRANCH   7   8
ATOM      8  C   UNL     1      -7.643 -12.045  -7.781  1.00  0.00     0.041 C 
ATOM      9  O   UNL     1      -8.498 -12.257  -6.881  1.00  0.00    -0.550 OA
ATOM     10  O   UNL     1      -8.048 -11.541  -9.010  1.00  0.00    -0.550 OA
ENDBRANCH   7   8
ENDBRANCH   6   7
ENDBRANCH   5   6
ENDBRANCH   4   5
ENDBRANCH   3   4
ENDBRANCH   2   3
ENDBRANCH   1   2
BRANCH   1  11
ATOM     11  C   UNL     1     -10.419 -13.613  -2.118  1.00  0.00     0.000 C 
BRANCH  11  12
ATOM     12  C   UNL     1     -11.251 -13.021  -0.969  1.00  0.00    -0.000 C 
BRANCH  12  13
ATOM     13  C   UNL     1     -12.658 -12.596  -1.413  1.00  0.00    -0.000 C 
BRANCH  13  14
ATOM     14  C   UNL     1     -13.601 -12.483  -0.206  1.00  0.00    -0.000 C 
BRANCH  14  15
ATOM     15  C   UNL     1     -13.059 -11.550   0.893  1.00  0.00    -0.000 C 
BRANCH  15  16
ATOM     16  C   UNL     1     -13.506 -11.901   2.326  1.00  0.00    -0.000 C 
BRANCH  16  17
ATOM     17  C   UNL     1     -12.739 -11.173   3.443  1.00  0.00    -0.003 C 
ATOM     18  C   UNL     1     -13.561 -10.070   4.109  1.00  0.00     0.004 C 
ENDBRANCH  16  17
ENDBRANCH  15  16
ENDBRANCH  14  15
ENDBRANCH  13  14
ENDBRANCH  12  13
ENDBRANCH  11  12
ENDBRANCH   1  11
TORSDOF 14
ENDMDL
MODEL 5
REMARK VINA RESULT:    -3.475      1.459      4.604
REMARK INTER + INTRA:          -8.271
REMARK INTER:                  -6.359
REMARK INTRA:                  -1.912
REMARK UNBOUND:                -1.951
REMARK SMILES CCCCCCCCCCCCCCCC(=O)[O-]
REMARK SMILES IDX 9 1 10 2 11 3 12 4 13 5 14 6 15 7 16 8 17 9 18 10 8 11 7 12
REMARK SMILES IDX 6 13 5 14 4 15 3 16 2 17 1 18
REMARK H PARENT
REMARK Flexibility Score: inf
ROOT
ATOM      1  C   UNL     1       2.858   0.201  -3.878  1.00  0.00     0.000 C 
ENDROOT
BRANCH   1   2
ATOM      2  C   UNL     1       2.652   1.088  -5.126  1.00  0.00     0.000 C 
BRANCH   2   3
ATOM      3  C   UNL     1       3.867   1.974  -5.463  1.00  0.00     0.000 C 
BRANCH   3   4
ATOM      4  C   UNL     1       4.691   1.512  -6.679  1.00  0.00     0.000 C 
BRANCH   4   5
ATOM      5  C   UNL     1       4.512   2.371  -7.946  1.00  0.00     0.000 C 
BRANCH   5   6
ATOM      6  C   UNL     1       3.227   3.217  -7.919  1.00  0.00     0.006 C 
BRANCH   6   7
ATOM      7  C   UNL     1       2.073   2.541  -8.672  1.00  0.00     0.053 C 
BRANCH   7   8
ATOM      8  C   UNL     1       0.774   2.684  -7.940  1.00  0.00     0.041 C 
ATOM      9  O   UNL     1       0.672   3.496  -6.983  1.00  0.00    -0.550 OA
ATOM     10  O   UNL     1      -0.314   1.895  -8.292  1.00  0.00    -0.550 OA
ENDBRANCH   7   8
ENDBRANCH   6   7
ENDBRANCH   5   6
ENDBRANCH   4   5
ENDBRANCH   3   4
ENDBRANCH   2   3
ENDBRANCH   1   2
BRANCH   1  11
ATOM     11  C   UNL     1       4.345  -0.049  -3.577  1.00  0.00     0.000 C 
BRANCH  11  12
ATOM     12  C   UNL     1       4.801  -1.462  -3.972  1.00  0.00    -0.000 C 
BRANCH  12  13
ATOM     13  C   UNL     1       3.693  -2.272  -4.662  1.00  0.00    -0.000 C 
BRANCH  13  14
ATOM     14  C   UNL     1       4.024  -2.496  -6.145  1.00  0.00    -0.000 C 
BRANCH  14  15
ATOM     15  C   UNL     1       2.778  -2.451  -7.050  1.00  0.00    -0.000 C 
BRANCH  15  16
ATOM     16  C   UNL     1       2.554  -1.115  -7.786  1.00  0.00    -0.000 C 
BRANCH  16  17
ATOM     17  C   UNL     1       1.468  -1.146  -8.875  1.00  0.00    -0.003 C 
ATOM     18  C   UNL     1       0.602  -2.404  -8.815  1.00  0.00     0.004 C 
ENDBRANCH  16  17
ENDBRANCH  15  16
ENDBRANCH  14  15
ENDBRANCH  13  14
ENDBRANCH  12  13
ENDBRANCH  11  12
ENDBRANCH   1  11
TORSDOF 14
ENDMDL
MODEL 6
REMARK VINA RESULT:    -3.475     21.022     22.455
REMARK INTER + INTRA:          -8.270
REMARK INTER:                  -5.971
REMARK INTRA:                  -2.299
REMARK UNBOUND:                -1.951
REMARK SMILES CCCCCCCCCCCCCCCC(=O)[O-]
REMARK SMILES IDX 9 1 10 2 11 3 12 4 13 5 14 6 15 7 16 8 17 9 18 10 8 11 7 12
REMARK SMILES IDX 6 13 5 14 4 15 3 16 2 17 1 18
REMARK H PARENT
REMARK Flexibility Score: inf
ROOT
ATOM      1  C   UNL     1     -11.955 -11.763   5.467  1.00  0.00     0.000 C 
ENDROOT
BRANCH   1   2
ATOM      2  C   UNL     1     -10.956 -12.858   5.034  1.00  0.00     0.000 C 
BRANCH   2   3
ATOM      3  C   UNL     1     -11.539 -13.863   4.022  1.00  0.00     0.000 C 
BRANCH   3   4
ATOM      4  C   UNL     1     -13.077 -13.890   3.944  1.00  0.00     0.000 C 
BRANCH   4   5
ATOM      5  C   UNL     1     -13.667 -13.373   2.618  1.00  0.00     0.000 C 
BRANCH   5   6
ATOM      6  C   UNL     1     -12.635 -12.624   1.755  1.00  0.00     0.006 C 
BRANCH   6   7
ATOM      7  C   UNL     1     -13.291 -11.573   0.850  1.00  0.00     0.053 C 
BRANCH   7   8
ATOM      8  C   UNL     1     -13.090 -11.886  -0.601  1.00  0.00     0.041 C 
ATOM      9  O   UNL     1     -13.868 -11.406  -1.467  1.00  0.00    -0.550 OA
ATOM     10  O   UNL     1     -12.065 -12.738  -0.994  1.00  0.00    -0.550 OA
ENDBRANCH   7   8
ENDBRANCH   6   7
ENDBRANCH   5   6
ENDBRANCH   4   5
ENDBRANCH   3   4
ENDBRANCH   2   3
ENDBRANCH   1   2
BRANCH   1  11
ATOM     11  C   UNL     1     -11.686 -10.417   4.771  1.00  0.00     0.000 C 
BRANCH  11  12
ATOM     12  C   UNL     1     -12.974  -9.730   4.290  1.00  0.00    -0.000 C 
BRANCH  12  13
ATOM     13  C   UNL     1     -14.244 -10.467   4.742  1.00  0.00    -0.000 C 
BRANCH  13  14
ATOM     14  C   UNL     1     -15.081  -9.589   5.683  1.00  0.00    -0.000 C 
BRANCH  14  15
ATOM     15  C   UNL     1     -14.786  -9.854   7.171  1.00  0.00    -0.000 C 
BRANCH  15  16
ATOM     16  C   UNL     1     -14.073  -8.704   7.911  1.00  0.00    -0.000 C 
BRANCH  16  17
ATOM     17  C   UNL     1     -12.544  -8.844   8.010  1.00  0.00    -0.003 C 
ATOM     18  C   UNL     1     -12.108 -10.132   8.709  1.00  0.00     0.004 C 
ENDBRANCH  16  17
ENDBRANCH  15  16
ENDBRANCH  14  15
ENDBRANCH  13  14
ENDBRANCH  12  13
ENDBRANCH  11  12
ENDBRANCH   1  11
TORSDOF 14
ENDMDL
MODEL 7
REMARK VINA RESULT:    -3.474      2.312      5.333
REMARK INTER + INTRA:          -8.268
REMARK INTER:                  -6.538
REMARK INTRA:                  -1.730
REMARK UNBOUND:                -1.951
REMARK SMILES CCCCCCCCCCCCCCCC(=O)[O-]
REMARK SMILES IDX 9 1 10 2 11 3 12 4 13 5 14 6 15 7 16 8 17 9 18 10 8 11 7 12
REMARK SMILES IDX 6 13 5 14 4 15 3 16 2 17 1 18
REMARK H PARENT
REMARK Flexibility Score: inf
ROOT
ATOM      1  C   UNL     1       2.857   1.244  -5.058  1.00  0.00     0.000 C 
ENDROOT
BRANCH   1   2
ATOM      2  C   UNL     1       4.286   1.565  -5.548  1.00  0.00     0.000 C 
BRANCH   2   3
ATOM      3  C   UNL     1       4.518   3.059  -5.847  1.00  0.00     0.000 C 
BRANCH   3   4
ATOM      4  C   UNL     1       3.307   3.798  -6.447  1.00  0.00     0.000 C 
BRANCH   4   5
ATOM      5  C   UNL     1       3.027   5.184  -5.836  1.00  0.00     0.000 C 
BRANCH   5   6
ATOM      6  C   UNL     1       1.536   5.414  -5.531  1.00  0.00     0.006 C 
BRANCH   6   7
ATOM      7  C   UNL     1       0.629   4.483  -6.347  1.00  0.00     0.053 C 
BRANCH   7   8
ATOM      8  C   UNL     1      -0.704   5.109  -6.622  1.00  0.00     0.041 C 
ATOM      9  O   UNL     1      -1.721   4.744  -5.975  1.00  0.00    -0.550 OA
ATOM     10  O   UNL     1      -0.830   6.069  -7.619  1.00  0.00    -0.550 OA
ENDBRANCH   7   8
ENDBRANCH   6   7
ENDBRANCH   5   6
ENDBRANCH   4   5
ENDBRANCH   3   4
ENDBRANCH   2   3
ENDBRANCH   1   2
BRANCH   1  11
ATOM     11  C   UNL     1       2.840   0.150  -3.977  1.00  0.00     0.000 C 
BRANCH  11  12
ATOM     12  C   UNL     1       3.843  -0.980  -4.261  1.00  0.00    -0.000 C 
BRANCH  12  13
ATOM     13  C   UNL     1       3.198  -2.182  -4.966  1.00  0.00    -0.000 C 
BRANCH  13  14
ATOM     14  C   UNL     1       3.839  -2.419  -6.341  1.00  0.00    -0.000 C 
BRANCH  14  15
ATOM     15  C   UNL     1       2.842  -2.254  -7.503  1.00  0.00    -0.000 C 
BRANCH  15  16
ATOM     16  C   UNL     1       2.740  -0.827  -8.078  1.00  0.00    -0.000 C 
BRANCH  16  17
ATOM     17  C   UNL     1       1.313  -0.365  -8.422  1.00  0.00    -0.003 C 
ATOM     18  C   UNL     1       1.094   1.127  -8.171  1.00  0.00     0.004 C 
ENDBRANCH  16  17
ENDBRANCH  15  16
ENDBRANCH  14  15
ENDBRANCH  13  14
ENDBRANCH  12  13
ENDBRANCH  11  12
ENDBRANCH   1  11
TORSDOF 14
ENDMDL
MODEL 8
REMARK VINA RESULT:    -3.459     21.435     23.196
REMARK INTER + INTRA:          -8.241
REMARK INTER:                  -6.432
REMARK INTRA:                  -1.810
REMARK UNBOUND:                -1.951
REMARK SMILES CCCCCCCCCCCCCCCC(=O)[O-]
REMARK SMILES IDX 9 1 10 2 11 3 12 4 13 5 14 6 15 7 16 8 17 9 18 10 8 11 7 12
REMARK SMILES IDX 6 13 5 14 4 15 3 16 2 17 1 18
REMARK H PARENT
REMARK Flexibility Score: inf
ROOT
ATOM      1  C   UNL     1     -11.339 -11.640   5.128  1.00  0.00     0.000 C 
ENDROOT
BRANCH   1   2
ATOM      2  C   UNL     1     -11.788 -10.191   4.838  1.00  0.00     0.000 C 
BRANCH   2   3
ATOM      3  C   UNL     1     -13.186 -10.093   4.197  1.00  0.00     0.000 C 
BRANCH   3   4
ATOM      4  C   UNL     1     -14.307  -9.632   5.148  1.00  0.00     0.000 C 
BRANCH   4   5
ATOM      5  C   UNL     1     -14.161 -10.114   6.603  1.00  0.00     0.000 C 
BRANCH   5   6
ATOM      6  C   UNL     1     -14.105  -8.956   7.615  1.00  0.00     0.006 C 
BRANCH   6   7
ATOM      7  C   UNL     1     -12.690  -8.740   8.169  1.00  0.00     0.053 C 
BRANCH   7   8
ATOM      8  C   UNL     1     -12.214  -9.924   8.954  1.00  0.00     0.041 C 
ATOM      9  O   UNL     1     -12.784 -10.240  10.032  1.00  0.00    -0.550 OA
ATOM     10  O   UNL     1     -11.120 -10.657   8.514  1.00  0.00    -0.550 OA
ENDBRANCH   7   8
ENDBRANCH   6   7
ENDBRANCH   5   6
ENDBRANCH   4   5
ENDBRANCH   3   4
ENDBRANCH   2   3
ENDBRANCH   1   2
BRANCH   1  11
ATOM     11  C   UNL     1     -12.324 -12.681   4.571  1.00  0.00     0.000 C 
BRANCH  11  12
ATOM     12  C   UNL     1     -11.656 -13.671   3.603  1.00  0.00    -0.000 C 
BRANCH  12  13
ATOM     13  C   UNL     1     -12.472 -13.888   2.320  1.00  0.00    -0.000 C 
BRANCH  13  14
ATOM     14  C   UNL     1     -13.943 -13.502   2.535  1.00  0.00    -0.000 C 
BRANCH  14  15
ATOM     15  C   UNL     1     -14.419 -12.397   1.574  1.00  0.00    -0.000 C 
BRANCH  15  16
ATOM     16  C   UNL     1     -13.291 -11.620   0.864  1.00  0.00    -0.000 C 
BRANCH  16  17
ATOM     17  C   UNL     1     -13.335 -11.670  -0.673  1.00  0.00    -0.003 C 
ATOM     18  C   UNL     1     -12.562 -12.854  -1.251  1.00  0.00     0.004 C 
ENDBRANCH  16  17
ENDBRANCH  15  16
ENDBRANCH  14  15
ENDBRANCH  13  14
ENDBRANCH  12  13
ENDBRANCH  11  12
ENDBRANCH   1  11
TORSDOF 14
ENDMDL
MODEL 9
REMARK VINA RESULT:    -3.357     20.279     22.193
REMARK INTER + INTRA:          -8.056
REMARK INTER:                  -6.373
REMARK INTRA:                  -1.683
REMARK UNBOUND:                -1.951
REMARK SMILES CCCCCCCCCCCCCCCC(=O)[O-]
REMARK SMILES IDX 9 1 10 2 11 3 12 4 13 5 14 6 15 7 16 8 17 9 18 10 8 11 7 12
REMARK SMILES IDX 6 13 5 14 4 15 3 16 2 17 1 18
REMARK H PARENT
REMARK Flexibility Score: inf
ROOT
ATOM      1  C   UNL     1     -13.268 -11.501   1.270  1.00  0.00     0.000 C 
ENDROOT
BRANCH   1   2
ATOM      2  C   UNL     1     -12.906 -12.777   2.062  1.00  0.00     0.000 C 
BRANCH   2   3
ATOM      3  C   UNL     1     -13.845 -13.054   3.252  1.00  0.00     0.000 C 
BRANCH   3   4
ATOM      4  C   UNL     1     -14.731 -11.866   3.672  1.00  0.00     0.000 C 
BRANCH   4   5
ATOM      5  C   UNL     1     -14.299 -11.165   4.974  1.00  0.00     0.000 C 
BRANCH   5   6
ATOM      6  C   UNL     1     -13.590  -9.822   4.724  1.00  0.00     0.006 C 
BRANCH   6   7
ATOM      7  C   UNL     1     -12.088 -10.001   4.463  1.00  0.00     0.053 C 
BRANCH   7   8
ATOM      8  C   UNL     1     -11.432 -10.819   5.534  1.00  0.00     0.041 C 
ATOM      9  O   UNL     1     -11.375 -10.386   6.715  1.00  0.00    -0.550 OA
ATOM     10  O   UNL     1     -10.853 -12.041   5.219  1.00  0.00    -0.550 OA
ENDBRANCH   7   8
ENDBRANCH   6   7
ENDBRANCH   5   6
ENDBRANCH   4   5
ENDBRANCH   3   4
ENDBRANCH   2   3
ENDBRANCH   1   2
BRANCH   1  11
ATOM     11  C   UNL     1     -13.244 -11.730  -0.251  1.00  0.00     0.000 C 
BRANCH  11  12
ATOM     12  C   UNL     1     -14.344 -12.695  -0.722  1.00  0.00    -0.000 C 
BRANCH  12  13
ATOM     13  C   UNL     1     -14.901 -12.329  -2.106  1.00  0.00    -0.000 C 
BRANCH  13  14
ATOM     14  C   UNL     1     -14.116 -11.161  -2.720  1.00  0.00    -0.000 C 
BRANCH  14  15
ATOM     15  C   UNL     1     -13.523 -11.498  -4.100  1.00  0.00    -0.000 C 
BRANCH  15  16
ATOM     16  C   UNL     1     -12.918 -12.911  -4.223  1.00  0.00    -0.000 C 
BRANCH  16  17
ATOM     17  C   UNL     1     -11.408 -12.999  -3.943  1.00  0.00    -0.003 C 
ATOM     18  C   UNL     1     -11.092 -13.550  -2.553  1.00  0.00     0.004 C 
ENDBRANCH  16  17
ENDBRANCH  15  16
ENDBRANCH  14  15
ENDBRANCH  13  14
ENDBRANCH  12  13
ENDBRANCH  11  12
ENDBRANCH   1  11
TORSDOF 14
ENDMDL
