MODEL 1
REMARK VINA RESULT:    -4.202      0.000      0.000
REMARK INTER + INTRA:          -6.478
REMARK INTER:                  -6.167
REMARK INTRA:                  -0.311
REMARK UNBOUND:                -0.311
REMARK SMILES O=C([O-])CCCCCCCC(=O)[O-]
REMARK SMILES IDX 7 1 6 2 5 3 4 4 2 5 1 6 3 7 8 8 9 9 10 10 11 11 12 12 13 13
REMARK H PARENT
REMARK Flexibility Score: inf
ROOT
ATOM      1  C   UNL     1      -5.278  27.897  55.819  1.00  0.00     0.000 C 
ENDROOT
BRANCH   1   2
ATOM      2  C   UNL     1      -4.725  29.294  55.496  1.00  0.00     0.000 C 
BRANCH   2   3
ATOM      3  C   UNL     1      -5.451  30.413  56.263  1.00  0.00     0.006 C 
BRANCH   3   4
ATOM      4  C   UNL     1      -5.738  31.632  55.377  1.00  0.00     0.053 C 
BRANCH   4   5
ATOM      5  C   UNL     1      -7.207  31.815  55.143  1.00  0.00     0.041 C 
ATOM      6  O   UNL     1      -7.624  32.219  54.026  1.00  0.00    -0.550 OA
ATOM      7  O   UNL     1      -8.115  31.507  56.147  1.00  0.00    -0.550 OA
ENDBRANCH   4   5
ENDBRANCH   3   4
ENDBRANCH   2   3
ENDBRANCH   1   2
BRANCH   1   8
ATOM      8  C   UNL     1      -5.391  27.643  57.331  1.00  0.00     0.000 C 
BRANCH   8   9
ATOM      9  C   UNL     1      -6.404  26.537  57.669  1.00  0.00     0.006 C 
BRANCH   9  10
ATOM     10  C   UNL     1      -6.666  25.592  56.489  1.00  0.00     0.053 C 
BRANCH  10  11
ATOM     11  C   UNL     1      -7.203  24.284  56.976  1.00  0.00     0.041 C 
ATOM     12  O   UNL     1      -8.161  23.730  56.376  1.00  0.00    -0.550 OA
ATOM     13  O   UNL     1      -6.680  23.701  58.123  1.00  0.00    -0.550 OA
ENDBRANCH  10  11
ENDBRANCH   9  10
ENDBRANCH   8   9
ENDBRANCH   1   8
TORSDOF 8
ENDMDL
MODEL 2
REMARK VINA RESULT:    -4.196      0.716      6.526
REMARK INTER + INTRA:          -6.469
REMARK INTER:                  -6.151
REMARK INTRA:                  -0.318
REMARK UNBOUND:                -0.311
REMARK SMILES O=C([O-])CCCCCCCC(=O)[O-]
REMARK SMILES IDX 7 1 6 2 5 3 4 4 2 5 1 6 3 7 8 8 9 9 10 10 11 11 12 12 13 13
REMARK H PARENT
REMARK Flexibility Score: inf
ROOT
ATOM      1  C   UNL     1      -5.120  27.641  56.472  1.00  0.00     0.000 C 
ENDROOT
BRANCH   1   2
ATOM      2  C   UNL     1      -4.705  26.903  57.754  1.00  0.00     0.000 C 
BRANCH   2   3
ATOM      3  C   UNL     1      -5.905  26.313  58.516  1.00  0.00     0.006 C 
BRANCH   3   4
ATOM      4  C   UNL     1      -7.027  25.864  57.571  1.00  0.00     0.053 C 
BRANCH   4   5
ATOM      5  C   UNL     1      -7.139  24.371  57.512  1.00  0.00     0.041 C 
ATOM      6  O   UNL     1      -6.558  23.658  58.371  1.00  0.00    -0.550 OA
ATOM      7  O   UNL     1      -7.912  23.770  56.528  1.00  0.00    -0.550 OA
ENDBRANCH   4   5
ENDBRANCH   3   4
ENDBRANCH   2   3
ENDBRANCH   1   2
BRANCH   1   8
ATOM      8  C   UNL     1      -5.046  29.171  56.623  1.00  0.00     0.000 C 
BRANCH   8   9
ATOM      9  C   UNL     1      -5.574  29.912  55.385  1.00  0.00     0.006 C 
BRANCH   9  10
ATOM     10  C   UNL     1      -5.842  31.399  55.652  1.00  0.00     0.053 C 
BRANCH  10  11
ATOM     11  C   UNL     1      -7.245  31.753  55.275  1.00  0.00     0.041 C 
ATOM     12  O   UNL     1      -8.186  31.565  56.090  1.00  0.00    -0.550 OA
ATOM     13  O   UNL     1      -7.522  32.244  54.005  1.00  0.00    -0.550 OA
ENDBRANCH  10  11
ENDBRANCH   9  10
ENDBRANCH   8   9
ENDBRANCH   1   8
TORSDOF 8
ENDMDL
MODEL 3
REMARK VINA RESULT:    -4.172      4.252      6.185
REMARK INTER + INTRA:          -6.435
REMARK INTER:                  -5.913
REMARK INTRA:                  -0.522
REMARK UNBOUND:                -0.311
REMARK SMILES O=C([O-])CCCCCCCC(=O)[O-]
REMARK SMILES IDX 7 1 6 2 5 3 4 4 2 5 1 6 3 7 8 8 9 9 10 10 11 11 12 12 13 13
REMARK H PARENT
REMARK Flexibility Score: inf
ROOT
ATOM      1  C   UNL     1      -3.766  24.323  56.631  1.00  0.00     0.000 C 
ENDROOT
BRANCH   1   2
ATOM      2  C   UNL     1      -5.140  23.640  56.700  1.00  0.00     0.000 C 
BRANCH   2   3
ATOM      3  C   UNL     1      -5.921  24.004  57.975  1.00  0.00     0.006 C 
BRANCH   3   4
ATOM      4  C   UNL     1      -7.324  24.541  57.663  1.00  0.00     0.053 C 
BRANCH   4   5
ATOM      5  C   UNL     1      -7.570  25.865  58.318  1.00  0.00     0.041 C 
ATOM      6  O   UNL     1      -8.303  25.940  59.338  1.00  0.00    -0.550 OA
ATOM      7  O   UNL     1      -6.963  27.011  57.821  1.00  0.00    -0.550 OA
ENDBRANCH   4   5
ENDBRANCH   3   4
ENDBRANCH   2   3
ENDBRANCH   1   2
BRANCH   1   8
ATOM      8  C   UNL     1      -3.809  25.786  57.103  1.00  0.00     0.000 C 
BRANCH   8   9
ATOM      9  C   UNL     1      -2.855  26.055  58.278  1.00  0.00     0.006 C 
BRANCH   9  10
ATOM     10  C   UNL     1      -3.428  27.056  59.290  1.00  0.00     0.053 C 
BRANCH  10  11
ATOM     11  C   UNL     1      -2.455  28.165  59.537  1.00  0.00     0.041 C 
ATOM     12  O   UNL     1      -2.763  29.120  60.296  1.00  0.00    -0.550 OA
ATOM     13  O   UNL     1      -1.226  28.169  58.889  1.00  0.00    -0.550 OA
ENDBRANCH  10  11
ENDBRANCH   9  10
ENDBRANCH   8   9
ENDBRANCH   1   8
TORSDOF 8
ENDMDL
MODEL 4
REMARK VINA RESULT:    -4.087      4.115      4.997
REMARK INTER + INTRA:          -6.310
REMARK INTER:                  -5.859
REMARK INTRA:                  -0.450
REMARK UNBOUND:                -0.311
REMARK SMILES O=C([O-])CCCCCCCC(=O)[O-]
REMARK SMILES IDX 7 1 6 2 5 3 4 4 2 5 1 6 3 7 8 8 9 9 10 10 11 11 12 12 13 13
REMARK H PARENT
REMARK Flexibility Score: inf
ROOT
ATOM      1  C   UNL     1      -2.445  25.042  56.545  1.00  0.00     0.000 C 
ENDROOT
BRANCH   1   2
ATOM      2  C   UNL     1      -1.875  26.298  57.222  1.00  0.00     0.000 C 
BRANCH   2   3
ATOM      3  C   UNL     1      -2.967  27.191  57.836  1.00  0.00     0.006 C 
BRANCH   3   4
ATOM      4  C   UNL     1      -2.743  27.433  59.334  1.00  0.00     0.053 C 
BRANCH   4   5
ATOM      5  C   UNL     1      -2.055  28.739  59.589  1.00  0.00     0.041 C 
ATOM      6  O   UNL     1      -2.710  29.728  60.011  1.00  0.00    -0.550 OA
ATOM      7  O   UNL     1      -0.685  28.854  59.393  1.00  0.00    -0.550 OA
ENDBRANCH   4   5
ENDBRANCH   3   4
ENDBRANCH   2   3
ENDBRANCH   1   2
BRANCH   1   8
ATOM      8  C   UNL     1      -3.958  25.147  56.286  1.00  0.00     0.000 C 
BRANCH   8   9
ATOM      9  C   UNL     1      -4.709  23.856  56.650  1.00  0.00     0.006 C 
BRANCH   9  10
ATOM     10  C   UNL     1      -5.836  24.091  57.665  1.00  0.00     0.053 C 
BRANCH  10  11
ATOM     11  C   UNL     1      -7.093  24.499  56.965  1.00  0.00     0.041 C 
ATOM     12  O   UNL     1      -7.875  23.625  56.507  1.00  0.00    -0.550 OA
ATOM     13  O   UNL     1      -7.377  25.845  56.772  1.00  0.00    -0.550 OA
ENDBRANCH  10  11
ENDBRANCH   9  10
ENDBRANCH   8   9
ENDBRANCH   1   8
TORSDOF 8
ENDMDL
MODEL 5
REMARK VINA RESULT:    -4.039      4.060      6.593
REMARK INTER + INTRA:          -6.239
REMARK INTER:                  -5.849
REMARK INTRA:                  -0.390
REMARK UNBOUND:                -0.311
REMARK SMILES O=C([O-])CCCCCCCC(=O)[O-]
REMARK SMILES IDX 7 1 6 2 5 3 4 4 2 5 1 6 3 7 8 8 9 9 10 10 11 11 12 12 13 13
REMARK H PARENT
REMARK Flexibility Score: inf
ROOT
ATOM      1  C   UNL     1      -4.257  25.936  57.952  1.00  0.00     0.000 C 
ENDROOT
BRANCH   1   2
ATOM      2  C   UNL     1      -5.404  26.211  58.936  1.00  0.00     0.000 C 
BRANCH   2   3
ATOM      3  C   UNL     1      -6.542  25.182  58.827  1.00  0.00     0.006 C 
BRANCH   3   4
ATOM      4  C   UNL     1      -6.311  24.181  57.687  1.00  0.00     0.053 C 
BRANCH   4   5
ATOM      5  C   UNL     1      -7.269  24.398  56.556  1.00  0.00     0.041 C 
ATOM      6  O   UNL     1      -8.217  23.592  56.366  1.00  0.00    -0.550 OA
ATOM      7  O   UNL     1      -7.135  25.509  55.734  1.00  0.00    -0.550 OA
ENDBRANCH   4   5
ENDBRANCH   3   4
ENDBRANCH   2   3
ENDBRANCH   1   2
BRANCH   1   8
ATOM      8  C   UNL     1      -2.872  26.157  58.583  1.00  0.00     0.000 C 
BRANCH   8   9
ATOM      9  C   UNL     1      -1.940  26.987  57.686  1.00  0.00     0.006 C 
BRANCH   9  10
ATOM     10  C   UNL     1      -2.104  28.498  57.898  1.00  0.00     0.053 C 
BRANCH  10  11
ATOM     11  C   UNL     1      -1.698  28.878  59.286  1.00  0.00     0.041 C 
ATOM     12  O   UNL     1      -2.574  29.152  60.149  1.00  0.00    -0.550 OA
ATOM     13  O   UNL     1      -0.352  28.979  59.615  1.00  0.00    -0.550 OA
ENDBRANCH  10  11
ENDBRANCH   9  10
ENDBRANCH   8   9
ENDBRANCH   1   8
TORSDOF 8
ENDMDL
MODEL 6
REMARK VINA RESULT:    -3.983      3.175      6.605
REMARK INTER + INTRA:          -6.157
REMARK INTER:                  -5.746
REMARK INTRA:                  -0.411
REMARK UNBOUND:                -0.311
REMARK SMILES O=C([O-])CCCCCCCC(=O)[O-]
REMARK SMILES IDX 7 1 6 2 5 3 4 4 2 5 1 6 3 7 8 8 9 9 10 10 11 11 12 12 13 13
REMARK H PARENT
REMARK Flexibility Score: inf
ROOT
ATOM      1  C   UNL     1      -3.472  30.079  56.796  1.00  0.00     0.000 C 
ENDROOT
BRANCH   1   2
ATOM      2  C   UNL     1      -3.148  30.312  58.279  1.00  0.00     0.000 C 
BRANCH   2   3
ATOM      3  C   UNL     1      -2.061  29.359  58.807  1.00  0.00     0.006 C 
BRANCH   3   4
ATOM      4  C   UNL     1      -2.652  28.190  59.605  1.00  0.00     0.053 C 
BRANCH   4   5
ATOM      5  C   UNL     1      -2.557  26.899  58.851  1.00  0.00     0.041 C 
ATOM      6  O   UNL     1      -3.049  25.846  59.335  1.00  0.00    -0.550 OA
ATOM      7  O   UNL     1      -1.956  26.866  57.600  1.00  0.00    -0.550 OA
ENDBRANCH   4   5
ENDBRANCH   3   4
ENDBRANCH   2   3
ENDBRANCH   1   2
BRANCH   1   8
ATOM      8  C   UNL     1      -4.873  29.480  56.586  1.00  0.00     0.000 C 
BRANCH   8   9
ATOM      9  C   UNL     1      -5.583  30.057  55.350  1.00  0.00     0.006 C 
BRANCH   9  10
ATOM     10  C   UNL     1      -5.866  31.559  55.476  1.00  0.00     0.053 C 
BRANCH  10  11
ATOM     11  C   UNL     1      -7.276  31.860  55.078  1.00  0.00     0.041 C 
ATOM     12  O   UNL     1      -8.232  31.506  55.818  1.00  0.00    -0.550 OA
ATOM     13  O   UNL     1      -7.539  32.487  53.867  1.00  0.00    -0.550 OA
ENDBRANCH  10  11
ENDBRANCH   9  10
ENDBRANCH   8   9
ENDBRANCH   1   8
TORSDOF 8
ENDMDL
MODEL 7
REMARK VINA RESULT:    -3.949      2.491      5.826
REMARK INTER + INTRA:          -6.108
REMARK INTER:                  -5.505
REMARK INTRA:                  -0.603
REMARK UNBOUND:                -0.311
REMARK SMILES O=C([O-])CCCCCCCC(=O)[O-]
REMARK SMILES IDX 7 1 6 2 5 3 4 4 2 5 1 6 3 7 8 8 9 9 10 10 11 11 12 12 13 13
REMARK H PARENT
REMARK Flexibility Score: inf
ROOT
ATOM      1  C   UNL     1      -2.822  26.752  58.575  1.00  0.00     0.000 C 
ENDROOT
BRANCH   1   2
ATOM      2  C   UNL     1      -3.820  25.841  59.306  1.00  0.00     0.000 C 
BRANCH   2   3
ATOM      3  C   UNL     1      -4.833  25.182  58.353  1.00  0.00     0.006 C 
BRANCH   3   4
ATOM      4  C   UNL     1      -6.284  25.483  58.750  1.00  0.00     0.053 C 
BRANCH   4   5
ATOM      5  C   UNL     1      -7.258  24.923  57.760  1.00  0.00     0.041 C 
ATOM      6  O   UNL     1      -8.253  25.603  57.397  1.00  0.00    -0.550 OA
ATOM      7  O   UNL     1      -7.048  23.664  57.213  1.00  0.00    -0.550 OA
ENDBRANCH   4   5
ENDBRANCH   3   4
ENDBRANCH   2   3
ENDBRANCH   1   2
BRANCH   1   8
ATOM      8  C   UNL     1      -2.763  28.166  59.176  1.00  0.00     0.000 C 
BRANCH   8   9
ATOM      9  C   UNL     1      -3.194  29.251  58.176  1.00  0.00     0.006 C 
BRANCH   9  10
ATOM     10  C   UNL     1      -3.690  28.668  56.846  1.00  0.00     0.053 C 
BRANCH  10  11
ATOM     11  C   UNL     1      -5.141  28.974  56.651  1.00  0.00     0.041 C 
ATOM     12  O   UNL     1      -5.973  28.038  56.520  1.00  0.00    -0.550 OA
ATOM     13  O   UNL     1      -5.570  30.292  56.563  1.00  0.00    -0.550 OA
ENDBRANCH  10  11
ENDBRANCH   9  10
ENDBRANCH   8   9
ENDBRANCH   1   8
TORSDOF 8
ENDMDL
MODEL 8
REMARK VINA RESULT:    -3.938      3.748      4.594
REMARK INTER + INTRA:          -6.092
REMARK INTER:                  -5.585
REMARK INTRA:                  -0.507
REMARK UNBOUND:                -0.311
REMARK SMILES O=C([O-])CCCCCCCC(=O)[O-]
REMARK SMILES IDX 7 1 6 2 5 3 4 4 2 5 1 6 3 7 8 8 9 9 10 10 11 11 12 12 13 13
REMARK H PARENT
REMARK Flexibility Score: inf
ROOT
ATOM      1  C   UNL     1      -3.720  26.580  57.043  1.00  0.00     0.000 C 
ENDROOT
BRANCH   1   2
ATOM      2  C   UNL     1      -4.476  27.884  57.341  1.00  0.00     0.000 C 
BRANCH   2   3
ATOM      3  C   UNL     1      -3.537  29.042  57.721  1.00  0.00     0.006 C 
BRANCH   3   4
ATOM      4  C   UNL     1      -2.106  28.563  57.994  1.00  0.00     0.053 C 
BRANCH   4   5
ATOM      5  C   UNL     1      -1.635  28.968  59.357  1.00  0.00     0.041 C 
ATOM      6  O   UNL     1      -0.404  28.997  59.619  1.00  0.00    -0.550 OA
ATOM      7  O   UNL     1      -2.554  29.348  60.327  1.00  0.00    -0.550 OA
ENDBRANCH   4   5
ENDBRANCH   3   4
ENDBRANCH   2   3
ENDBRANCH   1   2
BRANCH   1   8
ATOM      8  C   UNL     1      -4.021  25.476  58.070  1.00  0.00     0.000 C 
BRANCH   8   9
ATOM      9  C   UNL     1      -5.489  25.475  58.523  1.00  0.00     0.006 C 
BRANCH   9  10
ATOM     10  C   UNL     1      -6.254  24.229  58.056  1.00  0.00     0.053 C 
BRANCH  10  11
ATOM     11  C   UNL     1      -7.162  24.569  56.918  1.00  0.00     0.041 C 
ATOM     12  O   UNL     1      -7.890  23.681  56.402  1.00  0.00    -0.550 OA
ATOM     13  O   UNL     1      -7.170  25.856  56.395  1.00  0.00    -0.550 OA
ENDBRANCH  10  11
ENDBRANCH   9  10
ENDBRANCH   8   9
ENDBRANCH   1   8
TORSDOF 8
ENDMDL
MODEL 9
REMARK VINA RESULT:    -3.937      2.596      3.567
REMARK INTER + INTRA:          -6.090
REMARK INTER:                  -5.391
REMARK INTRA:                  -0.699
REMARK UNBOUND:                -0.311
REMARK SMILES O=C([O-])CCCCCCCC(=O)[O-]
REMARK SMILES IDX 7 1 6 2 5 3 4 4 2 5 1 6 3 7 8 8 9 9 10 10 11 11 12 12 13 13
REMARK H PARENT
REMARK Flexibility Score: inf
ROOT
ATOM      1  C   UNL     1      -3.781  25.830  58.974  1.00  0.00     0.000 C 
ENDROOT
BRANCH   1   2
ATOM      2  C   UNL     1      -2.784  26.999  58.974  1.00  0.00     0.000 C 
BRANCH   2   3
ATOM      3  C   UNL     1      -2.556  27.587  57.570  1.00  0.00     0.006 C 
BRANCH   3   4
ATOM      4  C   UNL     1      -3.804  27.475  56.686  1.00  0.00     0.053 C 
BRANCH   4   5
ATOM      5  C   UNL     1      -4.700  28.667  56.836  1.00  0.00     0.041 C 
ATOM      6  O   UNL     1      -5.922  28.511  57.096  1.00  0.00    -0.550 OA
ATOM      7  O   UNL     1      -4.177  29.948  56.724  1.00  0.00    -0.550 OA
ENDBRANCH   4   5
ENDBRANCH   3   4
ENDBRANCH   2   3
ENDBRANCH   1   2
BRANCH   1   8
ATOM      8  C   UNL     1      -5.103  26.182  59.677  1.00  0.00     0.000 C 
BRANCH   8   9
ATOM      9  C   UNL     1      -6.326  25.572  58.975  1.00  0.00     0.006 C 
BRANCH   9  10
ATOM     10  C   UNL     1      -5.942  24.652  57.808  1.00  0.00     0.053 C 
BRANCH  10  11
ATOM     11  C   UNL     1      -6.976  24.717  56.729  1.00  0.00     0.041 C 
ATOM     12  O   UNL     1      -7.775  23.760  56.559  1.00  0.00    -0.550 OA
ATOM     13  O   UNL     1      -7.025  25.814  55.878  1.00  0.00    -0.550 OA
ENDBRANCH  10  11
ENDBRANCH   9  10
ENDBRANCH   8   9
ENDBRANCH   1   8
TORSDOF 8
ENDMDL
