MODEL 1
REMARK VINA RESULT:    -3.584      0.000      0.000
REMARK INTER + INTRA:          -8.818
REMARK INTER:                  -6.727
REMARK INTRA:                  -2.092
REMARK UNBOUND:                -2.092
REMARK SMILES CCCCCCCCC=CCCCCCCCC(=O)[O-]
REMARK SMILES IDX 10 1 9 2 11 3 12 4 13 5 14 6 15 7 16 8 17 9 18 10 19 11
REMARK SMILES IDX 20 12 8 13 7 14 6 15 5 16 4 17 3 18 2 19 1 20
REMARK H PARENT
REMARK Flexibility Score: inf
ROOT
ATOM      1  C   UNL     1      -3.788  -8.297   7.293  1.00  0.00    -0.031 C 
ATOM      2  C   UNL     1      -4.721  -7.358   7.538  1.00  0.00    -0.031 C 
ENDROOT
BRANCH   1   3
ATOM      3  C   UNL     1      -2.858  -8.888   8.324  1.00  0.00     0.027 C 
BRANCH   3   4
ATOM      4  C   UNL     1      -3.137 -10.380   8.546  1.00  0.00     0.004 C 
BRANCH   4   5
ATOM      5  C   UNL     1      -4.472 -10.585   9.279  1.00  0.00     0.000 C 
BRANCH   5   6
ATOM      6  C   UNL     1      -5.504 -11.348   8.433  1.00  0.00     0.000 C 
BRANCH   6   7
ATOM      7  C   UNL     1      -6.847 -10.604   8.328  1.00  0.00     0.000 C 
BRANCH   7   8
ATOM      8  C   UNL     1      -7.263 -10.333   6.871  1.00  0.00     0.006 C 
BRANCH   8   9
ATOM      9  C   UNL     1      -6.150 -10.573   5.837  1.00  0.00     0.053 C 
BRANCH   9  10
ATOM     10  C   UNL     1      -6.595 -11.479   4.732  1.00  0.00     0.041 C 
ATOM     11  O   UNL     1      -7.794 -11.470   4.348  1.00  0.00    -0.550 OA
ATOM     12  O   UNL     1      -5.678 -12.308   4.100  1.00  0.00    -0.550 OA
ENDBRANCH   9  10
ENDBRANCH   8   9
ENDBRANCH   7   8
ENDBRANCH   6   7
ENDBRANCH   5   6
ENDBRANCH   4   5
ENDBRANCH   3   4
ENDBRANCH   1   3
BRANCH   2  13
ATOM     13  C   UNL     1      -5.020  -6.758   8.891  1.00  0.00     0.027 C 
BRANCH  13  14
ATOM     14  C   UNL     1      -6.397  -7.220   9.383  1.00  0.00     0.004 C 
BRANCH  14  15
ATOM     15  C   UNL     1      -7.320  -6.050   9.768  1.00  0.00     0.000 C 
BRANCH  15  16
ATOM     16  C   UNL     1      -6.654  -4.663   9.719  1.00  0.00     0.000 C 
BRANCH  16  17
ATOM     17  C   UNL     1      -7.366  -3.694   8.758  1.00  0.00    -0.000 C 
BRANCH  17  18
ATOM     18  C   UNL     1      -8.865  -3.999   8.614  1.00  0.00    -0.000 C 
BRANCH  18  19
ATOM     19  C   UNL     1      -9.735  -2.736   8.705  1.00  0.00    -0.003 C 
ATOM     20  C   UNL     1      -8.873  -1.484   8.837  1.00  0.00     0.004 C 
ENDBRANCH  18  19
ENDBRANCH  17  18
ENDBRANCH  16  17
ENDBRANCH  15  16
ENDBRANCH  14  15
ENDBRANCH  13  14
ENDBRANCH   2  13
TORSDOF 15
ENDMDL
MODEL 2
REMARK VINA RESULT:    -3.515      4.041      7.834
REMARK INTER + INTRA:          -8.689
REMARK INTER:                  -6.931
REMARK INTRA:                  -1.758
REMARK UNBOUND:                -2.092
REMARK SMILES CCCCCCCCC=CCCCCCCCC(=O)[O-]
REMARK SMILES IDX 10 1 9 2 11 3 12 4 13 5 14 6 15 7 16 8 17 9 18 10 19 11
REMARK SMILES IDX 20 12 8 13 7 14 6 15 5 16 4 17 3 18 2 19 1 20
REMARK H PARENT
REMARK Flexibility Score: inf
ROOT
ATOM      1  C   UNL     1      -4.757  -7.655   7.427  1.00  0.00    -0.031 C 
ATOM      2  C   UNL     1      -3.713  -8.504   7.364  1.00  0.00    -0.031 C 
ENDROOT
BRANCH   1   3
ATOM      3  C   UNL     1      -5.081  -6.762   8.599  1.00  0.00     0.027 C 
BRANCH   3   4
ATOM      4  C   UNL     1      -6.283  -7.289   9.393  1.00  0.00     0.004 C 
BRANCH   4   5
ATOM      5  C   UNL     1      -7.201  -6.136   9.828  1.00  0.00     0.000 C 
BRANCH   5   6
ATOM      6  C   UNL     1      -6.734  -4.771   9.297  1.00  0.00     0.000 C 
BRANCH   6   7
ATOM      7  C   UNL     1      -7.909  -3.834   8.964  1.00  0.00     0.000 C 
BRANCH   7   8
ATOM      8  C   UNL     1      -7.919  -2.562   9.831  1.00  0.00     0.006 C 
BRANCH   8   9
ATOM      9  C   UNL     1      -8.255  -1.272   9.065  1.00  0.00     0.053 C 
BRANCH   9  10
ATOM     10  C   UNL     1      -7.065  -0.375   8.922  1.00  0.00     0.041 C 
ATOM     11  O   UNL     1      -5.938  -0.745   9.345  1.00  0.00    -0.550 OA
ATOM     12  O   UNL     1      -7.191   0.854   8.288  1.00  0.00    -0.550 OA
ENDBRANCH   9  10
ENDBRANCH   8   9
ENDBRANCH   7   8
ENDBRANCH   6   7
ENDBRANCH   5   6
ENDBRANCH   4   5
ENDBRANCH   3   4
ENDBRANCH   1   3
BRANCH   2  13
ATOM     13  C   UNL     1      -2.671  -8.684   8.440  1.00  0.00     0.027 C 
BRANCH  13  14
ATOM     14  C   UNL     1      -3.184  -9.646   9.519  1.00  0.00     0.004 C 
BRANCH  14  15
ATOM     15  C   UNL     1      -3.581 -11.023   8.956  1.00  0.00     0.000 C 
BRANCH  15  16
ATOM     16  C   UNL     1      -4.922 -11.569   9.478  1.00  0.00     0.000 C 
BRANCH  16  17
ATOM     17  C   UNL     1      -6.137 -10.948   8.765  1.00  0.00    -0.000 C 
BRANCH  17  18
ATOM     18  C   UNL     1      -6.400 -11.578   7.389  1.00  0.00    -0.000 C 
BRANCH  18  19
ATOM     19  C   UNL     1      -6.650 -10.526   6.298  1.00  0.00    -0.003 C 
ATOM     20  C   UNL     1      -6.494 -11.131   4.906  1.00  0.00     0.004 C 
ENDBRANCH  18  19
ENDBRANCH  17  18
ENDBRANCH  16  17
ENDBRANCH  15  16
ENDBRANCH  14  15
ENDBRANCH  13  14
ENDBRANCH   2  13
TORSDOF 15
ENDMDL
MODEL 3
REMARK VINA RESULT:    -3.467     19.013     21.432
REMARK INTER + INTRA:          -8.599
REMARK INTER:                  -7.615
REMARK INTRA:                  -0.984
REMARK UNBOUND:                -2.092
REMARK SMILES CCCCCCCCC=CCCCCCCCC(=O)[O-]
REMARK SMILES IDX 10 1 9 2 11 3 12 4 13 5 14 6 15 7 16 8 17 9 18 10 19 11
REMARK SMILES IDX 20 12 8 13 7 14 6 15 5 16 4 17 3 18 2 19 1 20
REMARK H PARENT
REMARK Flexibility Score: inf
ROOT
ATOM      1  C   UNL     1       8.917  -5.745  -9.533  1.00  0.00    -0.031 C 
ATOM      2  C   UNL     1       8.035  -6.745  -9.724  1.00  0.00    -0.031 C 
ENDROOT
BRANCH   1   3
ATOM      3  C   UNL     1       8.672  -4.520  -8.687  1.00  0.00     0.027 C 
BRANCH   3   4
ATOM      4  C   UNL     1       9.137  -3.243  -9.397  1.00  0.00     0.004 C 
BRANCH   4   5
ATOM      5  C   UNL     1       9.064  -2.032  -8.454  1.00  0.00     0.000 C 
BRANCH   5   6
ATOM      6  C   UNL     1       8.631  -2.415  -7.028  1.00  0.00     0.000 C 
BRANCH   6   7
ATOM      7  C   UNL     1       7.853  -1.288  -6.326  1.00  0.00     0.000 C 
BRANCH   7   8
ATOM      8  C   UNL     1       8.587  -0.741  -5.088  1.00  0.00     0.006 C 
BRANCH   8   9
ATOM      9  C   UNL     1       9.489  -1.766  -4.380  1.00  0.00     0.053 C 
BRANCH   9  10
ATOM     10  C   UNL     1       8.842  -2.334  -3.155  1.00  0.00     0.041 C 
ATOM     11  O   UNL     1       9.477  -3.129  -2.414  1.00  0.00    -0.550 OA
ATOM     12  O   UNL     1       7.550  -1.958  -2.811  1.00  0.00    -0.550 OA
ENDBRANCH   9  10
ENDBRANCH   8   9
ENDBRANCH   7   8
ENDBRANCH   6   7
ENDBRANCH   5   6
ENDBRANCH   4   5
ENDBRANCH   3   4
ENDBRANCH   1   3
BRANCH   2  13
ATOM     13  C   UNL     1       6.664  -6.828  -9.100  1.00  0.00     0.027 C 
BRANCH  13  14
ATOM     14  C   UNL     1       6.406  -8.246  -8.574  1.00  0.00     0.004 C 
BRANCH  14  15
ATOM     15  C   UNL     1       5.095  -8.853  -9.104  1.00  0.00     0.000 C 
BRANCH  15  16
ATOM     16  C   UNL     1       3.909  -8.777  -8.126  1.00  0.00     0.000 C 
BRANCH  16  17
ATOM     17  C   UNL     1       2.760  -7.898  -8.650  1.00  0.00    -0.000 C 
BRANCH  17  18
ATOM     18  C   UNL     1       3.052  -6.396  -8.509  1.00  0.00    -0.000 C 
BRANCH  18  19
ATOM     19  C   UNL     1       2.008  -5.523  -9.220  1.00  0.00    -0.003 C 
ATOM     20  C   UNL     1       1.725  -4.250  -8.427  1.00  0.00     0.004 C 
ENDBRANCH  18  19
ENDBRANCH  17  18
ENDBRANCH  16  17
ENDBRANCH  15  16
ENDBRANCH  14  15
ENDBRANCH  13  14
ENDBRANCH   2  13
TORSDOF 15
ENDMDL
MODEL 4
REMARK VINA RESULT:    -3.443     14.910     16.647
REMARK INTER + INTRA:          -8.554
REMARK INTER:                  -6.298
REMARK INTRA:                  -2.257
REMARK UNBOUND:                -2.092
REMARK SMILES CCCCCCCCC=CCCCCCCCC(=O)[O-]
REMARK SMILES IDX 10 1 9 2 11 3 12 4 13 5 14 6 15 7 16 8 17 9 18 10 19 11
REMARK SMILES IDX 20 12 8 13 7 14 6 15 5 16 4 17 3 18 2 19 1 20
REMARK H PARENT
REMARK Flexibility Score: inf
ROOT
ATOM      1  C   UNL     1       3.315   2.249   9.113  1.00  0.00    -0.031 C 
ATOM      2  C   UNL     1       3.579   3.442   9.681  1.00  0.00    -0.031 C 
ENDROOT
BRANCH   1   3
ATOM      3  C   UNL     1       4.270   1.470   8.244  1.00  0.00     0.027 C 
BRANCH   3   4
ATOM      4  C   UNL     1       4.964   0.351   9.031  1.00  0.00     0.004 C 
BRANCH   4   5
ATOM      5  C   UNL     1       6.414   0.733   9.366  1.00  0.00     0.000 C 
BRANCH   5   6
ATOM      6  C   UNL     1       7.383   0.465   8.204  1.00  0.00     0.000 C 
BRANCH   6   7
ATOM      7  C   UNL     1       7.461  -1.026   7.831  1.00  0.00     0.000 C 
BRANCH   7   8
ATOM      8  C   UNL     1       8.210  -1.269   6.508  1.00  0.00     0.006 C 
BRANCH   8   9
ATOM      9  C   UNL     1       8.629   0.013   5.770  1.00  0.00     0.053 C 
BRANCH   9  10
ATOM     10  C   UNL     1       8.819  -0.219   4.303  1.00  0.00     0.041 C 
ATOM     11  O   UNL     1       8.563  -1.344   3.801  1.00  0.00    -0.550 OA
ATOM     12  O   UNL     1       9.244   0.818   3.484  1.00  0.00    -0.550 OA
ENDBRANCH   9  10
ENDBRANCH   8   9
ENDBRANCH   7   8
ENDBRANCH   6   7
ENDBRANCH   5   6
ENDBRANCH   4   5
ENDBRANCH   3   4
ENDBRANCH   1   3
BRANCH   2  13
ATOM     13  C   UNL     1       4.887   4.187   9.573  1.00  0.00     0.027 C 
BRANCH  13  14
ATOM     14  C   UNL     1       4.753   5.352   8.584  1.00  0.00     0.004 C 
BRANCH  14  15
ATOM     15  C   UNL     1       5.631   5.179   7.331  1.00  0.00     0.000 C 
BRANCH  15  16
ATOM     16  C   UNL     1       6.672   4.049   7.426  1.00  0.00     0.000 C 
BRANCH  16  17
ATOM     17  C   UNL     1       6.898   3.332   6.083  1.00  0.00    -0.000 C 
BRANCH  17  18
ATOM     18  C   UNL     1       6.820   4.287   4.883  1.00  0.00    -0.000 C 
BRANCH  18  19
ATOM     19  C   UNL     1       5.909   3.756   3.766  1.00  0.00    -0.003 C 
ATOM     20  C   UNL     1       5.875   2.231   3.763  1.00  0.00     0.004 C 
ENDBRANCH  18  19
ENDBRANCH  17  18
ENDBRANCH  16  17
ENDBRANCH  15  16
ENDBRANCH  14  15
ENDBRANCH  13  14
ENDBRANCH   2  13
TORSDOF 15
ENDMDL
MODEL 5
REMARK VINA RESULT:    -3.414     17.949     20.077
REMARK INTER + INTRA:          -8.500
REMARK INTER:                  -7.219
REMARK INTRA:                  -1.281
REMARK UNBOUND:                -2.092
REMARK SMILES CCCCCCCCC=CCCCCCCCC(=O)[O-]
REMARK SMILES IDX 10 1 9 2 11 3 12 4 13 5 14 6 15 7 16 8 17 9 18 10 19 11
REMARK SMILES IDX 20 12 8 13 7 14 6 15 5 16 4 17 3 18 2 19 1 20
REMARK H PARENT
REMARK Flexibility Score: inf
ROOT
ATOM      1  C   UNL     1      -6.299   4.179  -6.639  1.00  0.00    -0.031 C 
ATOM      2  C   UNL     1      -6.820   5.205  -5.939  1.00  0.00    -0.031 C 
ENDROOT
BRANCH   1   3
ATOM      3  C   UNL     1      -4.852   4.053  -7.049  1.00  0.00     0.027 C 
BRANCH   3   4
ATOM      4  C   UNL     1      -4.638   4.487  -8.504  1.00  0.00     0.004 C 
BRANCH   4   5
ATOM      5  C   UNL     1      -3.541   5.559  -8.602  1.00  0.00     0.000 C 
BRANCH   5   6
ATOM      6  C   UNL     1      -2.408   5.163  -9.563  1.00  0.00     0.000 C 
BRANCH   6   7
ATOM      7  C   UNL     1      -2.154   3.645  -9.584  1.00  0.00     0.000 C 
BRANCH   7   8
ATOM      8  C   UNL     1      -0.677   3.287  -9.339  1.00  0.00     0.006 C 
BRANCH   8   9
ATOM      9  C   UNL     1       0.309   4.436  -9.607  1.00  0.00     0.053 C 
BRANCH   9  10
ATOM     10  C   UNL     1       1.132   4.765  -8.400  1.00  0.00     0.041 C 
ATOM     11  O   UNL     1       0.571   5.083  -7.318  1.00  0.00    -0.550 OA
ATOM     12  O   UNL     1       2.516   4.684  -8.458  1.00  0.00    -0.550 OA
ENDBRANCH   9  10
ENDBRANCH   8   9
ENDBRANCH   7   8
ENDBRANCH   6   7
ENDBRANCH   5   6
ENDBRANCH   4   5
ENDBRANCH   3   4
ENDBRANCH   1   3
BRANCH   2  13
ATOM     13  C   UNL     1      -6.042   6.387  -5.415  1.00  0.00     0.027 C 
BRANCH  13  14
ATOM     14  C   UNL     1      -6.039   6.382  -3.881  1.00  0.00     0.004 C 
BRANCH  14  15
ATOM     15  C   UNL     1      -4.686   5.954  -3.285  1.00  0.00     0.000 C 
BRANCH  15  16
ATOM     16  C   UNL     1      -4.772   5.307  -1.892  1.00  0.00     0.000 C 
BRANCH  16  17
ATOM     17  C   UNL     1      -3.751   5.891  -0.899  1.00  0.00    -0.000 C 
BRANCH  17  18
ATOM     18  C   UNL     1      -2.398   5.165  -0.946  1.00  0.00    -0.000 C 
BRANCH  18  19
ATOM     19  C   UNL     1      -1.227   6.119  -1.225  1.00  0.00    -0.003 C 
ATOM     20  C   UNL     1      -1.113   6.426  -2.715  1.00  0.00     0.004 C 
ENDBRANCH  18  19
ENDBRANCH  17  18
ENDBRANCH  16  17
ENDBRANCH  15  16
ENDBRANCH  14  15
ENDBRANCH  13  14
ENDBRANCH   2  13
TORSDOF 15
ENDMDL
MODEL 6
REMARK VINA RESULT:    -3.406     14.694     17.025
REMARK INTER + INTRA:          -8.484
REMARK INTER:                  -5.976
REMARK INTRA:                  -2.508
REMARK UNBOUND:                -2.092
REMARK SMILES CCCCCCCCC=CCCCCCCCC(=O)[O-]
REMARK SMILES IDX 10 1 9 2 11 3 12 4 13 5 14 6 15 7 16 8 17 9 18 10 19 11
REMARK SMILES IDX 20 12 8 13 7 14 6 15 5 16 4 17 3 18 2 19 1 20
REMARK H PARENT
REMARK Flexibility Score: inf
ROOT
ATOM      1  C   UNL     1       3.589   1.972   8.590  1.00  0.00    -0.031 C 
ATOM      2  C   UNL     1       4.274   0.821   8.725  1.00  0.00    -0.031 C 
ENDROOT
BRANCH   1   3
ATOM      3  C   UNL     1       3.801   3.213   9.422  1.00  0.00     0.027 C 
BRANCH   3   4
ATOM      4  C   UNL     1       4.594   4.278   8.654  1.00  0.00     0.004 C 
BRANCH   4   5
ATOM      5  C   UNL     1       6.104   4.104   8.876  1.00  0.00     0.000 C 
BRANCH   5   6
ATOM      6  C   UNL     1       6.928   4.388   7.609  1.00  0.00     0.000 C 
BRANCH   6   7
ATOM      7  C   UNL     1       7.517   3.108   6.989  1.00  0.00     0.000 C 
BRANCH   7   8
ATOM      8  C   UNL     1       6.501   2.348   6.117  1.00  0.00     0.006 C 
BRANCH   8   9
ATOM      9  C   UNL     1       6.894   2.236   4.635  1.00  0.00     0.053 C 
BRANCH   9  10
ATOM     10  C   UNL     1       5.814   2.735   3.727  1.00  0.00     0.041 C 
ATOM     11  O   UNL     1       5.829   3.926   3.318  1.00  0.00    -0.550 OA
ATOM     12  O   UNL     1       4.810   1.876   3.301  1.00  0.00    -0.550 OA
ENDBRANCH   9  10
ENDBRANCH   8   9
ENDBRANCH   7   8
ENDBRANCH   6   7
ENDBRANCH   5   6
ENDBRANCH   4   5
ENDBRANCH   3   4
ENDBRANCH   1   3
BRANCH   2  13
ATOM     13  C   UNL     1       5.394   0.584   9.708  1.00  0.00     0.027 C 
BRANCH  13  14
ATOM     14  C   UNL     1       5.725  -0.912   9.784  1.00  0.00     0.004 C 
BRANCH  14  15
ATOM     15  C   UNL     1       6.968  -1.294   8.959  1.00  0.00     0.000 C 
BRANCH  15  16
ATOM     16  C   UNL     1       7.910  -0.121   8.635  1.00  0.00     0.000 C 
BRANCH  16  17
ATOM     17  C   UNL     1       8.876  -0.434   7.479  1.00  0.00    -0.000 C 
BRANCH  17  18
ATOM     18  C   UNL     1       8.249  -1.347   6.414  1.00  0.00    -0.000 C 
BRANCH  18  19
ATOM     19  C   UNL     1       8.642  -0.943   4.986  1.00  0.00    -0.003 C 
ATOM     20  C   UNL     1       9.840   0.002   4.993  1.00  0.00     0.004 C 
ENDBRANCH  18  19
ENDBRANCH  17  18
ENDBRANCH  16  17
ENDBRANCH  15  16
ENDBRANCH  14  15
ENDBRANCH  13  14
ENDBRANCH   2  13
TORSDOF 15
ENDMDL
MODEL 7
REMARK VINA RESULT:    -3.289      4.189      7.033
REMARK INTER + INTRA:          -8.265
REMARK INTER:                  -6.686
REMARK INTRA:                  -1.579
REMARK UNBOUND:                -2.092
REMARK SMILES CCCCCCCCC=CCCCCCCCC(=O)[O-]
REMARK SMILES IDX 10 1 9 2 11 3 12 4 13 5 14 6 15 7 16 8 17 9 18 10 19 11
REMARK SMILES IDX 20 12 8 13 7 14 6 15 5 16 4 17 3 18 2 19 1 20
REMARK H PARENT
REMARK Flexibility Score: inf
ROOT
ATOM      1  C   UNL     1      -3.839  -8.355   7.316  1.00  0.00    -0.031 C 
ATOM      2  C   UNL     1      -4.830  -7.448   7.422  1.00  0.00    -0.031 C 
ENDROOT
BRANCH   1   3
ATOM      3  C   UNL     1      -2.890  -8.738   8.424  1.00  0.00     0.027 C 
BRANCH   3   4
ATOM      4  C   UNL     1      -2.737 -10.260   8.533  1.00  0.00     0.004 C 
BRANCH   4   5
ATOM      5  C   UNL     1      -1.276 -10.647   8.812  1.00  0.00     0.000 C 
BRANCH   5   6
ATOM      6  C   UNL     1      -0.652  -9.830   9.955  1.00  0.00     0.000 C 
BRANCH   6   7
ATOM      7  C   UNL     1       0.381  -8.805   9.454  1.00  0.00     0.000 C 
BRANCH   7   8
ATOM      8  C   UNL     1       1.304  -9.377   8.363  1.00  0.00     0.006 C 
BRANCH   8   9
ATOM      9  C   UNL     1       2.801  -9.339   8.712  1.00  0.00     0.053 C 
BRANCH   9  10
ATOM     10  C   UNL     1       3.663  -9.301   7.489  1.00  0.00     0.041 C 
ATOM     11  O   UNL     1       4.363  -8.284   7.238  1.00  0.00    -0.550 OA
ATOM     12  O   UNL     1       3.724 -10.402   6.645  1.00  0.00    -0.550 OA
ENDBRANCH   9  10
ENDBRANCH   8   9
ENDBRANCH   7   8
ENDBRANCH   6   7
ENDBRANCH   5   6
ENDBRANCH   4   5
ENDBRANCH   3   4
ENDBRANCH   1   3
BRANCH   2  13
ATOM     13  C   UNL     1      -5.181  -6.684   8.676  1.00  0.00     0.027 C 
BRANCH  13  14
ATOM     14  C   UNL     1      -6.513  -7.185   9.246  1.00  0.00     0.004 C 
BRANCH  14  15
ATOM     15  C   UNL     1      -6.456  -8.655   9.702  1.00  0.00     0.000 C 
BRANCH  15  16
ATOM     16  C   UNL     1      -7.437  -9.592   8.976  1.00  0.00     0.000 C 
BRANCH  16  17
ATOM     17  C   UNL     1      -6.724 -10.672   8.142  1.00  0.00    -0.000 C 
BRANCH  17  18
ATOM     18  C   UNL     1      -7.322 -10.823   6.736  1.00  0.00    -0.000 C 
BRANCH  18  19
ATOM     19  C   UNL     1      -6.295 -10.552   5.626  1.00  0.00    -0.003 C 
ATOM     20  C   UNL     1      -6.373 -11.615   4.535  1.00  0.00     0.004 C 
ENDBRANCH  18  19
ENDBRANCH  17  18
ENDBRANCH  16  17
ENDBRANCH  15  16
ENDBRANCH  14  15
ENDBRANCH  13  14
ENDBRANCH   2  13
TORSDOF 15
ENDMDL
MODEL 8
REMARK VINA RESULT:    -3.274      2.335      6.326
REMARK INTER + INTRA:          -8.236
REMARK INTER:                  -5.967
REMARK INTRA:                  -2.269
REMARK UNBOUND:                -2.092
REMARK SMILES CCCCCCCCC=CCCCCCCCC(=O)[O-]
REMARK SMILES IDX 10 1 9 2 11 3 12 4 13 5 14 6 15 7 16 8 17 9 18 10 19 11
REMARK SMILES IDX 20 12 8 13 7 14 6 15 5 16 4 17 3 18 2 19 1 20
REMARK H PARENT
REMARK Flexibility Score: inf
ROOT
ATOM      1  C   UNL     1      -4.725  -7.445   7.484  1.00  0.00    -0.031 C 
ATOM      2  C   UNL     1      -3.883  -8.461   7.216  1.00  0.00    -0.031 C 
ENDROOT
BRANCH   1   3
ATOM      3  C   UNL     1      -4.903  -6.797   8.834  1.00  0.00     0.027 C 
BRANCH   3   4
ATOM      4  C   UNL     1      -6.332  -6.975   9.362  1.00  0.00     0.004 C 
BRANCH   4   5
ATOM      5  C   UNL     1      -6.533  -8.386   9.937  1.00  0.00     0.000 C 
BRANCH   5   6
ATOM      6  C   UNL     1      -7.693  -9.141   9.268  1.00  0.00     0.000 C 
BRANCH   6   7
ATOM      7  C   UNL     1      -7.227 -10.417   8.544  1.00  0.00     0.000 C 
BRANCH   7   8
ATOM      8  C   UNL     1      -7.214 -10.259   7.012  1.00  0.00     0.006 C 
BRANCH   8   9
ATOM      9  C   UNL     1      -6.265 -11.223   6.282  1.00  0.00     0.053 C 
BRANCH   9  10
ATOM     10  C   UNL     1      -6.686 -11.463   4.866  1.00  0.00     0.041 C 
ATOM     11  O   UNL     1      -7.865 -11.209   4.504  1.00  0.00    -0.550 OA
ATOM     12  O   UNL     1      -5.768 -11.932   3.936  1.00  0.00    -0.550 OA
ENDBRANCH   9  10
ENDBRANCH   8   9
ENDBRANCH   7   8
ENDBRANCH   6   7
ENDBRANCH   5   6
ENDBRANCH   4   5
ENDBRANCH   3   4
ENDBRANCH   1   3
BRANCH   2  13
ATOM     13  C   UNL     1      -2.949  -9.105   8.212  1.00  0.00     0.027 C 
BRANCH  13  14
ATOM     14  C   UNL     1      -3.582 -10.378   8.786  1.00  0.00     0.004 C 
BRANCH  14  15
ATOM     15  C   UNL     1      -2.542 -11.368   9.340  1.00  0.00     0.000 C 
BRANCH  15  16
ATOM     16  C   UNL     1      -1.201 -11.382   8.585  1.00  0.00     0.000 C 
BRANCH  16  17
ATOM     17  C   UNL     1       0.015 -11.390   9.528  1.00  0.00    -0.000 C 
BRANCH  17  18
ATOM     18  C   UNL     1       0.705 -10.020   9.614  1.00  0.00    -0.000 C 
BRANCH  18  19
ATOM     19  C   UNL     1       0.813  -9.328   8.247  1.00  0.00    -0.003 C 
ATOM     20  C   UNL     1       2.040  -9.813   7.481  1.00  0.00     0.004 C 
ENDBRANCH  18  19
ENDBRANCH  17  18
ENDBRANCH  16  17
ENDBRANCH  15  16
ENDBRANCH  14  15
ENDBRANCH  13  14
ENDBRANCH   2  13
TORSDOF 15
ENDMDL
