MODEL 1
REMARK VINA RESULT:    -4.004      0.000      0.000
REMARK INTER + INTRA:          -9.076
REMARK INTER:                  -7.046
REMARK INTRA:                  -2.030
REMARK UNBOUND:                -2.030
REMARK SMILES CCCCCCCCCCCCCCC(=O)[O-]
REMARK SMILES IDX 9 1 10 2 11 3 12 4 13 5 14 6 15 7 16 8 17 9 8 10 7 11 6 12
REMARK SMILES IDX 5 13 4 14 3 15 2 16 1 17
REMARK H PARENT
REMARK Flexibility Score: inf
ROOT
ATOM      1  C   UNL     1     129.160 146.000 108.861  1.00  0.00     0.000 C 
ENDROOT
BRANCH   1   2
ATOM      2  C   UNL     1     129.676 144.621 108.427  1.00  0.00     0.000 C 
BRANCH   2   3
ATOM      3  C   UNL     1     131.001 144.745 107.665  1.00  0.00     0.000 C 
BRANCH   3   4
ATOM      4  C   UNL     1     130.894 145.783 106.538  1.00  0.00     0.000 C 
BRANCH   4   5
ATOM      5  C   UNL     1     132.113 146.716 106.475  1.00  0.00     0.006 C 
BRANCH   5   6
ATOM      6  C   UNL     1     133.094 146.484 107.632  1.00  0.00     0.053 C 
BRANCH   6   7
ATOM      7  C   UNL     1     134.445 146.117 107.103  1.00  0.00     0.041 C 
ATOM      8  O   UNL     1     134.554 145.276 106.172  1.00  0.00    -0.550 OA
ATOM      9  O   UNL     1     135.581 146.741 107.603  1.00  0.00    -0.550 OA
ENDBRANCH   6   7
ENDBRANCH   5   6
ENDBRANCH   4   5
ENDBRANCH   3   4
ENDBRANCH   2   3
ENDBRANCH   1   2
BRANCH   1  10
ATOM     10  C   UNL     1     127.648 146.174 108.631  1.00  0.00     0.000 C 
BRANCH  10  11
ATOM     11  C   UNL     1     127.045 145.261 107.547  1.00  0.00    -0.000 C 
BRANCH  11  12
ATOM     12  C   UNL     1     126.875 145.916 106.162  1.00  0.00    -0.000 C 
BRANCH  12  13
ATOM     13  C   UNL     1     127.702 145.238 105.048  1.00  0.00    -0.000 C 
BRANCH  13  14
ATOM     14  C   UNL     1     127.546 143.710 105.049  1.00  0.00    -0.000 C 
BRANCH  14  15
ATOM     15  C   UNL     1     128.893 143.021 105.297  1.00  0.00    -0.000 C 
BRANCH  15  16
ATOM     16  C   UNL     1     128.711 141.743 106.125  1.00  0.00    -0.003 C 
ATOM     17  C   UNL     1     127.357 141.732 106.830  1.00  0.00     0.004 C 
ENDBRANCH  15  16
ENDBRANCH  14  15
ENDBRANCH  13  14
ENDBRANCH  12  13
ENDBRANCH  11  12
ENDBRANCH  10  11
ENDBRANCH   1  10
TORSDOF 13
ENDMDL
MODEL 2
REMARK VINA RESULT:    -3.884      1.276      3.327
REMARK INTER + INTRA:          -8.866
REMARK INTER:                  -6.945
REMARK INTRA:                  -1.921
REMARK UNBOUND:                -2.030
REMARK SMILES CCCCCCCCCCCCCCC(=O)[O-]
REMARK SMILES IDX 9 1 10 2 11 3 12 4 13 5 14 6 15 7 16 8 17 9 8 10 7 11 6 12
REMARK SMILES IDX 5 13 4 14 3 15 2 16 1 17
REMARK H PARENT
REMARK Flexibility Score: inf
ROOT
ATOM      1  C   UNL     1     129.400 142.544 106.201  1.00  0.00     0.000 C 
ENDROOT
BRANCH   1   2
ATOM      2  C   UNL     1     130.363 143.536 105.536  1.00  0.00     0.000 C 
BRANCH   2   3
ATOM      3  C   UNL     1     130.897 144.551 106.553  1.00  0.00     0.000 C 
BRANCH   3   4
ATOM      4  C   UNL     1     130.730 145.988 106.038  1.00  0.00     0.000 C 
BRANCH   4   5
ATOM      5  C   UNL     1     132.047 146.779 106.052  1.00  0.00     0.006 C 
BRANCH   5   6
ATOM      6  C   UNL     1     133.221 145.962 106.607  1.00  0.00     0.053 C 
BRANCH   6   7
ATOM      7  C   UNL     1     133.756 146.596 107.852  1.00  0.00     0.041 C 
ATOM      8  O   UNL     1     134.993 146.784 107.986  1.00  0.00    -0.550 OA
ATOM      9  O   UNL     1     132.883 147.026 108.844  1.00  0.00    -0.550 OA
ENDBRANCH   6   7
ENDBRANCH   5   6
ENDBRANCH   4   5
ENDBRANCH   3   4
ENDBRANCH   2   3
ENDBRANCH   1   2
BRANCH   1  10
ATOM     10  C   UNL     1     127.920 142.858 105.912  1.00  0.00     0.000 C 
BRANCH  10  11
ATOM     11  C   UNL     1     127.680 144.086 105.014  1.00  0.00    -0.000 C 
BRANCH  11  12
ATOM     12  C   UNL     1     127.135 145.331 105.742  1.00  0.00    -0.000 C 
BRANCH  12  13
ATOM     13  C   UNL     1     126.875 145.106 107.247  1.00  0.00    -0.000 C 
BRANCH  13  14
ATOM     14  C   UNL     1     127.728 146.026 108.134  1.00  0.00    -0.000 C 
BRANCH  14  15
ATOM     15  C   UNL     1     128.453 145.224 109.220  1.00  0.00    -0.000 C 
BRANCH  15  16
ATOM     16  C   UNL     1     129.673 145.990 109.746  1.00  0.00    -0.003 C 
ATOM     17  C   UNL     1     130.112 145.458 111.108  1.00  0.00     0.004 C 
ENDBRANCH  15  16
ENDBRANCH  14  15
ENDBRANCH  13  14
ENDBRANCH  12  13
ENDBRANCH  11  12
ENDBRANCH  10  11
ENDBRANCH   1  10
TORSDOF 13
ENDMDL
MODEL 3
REMARK VINA RESULT:    -3.783      2.532      5.879
REMARK INTER + INTRA:          -8.687
REMARK INTER:                  -7.236
REMARK INTRA:                  -1.451
REMARK UNBOUND:                -2.030
REMARK SMILES CCCCCCCCCCCCCCC(=O)[O-]
REMARK SMILES IDX 9 1 10 2 11 3 12 4 13 5 14 6 15 7 16 8 17 9 8 10 7 11 6 12
REMARK SMILES IDX 5 13 4 14 3 15 2 16 1 17
REMARK H PARENT
REMARK Flexibility Score: inf
ROOT
ATOM      1  C   UNL     1     128.980 143.090 105.821  1.00  0.00     0.000 C 
ENDROOT
BRANCH   1   2
ATOM      2  C   UNL     1     128.077 143.611 104.695  1.00  0.00     0.000 C 
BRANCH   2   3
ATOM      3  C   UNL     1     127.368 144.905 105.113  1.00  0.00     0.000 C 
BRANCH   3   4
ATOM      4  C   UNL     1     126.905 144.832 106.575  1.00  0.00     0.000 C 
BRANCH   4   5
ATOM      5  C   UNL     1     127.058 146.171 107.313  1.00  0.00     0.006 C 
BRANCH   5   6
ATOM      6  C   UNL     1     127.113 146.003 108.837  1.00  0.00     0.053 C 
BRANCH   6   7
ATOM      7  C   UNL     1     128.507 145.682 109.276  1.00  0.00     0.041 C 
ATOM      8  O   UNL     1     129.335 146.608 109.479  1.00  0.00    -0.550 OA
ATOM      9  O   UNL     1     128.877 144.363 109.509  1.00  0.00    -0.550 OA
ENDBRANCH   6   7
ENDBRANCH   5   6
ENDBRANCH   4   5
ENDBRANCH   3   4
ENDBRANCH   2   3
ENDBRANCH   1   2
BRANCH   1  10
ATOM     10  C   UNL     1     130.448 143.528 105.663  1.00  0.00     0.000 C 
BRANCH  10  11
ATOM     11  C   UNL     1     130.914 144.612 106.653  1.00  0.00    -0.000 C 
BRANCH  11  12
ATOM     12  C   UNL     1     130.661 146.063 106.200  1.00  0.00    -0.000 C 
BRANCH  12  13
ATOM     13  C   UNL     1     131.945 146.825 105.810  1.00  0.00    -0.000 C 
BRANCH  13  14
ATOM     14  C   UNL     1     133.221 146.034 106.140  1.00  0.00    -0.000 C 
BRANCH  14  15
ATOM     15  C   UNL     1     134.200 146.054 104.961  1.00  0.00    -0.000 C 
BRANCH  15  16
ATOM     16  C   UNL     1     135.544 145.428 105.354  1.00  0.00    -0.003 C 
ATOM     17  C   UNL     1     136.427 146.435 106.087  1.00  0.00     0.004 C 
ENDBRANCH  15  16
ENDBRANCH  14  15
ENDBRANCH  13  14
ENDBRANCH  12  13
ENDBRANCH  11  12
ENDBRANCH  10  11
ENDBRANCH   1  10
TORSDOF 13
ENDMDL
MODEL 4
REMARK VINA RESULT:    -3.761      2.193      4.792
REMARK INTER + INTRA:          -8.649
REMARK INTER:                  -6.766
REMARK INTRA:                  -1.883
REMARK UNBOUND:                -2.030
REMARK SMILES CCCCCCCCCCCCCCC(=O)[O-]
REMARK SMILES IDX 9 1 10 2 11 3 12 4 13 5 14 6 15 7 16 8 17 9 8 10 7 11 6 12
REMARK SMILES IDX 5 13 4 14 3 15 2 16 1 17
REMARK H PARENT
REMARK Flexibility Score: inf
ROOT
ATOM      1  C   UNL     1     127.621 145.165 105.269  1.00  0.00     0.000 C 
ENDROOT
BRANCH   1   2
ATOM      2  C   UNL     1     126.949 145.955 106.400  1.00  0.00     0.000 C 
BRANCH   2   3
ATOM      3  C   UNL     1     126.876 145.122 107.686  1.00  0.00     0.000 C 
BRANCH   3   4
ATOM      4  C   UNL     1     127.262 145.964 108.911  1.00  0.00     0.000 C 
BRANCH   4   5
ATOM      5  C   UNL     1     128.777 146.203 109.011  1.00  0.00     0.006 C 
BRANCH   5   6
ATOM      6  C   UNL     1     129.431 145.383 110.132  1.00  0.00     0.053 C 
BRANCH   6   7
ATOM      7  C   UNL     1     130.632 146.096 110.666  1.00  0.00     0.041 C 
ATOM      8  O   UNL     1     131.425 146.678 109.880  1.00  0.00    -0.550 OA
ATOM      9  O   UNL     1     130.850 146.161 112.037  1.00  0.00    -0.550 OA
ENDBRANCH   6   7
ENDBRANCH   5   6
ENDBRANCH   4   5
ENDBRANCH   3   4
ENDBRANCH   2   3
ENDBRANCH   1   2
BRANCH   1  10
ATOM     10  C   UNL     1     127.590 143.642 105.501  1.00  0.00     0.000 C 
BRANCH  10  11
ATOM     11  C   UNL     1     128.932 142.922 105.271  1.00  0.00    -0.000 C 
BRANCH  11  12
ATOM     12  C   UNL     1     129.704 142.555 106.554  1.00  0.00    -0.000 C 
BRANCH  12  13
ATOM     13  C   UNL     1     130.559 143.711 107.116  1.00  0.00    -0.000 C 
BRANCH  13  14
ATOM     14  C   UNL     1     131.299 144.484 106.013  1.00  0.00    -0.000 C 
BRANCH  14  15
ATOM     15  C   UNL     1     131.060 145.993 106.147  1.00  0.00    -0.000 C 
BRANCH  15  16
ATOM     16  C   UNL     1     132.372 146.732 106.440  1.00  0.00    -0.003 C 
ATOM     17  C   UNL     1     133.546 146.076 105.718  1.00  0.00     0.004 C 
ENDBRANCH  15  16
ENDBRANCH  14  15
ENDBRANCH  13  14
ENDBRANCH  12  13
ENDBRANCH  11  12
ENDBRANCH  10  11
ENDBRANCH   1  10
TORSDOF 13
ENDMDL
MODEL 5
REMARK VINA RESULT:    -3.715      1.220      3.186
REMARK INTER + INTRA:          -8.568
REMARK INTER:                  -6.993
REMARK INTRA:                  -1.574
REMARK UNBOUND:                -2.030
REMARK SMILES CCCCCCCCCCCCCCC(=O)[O-]
REMARK SMILES IDX 9 1 10 2 11 3 12 4 13 5 14 6 15 7 16 8 17 9 8 10 7 11 6 12
REMARK SMILES IDX 5 13 4 14 3 15 2 16 1 17
REMARK H PARENT
REMARK Flexibility Score: inf
ROOT
ATOM      1  C   UNL     1     129.896 143.299 106.429  1.00  0.00     0.000 C 
ENDROOT
BRANCH   1   2
ATOM      2  C   UNL     1     130.999 144.131 105.760  1.00  0.00     0.000 C 
BRANCH   2   3
ATOM      3  C   UNL     1     130.910 145.602 106.183  1.00  0.00     0.000 C 
BRANCH   3   4
ATOM      4  C   UNL     1     132.241 146.329 105.934  1.00  0.00     0.000 C 
BRANCH   4   5
ATOM      5  C   UNL     1     133.423 145.361 105.777  1.00  0.00     0.006 C 
BRANCH   5   6
ATOM      6  C   UNL     1     134.679 146.048 105.225  1.00  0.00     0.053 C 
BRANCH   6   7
ATOM      7  C   UNL     1     135.743 146.111 106.275  1.00  0.00     0.041 C 
ATOM      8  O   UNL     1     136.892 145.653 106.042  1.00  0.00    -0.550 OA
ATOM      9  O   UNL     1     135.480 146.721 107.496  1.00  0.00    -0.550 OA
ENDBRANCH   6   7
ENDBRANCH   5   6
ENDBRANCH   4   5
ENDBRANCH   3   4
ENDBRANCH   2   3
ENDBRANCH   1   2
BRANCH   1  10
ATOM     10  C   UNL     1     128.780 142.887 105.451  1.00  0.00     0.000 C 
BRANCH  10  11
ATOM     11  C   UNL     1     127.422 143.576 105.688  1.00  0.00    -0.000 C 
BRANCH  11  12
ATOM     12  C   UNL     1     127.342 145.041 105.216  1.00  0.00    -0.000 C 
BRANCH  12  13
ATOM     13  C   UNL     1     126.878 146.022 106.314  1.00  0.00    -0.000 C 
BRANCH  13  14
ATOM     14  C   UNL     1     127.038 145.441 107.728  1.00  0.00    -0.000 C 
BRANCH  14  15
ATOM     15  C   UNL     1     128.097 146.213 108.523  1.00  0.00    -0.000 C 
BRANCH  15  16
ATOM     16  C   UNL     1     129.045 145.253 109.251  1.00  0.00    -0.003 C 
ATOM     17  C   UNL     1     129.908 145.996 110.267  1.00  0.00     0.004 C 
ENDBRANCH  15  16
ENDBRANCH  14  15
ENDBRANCH  13  14
ENDBRANCH  12  13
ENDBRANCH  11  12
ENDBRANCH  10  11
ENDBRANCH   1  10
TORSDOF 13
ENDMDL
MODEL 6
REMARK VINA RESULT:    -3.714      3.201      5.829
REMARK INTER + INTRA:          -8.566
REMARK INTER:                  -6.440
REMARK INTRA:                  -2.126
REMARK UNBOUND:                -2.030
REMARK SMILES CCCCCCCCCCCCCCC(=O)[O-]
REMARK SMILES IDX 9 1 10 2 11 3 12 4 13 5 14 6 15 7 16 8 17 9 8 10 7 11 6 12
REMARK SMILES IDX 5 13 4 14 3 15 2 16 1 17
REMARK H PARENT
REMARK Flexibility Score: inf
ROOT
ATOM      1  C   UNL     1     127.963 146.339 108.616  1.00  0.00     0.000 C 
ENDROOT
BRANCH   1   2
ATOM      2  C   UNL     1     127.116 145.232 107.973  1.00  0.00     0.000 C 
BRANCH   2   3
ATOM      3  C   UNL     1     127.247 145.256 106.446  1.00  0.00     0.000 C 
BRANCH   3   4
ATOM      4  C   UNL     1     127.385 143.834 105.882  1.00  0.00     0.000 C 
BRANCH   4   5
ATOM      5  C   UNL     1     127.275 142.753 106.968  1.00  0.00     0.006 C 
BRANCH   5   6
ATOM      6  C   UNL     1     127.303 141.331 106.391  1.00  0.00     0.053 C 
BRANCH   6   7
ATOM      7  C   UNL     1     127.607 140.338 107.468  1.00  0.00     0.041 C 
ATOM      8  O   UNL     1     127.241 139.140 107.346  1.00  0.00    -0.550 OA
ATOM      9  O   UNL     1     128.340 140.725 108.584  1.00  0.00    -0.550 OA
ENDBRANCH   6   7
ENDBRANCH   5   6
ENDBRANCH   4   5
ENDBRANCH   3   4
ENDBRANCH   2   3
ENDBRANCH   1   2
BRANCH   1  10
ATOM     10  C   UNL     1     128.957 145.801 109.663  1.00  0.00     0.000 C 
BRANCH  10  11
ATOM     11  C   UNL     1     129.573 144.429 109.330  1.00  0.00    -0.000 C 
BRANCH  11  12
ATOM     12  C   UNL     1     130.885 144.482 108.523  1.00  0.00    -0.000 C 
BRANCH  12  13
ATOM     13  C   UNL     1     130.856 143.634 107.233  1.00  0.00    -0.000 C 
BRANCH  13  14
ATOM     14  C   UNL     1     131.099 144.476 105.971  1.00  0.00    -0.000 C 
BRANCH  14  15
ATOM     15  C   UNL     1     130.845 145.962 106.245  1.00  0.00    -0.000 C 
BRANCH  15  16
ATOM     16  C   UNL     1     132.056 146.810 105.838  1.00  0.00    -0.003 C 
ATOM     17  C   UNL     1     133.324 145.963 105.776  1.00  0.00     0.004 C 
ENDBRANCH  15  16
ENDBRANCH  14  15
ENDBRANCH  13  14
ENDBRANCH  12  13
ENDBRANCH  11  12
ENDBRANCH  10  11
ENDBRANCH   1  10
TORSDOF 13
ENDMDL
MODEL 7
REMARK VINA RESULT:    -3.702      3.145      5.530
REMARK INTER + INTRA:          -8.545
REMARK INTER:                  -6.577
REMARK INTRA:                  -1.968
REMARK UNBOUND:                -2.030
REMARK SMILES CCCCCCCCCCCCCCC(=O)[O-]
REMARK SMILES IDX 9 1 10 2 11 3 12 4 13 5 14 6 15 7 16 8 17 9 8 10 7 11 6 12
REMARK SMILES IDX 5 13 4 14 3 15 2 16 1 17
REMARK H PARENT
REMARK Flexibility Score: inf
ROOT
ATOM      1  C   UNL     1     127.514 145.988 105.805  1.00  0.00     0.000 C 
ENDROOT
BRANCH   1   2
ATOM      2  C   UNL     1     127.426 144.886 104.740  1.00  0.00     0.000 C 
BRANCH   2   3
ATOM      3  C   UNL     1     127.558 143.497 105.375  1.00  0.00     0.000 C 
BRANCH   3   4
ATOM      4  C   UNL     1     129.022 143.034 105.389  1.00  0.00     0.000 C 
BRANCH   4   5
ATOM      5  C   UNL     1     129.336 142.096 106.564  1.00  0.00     0.006 C 
BRANCH   5   6
ATOM      6  C   UNL     1     128.077 141.443 107.151  1.00  0.00     0.053 C 
BRANCH   6   7
ATOM      7  C   UNL     1     128.020 141.656 108.631  1.00  0.00     0.041 C 
ATOM      8  O   UNL     1     127.340 142.601 109.109  1.00  0.00    -0.550 OA
ATOM      9  O   UNL     1     128.680 140.781 109.485  1.00  0.00    -0.550 OA
ENDBRANCH   6   7
ENDBRANCH   5   6
ENDBRANCH   4   5
ENDBRANCH   3   4
ENDBRANCH   2   3
ENDBRANCH   1   2
BRANCH   1  10
ATOM     10  C   UNL     1     126.990 145.537 107.181  1.00  0.00     0.000 C 
BRANCH  10  11
ATOM     11  C   UNL     1     127.363 146.462 108.355  1.00  0.00    -0.000 C 
BRANCH  11  12
ATOM     12  C   UNL     1     128.444 145.909 109.304  1.00  0.00    -0.000 C 
BRANCH  12  13
ATOM     13  C   UNL     1     129.612 145.210 108.575  1.00  0.00    -0.000 C 
BRANCH  13  14
ATOM     14  C   UNL     1     130.985 145.677 109.082  1.00  0.00    -0.000 C 
BRANCH  14  15
ATOM     15  C   UNL     1     131.975 145.835 107.922  1.00  0.00    -0.000 C 
BRANCH  15  16
ATOM     16  C   UNL     1     131.248 145.801 106.572  1.00  0.00    -0.003 C 
ATOM     17  C   UNL     1     131.636 146.998 105.708  1.00  0.00     0.004 C 
ENDBRANCH  15  16
ENDBRANCH  14  15
ENDBRANCH  13  14
ENDBRANCH  12  13
ENDBRANCH  11  12
ENDBRANCH  10  11
ENDBRANCH   1  10
TORSDOF 13
ENDMDL
MODEL 8
REMARK VINA RESULT:    -3.657      1.232      2.229
REMARK INTER + INTRA:          -8.466
REMARK INTER:                  -6.660
REMARK INTRA:                  -1.806
REMARK UNBOUND:                -2.030
REMARK SMILES CCCCCCCCCCCCCCC(=O)[O-]
REMARK SMILES IDX 9 1 10 2 11 3 12 4 13 5 14 6 15 7 16 8 17 9 8 10 7 11 6 12
REMARK SMILES IDX 5 13 4 14 3 15 2 16 1 17
REMARK H PARENT
REMARK Flexibility Score: inf
ROOT
ATOM      1  C   UNL     1     127.181 144.704 107.732  1.00  0.00     0.000 C 
ENDROOT
BRANCH   1   2
ATOM      2  C   UNL     1     128.423 144.721 108.635  1.00  0.00     0.000 C 
BRANCH   2   3
ATOM      3  C   UNL     1     129.378 145.852 108.234  1.00  0.00     0.000 C 
BRANCH   3   4
ATOM      4  C   UNL     1     130.700 145.291 107.690  1.00  0.00     0.000 C 
BRANCH   4   5
ATOM      5  C   UNL     1     131.081 145.890 106.328  1.00  0.00     0.006 C 
BRANCH   5   6
ATOM      6  C   UNL     1     132.492 146.495 106.323  1.00  0.00     0.053 C 
BRANCH   6   7
ATOM      7  C   UNL     1     133.415 145.656 105.498  1.00  0.00     0.041 C 
ATOM      8  O   UNL     1     133.298 144.402 105.493  1.00  0.00    -0.550 OA
ATOM      9  O   UNL     1     134.375 146.261 104.695  1.00  0.00    -0.550 OA
ENDBRANCH   6   7
ENDBRANCH   5   6
ENDBRANCH   4   5
ENDBRANCH   3   4
ENDBRANCH   2   3
ENDBRANCH   1   2
BRANCH   1  10
ATOM     10  C   UNL     1     127.233 145.768 106.621  1.00  0.00     0.000 C 
BRANCH  10  11
ATOM     11  C   UNL     1     127.539 145.223 105.213  1.00  0.00    -0.000 C 
BRANCH  11  12
ATOM     12  C   UNL     1     127.576 143.686 105.102  1.00  0.00    -0.000 C 
BRANCH  12  13
ATOM     13  C   UNL     1     129.001 143.095 105.138  1.00  0.00    -0.000 C 
BRANCH  13  14
ATOM     14  C   UNL     1     129.132 141.938 106.140  1.00  0.00    -0.000 C 
BRANCH  14  15
ATOM     15  C   UNL     1     127.757 141.359 106.494  1.00  0.00    -0.000 C 
BRANCH  15  16
ATOM     16  C   UNL     1     127.700 139.857 106.190  1.00  0.00    -0.003 C 
ATOM     17  C   UNL     1     129.098 139.244 106.176  1.00  0.00     0.004 C 
ENDBRANCH  15  16
ENDBRANCH  14  15
ENDBRANCH  13  14
ENDBRANCH  12  13
ENDBRANCH  11  12
ENDBRANCH  10  11
ENDBRANCH   1  10
TORSDOF 13
ENDMDL
MODEL 9
REMARK VINA RESULT:    -3.543      1.381      2.573
REMARK INTER + INTRA:          -8.266
REMARK INTER:                  -6.256
REMARK INTRA:                  -2.010
REMARK UNBOUND:                -2.030
REMARK SMILES CCCCCCCCCCCCCCC(=O)[O-]
REMARK SMILES IDX 9 1 10 2 11 3 12 4 13 5 14 6 15 7 16 8 17 9 8 10 7 11 6 12
REMARK SMILES IDX 5 13 4 14 3 15 2 16 1 17
REMARK H PARENT
REMARK Flexibility Score: inf
ROOT
ATOM      1  C   UNL     1     126.875 145.724 108.061  1.00  0.00     0.000 C 
ENDROOT
BRANCH   1   2
ATOM      2  C   UNL     1     128.138 146.232 108.772  1.00  0.00     0.000 C 
BRANCH   2   3
ATOM      3  C   UNL     1     128.750 145.138 109.655  1.00  0.00     0.000 C 
BRANCH   3   4
ATOM      4  C   UNL     1     130.083 144.644 109.075  1.00  0.00     0.000 C 
BRANCH   4   5
ATOM      5  C   UNL     1     130.776 145.699 108.199  1.00  0.00     0.006 C 
BRANCH   5   6
ATOM      6  C   UNL     1     132.222 145.971 108.634  1.00  0.00     0.053 C 
BRANCH   6   7
ATOM      7  C   UNL     1     133.018 146.511 107.488  1.00  0.00     0.041 C 
ATOM      8  O   UNL     1     134.244 146.758 107.629  1.00  0.00    -0.550 OA
ATOM      9  O   UNL     1     132.416 146.695 106.249  1.00  0.00    -0.550 OA
ENDBRANCH   6   7
ENDBRANCH   5   6
ENDBRANCH   4   5
ENDBRANCH   3   4
ENDBRANCH   2   3
ENDBRANCH   1   2
BRANCH   1  10
ATOM     10  C   UNL     1     126.876 146.023 106.551  1.00  0.00     0.000 C 
BRANCH  10  11
ATOM     11  C   UNL     1     128.020 145.364 105.758  1.00  0.00    -0.000 C 
BRANCH  11  12
ATOM     12  C   UNL     1     127.629 144.089 104.986  1.00  0.00    -0.000 C 
BRANCH  12  13
ATOM     13  C   UNL     1     127.252 142.902 105.898  1.00  0.00    -0.000 C 
BRANCH  13  14
ATOM     14  C   UNL     1     128.450 142.376 106.704  1.00  0.00    -0.000 C 
BRANCH  14  15
ATOM     15  C   UNL     1     129.621 142.024 105.779  1.00  0.00    -0.000 C 
BRANCH  15  16
ATOM     16  C   UNL     1     130.954 142.483 106.383  1.00  0.00    -0.003 C 
ATOM     17  C   UNL     1     131.768 143.286 105.373  1.00  0.00     0.004 C 
ENDBRANCH  15  16
ENDBRANCH  14  15
ENDBRANCH  13  14
ENDBRANCH  12  13
ENDBRANCH  11  12
ENDBRANCH  10  11
ENDBRANCH   1  10
TORSDOF 13
ENDMDL
