MODEL 1
REMARK VINA RESULT:    -5.355      0.000      0.000
REMARK INTER + INTRA:          -6.595
REMARK INTER:                  -6.295
REMARK INTRA:                  -0.300
REMARK UNBOUND:                -0.300
REMARK SMILES O=c1c(O)c(-c2ccc(O)cc2)oc2cc(O)cc(O)c12
REMARK SMILES IDX 5 1 3 2 2 3 1 4 21 5 19 6 18 7 16 8 15 9 14 10 13 11 6 12
REMARK SMILES IDX 7 13 8 14 9 15 12 16 11 17 10 18 4 20 20 22 17 24
REMARK H PARENT 10 19 4 21 20 23 17 25
REMARK Flexibility Score: inf
ROOT
ATOM      1  C   UNL     1      53.705   7.580 -47.112  1.00  0.00     0.180 A 
ATOM      2  C   UNL     1      52.700   6.740 -46.602  1.00  0.00     0.208 A 
ATOM      3  C   UNL     1      52.654   6.493 -45.221  1.00  0.00     0.238 A 
ATOM      4  O   UNL     1      51.785   5.698 -44.778  1.00  0.00    -0.285 OA
ATOM      5  C   UNL     1      53.602   7.103 -44.365  1.00  0.00     0.111 A 
ATOM      6  C   UNL     1      53.625   6.955 -42.945  1.00  0.00     0.134 A 
ATOM      7  C   UNL     1      54.688   7.498 -42.212  1.00  0.00     0.093 A 
ATOM      8  C   UNL     1      55.692   8.238 -42.839  1.00  0.00     0.123 A 
ATOM      9  C   UNL     1      55.647   8.437 -44.216  1.00  0.00     0.094 A 
ATOM     10  C   UNL     1      54.619   7.878 -44.980  1.00  0.00     0.146 A 
ATOM     11  O   UNL     1      54.620   8.084 -46.293  1.00  0.00    -0.452 OA
ENDROOT
BRANCH   1  12
ATOM     12  C   UNL     1      53.803   7.907 -48.553  1.00  0.00     0.021 A 
ATOM     13  C   UNL     1      53.126   9.012 -49.102  1.00  0.00     0.016 A 
ATOM     14  C   UNL     1      53.254   9.315 -50.462  1.00  0.00     0.047 A 
ATOM     15  C   UNL     1      54.069   8.527 -51.285  1.00  0.00     0.115 A 
ATOM     16  C   UNL     1      54.635   7.136 -49.382  1.00  0.00     0.016 A 
ATOM     17  C   UNL     1      54.759   7.440 -50.741  1.00  0.00     0.047 A 
BRANCH  15  18
ATOM     18  O   UNL     1      54.203   8.819 -52.640  1.00  0.00    -0.508 OA
ATOM     19  H   UNL     1      54.969   8.447 -53.189  1.00  0.00     0.293 HD
ENDBRANCH  15  18
ENDBRANCH   1  12
BRANCH   2  20
ATOM     20  O   UNL     1      51.787   6.132 -47.468  1.00  0.00    -0.502 OA
ATOM     21  H   UNL     1      51.581   6.500 -48.389  1.00  0.00     0.293 HD
ENDBRANCH   2  20
BRANCH   6  22
ATOM     22  O   UNL     1      52.622   6.314 -42.211  1.00  0.00    -0.507 OA
ATOM     23  H   UNL     1      51.880   6.786 -41.719  1.00  0.00     0.293 HD
ENDBRANCH   6  22
BRANCH   8  24
ATOM     24  O   UNL     1      56.737   8.787 -42.099  1.00  0.00    -0.508 OA
ATOM     25  H   UNL     1      56.724   8.793 -41.086  1.00  0.00     0.293 HD
ENDBRANCH   8  24
TORSDOF 5
ENDMDL
MODEL 2
REMARK VINA RESULT:    -5.244      1.933      7.042
REMARK INTER + INTRA:          -6.464
REMARK INTER:                  -6.175
REMARK INTRA:                  -0.289
REMARK UNBOUND:                -0.300
REMARK SMILES O=c1c(O)c(-c2ccc(O)cc2)oc2cc(O)cc(O)c12
REMARK SMILES IDX 5 1 3 2 2 3 1 4 21 5 19 6 18 7 16 8 15 9 14 10 13 11 6 12
REMARK SMILES IDX 7 13 8 14 9 15 12 16 11 17 10 18 4 20 20 22 17 24
REMARK H PARENT 10 19 4 21 20 23 17 25
REMARK Flexibility Score: inf
ROOT
ATOM      1  C   UNL     1      54.368   7.272 -47.997  1.00  0.00     0.180 A 
ATOM      2  C   UNL     1      54.703   6.009 -48.516  1.00  0.00     0.208 A 
ATOM      3  C   UNL     1      54.647   5.807 -49.905  1.00  0.00     0.238 A 
ATOM      4  O   UNL     1      54.896   4.659 -50.358  1.00  0.00    -0.285 OA
ATOM      5  C   UNL     1      54.276   6.874 -50.758  1.00  0.00     0.111 A 
ATOM      6  C   UNL     1      54.227   6.793 -52.182  1.00  0.00     0.134 A 
ATOM      7  C   UNL     1      53.719   7.871 -52.917  1.00  0.00     0.093 A 
ATOM      8  C   UNL     1      53.322   9.051 -52.284  1.00  0.00     0.123 A 
ATOM      9  C   UNL     1      53.422   9.161 -50.900  1.00  0.00     0.094 A 
ATOM     10  C   UNL     1      53.890   8.090 -50.136  1.00  0.00     0.146 A 
ATOM     11  O   UNL     1      53.960   8.233 -48.817  1.00  0.00    -0.452 OA
ENDROOT
BRANCH   1  12
ATOM     12  C   UNL     1      54.426   7.569 -46.547  1.00  0.00     0.021 A 
ATOM     13  C   UNL     1      53.321   7.337 -45.707  1.00  0.00     0.016 A 
ATOM     14  C   UNL     1      53.407   7.602 -44.337  1.00  0.00     0.047 A 
ATOM     15  C   UNL     1      54.600   8.088 -43.788  1.00  0.00     0.115 A 
ATOM     16  C   UNL     1      55.625   8.036 -45.984  1.00  0.00     0.016 A 
ATOM     17  C   UNL     1      55.707   8.301 -44.613  1.00  0.00     0.047 A 
BRANCH  15  18
ATOM     18  O   UNL     1      54.697   8.357 -42.424  1.00  0.00    -0.508 OA
ATOM     19  H   UNL     1      55.278   7.795 -41.814  1.00  0.00     0.293 HD
ENDBRANCH  15  18
ENDBRANCH   1  12
BRANCH   2  20
ATOM     20  O   UNL     1      55.045   4.964 -47.655  1.00  0.00    -0.502 OA
ATOM     21  H   UNL     1      55.990   4.605 -47.583  1.00  0.00     0.293 HD
ENDBRANCH   2  20
BRANCH   6  22
ATOM     22  O   UNL     1      54.685   5.696 -52.917  1.00  0.00    -0.507 OA
ATOM     23  H   UNL     1      54.094   4.984 -53.316  1.00  0.00     0.293 HD
ENDBRANCH   6  22
BRANCH   8  24
ATOM     24  O   UNL     1      52.833  10.125 -53.025  1.00  0.00    -0.508 OA
ATOM     25  H   UNL     1      52.005  10.037 -53.604  1.00  0.00     0.293 HD
ENDBRANCH   8  24
TORSDOF 5
ENDMDL
MODEL 3
REMARK VINA RESULT:    -5.112      3.189      8.227
REMARK INTER + INTRA:          -6.309
REMARK INTER:                  -6.019
REMARK INTRA:                  -0.290
REMARK UNBOUND:                -0.300
REMARK SMILES O=c1c(O)c(-c2ccc(O)cc2)oc2cc(O)cc(O)c12
REMARK SMILES IDX 5 1 3 2 2 3 1 4 21 5 19 6 18 7 16 8 15 9 14 10 13 11 6 12
REMARK SMILES IDX 7 13 8 14 9 15 12 16 11 17 10 18 4 20 20 22 17 24
REMARK H PARENT 10 19 4 21 20 23 17 25
REMARK Flexibility Score: inf
ROOT
ATOM      1  C   UNL     1      53.206   7.729 -50.589  1.00  0.00     0.180 A 
ATOM      2  C   UNL     1      53.525   8.810 -51.428  1.00  0.00     0.208 A 
ATOM      3  C   UNL     1      52.712   9.069 -52.543  1.00  0.00     0.238 A 
ATOM      4  O   UNL     1      53.034  10.006 -53.320  1.00  0.00    -0.285 OA
ATOM      5  C   UNL     1      51.581   8.256 -52.796  1.00  0.00     0.111 A 
ATOM      6  C   UNL     1      50.665   8.454 -53.872  1.00  0.00     0.134 A 
ATOM      7  C   UNL     1      49.657   7.509 -54.102  1.00  0.00     0.093 A 
ATOM      8  C   UNL     1      49.492   6.411 -53.255  1.00  0.00     0.123 A 
ATOM      9  C   UNL     1      50.343   6.242 -52.167  1.00  0.00     0.094 A 
ATOM     10  C   UNL     1      51.381   7.148 -51.933  1.00  0.00     0.146 A 
ATOM     11  O   UNL     1      52.178   6.943 -50.889  1.00  0.00    -0.452 OA
ENDROOT
BRANCH   1  12
ATOM     12  C   UNL     1      54.001   7.407 -49.382  1.00  0.00     0.021 A 
ATOM     13  C   UNL     1      53.645   7.905 -48.115  1.00  0.00     0.016 A 
ATOM     14  C   UNL     1      54.397   7.568 -46.986  1.00  0.00     0.047 A 
ATOM     15  C   UNL     1      55.504   6.718 -47.105  1.00  0.00     0.115 A 
ATOM     16  C   UNL     1      55.100   6.538 -49.488  1.00  0.00     0.016 A 
ATOM     17  C   UNL     1      55.851   6.203 -48.358  1.00  0.00     0.047 A 
BRANCH  15  18
ATOM     18  O   UNL     1      56.261   6.376 -45.987  1.00  0.00    -0.508 OA
ATOM     19  H   UNL     1      57.265   6.248 -46.046  1.00  0.00     0.293 HD
ENDBRANCH  15  18
ENDBRANCH   1  12
BRANCH   2  20
ATOM     20  O   UNL     1      54.658   9.587 -51.173  1.00  0.00    -0.502 OA
ATOM     21  H   UNL     1      55.175   9.527 -50.304  1.00  0.00     0.293 HD
ENDBRANCH   2  20
BRANCH   6  22
ATOM     22  O   UNL     1      50.686   9.564 -54.721  1.00  0.00    -0.507 OA
ATOM     23  H   UNL     1      51.307  10.352 -54.621  1.00  0.00     0.293 HD
ENDBRANCH   6  22
BRANCH   8  24
ATOM     24  O   UNL     1      48.476   5.485 -53.482  1.00  0.00    -0.508 OA
ATOM     25  H   UNL     1      48.310   4.713 -52.847  1.00  0.00     0.293 HD
ENDBRANCH   8  24
TORSDOF 5
ENDMDL
MODEL 4
REMARK VINA RESULT:    -5.046      1.594      3.552
REMARK INTER + INTRA:          -6.231
REMARK INTER:                  -5.985
REMARK INTRA:                  -0.246
REMARK UNBOUND:                -0.300
REMARK SMILES O=c1c(O)c(-c2ccc(O)cc2)oc2cc(O)cc(O)c12
REMARK SMILES IDX 5 1 3 2 2 3 1 4 21 5 19 6 18 7 16 8 15 9 14 10 13 11 6 12
REMARK SMILES IDX 7 13 8 14 9 15 12 16 11 17 10 18 4 20 20 22 17 24
REMARK H PARENT 10 19 4 21 20 23 17 25
REMARK Flexibility Score: inf
ROOT
ATOM      1  C   UNL     1      54.574   7.382 -45.533  1.00  0.00     0.180 A 
ATOM      2  C   UNL     1      55.539   8.082 -44.790  1.00  0.00     0.208 A 
ATOM      3  C   UNL     1      55.421   8.129 -43.392  1.00  0.00     0.238 A 
ATOM      4  O   UNL     1      56.258   8.803 -42.737  1.00  0.00    -0.285 OA
ATOM      5  C   UNL     1      54.350   7.460 -42.753  1.00  0.00     0.111 A 
ATOM      6  C   UNL     1      54.156   7.406 -41.340  1.00  0.00     0.134 A 
ATOM      7  C   UNL     1      52.988   6.827 -40.825  1.00  0.00     0.093 A 
ATOM      8  C   UNL     1      52.042   6.242 -41.669  1.00  0.00     0.123 A 
ATOM      9  C   UNL     1      52.252   6.237 -43.046  1.00  0.00     0.094 A 
ATOM     10  C   UNL     1      53.388   6.839 -43.591  1.00  0.00     0.146 A 
ATOM     11  O   UNL     1      53.544   6.821 -44.911  1.00  0.00    -0.452 OA
ENDROOT
BRANCH   1  12
ATOM     12  C   UNL     1      54.644   7.268 -47.009  1.00  0.00     0.021 A 
ATOM     13  C   UNL     1      55.567   6.410 -47.634  1.00  0.00     0.016 A 
ATOM     14  C   UNL     1      55.598   6.301 -49.028  1.00  0.00     0.047 A 
ATOM     15  C   UNL     1      54.700   7.037 -49.812  1.00  0.00     0.115 A 
ATOM     16  C   UNL     1      53.733   7.985 -47.802  1.00  0.00     0.016 A 
ATOM     17  C   UNL     1      53.768   7.876 -49.195  1.00  0.00     0.047 A 
BRANCH  15  18
ATOM     18  O   UNL     1      54.722   6.937 -51.201  1.00  0.00    -0.508 OA
ATOM     19  H   UNL     1      55.379   6.329 -51.678  1.00  0.00     0.293 HD
ENDBRANCH  15  18
ENDBRANCH   1  12
BRANCH   2  20
ATOM     20  O   UNL     1      56.577   8.754 -45.443  1.00  0.00    -0.502 OA
ATOM     21  H   UNL     1      57.526   8.767 -45.087  1.00  0.00     0.293 HD
ENDBRANCH   2  20
BRANCH   6  22
ATOM     22  O   UNL     1      55.082   7.879 -40.407  1.00  0.00    -0.507 OA
ATOM     23  H   UNL     1      54.849   8.423 -39.591  1.00  0.00     0.293 HD
ENDBRANCH   6  22
BRANCH   8  24
ATOM     24  O   UNL     1      50.892   5.654 -41.147  1.00  0.00    -0.508 OA
ATOM     25  H   UNL     1      50.934   4.811 -40.587  1.00  0.00     0.293 HD
ENDBRANCH   8  24
TORSDOF 5
ENDMDL
MODEL 5
REMARK VINA RESULT:    -5.006     10.827     12.221
REMARK INTER + INTRA:          -6.184
REMARK INTER:                  -5.895
REMARK INTRA:                  -0.289
REMARK UNBOUND:                -0.300
REMARK SMILES O=c1c(O)c(-c2ccc(O)cc2)oc2cc(O)cc(O)c12
REMARK SMILES IDX 5 1 3 2 2 3 1 4 21 5 19 6 18 7 16 8 15 9 14 10 13 11 6 12
REMARK SMILES IDX 7 13 8 14 9 15 12 16 11 17 10 18 4 20 20 22 17 24
REMARK H PARENT 10 19 4 21 20 23 17 25
REMARK Flexibility Score: inf
ROOT
ATOM      1  C   UNL     1      56.541  -2.240 -51.991  1.00  0.00     0.180 A 
ATOM      2  C   UNL     1      56.441  -1.142 -51.120  1.00  0.00     0.208 A 
ATOM      3  C   UNL     1      57.485  -0.893 -50.215  1.00  0.00     0.238 A 
ATOM      4  O   UNL     1      57.364   0.060 -49.401  1.00  0.00    -0.285 OA
ATOM      5  C   UNL     1      58.624  -1.733 -50.204  1.00  0.00     0.111 A 
ATOM      6  C   UNL     1      59.758  -1.549 -49.358  1.00  0.00     0.134 A 
ATOM      7  C   UNL     1      60.770  -2.518 -49.340  1.00  0.00     0.093 A 
ATOM      8  C   UNL     1      60.719  -3.629 -50.185  1.00  0.00     0.123 A 
ATOM      9  C   UNL     1      59.644  -3.786 -51.056  1.00  0.00     0.094 A 
ATOM     10  C   UNL     1      58.602  -2.856 -51.072  1.00  0.00     0.146 A 
ATOM     11  O   UNL     1      57.591  -3.050 -51.911  1.00  0.00    -0.452 OA
ENDROOT
BRANCH   1  12
ATOM     12  C   UNL     1      55.492  -2.554 -52.989  1.00  0.00     0.021 A 
ATOM     13  C   UNL     1      54.402  -3.384 -52.670  1.00  0.00     0.016 A 
ATOM     14  C   UNL     1      53.411  -3.646 -53.622  1.00  0.00     0.047 A 
ATOM     15  C   UNL     1      53.491  -3.071 -54.896  1.00  0.00     0.115 A 
ATOM     16  C   UNL     1      55.552  -1.965 -54.263  1.00  0.00     0.016 A 
ATOM     17  C   UNL     1      54.561  -2.230 -55.213  1.00  0.00     0.047 A 
BRANCH  15  18
ATOM     18  O   UNL     1      52.510  -3.326 -55.853  1.00  0.00    -0.508 OA
ATOM     19  H   UNL     1      51.729  -3.942 -55.659  1.00  0.00     0.293 HD
ENDBRANCH  15  18
ENDBRANCH   1  12
BRANCH   2  20
ATOM     20  O   UNL     1      55.298  -0.338 -51.132  1.00  0.00    -0.502 OA
ATOM     21  H   UNL     1      55.265   0.568 -50.679  1.00  0.00     0.293 HD
ENDBRANCH   2  20
BRANCH   6  22
ATOM     22  O   UNL     1      59.952  -0.429 -48.544  1.00  0.00    -0.507 OA
ATOM     23  H   UNL     1      59.624  -0.346 -47.595  1.00  0.00     0.293 HD
ENDBRANCH   6  22
BRANCH   8  24
ATOM     24  O   UNL     1      61.737  -4.579 -50.172  1.00  0.00    -0.508 OA
ATOM     25  H   UNL     1      61.547  -5.563 -50.322  1.00  0.00     0.293 HD
ENDBRANCH   8  24
TORSDOF 5
ENDMDL
MODEL 6
REMARK VINA RESULT:    -4.899      2.539      4.347
REMARK INTER + INTRA:          -6.058
REMARK INTER:                  -5.771
REMARK INTRA:                  -0.287
REMARK UNBOUND:                -0.300
REMARK SMILES O=c1c(O)c(-c2ccc(O)cc2)oc2cc(O)cc(O)c12
REMARK SMILES IDX 5 1 3 2 2 3 1 4 21 5 19 6 18 7 16 8 15 9 14 10 13 11 6 12
REMARK SMILES IDX 7 13 8 14 9 15 12 16 11 17 10 18 4 20 20 22 17 24
REMARK H PARENT 10 19 4 21 20 23 17 25
REMARK Flexibility Score: inf
ROOT
ATOM      1  C   UNL     1      54.942   7.137 -44.389  1.00  0.00     0.180 A 
ATOM      2  C   UNL     1      55.427   8.239 -43.664  1.00  0.00     0.208 A 
ATOM      3  C   UNL     1      56.185   8.012 -42.504  1.00  0.00     0.238 A 
ATOM      4  O   UNL     1      56.570   9.002 -41.830  1.00  0.00    -0.285 OA
ATOM      5  C   UNL     1      56.465   6.686 -42.095  1.00  0.00     0.111 A 
ATOM      6  C   UNL     1      57.258   6.339 -40.960  1.00  0.00     0.134 A 
ATOM      7  C   UNL     1      57.359   4.996 -40.573  1.00  0.00     0.093 A 
ATOM      8  C   UNL     1      56.750   3.985 -41.318  1.00  0.00     0.123 A 
ATOM      9  C   UNL     1      56.024   4.308 -42.461  1.00  0.00     0.094 A 
ATOM     10  C   UNL     1      55.875   5.641 -42.852  1.00  0.00     0.146 A 
ATOM     11  O   UNL     1      55.164   5.907 -43.943  1.00  0.00    -0.452 OA
ENDROOT
BRANCH   1  12
ATOM     12  C   UNL     1      54.156   7.297 -45.634  1.00  0.00     0.021 A 
ATOM     13  C   UNL     1      52.751   7.367 -45.610  1.00  0.00     0.016 A 
ATOM     14  C   UNL     1      52.032   7.542 -46.796  1.00  0.00     0.047 A 
ATOM     15  C   UNL     1      52.706   7.663 -48.017  1.00  0.00     0.115 A 
ATOM     16  C   UNL     1      54.825   7.442 -46.861  1.00  0.00     0.016 A 
ATOM     17  C   UNL     1      54.103   7.615 -48.046  1.00  0.00     0.047 A 
BRANCH  15  18
ATOM     18  O   UNL     1      52.000   7.838 -49.205  1.00  0.00    -0.508 OA
ATOM     19  H   UNL     1      51.007   8.038 -49.206  1.00  0.00     0.293 HD
ENDBRANCH  15  18
ENDBRANCH   1  12
BRANCH   2  20
ATOM     20  O   UNL     1      55.121   9.540 -44.074  1.00  0.00    -0.502 OA
ATOM     21  H   UNL     1      55.131  10.328 -43.437  1.00  0.00     0.293 HD
ENDBRANCH   2  20
BRANCH   6  22
ATOM     22  O   UNL     1      57.981   7.264 -40.201  1.00  0.00    -0.507 OA
ATOM     23  H   UNL     1      58.260   8.177 -40.522  1.00  0.00     0.293 HD
ENDBRANCH   6  22
BRANCH   8  24
ATOM     24  O   UNL     1      56.870   2.650 -40.935  1.00  0.00    -0.508 OA
ATOM     25  H   UNL     1      57.384   2.381 -40.105  1.00  0.00     0.293 HD
ENDBRANCH   8  24
TORSDOF 5
ENDMDL
MODEL 7
REMARK VINA RESULT:    -4.778      2.265      7.425
REMARK INTER + INTRA:          -5.916
REMARK INTER:                  -5.668
REMARK INTRA:                  -0.248
REMARK UNBOUND:                -0.300
REMARK SMILES O=c1c(O)c(-c2ccc(O)cc2)oc2cc(O)cc(O)c12
REMARK SMILES IDX 5 1 3 2 2 3 1 4 21 5 19 6 18 7 16 8 15 9 14 10 13 11 6 12
REMARK SMILES IDX 7 13 8 14 9 15 12 16 11 17 10 18 4 20 20 22 17 24
REMARK H PARENT 10 19 4 21 20 23 17 25
REMARK Flexibility Score: inf
ROOT
ATOM      1  C   UNL     1      53.799   7.557 -49.021  1.00  0.00     0.180 A 
ATOM      2  C   UNL     1      53.286   8.580 -49.836  1.00  0.00     0.208 A 
ATOM      3  C   UNL     1      53.334   8.429 -51.231  1.00  0.00     0.238 A 
ATOM      4  O   UNL     1      52.923   9.372 -51.955  1.00  0.00    -0.285 OA
ATOM      5  C   UNL     1      53.878   7.249 -51.793  1.00  0.00     0.111 A 
ATOM      6  C   UNL     1      53.939   6.972 -53.192  1.00  0.00     0.134 A 
ATOM      7  C   UNL     1      54.618   5.832 -53.641  1.00  0.00     0.093 A 
ATOM      8  C   UNL     1      55.179   4.926 -52.738  1.00  0.00     0.123 A 
ATOM      9  C   UNL     1      55.072   5.157 -51.369  1.00  0.00     0.094 A 
ATOM     10  C   UNL     1      54.433   6.304 -50.892  1.00  0.00     0.146 A 
ATOM     11  O   UNL     1      54.363   6.492 -49.579  1.00  0.00    -0.452 OA
ENDROOT
BRANCH   1  12
ATOM     12  C   UNL     1      53.761   7.633 -47.542  1.00  0.00     0.021 A 
ATOM     13  C   UNL     1      52.569   7.421 -46.827  1.00  0.00     0.016 A 
ATOM     14  C   UNL     1      52.563   7.474 -45.430  1.00  0.00     0.047 A 
ATOM     15  C   UNL     1      53.750   7.726 -44.731  1.00  0.00     0.115 A 
ATOM     16  C   UNL     1      54.951   7.864 -46.832  1.00  0.00     0.016 A 
ATOM     17  C   UNL     1      54.943   7.918 -45.434  1.00  0.00     0.047 A 
BRANCH  15  18
ATOM     18  O   UNL     1      53.757   7.782 -43.339  1.00  0.00    -0.508 OA
ATOM     19  H   UNL     1      53.627   8.657 -42.843  1.00  0.00     0.293 HD
ENDBRANCH  15  18
ENDBRANCH   1  12
BRANCH   2  20
ATOM     20  O   UNL     1      52.773   9.746 -49.261  1.00  0.00    -0.502 OA
ATOM     21  H   UNL     1      51.946   9.746 -48.675  1.00  0.00     0.293 HD
ENDBRANCH   2  20
BRANCH   6  22
ATOM     22  O   UNL     1      53.333   7.763 -54.172  1.00  0.00    -0.507 OA
ATOM     23  H   UNL     1      52.432   8.205 -54.077  1.00  0.00     0.293 HD
ENDBRANCH   6  22
BRANCH   8  24
ATOM     24  O   UNL     1      55.838   3.785 -53.192  1.00  0.00    -0.508 OA
ATOM     25  H   UNL     1      56.006   2.992 -52.584  1.00  0.00     0.293 HD
ENDBRANCH   8  24
TORSDOF 5
ENDMDL
MODEL 8
REMARK VINA RESULT:    -4.723      2.139      2.940
REMARK INTER + INTRA:          -5.852
REMARK INTER:                  -5.565
REMARK INTRA:                  -0.286
REMARK UNBOUND:                -0.300
REMARK SMILES O=c1c(O)c(-c2ccc(O)cc2)oc2cc(O)cc(O)c12
REMARK SMILES IDX 5 1 3 2 2 3 1 4 21 5 19 6 18 7 16 8 15 9 14 10 13 11 6 12
REMARK SMILES IDX 7 13 8 14 9 15 12 16 11 17 10 18 4 20 20 22 17 24
REMARK H PARENT 10 19 4 21 20 23 17 25
REMARK Flexibility Score: inf
ROOT
ATOM      1  C   UNL     1      54.611   6.833 -45.289  1.00  0.00     0.180 A 
ATOM      2  C   UNL     1      54.769   5.498 -44.878  1.00  0.00     0.208 A 
ATOM      3  C   UNL     1      55.373   5.235 -43.638  1.00  0.00     0.238 A 
ATOM      4  O   UNL     1      55.561   4.037 -43.300  1.00  0.00    -0.285 OA
ATOM      5  C   UNL     1      55.795   6.308 -42.818  1.00  0.00     0.111 A 
ATOM      6  C   UNL     1      56.381   6.158 -41.525  1.00  0.00     0.134 A 
ATOM      7  C   UNL     1      56.881   7.285 -40.859  1.00  0.00     0.093 A 
ATOM      8  C   UNL     1      56.755   8.562 -41.410  1.00  0.00     0.123 A 
ATOM      9  C   UNL     1      56.132   8.725 -42.644  1.00  0.00     0.094 A 
ATOM     10  C   UNL     1      55.656   7.617 -43.349  1.00  0.00     0.146 A 
ATOM     11  O   UNL     1      55.077   7.816 -44.528  1.00  0.00    -0.452 OA
ENDROOT
BRANCH   1  12
ATOM     12  C   UNL     1      53.961   7.191 -46.572  1.00  0.00     0.021 A 
ATOM     13  C   UNL     1      54.694   7.256 -47.771  1.00  0.00     0.016 A 
ATOM     14  C   UNL     1      54.055   7.572 -48.973  1.00  0.00     0.047 A 
ATOM     15  C   UNL     1      52.676   7.813 -48.995  1.00  0.00     0.115 A 
ATOM     16  C   UNL     1      52.575   7.413 -46.607  1.00  0.00     0.016 A 
ATOM     17  C   UNL     1      51.938   7.730 -47.810  1.00  0.00     0.047 A 
BRANCH  15  18
ATOM     18  O   UNL     1      52.028   8.130 -50.187  1.00  0.00    -0.508 OA
ATOM     19  H   UNL     1      51.620   7.412 -50.775  1.00  0.00     0.293 HD
ENDBRANCH  15  18
ENDBRANCH   1  12
BRANCH   2  20
ATOM     20  O   UNL     1      54.366   4.453 -45.713  1.00  0.00    -0.502 OA
ATOM     21  H   UNL     1      54.667   3.496 -45.572  1.00  0.00     0.293 HD
ENDBRANCH   2  20
BRANCH   6  22
ATOM     22  O   UNL     1      56.472   4.940 -40.846  1.00  0.00    -0.507 OA
ATOM     23  H   UNL     1      56.311   4.037 -41.262  1.00  0.00     0.293 HD
ENDBRANCH   6  22
BRANCH   8  24
ATOM     24  O   UNL     1      57.241   9.679 -40.733  1.00  0.00    -0.508 OA
ATOM     25  H   UNL     1      58.187  10.015 -40.874  1.00  0.00     0.293 HD
ENDBRANCH   8  24
TORSDOF 5
ENDMDL
MODEL 9
REMARK VINA RESULT:    -4.717      2.322      3.088
REMARK INTER + INTRA:          -5.844
REMARK INTER:                  -5.570
REMARK INTRA:                  -0.275
REMARK UNBOUND:                -0.300
REMARK SMILES O=c1c(O)c(-c2ccc(O)cc2)oc2cc(O)cc(O)c12
REMARK SMILES IDX 5 1 3 2 2 3 1 4 21 5 19 6 18 7 16 8 15 9 14 10 13 11 6 12
REMARK SMILES IDX 7 13 8 14 9 15 12 16 11 17 10 18 4 20 20 22 17 24
REMARK H PARENT 10 19 4 21 20 23 17 25
REMARK Flexibility Score: inf
ROOT
ATOM      1  C   UNL     1      54.300   7.157 -49.025  1.00  0.00     0.180 A 
ATOM      2  C   UNL     1      55.122   6.018 -49.088  1.00  0.00     0.208 A 
ATOM      3  C   UNL     1      55.633   5.481 -47.895  1.00  0.00     0.238 A 
ATOM      4  O   UNL     1      56.412   4.494 -47.963  1.00  0.00    -0.285 OA
ATOM      5  C   UNL     1      55.304   6.078 -46.655  1.00  0.00     0.111 A 
ATOM      6  C   UNL     1      55.732   5.593 -45.383  1.00  0.00     0.134 A 
ATOM      7  C   UNL     1      55.454   6.339 -44.231  1.00  0.00     0.093 A 
ATOM      8  C   UNL     1      54.707   7.516 -44.298  1.00  0.00     0.123 A 
ATOM      9  C   UNL     1      54.233   7.966 -45.528  1.00  0.00     0.094 A 
ATOM     10  C   UNL     1      54.525   7.263 -46.699  1.00  0.00     0.146 A 
ATOM     11  O   UNL     1      54.063   7.733 -47.853  1.00  0.00    -0.452 OA
ENDROOT
BRANCH   1  12
ATOM     12  C   UNL     1      53.704   7.766 -50.236  1.00  0.00     0.021 A 
ATOM     13  C   UNL     1      54.321   8.847 -50.892  1.00  0.00     0.016 A 
ATOM     14  C   UNL     1      53.751   9.390 -52.048  1.00  0.00     0.047 A 
ATOM     15  C   UNL     1      52.568   8.852 -52.569  1.00  0.00     0.115 A 
ATOM     16  C   UNL     1      52.529   7.219 -50.778  1.00  0.00     0.016 A 
ATOM     17  C   UNL     1      51.961   7.765 -51.934  1.00  0.00     0.047 A 
BRANCH  15  18
ATOM     18  O   UNL     1      51.991   9.385 -53.720  1.00  0.00    -0.508 OA
ATOM     19  H   UNL     1      52.132  10.354 -53.983  1.00  0.00     0.293 HD
ENDBRANCH  15  18
ENDBRANCH   1  12
BRANCH   2  20
ATOM     20  O   UNL     1      55.453   5.458 -50.324  1.00  0.00    -0.502 OA
ATOM     21  H   UNL     1      56.054   5.927 -50.991  1.00  0.00     0.293 HD
ENDBRANCH   2  20
BRANCH   6  22
ATOM     22  O   UNL     1      56.405   4.382 -45.196  1.00  0.00    -0.507 OA
ATOM     23  H   UNL     1      56.638   3.734 -45.932  1.00  0.00     0.293 HD
ENDBRANCH   6  22
BRANCH   8  24
ATOM     24  O   UNL     1      54.421   8.244 -43.144  1.00  0.00    -0.508 OA
ATOM     25  H   UNL     1      54.445   7.814 -42.227  1.00  0.00     0.293 HD
ENDBRANCH   8  24
TORSDOF 5
ENDMDL
