MODEL 1
REMARK VINA RESULT:    -5.016      0.000      0.000
REMARK INTER + INTRA:          -5.162
REMARK INTER:                  -5.162
REMARK INTRA:                   0.000
REMARK UNBOUND:                 0.000
REMARK SMILES O=c1ccc2cc(O)ccc2o1
REMARK SMILES IDX 9 1 10 2 11 3 5 4 4 5 3 6 2 7 1 8 12 9 6 10 7 11 8 12
REMARK H PARENT 8 13
REMARK Flexibility Score: inf
ROOT
ATOM      1  C   UNL     1      34.946 -29.135  11.557  1.00  0.00     0.050 A 
ATOM      2  C   UNL     1      35.720 -29.370  10.415  1.00  0.00     0.052 A 
ATOM      3  C   UNL     1      35.719 -30.633   9.815  1.00  0.00     0.138 A 
ATOM      4  C   UNL     1      34.934 -31.670  10.367  1.00  0.00     0.021 A 
ATOM      5  C   UNL     1      34.954 -32.924   9.745  1.00  0.00     0.019 A 
ATOM      6  C   UNL     1      35.740 -33.111   8.609  1.00  0.00     0.094 A 
ATOM      7  C   UNL     1      36.491 -32.038   8.119  1.00  0.00     0.336 A 
ATOM      8  O   UNL     1      37.207 -32.188   7.094  1.00  0.00    -0.246 OA
ATOM      9  O   UNL     1      36.455 -30.856   8.729  1.00  0.00    -0.423 OA
ATOM     10  C   UNL     1      34.161 -31.430  11.511  1.00  0.00     0.058 A 
ATOM     11  C   UNL     1      34.167 -30.159  12.106  1.00  0.00     0.116 A 
ENDROOT
BRANCH  11  12
ATOM     12  O   UNL     1      33.404 -29.906  13.244  1.00  0.00    -0.508 OA
ATOM     13  H   UNL     1      33.783 -30.032  14.175  1.00  0.00     0.293 HD
ENDBRANCH  11  12
TORSDOF 1
ENDMDL
MODEL 2
REMARK VINA RESULT:    -4.653      0.935      4.787
REMARK INTER + INTRA:          -4.789
REMARK INTER:                  -4.789
REMARK INTRA:                   0.000
REMARK UNBOUND:                 0.000
REMARK SMILES O=c1ccc2cc(O)ccc2o1
REMARK SMILES IDX 9 1 10 2 11 3 5 4 4 5 3 6 2 7 1 8 12 9 6 10 7 11 8 12
REMARK H PARENT 8 13
REMARK Flexibility Score: inf
ROOT
ATOM      1  C   UNL     1      35.603 -33.117   9.606  1.00  0.00     0.050 A 
ATOM      2  C   UNL     1      34.864 -32.661  10.703  1.00  0.00     0.052 A 
ATOM      3  C   UNL     1      34.875 -31.304  11.040  1.00  0.00     0.138 A 
ATOM      4  C   UNL     1      35.636 -30.397  10.270  1.00  0.00     0.021 A 
ATOM      5  C   UNL     1      35.627 -29.045  10.631  1.00  0.00     0.019 A 
ATOM      6  C   UNL     1      34.875 -28.636  11.732  1.00  0.00     0.094 A 
ATOM      7  C   UNL     1      34.146 -29.591  12.449  1.00  0.00     0.336 A 
ATOM      8  O   UNL     1      33.461 -29.242  13.445  1.00  0.00    -0.246 OA
ATOM      9  O   UNL     1      34.171 -30.871  12.083  1.00  0.00    -0.423 OA
ATOM     10  C   UNL     1      36.375 -30.859   9.172  1.00  0.00     0.058 A 
ATOM     11  C   UNL     1      36.357 -32.222   8.840  1.00  0.00     0.116 A 
ENDROOT
BRANCH  11  12
ATOM     12  O   UNL     1      37.088 -32.696   7.752  1.00  0.00    -0.508 OA
ATOM     13  H   UNL     1      36.708 -33.392   7.122  1.00  0.00     0.293 HD
ENDBRANCH  11  12
TORSDOF 1
ENDMDL
MODEL 3
REMARK VINA RESULT:    -4.371      1.506      2.191
REMARK INTER + INTRA:          -4.498
REMARK INTER:                  -4.498
REMARK INTRA:                   0.000
REMARK UNBOUND:                 0.000
REMARK SMILES O=c1ccc2cc(O)ccc2o1
REMARK SMILES IDX 9 1 10 2 11 3 5 4 4 5 3 6 2 7 1 8 12 9 6 10 7 11 8 12
REMARK H PARENT 8 13
REMARK Flexibility Score: inf
ROOT
ATOM      1  C   UNL     1      33.237 -29.824  10.714  1.00  0.00     0.050 A 
ATOM      2  C   UNL     1      33.809 -30.852   9.956  1.00  0.00     0.052 A 
ATOM      3  C   UNL     1      35.198 -30.999   9.908  1.00  0.00     0.138 A 
ATOM      4  C   UNL     1      36.022 -30.106  10.629  1.00  0.00     0.021 A 
ATOM      5  C   UNL     1      37.409 -30.278  10.562  1.00  0.00     0.019 A 
ATOM      6  C   UNL     1      37.934 -31.318   9.794  1.00  0.00     0.094 A 
ATOM      7  C   UNL     1      37.057 -32.163   9.108  1.00  0.00     0.336 A 
ATOM      8  O   UNL     1      37.510 -33.107   8.410  1.00  0.00    -0.246 OA
ATOM      9  O   UNL     1      35.741 -31.978   9.188  1.00  0.00    -0.423 OA
ATOM     10  C   UNL     1      35.445 -29.078  11.387  1.00  0.00     0.058 A 
ATOM     11  C   UNL     1      34.050 -28.938  11.428  1.00  0.00     0.116 A 
ENDROOT
BRANCH  11  12
ATOM     12  O   UNL     1      33.462 -27.920  12.176  1.00  0.00    -0.508 OA
ATOM     13  H   UNL     1      32.666 -27.398  11.828  1.00  0.00     0.293 HD
ENDBRANCH  11  12
TORSDOF 1
ENDMDL
MODEL 4
REMARK VINA RESULT:    -4.337      1.808      2.348
REMARK INTER + INTRA:          -4.464
REMARK INTER:                  -4.464
REMARK INTRA:                   0.000
REMARK UNBOUND:                 0.000
REMARK SMILES O=c1ccc2cc(O)ccc2o1
REMARK SMILES IDX 9 1 10 2 11 3 5 4 4 5 3 6 2 7 1 8 12 9 6 10 7 11 8 12
REMARK H PARENT 8 13
REMARK Flexibility Score: inf
ROOT
ATOM      1  C   UNL     1      34.011 -28.707  11.833  1.00  0.00     0.050 A 
ATOM      2  C   UNL     1      33.591 -29.760  11.012  1.00  0.00     0.052 A 
ATOM      3  C   UNL     1      34.525 -30.475  10.256  1.00  0.00     0.138 A 
ATOM      4  C   UNL     1      35.893 -30.130  10.324  1.00  0.00     0.021 A 
ATOM      5  C   UNL     1      36.805 -30.863   9.556  1.00  0.00     0.019 A 
ATOM      6  C   UNL     1      36.340 -31.905   8.753  1.00  0.00     0.094 A 
ATOM      7  C   UNL     1      34.971 -32.189   8.736  1.00  0.00     0.336 A 
ATOM      8  O   UNL     1      34.533 -33.125   8.018  1.00  0.00    -0.246 OA
ATOM      9  O   UNL     1      34.125 -31.477   9.476  1.00  0.00    -0.423 OA
ATOM     10  C   UNL     1      36.309 -29.075  11.148  1.00  0.00     0.058 A 
ATOM     11  C   UNL     1      35.365 -28.363  11.903  1.00  0.00     0.116 A 
ENDROOT
BRANCH  11  12
ATOM     12  O   UNL     1      35.763 -27.311  12.726  1.00  0.00    -0.508 OA
ATOM     13  H   UNL     1      35.670 -26.345  12.433  1.00  0.00     0.293 HD
ENDBRANCH  11  12
TORSDOF 1
ENDMDL
MODEL 5
REMARK VINA RESULT:    -4.248      2.010      2.052
REMARK INTER + INTRA:          -4.372
REMARK INTER:                  -4.372
REMARK INTRA:                   0.000
REMARK UNBOUND:                 0.000
REMARK SMILES O=c1ccc2cc(O)ccc2o1
REMARK SMILES IDX 9 1 10 2 11 3 5 4 4 5 3 6 2 7 1 8 12 9 6 10 7 11 8 12
REMARK H PARENT 8 13
REMARK Flexibility Score: inf
ROOT
ATOM      1  C   UNL     1      34.881 -29.173  11.034  1.00  0.00     0.050 A 
ATOM      2  C   UNL     1      36.258 -29.409  10.965  1.00  0.00     0.052 A 
ATOM      3  C   UNL     1      36.737 -30.664  10.576  1.00  0.00     0.138 A 
ATOM      4  C   UNL     1      35.823 -31.692  10.252  1.00  0.00     0.021 A 
ATOM      5  C   UNL     1      36.332 -32.937   9.865  1.00  0.00     0.019 A 
ATOM      6  C   UNL     1      37.713 -33.125   9.810  1.00  0.00     0.094 A 
ATOM      7  C   UNL     1      38.556 -32.061  10.145  1.00  0.00     0.336 A 
ATOM      8  O   UNL     1      39.805 -32.211  10.102  1.00  0.00    -0.246 OA
ATOM      9  O   UNL     1      38.047 -30.887  10.510  1.00  0.00    -0.423 OA
ATOM     10  C   UNL     1      34.444 -31.451  10.322  1.00  0.00     0.058 A 
ATOM     11  C   UNL     1      33.973 -30.189  10.714  1.00  0.00     0.116 A 
ENDROOT
BRANCH  11  12
ATOM     12  O   UNL     1      32.605 -29.935  10.790  1.00  0.00    -0.508 OA
ATOM     13  H   UNL     1      32.109 -29.964  11.673  1.00  0.00     0.293 HD
ENDBRANCH  11  12
TORSDOF 1
ENDMDL
MODEL 6
REMARK VINA RESULT:    -4.183      1.995      4.332
REMARK INTER + INTRA:          -4.305
REMARK INTER:                  -4.305
REMARK INTRA:                   0.000
REMARK UNBOUND:                 0.000
REMARK SMILES O=c1ccc2cc(O)ccc2o1
REMARK SMILES IDX 9 1 10 2 11 3 5 4 4 5 3 6 2 7 1 8 12 9 6 10 7 11 8 12
REMARK H PARENT 8 13
REMARK Flexibility Score: inf
ROOT
ATOM      1  C   UNL     1      36.369 -31.815   9.064  1.00  0.00     0.050 A 
ATOM      2  C   UNL     1      36.917 -30.750   9.788  1.00  0.00     0.052 A 
ATOM      3  C   UNL     1      36.089 -29.922  10.552  1.00  0.00     0.138 A 
ATOM      4  C   UNL     1      34.698 -30.166  10.591  1.00  0.00     0.021 A 
ATOM      5  C   UNL     1      33.895 -29.321  11.365  1.00  0.00     0.019 A 
ATOM      6  C   UNL     1      34.486 -28.272  12.070  1.00  0.00     0.094 A 
ATOM      7  C   UNL     1      35.870 -28.091  11.984  1.00  0.00     0.336 A 
ATOM      8  O   UNL     1      36.421 -27.151  12.612  1.00  0.00    -0.246 OA
ATOM      9  O   UNL     1      36.611 -28.910  11.241  1.00  0.00    -0.423 OA
ATOM     10  C   UNL     1      34.154 -31.234   9.865  1.00  0.00     0.058 A 
ATOM     11  C   UNL     1      34.992 -32.059   9.101  1.00  0.00     0.116 A 
ENDROOT
BRANCH  11  12
ATOM     12  O   UNL     1      34.465 -33.124   8.373  1.00  0.00    -0.508 OA
ATOM     13  H   UNL     1      34.534 -33.161   7.362  1.00  0.00     0.293 HD
ENDBRANCH  11  12
TORSDOF 1
ENDMDL
MODEL 7
REMARK VINA RESULT:    -3.613     20.180     21.577
REMARK INTER + INTRA:          -3.718
REMARK INTER:                  -3.718
REMARK INTRA:                   0.000
REMARK UNBOUND:                 0.000
REMARK SMILES O=c1ccc2cc(O)ccc2o1
REMARK SMILES IDX 9 1 10 2 11 3 5 4 4 5 3 6 2 7 1 8 12 9 6 10 7 11 8 12
REMARK H PARENT 8 13
REMARK Flexibility Score: inf
ROOT
ATOM      1  C   UNL     1      23.790 -14.280   7.993  1.00  0.00     0.050 A 
ATOM      2  C   UNL     1      23.039 -13.493   7.112  1.00  0.00     0.052 A 
ATOM      3  C   UNL     1      22.124 -14.094   6.241  1.00  0.00     0.138 A 
ATOM      4  C   UNL     1      21.962 -15.497   6.255  1.00  0.00     0.021 A 
ATOM      5  C   UNL     1      21.039 -16.070   5.373  1.00  0.00     0.019 A 
ATOM      6  C   UNL     1      20.312 -15.246   4.513  1.00  0.00     0.094 A 
ATOM      7  C   UNL     1      20.526 -13.864   4.556  1.00  0.00     0.336 A 
ATOM      8  O   UNL     1      19.880 -13.105   3.788  1.00  0.00    -0.246 OA
ATOM      9  O   UNL     1      21.410 -13.345   5.405  1.00  0.00    -0.423 OA
ATOM     10  C   UNL     1      22.716 -16.281   7.139  1.00  0.00     0.058 A 
ATOM     11  C   UNL     1      23.631 -15.670   8.009  1.00  0.00     0.116 A 
ENDROOT
BRANCH  11  12
ATOM     12  O   UNL     1      24.389 -16.435   8.893  1.00  0.00    -0.508 OA
ATOM     13  H   UNL     1      25.000 -17.174   8.564  1.00  0.00     0.293 HD
ENDBRANCH  11  12
TORSDOF 1
ENDMDL
MODEL 8
REMARK VINA RESULT:    -3.548     20.268     21.812
REMARK INTER + INTRA:          -3.652
REMARK INTER:                  -3.652
REMARK INTRA:                   0.000
REMARK UNBOUND:                 0.000
REMARK SMILES O=c1ccc2cc(O)ccc2o1
REMARK SMILES IDX 9 1 10 2 11 3 5 4 4 5 3 6 2 7 1 8 12 9 6 10 7 11 8 12
REMARK H PARENT 8 13
REMARK Flexibility Score: inf
ROOT
ATOM      1  C   UNL     1      20.335 -15.095   4.339  1.00  0.00     0.050 A 
ATOM      2  C   UNL     1      21.010 -15.952   5.214  1.00  0.00     0.052 A 
ATOM      3  C   UNL     1      21.913 -15.433   6.148  1.00  0.00     0.138 A 
ATOM      4  C   UNL     1      22.140 -14.039   6.203  1.00  0.00     0.021 A 
ATOM      5  C   UNL     1      23.048 -13.549   7.148  1.00  0.00     0.019 A 
ATOM      6  C   UNL     1      23.697 -14.442   8.000  1.00  0.00     0.094 A 
ATOM      7  C   UNL     1      23.423 -15.808   7.888  1.00  0.00     0.336 A 
ATOM      8  O   UNL     1      23.999 -16.630   8.648  1.00  0.00    -0.246 OA
ATOM      9  O   UNL     1      22.554 -16.249   6.981  1.00  0.00    -0.423 OA
ATOM     10  C   UNL     1      21.460 -13.184   5.324  1.00  0.00     0.058 A 
ATOM     11  C   UNL     1      20.557 -13.714   4.391  1.00  0.00     0.116 A 
ENDROOT
BRANCH  11  12
ATOM     12  O   UNL     1      19.875 -12.877   3.510  1.00  0.00    -0.508 OA
ATOM     13  H   UNL     1      19.830 -11.876   3.659  1.00  0.00     0.293 HD
ENDBRANCH  11  12
TORSDOF 1
ENDMDL
