MODEL 1
REMARK VINA RESULT:    -3.847      0.000      0.000
REMARK INTER + INTRA:          -3.959
REMARK INTER:                  -3.959
REMARK INTRA:                   0.000
REMARK UNBOUND:                 0.000
REMARK SMILES Nc1ncnc2nc[nH]c12
REMARK SMILES IDX 8 1 7 2 6 3 5 4 4 5 3 6 2 7 10 8 9 9 1 11
REMARK H PARENT 9 10 1 12 1 13
REMARK Flexibility Score: inf
ROOT
ATOM      1  C   UNL     1     -23.018 -12.251  22.911  1.00  0.00     0.199 A 
ATOM      2  N   UNL     1     -23.840 -12.500  23.966  1.00  0.00    -0.217 NA
ATOM      3  C   UNL     1     -24.803 -11.577  23.801  1.00  0.00     0.182 A 
ATOM      4  N   UNL     1     -25.885 -11.388  24.593  1.00  0.00    -0.215 NA
ATOM      5  C   UNL     1     -26.760 -10.391  24.262  1.00  0.00     0.226 A 
ATOM      6  N   UNL     1     -26.540  -9.610  23.156  1.00  0.00    -0.217 NA
ATOM      7  C   UNL     1     -25.449  -9.799  22.355  1.00  0.00     0.152 A 
ATOM      8  C   UNL     1     -24.567 -10.819  22.706  1.00  0.00     0.127 A 
ATOM      9  N   UNL     1     -23.435 -11.229  22.122  1.00  0.00    -0.340 N 
ATOM     10  H   UNL     1     -22.972 -10.859  21.263  1.00  0.00     0.168 HD
ENDROOT
BRANCH   7  11
ATOM     11  N   UNL     1     -25.240  -8.974  21.209  1.00  0.00    -0.382 N 
ATOM     12  H   UNL     1     -25.848  -9.086  20.366  1.00  0.00     0.158 HD
ATOM     13  H   UNL     1     -24.486  -8.253  21.187  1.00  0.00     0.158 HD
ENDBRANCH   7  11
TORSDOF 1
ENDMDL
MODEL 2
REMARK VINA RESULT:    -3.805     13.548     15.203
REMARK INTER + INTRA:          -3.916
REMARK INTER:                  -3.916
REMARK INTRA:                   0.000
REMARK UNBOUND:                 0.000
REMARK SMILES Nc1ncnc2nc[nH]c12
REMARK SMILES IDX 8 1 7 2 6 3 5 4 4 5 3 6 2 7 10 8 9 9 1 11
REMARK H PARENT 9 10 1 12 1 13
REMARK Flexibility Score: inf
ROOT
ATOM      1  C   UNL     1     -28.906  -8.513  11.225  1.00  0.00     0.199 A 
ATOM      2  N   UNL     1     -28.466  -8.807   9.972  1.00  0.00    -0.217 NA
ATOM      3  C   UNL     1     -29.335  -8.134   9.198  1.00  0.00     0.182 A 
ATOM      4  N   UNL     1     -29.345  -8.088   7.845  1.00  0.00    -0.215 NA
ATOM      5  C   UNL     1     -30.315  -7.343   7.233  1.00  0.00     0.226 A 
ATOM      6  N   UNL     1     -31.247  -6.665   7.977  1.00  0.00    -0.217 NA
ATOM      7  C   UNL     1     -31.238  -6.710   9.343  1.00  0.00     0.152 A 
ATOM      8  C   UNL     1     -30.244  -7.473   9.951  1.00  0.00     0.127 A 
ATOM      9  N   UNL     1     -29.991  -7.698  11.246  1.00  0.00    -0.340 N 
ATOM     10  H   UNL     1     -30.501  -7.340  12.083  1.00  0.00     0.168 HD
ENDROOT
BRANCH   7  11
ATOM     11  N   UNL     1     -32.218  -5.997  10.097  1.00  0.00    -0.382 N 
ATOM     12  H   UNL     1     -32.681  -6.452  10.915  1.00  0.00     0.158 HD
ATOM     13  H   UNL     1     -32.490  -5.020   9.850  1.00  0.00     0.158 HD
ENDBRANCH   7  11
TORSDOF 1
ENDMDL
MODEL 3
REMARK VINA RESULT:    -3.725     13.571     15.177
REMARK INTER + INTRA:          -3.834
REMARK INTER:                  -3.834
REMARK INTRA:                   0.000
REMARK UNBOUND:                 0.000
REMARK SMILES Nc1ncnc2nc[nH]c12
REMARK SMILES IDX 8 1 7 2 6 3 5 4 4 5 3 6 2 7 10 8 9 9 1 11
REMARK H PARENT 9 10 1 12 1 13
REMARK Flexibility Score: inf
ROOT
ATOM      1  C   UNL     1     -29.649  -8.508   6.994  1.00  0.00     0.199 A 
ATOM      2  N   UNL     1     -28.712  -8.939   7.881  1.00  0.00    -0.217 NA
ATOM      3  C   UNL     1     -29.163  -8.433   9.041  1.00  0.00     0.182 A 
ATOM      4  N   UNL     1     -28.589  -8.570  10.260  1.00  0.00    -0.215 NA
ATOM      5  C   UNL     1     -29.201  -7.977  11.331  1.00  0.00     0.226 A 
ATOM      6  N   UNL     1     -30.363  -7.267  11.164  1.00  0.00    -0.217 NA
ATOM      7  C   UNL     1     -30.943  -7.128   9.935  1.00  0.00     0.152 A 
ATOM      8  C   UNL     1     -30.308  -7.737   8.855  1.00  0.00     0.127 A 
ATOM      9  N   UNL     1     -30.638  -7.771   7.558  1.00  0.00    -0.340 N 
ATOM     10  H   UNL     1     -31.459  -7.336   7.082  1.00  0.00     0.168 HD
ENDROOT
BRANCH   7  11
ATOM     11  N   UNL     1     -32.152  -6.384   9.785  1.00  0.00    -0.382 N 
ATOM     12  H   UNL     1     -32.546  -5.858  10.597  1.00  0.00     0.158 HD
ATOM     13  H   UNL     1     -32.662  -6.352   8.876  1.00  0.00     0.158 HD
ENDBRANCH   7  11
TORSDOF 1
ENDMDL
MODEL 4
REMARK VINA RESULT:    -3.694      1.747      3.018
REMARK INTER + INTRA:          -3.802
REMARK INTER:                  -3.802
REMARK INTRA:                   0.000
REMARK UNBOUND:                 0.000
REMARK SMILES Nc1ncnc2nc[nH]c12
REMARK SMILES IDX 8 1 7 2 6 3 5 4 4 5 3 6 2 7 10 8 9 9 1 11
REMARK H PARENT 9 10 1 12 1 13
REMARK Flexibility Score: inf
ROOT
ATOM      1  C   UNL     1     -25.501 -11.510  23.961  1.00  0.00     0.199 A 
ATOM      2  N   UNL     1     -24.638 -10.555  23.520  1.00  0.00    -0.217 NA
ATOM      3  C   UNL     1     -25.361  -9.931  22.575  1.00  0.00     0.182 A 
ATOM      4  N   UNL     1     -24.964  -8.885  21.813  1.00  0.00    -0.215 NA
ATOM      5  C   UNL     1     -25.847  -8.381  20.897  1.00  0.00     0.226 A 
ATOM      6  N   UNL     1     -27.099  -8.927  20.764  1.00  0.00    -0.217 NA
ATOM      7  C   UNL     1     -27.502  -9.982  21.533  1.00  0.00     0.152 A 
ATOM      8  C   UNL     1     -26.591 -10.483  22.460  1.00  0.00     0.127 A 
ATOM      9  N   UNL     1     -26.704 -11.491  23.333  1.00  0.00    -0.340 N 
ATOM     10  H   UNL     1     -27.519 -12.122  23.500  1.00  0.00     0.168 HD
ENDROOT
BRANCH   7  11
ATOM     11  N   UNL     1     -28.809 -10.534  21.377  1.00  0.00    -0.382 N 
ATOM     12  H   UNL     1     -29.009 -11.189  20.588  1.00  0.00     0.158 HD
ATOM     13  H   UNL     1     -29.583 -10.297  22.036  1.00  0.00     0.158 HD
ENDBRANCH   7  11
TORSDOF 1
ENDMDL
MODEL 5
REMARK VINA RESULT:    -3.619     15.361     16.816
REMARK INTER + INTRA:          -3.725
REMARK INTER:                  -3.725
REMARK INTRA:                   0.000
REMARK UNBOUND:                 0.000
REMARK SMILES Nc1ncnc2nc[nH]c12
REMARK SMILES IDX 8 1 7 2 6 3 5 4 4 5 3 6 2 7 10 8 9 9 1 11
REMARK H PARENT 9 10 1 12 1 13
REMARK Flexibility Score: inf
ROOT
ATOM      1  C   UNL     1     -37.881   0.127  16.814  1.00  0.00     0.199 A 
ATOM      2  N   UNL     1     -36.793   0.587  17.490  1.00  0.00    -0.217 NA
ATOM      3  C   UNL     1     -35.777   0.027  16.812  1.00  0.00     0.182 A 
ATOM      4  N   UNL     1     -34.456   0.165  17.076  1.00  0.00    -0.215 NA
ATOM      5  C   UNL     1     -33.565  -0.487  16.269  1.00  0.00     0.226 A 
ATOM      6  N   UNL     1     -34.008  -1.257  15.223  1.00  0.00    -0.217 NA
ATOM      7  C   UNL     1     -35.340  -1.397  14.954  1.00  0.00     0.152 A 
ATOM      8  C   UNL     1     -36.234  -0.727  15.786  1.00  0.00     0.127 A 
ATOM      9  N   UNL     1     -37.572  -0.679  15.766  1.00  0.00    -0.340 N 
ATOM     10  H   UNL     1     -38.232  -1.146  15.107  1.00  0.00     0.168 HD
ENDROOT
BRANCH   7  11
ATOM     11  N   UNL     1     -35.777  -2.203  13.861  1.00  0.00    -0.382 N 
ATOM     12  H   UNL     1     -36.404  -1.797  13.129  1.00  0.00     0.158 HD
ATOM     13  H   UNL     1     -35.487  -3.201  13.769  1.00  0.00     0.158 HD
ENDBRANCH   7  11
TORSDOF 1
ENDMDL
MODEL 6
REMARK VINA RESULT:    -3.519     12.232     13.963
REMARK INTER + INTRA:          -3.622
REMARK INTER:                  -3.622
REMARK INTRA:                   0.000
REMARK UNBOUND:                 0.000
REMARK SMILES Nc1ncnc2nc[nH]c12
REMARK SMILES IDX 8 1 7 2 6 3 5 4 4 5 3 6 2 7 10 8 9 9 1 11
REMARK H PARENT 9 10 1 12 1 13
REMARK Flexibility Score: inf
ROOT
ATOM      1  C   UNL     1     -20.875   3.131  18.158  1.00  0.00     0.199 A 
ATOM      2  N   UNL     1     -21.125   2.102  19.012  1.00  0.00    -0.217 NA
ATOM      3  C   UNL     1     -22.019   1.370  18.326  1.00  0.00     0.182 A 
ATOM      4  N   UNL     1     -22.603   0.219  18.732  1.00  0.00    -0.215 NA
ATOM      5  C   UNL     1     -23.495  -0.385  17.888  1.00  0.00     0.226 A 
ATOM      6  N   UNL     1     -23.782   0.169  16.667  1.00  0.00    -0.217 NA
ATOM      7  C   UNL     1     -23.193   1.331  16.255  1.00  0.00     0.152 A 
ATOM      8  C   UNL     1     -22.288   1.933  17.125  1.00  0.00     0.127 A 
ATOM      9  N   UNL     1     -21.571   3.056  16.995  1.00  0.00    -0.340 N 
ATOM     10  H   UNL     1     -21.545   3.725  16.194  1.00  0.00     0.168 HD
ENDROOT
BRANCH   7  11
ATOM     11  N   UNL     1     -23.508   1.890  14.979  1.00  0.00    -0.382 N 
ATOM     12  H   UNL     1     -24.400   1.632  14.502  1.00  0.00     0.158 HD
ATOM     13  H   UNL     1     -22.862   2.557  14.503  1.00  0.00     0.158 HD
ENDBRANCH   7  11
TORSDOF 1
ENDMDL
MODEL 7
REMARK VINA RESULT:    -3.472      1.924      3.495
REMARK INTER + INTRA:          -3.573
REMARK INTER:                  -3.573
REMARK INTRA:                   0.000
REMARK UNBOUND:                 0.000
REMARK SMILES Nc1ncnc2nc[nH]c12
REMARK SMILES IDX 8 1 7 2 6 3 5 4 4 5 3 6 2 7 10 8 9 9 1 11
REMARK H PARENT 9 10 1 12 1 13
REMARK Flexibility Score: inf
ROOT
ATOM      1  C   UNL     1     -28.426  -9.337  21.051  1.00  0.00     0.199 A 
ATOM      2  N   UNL     1     -28.433 -10.545  21.677  1.00  0.00    -0.217 NA
ATOM      3  C   UNL     1     -27.217 -10.579  22.248  1.00  0.00     0.182 A 
ATOM      4  N   UNL     1     -26.705 -11.580  23.002  1.00  0.00    -0.215 NA
ATOM      5  C   UNL     1     -25.439 -11.430  23.499  1.00  0.00     0.226 A 
ATOM      6  N   UNL     1     -24.717 -10.294  23.235  1.00  0.00    -0.217 NA
ATOM      7  C   UNL     1     -25.232  -9.283  22.475  1.00  0.00     0.152 A 
ATOM      8  C   UNL     1     -26.522  -9.450  21.976  1.00  0.00     0.127 A 
ATOM      9  N   UNL     1     -27.272  -8.644  21.215  1.00  0.00    -0.340 N 
ATOM     10  H   UNL     1     -27.036  -7.702  20.832  1.00  0.00     0.168 HD
ENDROOT
BRANCH   7  11
ATOM     11  N   UNL     1     -24.462  -8.109  22.214  1.00  0.00    -0.382 N 
ATOM     12  H   UNL     1     -24.942  -7.207  21.995  1.00  0.00     0.158 HD
ATOM     13  H   UNL     1     -23.419  -8.127  22.233  1.00  0.00     0.158 HD
ENDBRANCH   7  11
TORSDOF 1
ENDMDL
MODEL 8
REMARK VINA RESULT:    -3.462     12.429     14.264
REMARK INTER + INTRA:          -3.564
REMARK INTER:                  -3.564
REMARK INTRA:                   0.000
REMARK UNBOUND:                 0.000
REMARK SMILES Nc1ncnc2nc[nH]c12
REMARK SMILES IDX 8 1 7 2 6 3 5 4 4 5 3 6 2 7 10 8 9 9 1 11
REMARK H PARENT 9 10 1 12 1 13
REMARK Flexibility Score: inf
ROOT
ATOM      1  C   UNL     1     -23.723   0.785  15.497  1.00  0.00     0.199 A 
ATOM      2  N   UNL     1     -23.115   1.996  15.374  1.00  0.00    -0.217 NA
ATOM      3  C   UNL     1     -22.375   2.060  16.494  1.00  0.00     0.182 A 
ATOM      4  N   UNL     1     -21.564   3.077  16.869  1.00  0.00    -0.215 NA
ATOM      5  C   UNL     1     -20.888   2.959  18.053  1.00  0.00     0.226 A 
ATOM      6  N   UNL     1     -21.035   1.838  18.830  1.00  0.00    -0.217 NA
ATOM      7  C   UNL     1     -21.852   0.811  18.452  1.00  0.00     0.152 A 
ATOM      8  C   UNL     1     -22.534   0.946  17.245  1.00  0.00     0.127 A 
ATOM      9  N   UNL     1     -23.388   0.118  16.631  1.00  0.00    -0.340 N 
ATOM     10  H   UNL     1     -23.725  -0.820  16.940  1.00  0.00     0.168 HD
ENDROOT
BRANCH   7  11
ATOM     11  N   UNL     1     -21.990  -0.346  19.277  1.00  0.00    -0.382 N 
ATOM     12  H   UNL     1     -21.568  -0.360  20.233  1.00  0.00     0.158 HD
ATOM     13  H   UNL     1     -22.505  -1.192  18.948  1.00  0.00     0.158 HD
ENDBRANCH   7  11
TORSDOF 1
ENDMDL
MODEL 9
REMARK VINA RESULT:    -3.392      1.844      3.352
REMARK INTER + INTRA:          -3.491
REMARK INTER:                  -3.491
REMARK INTRA:                   0.000
REMARK UNBOUND:                 0.000
REMARK SMILES Nc1ncnc2nc[nH]c12
REMARK SMILES IDX 8 1 7 2 6 3 5 4 4 5 3 6 2 7 10 8 9 9 1 11
REMARK H PARENT 9 10 1 12 1 13
REMARK Flexibility Score: inf
ROOT
ATOM      1  C   UNL     1     -25.474  -7.570  21.454  1.00  0.00     0.199 A 
ATOM      2  N   UNL     1     -24.620  -8.205  22.302  1.00  0.00    -0.217 NA
ATOM      3  C   UNL     1     -25.282  -9.342  22.576  1.00  0.00     0.182 A 
ATOM      4  N   UNL     1     -24.865 -10.344  23.385  1.00  0.00    -0.215 NA
ATOM      5  C   UNL     1     -25.684 -11.429  23.541  1.00  0.00     0.226 A 
ATOM      6  N   UNL     1     -26.890 -11.491  22.891  1.00  0.00    -0.217 NA
ATOM      7  C   UNL     1     -27.311 -10.481  22.073  1.00  0.00     0.152 A 
ATOM      8  C   UNL     1     -26.467  -9.383  21.925  1.00  0.00     0.127 A 
ATOM      9  N   UNL     1     -26.612  -8.265  21.203  1.00  0.00    -0.340 N 
ATOM     10  H   UNL     1     -27.408  -7.983  20.590  1.00  0.00     0.168 HD
ENDROOT
BRANCH   7  11
ATOM     11  N   UNL     1     -28.571 -10.567  21.406  1.00  0.00    -0.382 N 
ATOM     12  H   UNL     1     -29.419 -10.882  21.930  1.00  0.00     0.158 HD
ATOM     13  H   UNL     1     -28.670 -10.323  20.397  1.00  0.00     0.158 HD
ENDBRANCH   7  11
TORSDOF 1
ENDMDL
