MODEL 1
REMARK VINA RESULT:    -4.998      0.000      0.000
REMARK INTER + INTRA:          -7.734
REMARK INTER:                  -6.167
REMARK INTRA:                  -1.568
REMARK UNBOUND:                -1.568
REMARK SMILES CC(C)=CCC[C@H](C)c1ccc(C)cc1
REMARK SMILES IDX 6 1 7 2 8 3 9 4 13 5 12 6 11 7 14 8 10 9 15 10 5 11 4 12
REMARK SMILES IDX 2 13 1 14 3 15
REMARK H PARENT
REMARK Flexibility Score: inf
ROOT
ATOM      1  C   UNL     1     176.732 177.304 182.029  1.00  0.00     0.012 C 
ENDROOT
BRANCH   1   2
ATOM      2  C   UNL     1     176.270 176.064 182.827  1.00  0.00     0.016 C 
ATOM      3  C   UNL     1     176.956 174.775 182.347  1.00  0.00     0.013 C 
BRANCH   2   4
ATOM      4  C   UNL     1     174.760 175.915 182.747  1.00  0.00    -0.045 A 
ATOM      5  C   UNL     1     170.463 175.529 182.543  1.00  0.00     0.044 C 
ATOM      6  C   UNL     1     171.957 175.660 182.584  1.00  0.00    -0.051 A 
ATOM      7  C   UNL     1     172.763 174.523 182.731  1.00  0.00     0.004 A 
ATOM      8  C   UNL     1     172.556 176.928 182.544  1.00  0.00     0.004 A 
ATOM      9  C   UNL     1     174.153 174.647 182.806  1.00  0.00     0.004 A 
ATOM     10  C   UNL     1     173.946 177.054 182.619  1.00  0.00     0.004 A 
ENDBRANCH   2   4
ENDBRANCH   1   2
BRANCH   1  11
ATOM     11  C   UNL     1     177.016 176.987 180.553  1.00  0.00     0.028 C 
BRANCH  11  12
ATOM     12  C   UNL     1     175.922 177.536 179.671  1.00  0.00    -0.028 C 
ATOM     13  C   UNL     1     174.979 176.781 179.062  1.00  0.00    -0.080 C 
ATOM     14  C   UNL     1     173.925 177.476 178.240  1.00  0.00     0.039 C 
ATOM     15  C   UNL     1     174.968 175.274 179.169  1.00  0.00     0.039 C 
ENDBRANCH  11  12
ENDBRANCH   1  11
TORSDOF 4
ENDMDL
MODEL 2
REMARK VINA RESULT:    -4.615      0.970      4.296
REMARK INTER + INTRA:          -7.263
REMARK INTER:                  -5.678
REMARK INTRA:                  -1.584
REMARK UNBOUND:                -1.568
REMARK SMILES CC(C)=CCC[C@H](C)c1ccc(C)cc1
REMARK SMILES IDX 6 1 7 2 8 3 9 4 13 5 12 6 11 7 14 8 10 9 15 10 5 11 4 12
REMARK SMILES IDX 2 13 1 14 3 15
REMARK H PARENT
REMARK Flexibility Score: inf
ROOT
ATOM      1  C   UNL     1     176.735 174.862 182.191  1.00  0.00     0.012 C 
ENDROOT
BRANCH   1   2
ATOM      2  C   UNL     1     177.082 176.081 181.306  1.00  0.00     0.016 C 
ATOM      3  C   UNL     1     177.102 177.393 182.107  1.00  0.00     0.013 C 
BRANCH   2   4
ATOM      4  C   UNL     1     176.108 176.188 180.146  1.00  0.00    -0.045 A 
ATOM      5  C   UNL     1     173.358 176.463 176.827  1.00  0.00     0.044 C 
ATOM      6  C   UNL     1     174.289 176.364 177.998  1.00  0.00    -0.051 A 
ATOM      7  C   UNL     1     174.665 177.517 178.703  1.00  0.00     0.004 A 
ATOM      8  C   UNL     1     174.844 175.127 178.356  1.00  0.00     0.004 A 
ATOM      9  C   UNL     1     175.562 177.430 179.771  1.00  0.00     0.004 A 
ATOM     10  C   UNL     1     175.741 175.039 179.425  1.00  0.00     0.004 A 
ENDBRANCH   2   4
ENDBRANCH   1   2
BRANCH   1  11
ATOM     11  C   UNL     1     175.695 175.192 183.272  1.00  0.00     0.028 C 
BRANCH  11  12
ATOM     12  C   UNL     1     174.325 174.715 182.855  1.00  0.00    -0.028 C 
ATOM     13  C   UNL     1     173.296 175.531 182.535  1.00  0.00    -0.080 C 
ATOM     14  C   UNL     1     171.995 174.909 182.099  1.00  0.00     0.039 C 
ATOM     15  C   UNL     1     173.411 177.036 182.619  1.00  0.00     0.039 C 
ENDBRANCH  11  12
ENDBRANCH   1  11
TORSDOF 4
ENDMDL
MODEL 3
REMARK VINA RESULT:    -4.552      1.586      3.284
REMARK INTER + INTRA:          -7.184
REMARK INTER:                  -5.670
REMARK INTRA:                  -1.514
REMARK UNBOUND:                -1.568
REMARK SMILES CC(C)=CCC[C@H](C)c1ccc(C)cc1
REMARK SMILES IDX 6 1 7 2 8 3 9 4 13 5 12 6 11 7 14 8 10 9 15 10 5 11 4 12
REMARK SMILES IDX 2 13 1 14 3 15
REMARK H PARENT
REMARK Flexibility Score: inf
ROOT
ATOM      1  C   UNL     1     177.012 175.361 181.258  1.00  0.00     0.012 C 
ENDROOT
BRANCH   1   2
ATOM      2  C   UNL     1     176.566 176.798 181.609  1.00  0.00     0.016 C 
ATOM      3  C   UNL     1     177.028 177.224 183.012  1.00  0.00     0.013 C 
BRANCH   2   4
ATOM      4  C   UNL     1     175.058 176.928 181.491  1.00  0.00    -0.045 A 
ATOM      5  C   UNL     1     170.772 177.312 181.117  1.00  0.00     0.044 C 
ATOM      6  C   UNL     1     172.256 177.150 181.254  1.00  0.00    -0.051 A 
ATOM      7  C   UNL     1     172.882 177.380 182.488  1.00  0.00     0.004 A 
ATOM      8  C   UNL     1     173.039 176.833 180.134  1.00  0.00     0.004 A 
ATOM      9  C   UNL     1     174.270 177.264 182.608  1.00  0.00     0.004 A 
ATOM     10  C   UNL     1     174.427 176.717 180.253  1.00  0.00     0.004 A 
ENDBRANCH   2   4
ENDBRANCH   1   2
BRANCH   1  11
ATOM     11  C   UNL     1     176.491 174.318 182.258  1.00  0.00     0.028 C 
BRANCH  11  12
ATOM     12  C   UNL     1     175.580 173.331 181.570  1.00  0.00    -0.028 C 
ATOM     13  C   UNL     1     174.286 173.123 181.903  1.00  0.00    -0.080 C 
ATOM     14  C   UNL     1     173.488 172.131 181.099  1.00  0.00     0.039 C 
ATOM     15  C   UNL     1     173.633 173.841 183.062  1.00  0.00     0.039 C 
ENDBRANCH  11  12
ENDBRANCH   1  11
TORSDOF 4
ENDMDL
MODEL 4
REMARK VINA RESULT:    -4.515      1.472      4.460
REMARK INTER + INTRA:          -7.138
REMARK INTER:                  -6.080
REMARK INTRA:                  -1.059
REMARK UNBOUND:                -1.568
REMARK SMILES CC(C)=CCC[C@H](C)c1ccc(C)cc1
REMARK SMILES IDX 6 1 7 2 8 3 9 4 13 5 12 6 11 7 14 8 10 9 15 10 5 11 4 12
REMARK SMILES IDX 2 13 1 14 3 15
REMARK H PARENT
REMARK Flexibility Score: inf
ROOT
ATOM      1  C   UNL     1     173.325 175.486 182.506  1.00  0.00     0.012 C 
ENDROOT
BRANCH   1   2
ATOM      2  C   UNL     1     173.261 176.967 182.069  1.00  0.00     0.016 C 
ATOM      3  C   UNL     1     172.115 177.726 182.756  1.00  0.00     0.013 C 
BRANCH   2   4
ATOM      4  C   UNL     1     173.129 177.068 180.559  1.00  0.00    -0.045 A 
ATOM      5  C   UNL     1     172.720 177.331 176.268  1.00  0.00     0.044 C 
ATOM      6  C   UNL     1     172.862 177.270 177.759  1.00  0.00    -0.051 A 
ATOM      7  C   UNL     1     174.133 177.256 178.349  1.00  0.00     0.004 A 
ATOM      8  C   UNL     1     171.725 177.157 178.573  1.00  0.00     0.004 A 
ATOM      9  C   UNL     1     174.267 177.162 179.737  1.00  0.00     0.004 A 
ATOM     10  C   UNL     1     171.857 177.064 179.961  1.00  0.00     0.004 A 
ENDBRANCH   2   4
ENDBRANCH   1   2
BRANCH   1  11
ATOM     11  C   UNL     1     174.748 175.036 182.870  1.00  0.00     0.028 C 
BRANCH  11  12
ATOM     12  C   UNL     1     175.629 176.230 183.144  1.00  0.00    -0.028 C 
ATOM     13  C   UNL     1     176.709 176.569 182.405  1.00  0.00    -0.080 C 
ATOM     14  C   UNL     1     177.471 177.814 182.778  1.00  0.00     0.039 C 
ATOM     15  C   UNL     1     177.177 175.730 181.238  1.00  0.00     0.039 C 
ENDBRANCH  11  12
ENDBRANCH   1  11
TORSDOF 4
ENDMDL
MODEL 5
REMARK VINA RESULT:    -4.508      1.948      4.536
REMARK INTER + INTRA:          -7.130
REMARK INTER:                  -5.596
REMARK INTRA:                  -1.535
REMARK UNBOUND:                -1.568
REMARK SMILES CC(C)=CCC[C@H](C)c1ccc(C)cc1
REMARK SMILES IDX 6 1 7 2 8 3 9 4 13 5 12 6 11 7 14 8 10 9 15 10 5 11 4 12
REMARK SMILES IDX 2 13 1 14 3 15
REMARK H PARENT
REMARK Flexibility Score: inf
ROOT
ATOM      1  C   UNL     1     176.617 176.878 182.390  1.00  0.00     0.012 C 
ENDROOT
BRANCH   1   2
ATOM      2  C   UNL     1     177.093 176.377 181.007  1.00  0.00     0.016 C 
ATOM      3  C   UNL     1     176.354 177.071 179.852  1.00  0.00     0.013 C 
BRANCH   2   4
ATOM      4  C   UNL     1     176.930 174.870 180.906  1.00  0.00    -0.045 A 
ATOM      5  C   UNL     1     176.429 170.591 180.599  1.00  0.00     0.044 C 
ATOM      6  C   UNL     1     176.629 172.074 180.691  1.00  0.00    -0.051 A 
ATOM      7  C   UNL     1     177.302 172.631 181.788  1.00  0.00     0.004 A 
ATOM      8  C   UNL     1     176.086 172.922 179.714  1.00  0.00     0.004 A 
ATOM      9  C   UNL     1     177.457 174.016 181.892  1.00  0.00     0.004 A 
ATOM     10  C   UNL     1     176.240 174.308 179.818  1.00  0.00     0.004 A 
ENDBRANCH   2   4
ENDBRANCH   1   2
BRANCH   1  11
ATOM     11  C   UNL     1     175.087 176.971 182.492  1.00  0.00     0.028 C 
BRANCH  11  12
ATOM     12  C   UNL     1     174.511 175.687 183.036  1.00  0.00    -0.028 C 
ATOM     13  C   UNL     1     173.579 174.939 182.404  1.00  0.00    -0.080 C 
ATOM     14  C   UNL     1     173.126 173.657 183.053  1.00  0.00     0.039 C 
ATOM     15  C   UNL     1     172.973 175.361 181.085  1.00  0.00     0.039 C 
ENDBRANCH  11  12
ENDBRANCH   1  11
TORSDOF 4
ENDMDL
MODEL 6
REMARK VINA RESULT:    -4.480      1.832      3.680
REMARK INTER + INTRA:          -7.096
REMARK INTER:                  -5.507
REMARK INTRA:                  -1.589
REMARK UNBOUND:                -1.568
REMARK SMILES CC(C)=CCC[C@H](C)c1ccc(C)cc1
REMARK SMILES IDX 6 1 7 2 8 3 9 4 13 5 12 6 11 7 14 8 10 9 15 10 5 11 4 12
REMARK SMILES IDX 2 13 1 14 3 15
REMARK H PARENT
REMARK Flexibility Score: inf
ROOT
ATOM      1  C   UNL     1     174.502 176.921 181.961  1.00  0.00     0.012 C 
ENDROOT
BRANCH   1   2
ATOM      2  C   UNL     1     175.595 176.299 182.861  1.00  0.00     0.016 C 
ATOM      3  C   UNL     1     176.866 177.161 182.909  1.00  0.00     0.013 C 
BRANCH   2   4
ATOM      4  C   UNL     1     175.929 174.894 182.393  1.00  0.00    -0.045 A 
ATOM      5  C   UNL     1     176.849 170.881 181.085  1.00  0.00     0.044 C 
ATOM      6  C   UNL     1     176.529 172.283 181.511  1.00  0.00    -0.051 A 
ATOM      7  C   UNL     1     177.561 173.198 181.765  1.00  0.00     0.004 A 
ATOM      8  C   UNL     1     175.198 172.671 181.722  1.00  0.00     0.004 A 
ATOM      9  C   UNL     1     177.264 174.494 182.197  1.00  0.00     0.004 A 
ATOM     10  C   UNL     1     174.901 173.967 182.153  1.00  0.00     0.004 A 
ENDBRANCH   2   4
ENDBRANCH   1   2
BRANCH   1  11
ATOM     11  C   UNL     1     175.037 177.339 180.583  1.00  0.00     0.028 C 
BRANCH  11  12
ATOM     12  C   UNL     1     174.397 176.518 179.492  1.00  0.00    -0.028 C 
ATOM     13  C   UNL     1     175.065 175.659 178.690  1.00  0.00    -0.080 C 
ATOM     14  C   UNL     1     174.282 174.876 177.667  1.00  0.00     0.039 C 
ATOM     15  C   UNL     1     176.563 175.479 178.780  1.00  0.00     0.039 C 
ENDBRANCH  11  12
ENDBRANCH   1  11
TORSDOF 4
ENDMDL
MODEL 7
REMARK VINA RESULT:    -4.472      1.429      2.549
REMARK INTER + INTRA:          -7.086
REMARK INTER:                  -6.092
REMARK INTRA:                  -0.994
REMARK UNBOUND:                -1.568
REMARK SMILES CC(C)=CCC[C@H](C)c1ccc(C)cc1
REMARK SMILES IDX 6 1 7 2 8 3 9 4 13 5 12 6 11 7 14 8 10 9 15 10 5 11 4 12
REMARK SMILES IDX 2 13 1 14 3 15
REMARK H PARENT
REMARK Flexibility Score: inf
ROOT
ATOM      1  C   UNL     1     175.712 174.904 183.371  1.00  0.00     0.012 C 
ENDROOT
BRANCH   1   2
ATOM      2  C   UNL     1     174.529 174.015 182.927  1.00  0.00     0.016 C 
ATOM      3  C   UNL     1     174.787 173.339 181.571  1.00  0.00     0.013 C 
BRANCH   2   4
ATOM      4  C   UNL     1     173.247 174.828 182.873  1.00  0.00    -0.045 A 
ATOM      5  C   UNL     1     169.582 177.108 182.709  1.00  0.00     0.044 C 
ATOM      6  C   UNL     1     170.859 176.326 182.794  1.00  0.00    -0.051 A 
ATOM      7  C   UNL     1     172.075 176.915 182.421  1.00  0.00     0.004 A 
ATOM      8  C   UNL     1     170.837 174.979 183.184  1.00  0.00     0.004 A 
ATOM      9  C   UNL     1     173.261 176.175 182.465  1.00  0.00     0.004 A 
ATOM     10  C   UNL     1     172.022 174.239 183.229  1.00  0.00     0.004 A 
ENDBRANCH   2   4
ENDBRANCH   1   2
BRANCH   1  11
ATOM     11  C   UNL     1     176.848 174.938 182.337  1.00  0.00     0.028 C 
BRANCH  11  12
ATOM     12  C   UNL     1     177.037 176.335 181.800  1.00  0.00    -0.028 C 
ATOM     13  C   UNL     1     176.897 176.679 180.500  1.00  0.00    -0.080 C 
ATOM     14  C   UNL     1     177.079 178.125 180.117  1.00  0.00     0.039 C 
ATOM     15  C   UNL     1     176.585 175.658 179.430  1.00  0.00     0.039 C 
ENDBRANCH  11  12
ENDBRANCH   1  11
TORSDOF 4
ENDMDL
MODEL 8
REMARK VINA RESULT:    -4.444      1.471      2.368
REMARK INTER + INTRA:          -7.052
REMARK INTER:                  -5.902
REMARK INTRA:                  -1.150
REMARK UNBOUND:                -1.568
REMARK SMILES CC(C)=CCC[C@H](C)c1ccc(C)cc1
REMARK SMILES IDX 6 1 7 2 8 3 9 4 13 5 12 6 11 7 14 8 10 9 15 10 5 11 4 12
REMARK SMILES IDX 2 13 1 14 3 15
REMARK H PARENT
REMARK Flexibility Score: inf
ROOT
ATOM      1  C   UNL     1     175.979 176.930 181.004  1.00  0.00     0.012 C 
ENDROOT
BRANCH   1   2
ATOM      2  C   UNL     1     175.470 177.002 182.461  1.00  0.00     0.016 C 
ATOM      3  C   UNL     1     176.345 176.182 183.423  1.00  0.00     0.013 C 
BRANCH   2   4
ATOM      4  C   UNL     1     174.026 176.538 182.541  1.00  0.00    -0.045 A 
ATOM      5  C   UNL     1     169.910 175.254 182.790  1.00  0.00     0.044 C 
ATOM      6  C   UNL     1     171.337 175.698 182.674  1.00  0.00    -0.051 A 
ATOM      7  C   UNL     1     172.374 174.754 182.667  1.00  0.00     0.004 A 
ATOM      8  C   UNL     1     171.651 177.064 182.639  1.00  0.00     0.004 A 
ATOM      9  C   UNL     1     173.707 175.169 182.595  1.00  0.00     0.004 A 
ATOM     10  C   UNL     1     172.984 177.481 182.567  1.00  0.00     0.004 A 
ENDBRANCH   2   4
ENDBRANCH   1   2
BRANCH   1  11
ATOM     11  C   UNL     1     177.012 175.813 180.791  1.00  0.00     0.028 C 
BRANCH  11  12
ATOM     12  C   UNL     1     176.406 174.668 180.019  1.00  0.00    -0.028 C 
ATOM     13  C   UNL     1     176.368 173.388 180.453  1.00  0.00    -0.080 C 
ATOM     14  C   UNL     1     175.693 172.357 179.586  1.00  0.00     0.039 C 
ATOM     15  C   UNL     1     176.994 172.967 181.762  1.00  0.00     0.039 C 
ENDBRANCH  11  12
ENDBRANCH   1  11
TORSDOF 4
ENDMDL
MODEL 9
REMARK VINA RESULT:    -4.423     11.132     13.160
REMARK INTER + INTRA:          -7.025
REMARK INTER:                  -5.532
REMARK INTRA:                  -1.493
REMARK UNBOUND:                -1.568
REMARK SMILES CC(C)=CCC[C@H](C)c1ccc(C)cc1
REMARK SMILES IDX 6 1 7 2 8 3 9 4 13 5 12 6 11 7 14 8 10 9 15 10 5 11 4 12
REMARK SMILES IDX 2 13 1 14 3 15
REMARK H PARENT
REMARK Flexibility Score: inf
ROOT
ATOM      1  C   UNL     1     162.047 178.125 181.201  1.00  0.00     0.012 C 
ENDROOT
BRANCH   1   2
ATOM      2  C   UNL     1     162.339 177.440 182.556  1.00  0.00     0.016 C 
ATOM      3  C   UNL     1     163.843 177.386 182.867  1.00  0.00     0.013 C 
BRANCH   2   4
ATOM      4  C   UNL     1     161.747 176.041 182.580  1.00  0.00    -0.045 A 
ATOM      5  C   UNL     1     160.096 172.050 182.628  1.00  0.00     0.044 C 
ATOM      6  C   UNL     1     160.666 173.437 182.641  1.00  0.00    -0.051 A 
ATOM      7  C   UNL     1     159.822 174.551 182.533  1.00  0.00     0.004 A 
ATOM      8  C   UNL     1     162.055 173.629 182.694  1.00  0.00     0.004 A 
ATOM      9  C   UNL     1     160.355 175.843 182.508  1.00  0.00     0.004 A 
ATOM     10  C   UNL     1     162.590 174.921 182.670  1.00  0.00     0.004 A 
ENDBRANCH   2   4
ENDBRANCH   1   2
BRANCH   1  11
ATOM     11  C   UNL     1     162.618 177.345 180.008  1.00  0.00     0.028 C 
BRANCH  11  12
ATOM     12  C   UNL     1     161.527 177.012 179.019  1.00  0.00    -0.028 C 
ATOM     13  C   UNL     1     161.224 175.760 178.609  1.00  0.00    -0.080 C 
ATOM     14  C   UNL     1     160.080 175.578 177.644  1.00  0.00     0.039 C 
ATOM     15  C   UNL     1     162.006 174.553 179.073  1.00  0.00     0.039 C 
ENDBRANCH  11  12
ENDBRANCH   1  11
TORSDOF 4
ENDMDL
