MODEL 1
REMARK VINA RESULT:     7.955      0.000      0.000
REMARK INTER + INTRA:           8.307
REMARK INTER:                   8.420
REMARK INTRA:                  -0.113
REMARK UNBOUND:                -0.113
REMARK SMILES CC(C)[C@@H]1CC[C@H](C)[C@H]2C=C[C@@H](C)C[C@@H]21
REMARK SMILES IDX 8 1 7 2 6 3 5 4 4 5 15 6 9 7 10 8 11 9 12 10 14 11 13 12
REMARK SMILES IDX 2 13 1 14 3 15
REMARK H PARENT
REMARK Flexibility Score: inf
ROOT
ATOM      1  C   UNL     1     134.875 141.921 162.908  1.00  0.00     0.008 C 
ATOM      2  C   UNL     1     134.952 140.385 162.953  1.00  0.00    -0.007 C 
ATOM      3  C   UNL     1     135.165 139.836 161.512  1.00  0.00     0.004 C 
ATOM      4  C   UNL     1     135.956 138.511 161.450  1.00  0.00     0.004 C 
ATOM      5  C   UNL     1     135.626 137.607 162.657  1.00  0.00    -0.005 C 
ATOM      6  C   UNL     1     135.992 138.306 164.020  1.00  0.00    -0.000 C 
ATOM      7  C   UNL     1     136.066 139.854 163.893  1.00  0.00     0.018 C 
ATOM      8  C   UNL     1     136.092 140.455 165.282  1.00  0.00    -0.027 C 
ATOM      9  C   UNL     1     136.780 139.862 166.274  1.00  0.00    -0.028 C 
ATOM     10  C   UNL     1     137.396 138.476 166.154  1.00  0.00     0.008 C 
ATOM     11  C   UNL     1     137.295 137.863 164.728  1.00  0.00     0.012 C 
ATOM     12  C   UNL     1     136.752 137.550 167.195  1.00  0.00     0.012 C 
ENDROOT
BRANCH   5  13
ATOM     13  C   UNL     1     136.100 136.125 162.485  1.00  0.00    -0.014 C 
ATOM     14  C   UNL     1     135.124 135.319 161.610  1.00  0.00     0.007 C 
ATOM     15  C   UNL     1     137.523 135.989 161.912  1.00  0.00     0.007 C 
ENDBRANCH   5  13
TORSDOF 1
ENDMDL
MODEL 2
REMARK VINA RESULT:     8.932      1.091      4.148
REMARK INTER + INTRA:           9.341
REMARK INTER:                   9.592
REMARK INTRA:                  -0.251
REMARK UNBOUND:                -0.113
REMARK SMILES CC(C)[C@@H]1CC[C@H](C)[C@H]2C=C[C@@H](C)C[C@@H]21
REMARK SMILES IDX 8 1 7 2 6 3 5 4 4 5 15 6 9 7 10 8 11 9 12 10 14 11 13 12
REMARK SMILES IDX 2 13 1 14 3 15
REMARK H PARENT
REMARK Flexibility Score: inf
ROOT
ATOM      1  C   UNL     1     134.875 141.119 161.260  1.00  0.00     0.008 C 
ATOM      2  C   UNL     1     135.718 140.438 162.354  1.00  0.00    -0.007 C 
ATOM      3  C   UNL     1     135.270 140.960 163.751  1.00  0.00     0.004 C 
ATOM      4  C   UNL     1     135.447 139.937 164.894  1.00  0.00     0.004 C 
ATOM      5  C   UNL     1     136.707 139.073 164.680  1.00  0.00    -0.005 C 
ATOM      6  C   UNL     1     136.629 138.259 163.334  1.00  0.00    -0.000 C 
ATOM      7  C   UNL     1     135.639 138.889 162.315  1.00  0.00     0.018 C 
ATOM      8  C   UNL     1     135.866 138.256 160.960  1.00  0.00    -0.027 C 
ATOM      9  C   UNL     1     136.143 136.945 160.853  1.00  0.00    -0.028 C 
ATOM     10  C   UNL     1     136.452 136.053 162.047  1.00  0.00     0.008 C 
ATOM     11  C   UNL     1     136.268 136.757 163.422  1.00  0.00     0.012 C 
ATOM     12  C   UNL     1     137.875 135.498 161.902  1.00  0.00     0.012 C 
ENDROOT
BRANCH   5  13
ATOM     13  C   UNL     1     137.148 138.273 165.952  1.00  0.00    -0.014 C 
ATOM     14  C   UNL     1     138.245 139.019 166.734  1.00  0.00     0.007 C 
ATOM     15  C   UNL     1     135.989 137.934 166.908  1.00  0.00     0.007 C 
ENDBRANCH   5  13
TORSDOF 1
ENDMDL
