MODEL 1
REMARK VINA RESULT:    -3.486      0.000      0.000
REMARK INTER + INTRA:          -3.849
REMARK INTER:                  -3.689
REMARK INTRA:                  -0.159
REMARK UNBOUND:                -0.159
REMARK SMILES Cc1ccc(C(C)C)cc1
REMARK SMILES IDX 1 1 2 2 3 3 4 4 5 5 9 6 10 7 6 8 7 9 8 10
REMARK H PARENT
REMARK Flexibility Score: inf
ROOT
ATOM      1  C   UNL     1      77.153  91.987  92.332  1.00  0.00     0.044 C 
ATOM      2  C   UNL     1      76.234  90.806  92.239  1.00  0.00    -0.051 A 
ATOM      3  C   UNL     1      76.590  89.693  91.465  1.00  0.00     0.004 A 
ATOM      4  C   UNL     1      75.718  88.606  91.346  1.00  0.00     0.004 A 
ATOM      5  C   UNL     1      74.467  88.621  91.992  1.00  0.00    -0.045 A 
ATOM      6  C   UNL     1      74.108  89.748  92.752  1.00  0.00     0.004 A 
ATOM      7  C   UNL     1      74.981  90.834  92.869  1.00  0.00     0.004 A 
ENDROOT
BRANCH   5   8
ATOM      8  C   UNL     1      73.509  87.451  91.871  1.00  0.00     0.013 C 
ATOM      9  C   UNL     1      72.727  87.511  90.553  1.00  0.00     0.012 C 
ATOM     10  C   UNL     1      72.559  87.388  93.073  1.00  0.00     0.012 C 
ENDBRANCH   5   8
TORSDOF 1
ENDMDL
MODEL 2
REMARK VINA RESULT:    -3.442      0.234      1.550
REMARK INTER + INTRA:          -3.802
REMARK INTER:                  -3.644
REMARK INTRA:                  -0.158
REMARK UNBOUND:                -0.159
REMARK SMILES Cc1ccc(C(C)C)cc1
REMARK SMILES IDX 1 1 2 2 3 3 4 4 5 5 9 6 10 7 6 8 7 9 8 10
REMARK H PARENT
REMARK Flexibility Score: inf
ROOT
ATOM      1  C   UNL     1      77.336  92.116  92.419  1.00  0.00     0.044 C 
ATOM      2  C   UNL     1      76.385  90.967  92.275  1.00  0.00    -0.051 A 
ATOM      3  C   UNL     1      75.147  90.987  92.933  1.00  0.00     0.004 A 
ATOM      4  C   UNL     1      74.273  89.901  92.830  1.00  0.00     0.004 A 
ATOM      5  C   UNL     1      74.630  88.767  92.077  1.00  0.00    -0.045 A 
ATOM      6  C   UNL     1      75.881  88.743  91.434  1.00  0.00     0.004 A 
ATOM      7  C   UNL     1      76.753  89.832  91.538  1.00  0.00     0.004 A 
ENDROOT
BRANCH   5   8
ATOM      8  C   UNL     1      73.694  87.578  91.958  1.00  0.00     0.013 C 
ATOM      9  C   UNL     1      72.962  87.585  90.610  1.00  0.00     0.012 C 
ATOM     10  C   UNL     1      72.700  87.538  93.125  1.00  0.00     0.012 C 
ENDBRANCH   5   8
TORSDOF 1
ENDMDL
MODEL 3
REMARK VINA RESULT:    -3.224     17.002     18.457
REMARK INTER + INTRA:          -3.572
REMARK INTER:                  -3.405
REMARK INTRA:                  -0.167
REMARK UNBOUND:                -0.159
REMARK SMILES Cc1ccc(C(C)C)cc1
REMARK SMILES IDX 1 1 2 2 3 3 4 4 5 5 9 6 10 7 6 8 7 9 8 10
REMARK H PARENT
REMARK Flexibility Score: inf
ROOT
ATOM      1  C   UNL     1      75.288  85.407  74.608  1.00  0.00     0.044 C 
ATOM      2  C   UNL     1      75.112  86.868  74.322  1.00  0.00    -0.051 A 
ATOM      3  C   UNL     1      75.485  87.826  75.275  1.00  0.00     0.004 A 
ATOM      4  C   UNL     1      75.287  89.187  75.026  1.00  0.00     0.004 A 
ATOM      5  C   UNL     1      74.699  89.613  73.820  1.00  0.00    -0.045 A 
ATOM      6  C   UNL     1      74.309  88.648  72.875  1.00  0.00     0.004 A 
ATOM      7  C   UNL     1      74.508  87.287  73.127  1.00  0.00     0.004 A 
ENDROOT
BRANCH   5   8
ATOM      8  C   UNL     1      74.475  91.087  73.535  1.00  0.00     0.013 C 
ATOM      9  C   UNL     1      74.660  91.929  74.804  1.00  0.00     0.012 C 
ATOM     10  C   UNL     1      73.095  91.326  72.911  1.00  0.00     0.012 C 
ENDBRANCH   5   8
TORSDOF 1
ENDMDL
MODEL 4
REMARK VINA RESULT:    -3.148     13.505     15.708
REMARK INTER + INTRA:          -3.491
REMARK INTER:                  -3.327
REMARK INTRA:                  -0.164
REMARK UNBOUND:                -0.159
REMARK SMILES Cc1ccc(C(C)C)cc1
REMARK SMILES IDX 1 1 2 2 3 3 4 4 5 5 9 6 10 7 6 8 7 9 8 10
REMARK H PARENT
REMARK Flexibility Score: inf
ROOT
ATOM      1  C   UNL     1      71.983  72.219  92.168  1.00  0.00     0.044 C 
ATOM      2  C   UNL     1      73.218  73.038  92.398  1.00  0.00    -0.051 A 
ATOM      3  C   UNL     1      73.121  74.325  92.944  1.00  0.00     0.004 A 
ATOM      4  C   UNL     1      74.268  75.105  93.125  1.00  0.00     0.004 A 
ATOM      5  C   UNL     1      75.532  74.613  92.749  1.00  0.00    -0.045 A 
ATOM      6  C   UNL     1      75.621  73.328  92.184  1.00  0.00     0.004 A 
ATOM      7  C   UNL     1      74.473  72.550  92.004  1.00  0.00     0.004 A 
ENDROOT
BRANCH   5   8
ATOM      8  C   UNL     1      76.785  75.447  92.937  1.00  0.00     0.013 C 
ATOM      9  C   UNL     1      76.681  76.777  92.179  1.00  0.00     0.012 C 
ATOM     10  C   UNL     1      78.036  74.668  92.514  1.00  0.00     0.012 C 
ENDBRANCH   5   8
TORSDOF 1
ENDMDL
MODEL 5
REMARK VINA RESULT:    -3.064     17.165     18.217
REMARK INTER + INTRA:          -3.403
REMARK INTER:                  -3.246
REMARK INTRA:                  -0.157
REMARK UNBOUND:                -0.159
REMARK SMILES Cc1ccc(C(C)C)cc1
REMARK SMILES IDX 1 1 2 2 3 3 4 4 5 5 9 6 10 7 6 8 7 9 8 10
REMARK H PARENT
REMARK Flexibility Score: inf
ROOT
ATOM      1  C   UNL     1      74.776  92.061  74.097  1.00  0.00     0.044 C 
ATOM      2  C   UNL     1      74.807  90.566  73.992  1.00  0.00    -0.051 A 
ATOM      3  C   UNL     1      74.118  89.916  72.958  1.00  0.00     0.004 A 
ATOM      4  C   UNL     1      74.116  88.520  72.879  1.00  0.00     0.004 A 
ATOM      5  C   UNL     1      74.793  87.749  73.842  1.00  0.00    -0.045 A 
ATOM      6  C   UNL     1      75.466  88.406  74.888  1.00  0.00     0.004 A 
ATOM      7  C   UNL     1      75.468  89.802  74.965  1.00  0.00     0.004 A 
ENDROOT
BRANCH   5   8
ATOM      8  C   UNL     1      74.797  86.233  73.772  1.00  0.00     0.013 C 
ATOM      9  C   UNL     1      74.281  85.619  75.079  1.00  0.00     0.012 C 
ATOM     10  C   UNL     1      76.192  85.700  73.424  1.00  0.00     0.012 C 
ENDBRANCH   5   8
TORSDOF 1
ENDMDL
MODEL 6
REMARK VINA RESULT:    -3.021      9.589     10.846
REMARK INTER + INTRA:          -3.357
REMARK INTER:                  -3.202
REMARK INTRA:                  -0.155
REMARK UNBOUND:                -0.159
REMARK SMILES Cc1ccc(C(C)C)cc1
REMARK SMILES IDX 1 1 2 2 3 3 4 4 5 5 9 6 10 7 6 8 7 9 8 10
REMARK H PARENT
REMARK Flexibility Score: inf
ROOT
ATOM      1  C   UNL     1      75.013  91.790  79.130  1.00  0.00     0.044 C 
ATOM      2  C   UNL     1      74.222  91.009  80.136  1.00  0.00    -0.051 A 
ATOM      3  C   UNL     1      74.778  89.878  80.749  1.00  0.00     0.004 A 
ATOM      4  C   UNL     1      74.028  89.126  81.659  1.00  0.00     0.004 A 
ATOM      5  C   UNL     1      72.703  89.488  81.962  1.00  0.00    -0.045 A 
ATOM      6  C   UNL     1      72.143  90.613  81.330  1.00  0.00     0.004 A 
ATOM      7  C   UNL     1      72.895  91.363  80.420  1.00  0.00     0.004 A 
ENDROOT
BRANCH   5   8
ATOM      8  C   UNL     1      71.875  88.681  82.946  1.00  0.00     0.013 C 
ATOM      9  C   UNL     1      72.248  89.026  84.393  1.00  0.00     0.012 C 
ATOM     10  C   UNL     1      72.015  87.177  82.683  1.00  0.00     0.012 C 
ENDBRANCH   5   8
TORSDOF 1
ENDMDL
MODEL 7
REMARK VINA RESULT:    -3.004     16.890     18.228
REMARK INTER + INTRA:          -3.338
REMARK INTER:                  -3.172
REMARK INTRA:                  -0.167
REMARK UNBOUND:                -0.159
REMARK SMILES Cc1ccc(C(C)C)cc1
REMARK SMILES IDX 1 1 2 2 3 3 4 4 5 5 9 6 10 7 6 8 7 9 8 10
REMARK H PARENT
REMARK Flexibility Score: inf
ROOT
ATOM      1  C   UNL     1      72.147  91.836  72.882  1.00  0.00     0.044 C 
ATOM      2  C   UNL     1      73.396  91.200  73.415  1.00  0.00    -0.051 A 
ATOM      3  C   UNL     1      74.168  91.861  74.381  1.00  0.00     0.004 A 
ATOM      4  C   UNL     1      75.353  91.287  74.852  1.00  0.00     0.004 A 
ATOM      5  C   UNL     1      75.792  90.046  74.355  1.00  0.00    -0.045 A 
ATOM      6  C   UNL     1      75.023  89.397  73.372  1.00  0.00     0.004 A 
ATOM      7  C   UNL     1      73.839  89.973  72.903  1.00  0.00     0.004 A 
ENDROOT
BRANCH   5   8
ATOM      8  C   UNL     1      77.076  89.412  74.855  1.00  0.00     0.013 C 
ATOM      9  C   UNL     1      76.898  87.904  75.075  1.00  0.00     0.012 C 
ATOM     10  C   UNL     1      77.573  90.100  76.131  1.00  0.00     0.012 C 
ENDBRANCH   5   8
TORSDOF 1
ENDMDL
MODEL 8
REMARK VINA RESULT:    -2.973      1.056      4.528
REMARK INTER + INTRA:          -3.306
REMARK INTER:                  -3.145
REMARK INTRA:                  -0.161
REMARK UNBOUND:                -0.159
REMARK SMILES Cc1ccc(C(C)C)cc1
REMARK SMILES IDX 1 1 2 2 3 3 4 4 5 5 9 6 10 7 6 8 7 9 8 10
REMARK H PARENT
REMARK Flexibility Score: inf
ROOT
ATOM      1  C   UNL     1      72.837  87.292  91.087  1.00  0.00     0.044 C 
ATOM      2  C   UNL     1      73.977  88.145  91.560  1.00  0.00    -0.051 A 
ATOM      3  C   UNL     1      73.737  89.246  92.394  1.00  0.00     0.004 A 
ATOM      4  C   UNL     1      74.793  90.064  92.805  1.00  0.00     0.004 A 
ATOM      5  C   UNL     1      76.108  89.802  92.377  1.00  0.00    -0.045 A 
ATOM      6  C   UNL     1      76.340  88.707  91.525  1.00  0.00     0.004 A 
ATOM      7  C   UNL     1      75.282  87.890  91.115  1.00  0.00     0.004 A 
ENDROOT
BRANCH   5   8
ATOM      8  C   UNL     1      77.265  90.682  92.813  1.00  0.00     0.013 C 
ATOM      9  C   UNL     1      77.205  92.052  92.126  1.00  0.00     0.012 C 
ATOM     10  C   UNL     1      78.610  89.993  92.556  1.00  0.00     0.012 C 
ENDBRANCH   5   8
TORSDOF 1
ENDMDL
MODEL 9
REMARK VINA RESULT:    -2.962     16.919     18.414
REMARK INTER + INTRA:          -3.294
REMARK INTER:                  -3.128
REMARK INTRA:                  -0.166
REMARK UNBOUND:                -0.159
REMARK SMILES Cc1ccc(C(C)C)cc1
REMARK SMILES IDX 1 1 2 2 3 3 4 4 5 5 9 6 10 7 6 8 7 9 8 10
REMARK H PARENT
REMARK Flexibility Score: inf
ROOT
ATOM      1  C   UNL     1      75.179  85.444  74.740  1.00  0.00     0.044 C 
ATOM      2  C   UNL     1      75.028  86.903  74.432  1.00  0.00    -0.051 A 
ATOM      3  C   UNL     1      74.523  87.315  73.190  1.00  0.00     0.004 A 
ATOM      4  C   UNL     1      74.416  88.675  72.887  1.00  0.00     0.004 A 
ATOM      5  C   UNL     1      74.825  89.649  73.817  1.00  0.00    -0.045 A 
ATOM      6  C   UNL     1      75.348  89.230  75.054  1.00  0.00     0.004 A 
ATOM      7  C   UNL     1      75.454  87.869  75.355  1.00  0.00     0.004 A 
ENDROOT
BRANCH   5   8
ATOM      8  C   UNL     1      74.717  91.129  73.502  1.00  0.00     0.013 C 
ATOM      9  C   UNL     1      74.972  91.980  74.752  1.00  0.00     0.012 C 
ATOM     10  C   UNL     1      73.359  91.463  72.875  1.00  0.00     0.012 C 
ENDBRANCH   5   8
TORSDOF 1
ENDMDL
