MODEL 1
REMARK VINA RESULT:    -3.758      0.000      0.000
REMARK INTER + INTRA:          -3.809
REMARK INTER:                  -4.637
REMARK INTRA:                   0.828
REMARK UNBOUND:                 0.828
REMARK SMILES CC1=CC=CC(C)(C)CC1=O
REMARK SMILES IDX 1 1 2 2 3 3 10 4 11 5 9 6 4 8 5 9 6 10 7 11 8 12
REMARK H PARENT
REMARK Flexibility Score: 80.00
ROOT
ATOM      1  C   UNL     1     -23.087 -28.585  25.630  1.00  0.00     0.048 C 
ATOM      2  C   UNL     1     -21.648 -29.031  25.503  1.00  0.00    -0.008 C 
ATOM      3  C   UNL     1     -20.682 -28.103  25.677  1.00  0.00     0.007 C 
ENDROOT
BRANCH   2   4
ATOM      4  C   UNL     1     -21.421 -30.456  25.141  1.00  0.00     0.159 C 
ATOM      5  O   UNL     1     -22.417 -31.228  25.072  1.00  0.00    -0.295 OA
BRANCH   4   6
ATOM      6  C   UNL     1     -20.078 -31.036  24.812  1.00  0.00     0.091 CG0
ATOM      7  G   UNL     1     -18.997 -30.762  25.881  1.00  0.00     0.000 G0
ENDBRANCH   4   6
ENDBRANCH   2   4
BRANCH   3   8
ATOM      8  C   UNL     1     -19.210 -28.250  25.625  1.00  0.00    -0.003 C 
ATOM      9  C   UNL     1     -18.477 -29.364  25.742  1.00  0.00    -0.020 C 
BRANCH   9  10
ATOM     10  C   UNL     1     -19.009 -30.769  25.889  1.00  0.00    -0.010 CG0
ATOM     11  C   UNL     1     -19.513 -31.003  27.331  1.00  0.00     0.016 C 
ATOM     12  C   UNL     1     -17.849 -31.756  25.624  1.00  0.00     0.016 C 
ATOM     13  G   UNL     1     -20.103 -31.018  24.826  1.00  0.00     0.000 G0
ENDBRANCH   9  10
ENDBRANCH   3   8
TORSDOF 0
ENDMDL
MODEL 2
REMARK VINA RESULT:    -3.567     12.570     13.991
REMARK INTER + INTRA:          -3.573
REMARK INTER:                  -4.420
REMARK INTRA:                   0.847
REMARK UNBOUND:                 0.828
REMARK SMILES CC1=CC=CC(C)(C)CC1=O
REMARK SMILES IDX 1 1 2 2 3 3 10 4 11 5 9 6 4 8 5 9 6 10 7 11 8 12
REMARK H PARENT
REMARK Flexibility Score: 80.00
ROOT
ATOM      1  C   UNL     1      -7.684 -22.700  19.040  1.00  0.00     0.048 C 
ATOM      2  C   UNL     1      -9.006 -22.658  19.773  1.00  0.00    -0.008 C 
ATOM      3  C   UNL     1      -9.022 -23.042  21.068  1.00  0.00     0.007 C 
ENDROOT
BRANCH   2   4
ATOM      4  C   UNL     1     -10.195 -22.244  18.980  1.00  0.00     0.159 C 
ATOM      5  O   UNL     1     -10.020 -21.827  17.802  1.00  0.00    -0.295 OA
BRANCH   4   6
ATOM      6  C   UNL     1     -11.607 -22.326  19.479  1.00  0.00     0.091 CG0
ATOM      7  G   UNL     1     -11.841 -21.599  20.823  1.00  0.00     0.000 G0
ENDBRANCH   4   6
ENDBRANCH   2   4
BRANCH   3   8
ATOM      8  C   UNL     1     -10.151 -23.093  22.025  1.00  0.00    -0.003 C 
ATOM      9  C   UNL     1     -11.332 -22.469  21.956  1.00  0.00    -0.020 C 
BRANCH   9  10
ATOM     10  C   UNL     1     -11.817 -21.602  20.819  1.00  0.00    -0.010 CG0
ATOM     11  C   UNL     1     -11.127 -20.220  20.867  1.00  0.00     0.016 C 
ATOM     12  C   UNL     1     -13.337 -21.380  20.994  1.00  0.00     0.016 C 
ATOM     13  G   UNL     1     -11.590 -22.336  19.479  1.00  0.00     0.000 G0
ENDBRANCH   9  10
ENDBRANCH   3   8
TORSDOF 0
ENDMDL
MODEL 3
REMARK VINA RESULT:    -3.380      0.937      1.229
REMARK INTER + INTRA:          -3.343
REMARK INTER:                  -4.196
REMARK INTRA:                   0.854
REMARK UNBOUND:                 0.828
REMARK SMILES CC1=CC=CC(C)(C)CC1=O
REMARK SMILES IDX 1 1 2 2 3 3 10 4 11 5 9 6 4 8 5 9 6 10 7 11 8 12
REMARK H PARENT
REMARK Flexibility Score: 80.00
ROOT
ATOM      1  C   UNL     1     -21.672 -28.411  25.626  1.00  0.00     0.048 C 
ATOM      2  C   UNL     1     -20.400 -29.221  25.517  1.00  0.00    -0.008 C 
ATOM      3  C   UNL     1     -19.254 -28.657  25.957  1.00  0.00     0.007 C 
ENDROOT
BRANCH   2   4
ATOM      4  C   UNL     1     -20.514 -30.560  24.878  1.00  0.00     0.159 C 
ATOM      5  O   UNL     1     -21.659 -30.978  24.553  1.00  0.00    -0.295 OA
BRANCH   4   6
ATOM      6  C   UNL     1     -19.343 -31.440  24.557  1.00  0.00     0.091 CG0
ATOM      7  G   UNL     1     -18.390 -31.678  25.750  1.00  0.00     0.000 G0
ENDBRANCH   4   6
ENDBRANCH   2   4
BRANCH   3   8
ATOM      8  C   UNL     1     -17.880 -29.207  25.986  1.00  0.00    -0.003 C 
ATOM      9  C   UNL     1     -17.492 -30.487  25.933  1.00  0.00    -0.020 C 
BRANCH   9  10
ATOM     10  C   UNL     1     -18.394 -31.685  25.759  1.00  0.00    -0.010 CG0
ATOM     11  C   UNL     1     -19.147 -31.986  27.075  1.00  0.00     0.016 C 
ATOM     12  C   UNL     1     -17.512 -32.910  25.425  1.00  0.00     0.016 C 
ATOM     13  G   UNL     1     -19.348 -31.442  24.568  1.00  0.00     0.000 G0
ENDBRANCH   9  10
ENDBRANCH   3   8
TORSDOF 0
ENDMDL
MODEL 4
REMARK VINA RESULT:    -3.351      9.909     11.414
REMARK INTER + INTRA:          -3.307
REMARK INTER:                  -4.155
REMARK INTRA:                   0.848
REMARK UNBOUND:                 0.828
REMARK SMILES CC1=CC=CC(C)(C)CC1=O
REMARK SMILES IDX 1 1 2 2 3 3 10 4 11 5 9 6 4 8 5 9 6 10 7 11 8 12
REMARK H PARENT
REMARK Flexibility Score: 80.00
ROOT
ATOM      1  C   UNL     1     -12.159 -22.741  19.763  1.00  0.00     0.048 C 
ATOM      2  C   UNL     1     -13.097 -22.187  20.811  1.00  0.00    -0.008 C 
ATOM      3  C   UNL     1     -14.395 -22.024  20.474  1.00  0.00     0.007 C 
ENDROOT
BRANCH   2   4
ATOM      4  C   UNL     1     -12.492 -21.815  22.118  1.00  0.00     0.159 C 
ATOM      5  O   UNL     1     -11.269 -22.063  22.309  1.00  0.00    -0.295 OA
BRANCH   4   6
ATOM      6  C   UNL     1     -13.235 -21.123  23.222  1.00  0.00     0.091 CG0
ATOM      7  G   UNL     1     -14.559 -21.815  23.617  1.00  0.00     0.000 G0
ENDBRANCH   4   6
ENDBRANCH   2   4
BRANCH   3   8
ATOM      8  C   UNL     1     -15.527 -21.520  21.284  1.00  0.00    -0.003 C 
ATOM      9  C   UNL     1     -15.630 -21.444  22.617  1.00  0.00    -0.020 C 
BRANCH   9  10
ATOM     10  C   UNL     1     -14.556 -21.802  23.616  1.00  0.00    -0.010 CG0
ATOM     11  C   UNL     1     -14.428 -23.337  23.738  1.00  0.00     0.016 C 
ATOM     12  C   UNL     1     -14.977 -21.249  24.997  1.00  0.00     0.016 C 
ATOM     13  G   UNL     1     -13.229 -21.122  23.210  1.00  0.00     0.000 G0
ENDBRANCH   9  10
ENDBRANCH   3   8
TORSDOF 0
ENDMDL
MODEL 5
REMARK VINA RESULT:    -3.347     12.142     13.358
REMARK INTER + INTRA:          -3.302
REMARK INTER:                  -4.156
REMARK INTRA:                   0.854
REMARK UNBOUND:                 0.828
REMARK SMILES CC1=CC=CC(C)(C)CC1=O
REMARK SMILES IDX 1 1 2 2 3 3 10 4 11 5 9 6 4 8 5 9 6 10 7 11 8 12
REMARK H PARENT
REMARK Flexibility Score: 80.00
ROOT
ATOM      1  C   UNL     1     -13.328 -22.575  19.481  1.00  0.00     0.048 C 
ATOM      2  C   UNL     1     -11.903 -22.680  19.973  1.00  0.00    -0.008 C 
ATOM      3  C   UNL     1     -10.918 -22.717  19.049  1.00  0.00     0.007 C 
ENDROOT
BRANCH   2   4
ATOM      4  C   UNL     1     -11.710 -22.790  21.444  1.00  0.00     0.159 C 
ATOM      5  O   UNL     1     -12.720 -22.689  22.194  1.00  0.00    -0.295 OA
BRANCH   4   6
ATOM      6  C   UNL     1     -10.389 -23.055  22.101  1.00  0.00     0.091 CG0
ATOM      7  G   UNL     1      -9.265 -22.089  21.662  1.00  0.00     0.000 G0
ENDBRANCH   4   6
ENDBRANCH   2   4
BRANCH   3   8
ATOM      8  C   UNL     1      -9.451 -22.805  19.233  1.00  0.00    -0.003 C 
ATOM      9  C   UNL     1      -8.728 -22.514  20.320  1.00  0.00    -0.020 C 
BRANCH   9  10
ATOM     10  C   UNL     1      -9.269 -22.082  21.662  1.00  0.00    -0.010 CG0
ATOM     11  C   UNL     1      -9.736 -20.610  21.603  1.00  0.00     0.016 C 
ATOM     12  C   UNL     1      -8.126 -22.178  22.698  1.00  0.00     0.016 C 
ATOM     13  G   UNL     1     -10.394 -23.048  22.097  1.00  0.00     0.000 G0
ENDBRANCH   9  10
ENDBRANCH   3   8
TORSDOF 0
ENDMDL
MODEL 6
REMARK VINA RESULT:    -3.329     12.936     14.221
REMARK INTER + INTRA:          -3.279
REMARK INTER:                  -4.146
REMARK INTRA:                   0.866
REMARK UNBOUND:                 0.828
REMARK SMILES CC1=CC=CC(C)(C)CC1=O
REMARK SMILES IDX 1 1 2 2 3 3 10 4 11 5 9 6 4 8 5 9 6 10 7 11 8 12
REMARK H PARENT
REMARK Flexibility Score: 80.00
ROOT
ATOM      1  C   UNL     1      -9.780 -20.949  17.225  1.00  0.00     0.048 C 
ATOM      2  C   UNL     1      -9.945 -21.058  18.724  1.00  0.00    -0.008 C 
ATOM      3  C   UNL     1     -10.462 -19.996  19.380  1.00  0.00     0.007 C 
ENDROOT
BRANCH   2   4
ATOM      4  C   UNL     1      -9.468 -22.316  19.358  1.00  0.00     0.159 C 
ATOM      5  O   UNL     1      -9.072 -23.255  18.614  1.00  0.00    -0.295 OA
BRANCH   4   6
ATOM      6  C   UNL     1      -9.390 -22.533  20.840  1.00  0.00     0.091 CG0
ATOM      7  G   UNL     1     -10.713 -22.250  21.586  1.00  0.00     0.000 G0
ENDBRANCH   4   6
ENDBRANCH   2   4
BRANCH   3   8
ATOM      8  C   UNL     1     -10.746 -19.823  20.823  1.00  0.00    -0.003 C 
ATOM      9  C   UNL     1     -10.890 -20.763  21.764  1.00  0.00    -0.020 C 
BRANCH   9  10
ATOM     10  C   UNL     1     -10.723 -22.251  21.570  1.00  0.00    -0.010 CG0
ATOM     11  C   UNL     1     -11.944 -22.834  20.823  1.00  0.00     0.016 C 
ATOM     12  C   UNL     1     -10.657 -22.916  22.964  1.00  0.00     0.016 C 
ATOM     13  G   UNL     1      -9.389 -22.529  20.841  1.00  0.00     0.000 G0
ENDBRANCH   9  10
ENDBRANCH   3   8
TORSDOF 0
ENDMDL
MODEL 7
REMARK VINA RESULT:    -3.328     11.066     12.278
REMARK INTER + INTRA:          -3.279
REMARK INTER:                  -4.125
REMARK INTRA:                   0.846
REMARK UNBOUND:                 0.828
REMARK SMILES CC1=CC=CC(C)(C)CC1=O
REMARK SMILES IDX 1 1 2 2 3 3 10 4 11 5 9 6 4 8 5 9 6 10 7 11 8 12
REMARK H PARENT
REMARK Flexibility Score: 80.00
ROOT
ATOM      1  C   UNL     1     -15.528 -21.358  21.589  1.00  0.00     0.048 C 
ATOM      2  C   UNL     1     -14.141 -21.840  21.233  1.00  0.00    -0.008 C 
ATOM      3  C   UNL     1     -13.897 -22.168  19.946  1.00  0.00     0.007 C 
ENDROOT
BRANCH   2   4
ATOM      4  C   UNL     1     -13.170 -21.965  22.354  1.00  0.00     0.159 C 
ATOM      5  O   UNL     1     -13.517 -21.566  23.500  1.00  0.00    -0.295 OA
BRANCH   4   6
ATOM      6  C   UNL     1     -11.806 -22.573  22.221  1.00  0.00     0.091 CG0
ATOM      7  G   UNL     1     -10.957 -21.967  21.081  1.00  0.00     0.000 G0
ENDBRANCH   4   6
ENDBRANCH   2   4
BRANCH   3   8
ATOM      8  C   UNL     1     -12.649 -22.652  19.312  1.00  0.00    -0.003 C 
ATOM      9  C   UNL     1     -11.392 -22.551  19.761  1.00  0.00    -0.020 C 
BRANCH   9  10
ATOM     10  C   UNL     1     -10.963 -21.963  21.083  1.00  0.00    -0.010 CG0
ATOM     11  C   UNL     1     -11.040 -20.420  21.034  1.00  0.00     0.016 C 
ATOM     12  C   UNL     1      -9.489 -22.357  21.332  1.00  0.00     0.016 C 
ATOM     13  G   UNL     1     -11.820 -22.568  22.218  1.00  0.00     0.000 G0
ENDBRANCH   9  10
ENDBRANCH   3   8
TORSDOF 0
ENDMDL
MODEL 8
REMARK VINA RESULT:    -3.270     12.098     13.534
REMARK INTER + INTRA:          -3.207
REMARK INTER:                  -4.061
REMARK INTRA:                   0.854
REMARK UNBOUND:                 0.828
REMARK SMILES CC1=CC=CC(C)(C)CC1=O
REMARK SMILES IDX 1 1 2 2 3 3 10 4 11 5 9 6 4 8 5 9 6 10 7 11 8 12
REMARK H PARENT
REMARK Flexibility Score: 80.00
ROOT
ATOM      1  C   UNL     1      -8.666 -22.806  18.942  1.00  0.00     0.048 C 
ATOM      2  C   UNL     1      -9.919 -22.402  19.685  1.00  0.00    -0.008 C 
ATOM      3  C   UNL     1     -11.110 -22.758  19.155  1.00  0.00     0.007 C 
ENDROOT
BRANCH   2   4
ATOM      4  C   UNL     1      -9.732 -21.593  20.919  1.00  0.00     0.159 C 
ATOM      5  O   UNL     1      -8.557 -21.381  21.329  1.00  0.00    -0.295 OA
BRANCH   4   6
ATOM      6  C   UNL     1     -10.854 -20.974  21.697  1.00  0.00     0.091 CG0
ATOM      7  G   UNL     1     -11.966 -21.970  22.096  1.00  0.00     0.000 G0
ENDBRANCH   4   6
ENDBRANCH   2   4
BRANCH   3   8
ATOM      8  C   UNL     1     -12.480 -22.514  19.659  1.00  0.00    -0.003 C 
ATOM      9  C   UNL     1     -12.871 -22.212  20.902  1.00  0.00    -0.020 C 
BRANCH   9  10
ATOM     10  C   UNL     1     -11.966 -21.979  22.089  1.00  0.00    -0.010 CG0
ATOM     11  C   UNL     1     -11.411 -23.323  22.612  1.00  0.00     0.016 C 
ATOM     12  C   UNL     1     -12.805 -21.339  23.218  1.00  0.00     0.016 C 
ATOM     13  G   UNL     1     -10.850 -20.984  21.697  1.00  0.00     0.000 G0
ENDBRANCH   9  10
ENDBRANCH   3   8
TORSDOF 0
ENDMDL
MODEL 9
REMARK VINA RESULT:    -3.253     18.946     20.353
REMARK INTER + INTRA:          -3.185
REMARK INTER:                  -4.043
REMARK INTRA:                   0.857
REMARK UNBOUND:                 0.828
REMARK SMILES CC1=CC=CC(C)(C)CC1=O
REMARK SMILES IDX 1 1 2 2 3 3 10 4 11 5 9 6 4 8 5 9 6 10 7 11 8 12
REMARK H PARENT
REMARK Flexibility Score: 80.00
ROOT
ATOM      1  C   UNL     1      -9.095 -16.887  23.059  1.00  0.00     0.048 C 
ATOM      2  C   UNL     1      -7.930 -16.305  23.828  1.00  0.00    -0.008 C 
ATOM      3  C   UNL     1      -7.540 -16.939  24.955  1.00  0.00     0.007 C 
ENDROOT
BRANCH   2   4
ATOM      4  C   UNL     1      -7.346 -15.044  23.300  1.00  0.00     0.159 C 
ATOM      5  O   UNL     1      -7.773 -14.593  22.201  1.00  0.00    -0.295 OA
BRANCH   4   6
ATOM      6  C   UNL     1      -6.298 -14.241  24.012  1.00  0.00     0.091 CG0
ATOM      7  G   UNL     1      -5.055 -15.059  24.429  1.00  0.00     0.000 G0
ENDBRANCH   4   6
ENDBRANCH   2   4
BRANCH   3   8
ATOM      8  C   UNL     1      -6.440 -16.612  25.892  1.00  0.00    -0.003 C 
ATOM      9  C   UNL     1      -5.365 -15.843  25.680  1.00  0.00    -0.020 C 
BRANCH   9  10
ATOM     10  C   UNL     1      -5.061 -15.062  24.425  1.00  0.00    -0.010 CG0
ATOM     11  C   UNL     1      -4.574 -16.011  23.307  1.00  0.00     0.016 C 
ATOM     12  C   UNL     1      -3.918 -14.069  24.738  1.00  0.00     0.016 C 
ATOM     13  G   UNL     1      -6.307 -14.245  24.013  1.00  0.00     0.000 G0
ENDBRANCH   9  10
ENDBRANCH   3   8
TORSDOF 0
ENDMDL
