MODEL 1
REMARK VINA RESULT:    -3.433      0.000      0.000
REMARK INTER + INTRA:          -4.332
REMARK INTER:                  -4.236
REMARK INTRA:                  -0.095
REMARK UNBOUND:                -0.095
REMARK SMILES CCCCCC(=O)[O-]
REMARK SMILES IDX 4 1 5 2 6 3 7 4 8 5 3 6 2 7 1 8
REMARK H PARENT
REMARK Flexibility Score: inf
ROOT
ATOM      1  C   UNL     1       3.925  44.550  10.927  1.00  0.00     0.006 C 
ENDROOT
BRANCH   1   2
ATOM      2  C   UNL     1       4.799  45.002  12.101  1.00  0.00     0.053 C 
BRANCH   2   3
ATOM      3  C   UNL     1       5.729  43.906  12.514  1.00  0.00     0.041 C 
ATOM      4  O   UNL     1       6.637  43.515  11.732  1.00  0.00    -0.550 OA
ATOM      5  O   UNL     1       5.564  43.280  13.743  1.00  0.00    -0.550 OA
ENDBRANCH   2   3
ENDBRANCH   1   2
BRANCH   1   6
ATOM      6  C   UNL     1       2.690  43.788  11.423  1.00  0.00     0.000 C 
BRANCH   6   7
ATOM      7  C   UNL     1       2.069  42.955  10.296  1.00  0.00    -0.003 C 
ATOM      8  C   UNL     1       0.624  42.585  10.616  1.00  0.00     0.004 C 
ENDBRANCH   6   7
ENDBRANCH   1   6
TORSDOF 4
ENDMDL
MODEL 2
REMARK VINA RESULT:    -3.321      0.915      1.519
REMARK INTER + INTRA:          -4.194
REMARK INTER:                  -4.045
REMARK INTRA:                  -0.148
REMARK UNBOUND:                -0.095
REMARK SMILES CCCCCC(=O)[O-]
REMARK SMILES IDX 4 1 5 2 6 3 7 4 8 5 3 6 2 7 1 8
REMARK H PARENT
REMARK Flexibility Score: inf
ROOT
ATOM      1  C   UNL     1       5.101  45.073  12.032  1.00  0.00     0.006 C 
ENDROOT
BRANCH   1   2
ATOM      2  C   UNL     1       6.457  44.395  11.813  1.00  0.00     0.053 C 
BRANCH   2   3
ATOM      3  C   UNL     1       6.594  43.199  12.701  1.00  0.00     0.041 C 
ATOM      4  O   UNL     1       7.421  42.292  12.419  1.00  0.00    -0.550 OA
ATOM      5  O   UNL     1       5.774  43.061  13.813  1.00  0.00    -0.550 OA
ENDBRANCH   2   3
ENDBRANCH   1   2
BRANCH   1   6
ATOM      6  C   UNL     1       4.081  44.613  10.983  1.00  0.00     0.000 C 
BRANCH   6   7
ATOM      7  C   UNL     1       2.979  43.763  11.625  1.00  0.00    -0.003 C 
ATOM      8  C   UNL     1       2.045  43.181  10.568  1.00  0.00     0.004 C 
ENDBRANCH   6   7
ENDBRANCH   1   6
TORSDOF 4
ENDMDL
MODEL 3
REMARK VINA RESULT:    -3.276      1.013      1.936
REMARK INTER + INTRA:          -4.138
REMARK INTER:                  -4.014
REMARK INTRA:                  -0.124
REMARK UNBOUND:                -0.095
REMARK SMILES CCCCCC(=O)[O-]
REMARK SMILES IDX 4 1 5 2 6 3 7 4 8 5 3 6 2 7 1 8
REMARK H PARENT
REMARK Flexibility Score: inf
ROOT
ATOM      1  C   UNL     1       5.079  45.025  12.096  1.00  0.00     0.006 C 
ENDROOT
BRANCH   1   2
ATOM      2  C   UNL     1       6.506  44.699  11.647  1.00  0.00     0.053 C 
BRANCH   2   3
ATOM      3  C   UNL     1       6.886  43.316  12.074  1.00  0.00     0.041 C 
ATOM      4  O   UNL     1       6.591  42.905  13.227  1.00  0.00    -0.550 OA
ATOM      5  O   UNL     1       7.610  42.498  11.216  1.00  0.00    -0.550 OA
ENDBRANCH   2   3
ENDBRANCH   1   2
BRANCH   1   6
ATOM      6  C   UNL     1       4.056  44.571  11.048  1.00  0.00     0.000 C 
BRANCH   6   7
ATOM      7  C   UNL     1       2.927  43.761  11.696  1.00  0.00    -0.003 C 
ATOM      8  C   UNL     1       1.973  43.205  10.643  1.00  0.00     0.004 C 
ENDBRANCH   6   7
ENDBRANCH   1   6
TORSDOF 4
ENDMDL
MODEL 4
REMARK VINA RESULT:    -3.204      2.279      4.284
REMARK INTER + INTRA:          -4.049
REMARK INTER:                  -3.891
REMARK INTRA:                  -0.158
REMARK UNBOUND:                -0.095
REMARK SMILES CCCCCC(=O)[O-]
REMARK SMILES IDX 4 1 5 2 6 3 7 4 8 5 3 6 2 7 1 8
REMARK H PARENT
REMARK Flexibility Score: inf
ROOT
ATOM      1  C   UNL     1       5.564  44.501  12.368  1.00  0.00     0.006 C 
ENDROOT
BRANCH   1   2
ATOM      2  C   UNL     1       4.340  45.118  11.685  1.00  0.00     0.053 C 
BRANCH   2   3
ATOM      3  C   UNL     1       3.435  44.046  11.166  1.00  0.00     0.041 C 
ATOM      4  O   UNL     1       2.358  43.780  11.764  1.00  0.00    -0.550 OA
ATOM      5  O   UNL     1       3.802  43.306  10.049  1.00  0.00    -0.550 OA
ENDBRANCH   2   3
ENDBRANCH   1   2
BRANCH   1   6
ATOM      6  C   UNL     1       6.823  44.687  11.512  1.00  0.00     0.000 C 
BRANCH   6   7
ATOM      7  C   UNL     1       7.499  43.341  11.229  1.00  0.00    -0.003 C 
ATOM      8  C   UNL     1       7.522  42.462  12.477  1.00  0.00     0.004 C 
ENDBRANCH   6   7
ENDBRANCH   1   6
TORSDOF 4
ENDMDL
MODEL 5
REMARK VINA RESULT:    -2.902      2.763      4.516
REMARK INTER + INTRA:          -3.677
REMARK INTER:                  -3.609
REMARK INTRA:                  -0.067
REMARK UNBOUND:                -0.095
REMARK SMILES CCCCCC(=O)[O-]
REMARK SMILES IDX 4 1 5 2 6 3 7 4 8 5 3 6 2 7 1 8
REMARK H PARENT
REMARK Flexibility Score: inf
ROOT
ATOM      1  C   UNL     1       4.121  44.403  11.030  1.00  0.00     0.006 C 
ENDROOT
BRANCH   1   2
ATOM      2  C   UNL     1       3.152  43.535  10.220  1.00  0.00     0.053 C 
BRANCH   2   3
ATOM      3  C   UNL     1       1.877  43.329  10.975  1.00  0.00     0.041 C 
ATOM      4  O   UNL     1       1.737  43.817  12.128  1.00  0.00    -0.550 OA
ATOM      5  O   UNL     1       0.861  42.557  10.427  1.00  0.00    -0.550 OA
ENDBRANCH   2   3
ENDBRANCH   1   2
BRANCH   1   6
ATOM      6  C   UNL     1       5.577  44.034  10.723  1.00  0.00     0.000 C 
BRANCH   6   7
ATOM      7  C   UNL     1       6.436  44.087  11.991  1.00  0.00    -0.003 C 
ATOM      8  C   UNL     1       7.322  42.850  12.109  1.00  0.00     0.004 C 
ENDBRANCH   6   7
ENDBRANCH   1   6
TORSDOF 4
ENDMDL
MODEL 6
REMARK VINA RESULT:    -2.781     22.416     23.597
REMARK INTER + INTRA:          -3.527
REMARK INTER:                  -3.445
REMARK INTRA:                  -0.082
REMARK UNBOUND:                -0.095
REMARK SMILES CCCCCC(=O)[O-]
REMARK SMILES IDX 4 1 5 2 6 3 7 4 8 5 3 6 2 7 1 8
REMARK H PARENT
REMARK Flexibility Score: inf
ROOT
ATOM      1  C   UNL     1       6.748  28.998  30.060  1.00  0.00     0.006 C 
ENDROOT
BRANCH   1   2
ATOM      2  C   UNL     1       5.928  30.291  30.114  1.00  0.00     0.053 C 
BRANCH   2   3
ATOM      3  C   UNL     1       4.674  30.149  29.311  1.00  0.00     0.041 C 
ATOM      4  O   UNL     1       4.253  31.113  28.617  1.00  0.00    -0.550 OA
ATOM      5  O   UNL     1       3.943  28.970  29.366  1.00  0.00    -0.550 OA
ENDBRANCH   2   3
ENDBRANCH   1   2
BRANCH   1   6
ATOM      6  C   UNL     1       8.250  29.301  30.023  1.00  0.00     0.000 C 
BRANCH   6   7
ATOM      7  C   UNL     1       9.074  28.012  30.125  1.00  0.00    -0.003 C 
ATOM      8  C   UNL     1       8.221  26.787  29.808  1.00  0.00     0.004 C 
ENDBRANCH   6   7
ENDBRANCH   1   6
TORSDOF 4
ENDMDL
MODEL 7
REMARK VINA RESULT:    -2.518     13.462     13.954
REMARK INTER + INTRA:          -3.202
REMARK INTER:                  -3.000
REMARK INTRA:                  -0.202
REMARK UNBOUND:                -0.095
REMARK SMILES CCCCCC(=O)[O-]
REMARK SMILES IDX 4 1 5 2 6 3 7 4 8 5 3 6 2 7 1 8
REMARK H PARENT
REMARK Flexibility Score: inf
ROOT
ATOM      1  C   UNL     1       7.221  30.340  10.719  1.00  0.00     0.006 C 
ENDROOT
BRANCH   1   2
ATOM      2  C   UNL     1       7.627  31.630  10.000  1.00  0.00     0.053 C 
BRANCH   2   3
ATOM      3  C   UNL     1       8.526  32.452  10.868  1.00  0.00     0.041 C 
ATOM      4  O   UNL     1       9.120  33.457  10.393  1.00  0.00    -0.550 OA
ATOM      5  O   UNL     1       8.748  32.082  12.188  1.00  0.00    -0.550 OA
ENDBRANCH   2   3
ENDBRANCH   1   2
BRANCH   1   6
ATOM      6  C   UNL     1       7.577  29.108   9.879  1.00  0.00     0.000 C 
BRANCH   6   7
ATOM      7  C   UNL     1       8.922  28.514  10.317  1.00  0.00    -0.003 C 
ATOM      8  C   UNL     1       9.125  28.661  11.822  1.00  0.00     0.004 C 
ENDBRANCH   6   7
ENDBRANCH   1   6
TORSDOF 4
ENDMDL
MODEL 8
REMARK VINA RESULT:    -2.509      2.302      3.033
REMARK INTER + INTRA:          -3.191
REMARK INTER:                  -2.978
REMARK INTRA:                  -0.213
REMARK UNBOUND:                -0.095
REMARK SMILES CCCCCC(=O)[O-]
REMARK SMILES IDX 4 1 5 2 6 3 7 4 8 5 3 6 2 7 1 8
REMARK H PARENT
REMARK Flexibility Score: inf
ROOT
ATOM      1  C   UNL     1       5.761  44.306  12.423  1.00  0.00     0.006 C 
ENDROOT
BRANCH   1   2
ATOM      2  C   UNL     1       6.497  42.987  12.675  1.00  0.00     0.053 C 
BRANCH   2   3
ATOM      3  C   UNL     1       7.451  42.697  11.560  1.00  0.00     0.041 C 
ATOM      4  O   UNL     1       7.455  41.566  11.006  1.00  0.00    -0.550 OA
ATOM      5  O   UNL     1       8.371  43.660  11.164  1.00  0.00    -0.550 OA
ENDBRANCH   2   3
ENDBRANCH   1   2
BRANCH   1   6
ATOM      6  C   UNL     1       4.303  44.055  12.025  1.00  0.00     0.000 C 
BRANCH   6   7
ATOM      7  C   UNL     1       4.129  44.116  10.503  1.00  0.00    -0.003 C 
ATOM      8  C   UNL     1       5.102  45.111   9.877  1.00  0.00     0.004 C 
ENDBRANCH   6   7
ENDBRANCH   1   6
TORSDOF 4
ENDMDL
