MODEL 1
REMARK VINA RESULT:    -6.285      0.000      0.000
REMARK INTER + INTRA:          -9.055
REMARK INTER:                  -8.489
REMARK INTRA:                  -0.566
REMARK UNBOUND:                -0.566
REMARK SMILES O=c1c(-c2ccc(O)cc2)coc2c([C@H]3O[C@H](CO)[C@@H](O)[C@H](O)[C@@H]3O)c(O)ccc12
REMARK SMILES IDX 3 1 11 2 12 3 13 4 30 5 2 6 1 7 29 8 28 9 26 10 14 11 4 12
REMARK SMILES IDX 5 13 6 14 7 15 10 16 9 17 8 18 15 20 24 21 16 22 22 23 17 24
REMARK SMILES IDX 20 25 25 26 23 28 18 30 19 31 21 33 27 35
REMARK H PARENT 8 19 25 27 23 29 19 32 21 34 27 36
REMARK Flexibility Score: inf
ROOT
ATOM      1  C   UNL     1     -12.936  22.722  32.986  1.00  0.00     0.065 A 
ATOM      2  C   UNL     1     -14.268  22.571  33.397  1.00  0.00     0.208 A 
ATOM      3  O   UNL     1     -15.122  23.584  33.328  1.00  0.00    -0.463 OA
ATOM      4  C   UNL     1     -14.789  24.791  32.876  1.00  0.00     0.147 A 
ATOM      5  C   UNL     1     -13.467  25.028  32.432  1.00  0.00     0.066 A 
ATOM      6  C   UNL     1     -12.536  23.975  32.487  1.00  0.00     0.200 A 
ATOM      7  O   UNL     1     -11.356  24.145  32.072  1.00  0.00    -0.288 OA
ATOM      8  C   UNL     1     -13.117  26.294  31.942  1.00  0.00     0.020 A 
ATOM      9  C   UNL     1     -14.069  27.308  31.878  1.00  0.00     0.047 A 
ATOM     10  C   UNL     1     -15.382  27.091  32.302  1.00  0.00     0.125 A 
ATOM     11  C   UNL     1     -15.755  25.828  32.839  1.00  0.00     0.069 A 
ENDROOT
BRANCH   1  12
ATOM     12  C   UNL     1     -11.998  21.576  33.079  1.00  0.00    -0.011 A 
ATOM     13  C   UNL     1     -11.828  20.707  31.986  1.00  0.00     0.013 A 
ATOM     14  C   UNL     1     -10.951  19.622  32.075  1.00  0.00     0.047 A 
ATOM     15  C   UNL     1     -10.237  19.388  33.257  1.00  0.00     0.115 A 
ATOM     16  C   UNL     1     -11.282  21.330  34.265  1.00  0.00     0.013 A 
ATOM     17  C   UNL     1     -10.407  20.243  34.350  1.00  0.00     0.047 A 
BRANCH  15  18
ATOM     18  O   UNL     1      -9.361  18.309  33.356  1.00  0.00    -0.508 OA
ATOM     19  H   UNL     1      -8.407  18.368  33.019  1.00  0.00     0.293 HD
ENDBRANCH  15  18
ENDBRANCH   1  12
BRANCH  11  20
ATOM     20  C   UNL     1     -17.168  25.558  33.345  1.00  0.00     0.188 C 
ATOM     21  C   UNL     1     -17.130  24.907  34.756  1.00  0.00     0.179 C 
ATOM     22  O   UNL     1     -17.863  24.749  32.410  1.00  0.00    -0.362 OA
ATOM     23  C   UNL     1     -18.414  24.089  35.041  1.00  0.00     0.177 C 
ATOM     24  C   UNL     1     -19.249  24.595  32.717  1.00  0.00     0.176 C 
ATOM     25  C   UNL     1     -19.595  24.652  34.237  1.00  0.00     0.177 C 
BRANCH  21  26
ATOM     26  O   UNL     1     -16.914  25.894  35.738  1.00  0.00    -0.387 OA
ATOM     27  H   UNL     1     -15.967  25.826  36.031  1.00  0.00     0.211 HD
ENDBRANCH  21  26
BRANCH  23  28
ATOM     28  O   UNL     1     -18.704  24.101  36.416  1.00  0.00    -0.387 OA
ATOM     29  H   UNL     1     -19.690  24.020  36.507  1.00  0.00     0.211 HD
ENDBRANCH  23  28
BRANCH  24  30
ATOM     30  C   UNL     1     -20.100  25.560  31.875  1.00  0.00     0.191 C 
BRANCH  30  31
ATOM     31  O   UNL     1     -21.116  26.138  32.646  1.00  0.00    -0.394 OA
ATOM     32  H   UNL     1     -21.113  27.105  32.425  1.00  0.00     0.210 HD
ENDBRANCH  30  31
ENDBRANCH  24  30
BRANCH  25  33
ATOM     33  O   UNL     1     -20.746  23.888  34.497  1.00  0.00    -0.388 OA
ATOM     34  H   UNL     1     -20.640  23.032  34.007  1.00  0.00     0.211 HD
ENDBRANCH  25  33
ENDBRANCH  11  20
BRANCH  10  35
ATOM     35  O   UNL     1     -16.281  28.152  32.161  1.00  0.00    -0.507 OA
ATOM     36  H   UNL     1     -16.661  28.462  31.278  1.00  0.00     0.293 HD
ENDBRANCH  10  35
TORSDOF 9
ENDMDL
MODEL 2
REMARK VINA RESULT:    -6.199      1.123      2.076
REMARK INTER + INTRA:          -8.939
REMARK INTER:                  -7.646
REMARK INTRA:                  -1.293
REMARK UNBOUND:                -0.566
REMARK SMILES O=c1c(-c2ccc(O)cc2)coc2c([C@H]3O[C@H](CO)[C@@H](O)[C@H](O)[C@@H]3O)c(O)ccc12
REMARK SMILES IDX 3 1 11 2 12 3 13 4 30 5 2 6 1 7 29 8 28 9 26 10 14 11 4 12
REMARK SMILES IDX 5 13 6 14 7 15 10 16 9 17 8 18 15 20 24 21 16 22 22 23 17 24
REMARK SMILES IDX 20 25 25 26 23 28 18 30 19 31 21 33 27 35
REMARK H PARENT 8 19 25 27 23 29 19 32 21 34 27 36
REMARK Flexibility Score: inf
ROOT
ATOM      1  C   UNL     1     -12.212  22.522  33.139  1.00  0.00     0.065 A 
ATOM      2  C   UNL     1     -13.504  22.225  33.596  1.00  0.00     0.208 A 
ATOM      3  O   UNL     1     -14.479  23.120  33.511  1.00  0.00    -0.463 OA
ATOM      4  C   UNL     1     -14.312  24.338  33.000  1.00  0.00     0.147 A 
ATOM      5  C   UNL     1     -13.041  24.717  32.506  1.00  0.00     0.066 A 
ATOM      6  C   UNL     1     -11.984  23.791  32.577  1.00  0.00     0.200 A 
ATOM      7  O   UNL     1     -10.845  24.087  32.120  1.00  0.00    -0.288 OA
ATOM      8  C   UNL     1     -12.864  25.993  31.955  1.00  0.00     0.020 A 
ATOM      9  C   UNL     1     -13.937  26.878  31.877  1.00  0.00     0.047 A 
ATOM     10  C   UNL     1     -15.202  26.518  32.349  1.00  0.00     0.125 A 
ATOM     11  C   UNL     1     -15.401  25.245  32.949  1.00  0.00     0.069 A 
ENDROOT
BRANCH   1  12
ATOM     12  C   UNL     1     -11.135  21.506  33.252  1.00  0.00    -0.011 A 
ATOM     13  C   UNL     1     -11.203  20.315  32.506  1.00  0.00     0.013 A 
ATOM     14  C   UNL     1     -10.194  19.354  32.616  1.00  0.00     0.047 A 
ATOM     15  C   UNL     1      -9.109  19.567  33.477  1.00  0.00     0.115 A 
ATOM     16  C   UNL     1     -10.046  21.709  34.118  1.00  0.00     0.013 A 
ATOM     17  C   UNL     1      -9.040  20.744  34.227  1.00  0.00     0.047 A 
BRANCH  15  18
ATOM     18  O   UNL     1      -8.099  18.614  33.595  1.00  0.00    -0.508 OA
ATOM     19  H   UNL     1      -7.530  18.546  34.431  1.00  0.00     0.293 HD
ENDBRANCH  15  18
ENDBRANCH   1  12
BRANCH  11  20
ATOM     20  C   UNL     1     -16.756  24.824  33.508  1.00  0.00     0.188 C 
ATOM     21  C   UNL     1     -17.618  24.150  32.404  1.00  0.00     0.179 C 
ATOM     22  O   UNL     1     -17.409  25.948  34.074  1.00  0.00    -0.362 OA
ATOM     23  C   UNL     1     -19.131  24.258  32.717  1.00  0.00     0.177 C 
ATOM     24  C   UNL     1     -18.604  25.610  34.778  1.00  0.00     0.176 C 
ATOM     25  C   UNL     1     -19.356  24.357  34.233  1.00  0.00     0.177 C 
BRANCH  21  26
ATOM     26  O   UNL     1     -17.218  22.810  32.228  1.00  0.00    -0.387 OA
ATOM     27  H   UNL     1     -16.407  22.810  31.654  1.00  0.00     0.211 HD
ENDBRANCH  21  26
BRANCH  23  28
ATOM     28  O   UNL     1     -19.818  23.152  32.189  1.00  0.00    -0.387 OA
ATOM     29  H   UNL     1     -19.897  23.298  31.209  1.00  0.00     0.211 HD
ENDBRANCH  23  28
BRANCH  24  30
ATOM     30  C   UNL     1     -18.338  25.535  36.290  1.00  0.00     0.191 C 
BRANCH  30  31
ATOM     31  O   UNL     1     -18.667  24.272  36.797  1.00  0.00    -0.394 OA
ATOM     32  H   UNL     1     -17.838  23.915  37.209  1.00  0.00     0.210 HD
ENDBRANCH  30  31
ENDBRANCH  24  30
BRANCH  25  33
ATOM     33  O   UNL     1     -20.732  24.469  34.496  1.00  0.00    -0.388 OA
ATOM     34  H   UNL     1     -21.200  24.374  33.627  1.00  0.00     0.211 HD
ENDBRANCH  25  33
ENDBRANCH  11  20
BRANCH  10  35
ATOM     35  O   UNL     1     -16.229  27.453  32.191  1.00  0.00    -0.507 OA
ATOM     36  H   UNL     1     -16.189  28.405  32.527  1.00  0.00     0.293 HD
ENDBRANCH  10  35
TORSDOF 9
ENDMDL
MODEL 3
REMARK VINA RESULT:    -5.960     11.936     14.137
REMARK INTER + INTRA:          -8.617
REMARK INTER:                  -7.687
REMARK INTRA:                  -0.930
REMARK UNBOUND:                -0.566
REMARK SMILES O=c1c(-c2ccc(O)cc2)coc2c([C@H]3O[C@H](CO)[C@@H](O)[C@H](O)[C@@H]3O)c(O)ccc12
REMARK SMILES IDX 3 1 11 2 12 3 13 4 30 5 2 6 1 7 29 8 28 9 26 10 14 11 4 12
REMARK SMILES IDX 5 13 6 14 7 15 10 16 9 17 8 18 15 20 24 21 16 22 22 23 17 24
REMARK SMILES IDX 20 25 25 26 23 28 18 30 19 31 21 33 27 35
REMARK H PARENT 8 19 25 27 23 29 19 32 21 34 27 36
REMARK Flexibility Score: inf
ROOT
ATOM      1  C   UNL     1     -11.564  27.963  41.745  1.00  0.00     0.065 A 
ATOM      2  C   UNL     1     -10.834  27.463  42.832  1.00  0.00     0.208 A 
ATOM      3  O   UNL     1      -9.774  28.112  43.298  1.00  0.00    -0.463 OA
ATOM      4  C   UNL     1      -9.333  29.258  42.783  1.00  0.00     0.147 A 
ATOM      5  C   UNL     1     -10.018  29.838  41.689  1.00  0.00     0.066 A 
ATOM      6  C   UNL     1     -11.148  29.179  41.172  1.00  0.00     0.200 A 
ATOM      7  O   UNL     1     -11.797  29.683  40.214  1.00  0.00    -0.288 OA
ATOM      8  C   UNL     1      -9.565  31.051  41.153  1.00  0.00     0.020 A 
ATOM      9  C   UNL     1      -8.457  31.691  41.704  1.00  0.00     0.047 A 
ATOM     10  C   UNL     1      -7.775  31.139  42.791  1.00  0.00     0.125 A 
ATOM     11  C   UNL     1      -8.189  29.890  43.330  1.00  0.00     0.069 A 
ENDROOT
BRANCH   1  12
ATOM     12  C   UNL     1     -12.741  27.215  41.236  1.00  0.00    -0.011 A 
ATOM     13  C   UNL     1     -12.570  26.164  40.317  1.00  0.00     0.013 A 
ATOM     14  C   UNL     1     -13.678  25.464  39.831  1.00  0.00     0.047 A 
ATOM     15  C   UNL     1     -14.969  25.807  40.252  1.00  0.00     0.115 A 
ATOM     16  C   UNL     1     -14.041  27.558  41.649  1.00  0.00     0.013 A 
ATOM     17  C   UNL     1     -15.146  26.856  41.159  1.00  0.00     0.047 A 
BRANCH  15  18
ATOM     18  O   UNL     1     -16.080  25.116  39.772  1.00  0.00    -0.508 OA
ATOM     19  H   UNL     1     -16.597  24.472  40.359  1.00  0.00     0.293 HD
ENDBRANCH  15  18
ENDBRANCH   1  12
BRANCH  11  20
ATOM     20  C   UNL     1      -7.453  29.235  44.495  1.00  0.00     0.188 C 
ATOM     21  C   UNL     1      -7.375  30.204  45.708  1.00  0.00     0.179 C 
ATOM     22  O   UNL     1      -6.165  28.817  44.071  1.00  0.00    -0.362 OA
ATOM     23  C   UNL     1      -6.182  29.863  46.634  1.00  0.00     0.177 C 
ATOM     24  C   UNL     1      -5.477  28.035  45.048  1.00  0.00     0.176 C 
ATOM     25  C   UNL     1      -5.834  28.371  46.528  1.00  0.00     0.177 C 
BRANCH  21  26
ATOM     26  O   UNL     1      -8.597  30.197  46.411  1.00  0.00    -0.387 OA
ATOM     27  H   UNL     1      -8.517  29.538  47.150  1.00  0.00     0.211 HD
ENDBRANCH  21  26
BRANCH  23  28
ATOM     28  O   UNL     1      -6.483  30.205  47.963  1.00  0.00    -0.387 OA
ATOM     29  H   UNL     1      -7.433  29.959  48.120  1.00  0.00     0.211 HD
ENDBRANCH  23  28
BRANCH  24  30
ATOM     30  C   UNL     1      -5.604  26.537  44.728  1.00  0.00     0.191 C 
BRANCH  30  31
ATOM     31  O   UNL     1      -6.223  25.849  45.780  1.00  0.00    -0.394 OA
ATOM     32  H   UNL     1      -6.270  26.487  46.538  1.00  0.00     0.210 HD
ENDBRANCH  30  31
ENDBRANCH  24  30
BRANCH  25  33
ATOM     33  O   UNL     1      -4.740  28.085  47.363  1.00  0.00    -0.388 OA
ATOM     34  H   UNL     1      -4.683  27.097  47.434  1.00  0.00     0.211 HD
ENDBRANCH  25  33
ENDBRANCH  11  20
BRANCH  10  35
ATOM     35  O   UNL     1      -6.702  31.871  43.307  1.00  0.00    -0.507 OA
ATOM     36  H   UNL     1      -6.416  32.778  42.967  1.00  0.00     0.293 HD
ENDBRANCH  10  35
TORSDOF 9
ENDMDL
MODEL 4
REMARK VINA RESULT:    -5.873      6.604     11.377
REMARK INTER + INTRA:          -8.499
REMARK INTER:                  -7.147
REMARK INTRA:                  -1.352
REMARK UNBOUND:                -0.566
REMARK SMILES O=c1c(-c2ccc(O)cc2)coc2c([C@H]3O[C@H](CO)[C@@H](O)[C@H](O)[C@@H]3O)c(O)ccc12
REMARK SMILES IDX 3 1 11 2 12 3 13 4 30 5 2 6 1 7 29 8 28 9 26 10 14 11 4 12
REMARK SMILES IDX 5 13 6 14 7 15 10 16 9 17 8 18 15 20 24 21 16 22 22 23 17 24
REMARK SMILES IDX 20 25 25 26 23 28 18 30 19 31 21 33 27 35
REMARK H PARENT 8 19 25 27 23 29 19 32 21 34 27 36
REMARK Flexibility Score: inf
ROOT
ATOM      1  C   UNL     1      -9.953  19.558  36.393  1.00  0.00     0.065 A 
ATOM      2  C   UNL     1     -10.737  19.364  37.539  1.00  0.00     0.208 A 
ATOM      3  O   UNL     1     -10.247  18.741  38.603  1.00  0.00    -0.463 OA
ATOM      4  C   UNL     1      -9.005  18.264  38.664  1.00  0.00     0.147 A 
ATOM      5  C   UNL     1      -8.142  18.425  37.553  1.00  0.00     0.066 A 
ATOM      6  C   UNL     1      -8.629  19.084  36.410  1.00  0.00     0.200 A 
ATOM      7  O   UNL     1      -7.876  19.270  35.413  1.00  0.00    -0.288 OA
ATOM      8  C   UNL     1      -6.830  17.937  37.619  1.00  0.00     0.020 A 
ATOM      9  C   UNL     1      -6.372  17.311  38.775  1.00  0.00     0.047 A 
ATOM     10  C   UNL     1      -7.205  17.151  39.886  1.00  0.00     0.125 A 
ATOM     11  C   UNL     1      -8.553  17.602  39.833  1.00  0.00     0.069 A 
ENDROOT
BRANCH   1  12
ATOM     12  C   UNL     1     -10.527  20.251  35.213  1.00  0.00    -0.011 A 
ATOM     13  C   UNL     1     -10.794  21.631  35.261  1.00  0.00     0.013 A 
ATOM     14  C   UNL     1     -11.341  22.284  34.153  1.00  0.00     0.047 A 
ATOM     15  C   UNL     1     -11.635  21.566  32.986  1.00  0.00     0.115 A 
ATOM     16  C   UNL     1     -10.830  19.536  34.040  1.00  0.00     0.013 A 
ATOM     17  C   UNL     1     -11.379  20.193  32.934  1.00  0.00     0.047 A 
BRANCH  15  18
ATOM     18  O   UNL     1     -12.182  22.207  31.876  1.00  0.00    -0.508 OA
ATOM     19  H   UNL     1     -13.134  22.551  31.879  1.00  0.00     0.293 HD
ENDBRANCH  15  18
ENDBRANCH   1  12
BRANCH  11  20
ATOM     20  C   UNL     1      -9.506  17.419  41.009  1.00  0.00     0.188 C 
ATOM     21  C   UNL     1      -9.365  18.593  42.018  1.00  0.00     0.179 C 
ATOM     22  O   UNL     1      -9.269  16.164  41.625  1.00  0.00    -0.362 OA
ATOM     23  C   UNL     1      -9.817  18.180  43.440  1.00  0.00     0.177 C 
ATOM     24  C   UNL     1     -10.236  15.833  42.622  1.00  0.00     0.176 C 
ATOM     25  C   UNL     1     -10.859  17.056  43.363  1.00  0.00     0.177 C 
BRANCH  21  26
ATOM     26  O   UNL     1     -10.075  19.718  41.552  1.00  0.00    -0.387 OA
ATOM     27  H   UNL     1      -9.914  19.794  40.575  1.00  0.00     0.211 HD
ENDBRANCH  21  26
BRANCH  23  28
ATOM     28  O   UNL     1     -10.340  19.290  44.126  1.00  0.00    -0.387 OA
ATOM     29  H   UNL     1     -10.855  19.825  43.467  1.00  0.00     0.211 HD
ENDBRANCH  23  28
BRANCH  24  30
ATOM     30  C   UNL     1     -11.295  14.876  42.053  1.00  0.00     0.191 C 
BRANCH  30  31
ATOM     31  O   UNL     1     -12.577  15.435  42.138  1.00  0.00    -0.394 OA
ATOM     32  H   UNL     1     -13.194  14.775  41.728  1.00  0.00     0.210 HD
ENDBRANCH  30  31
ENDBRANCH  24  30
BRANCH  25  33
ATOM     33  O   UNL     1     -11.246  16.685  44.662  1.00  0.00    -0.388 OA
ATOM     34  H   UNL     1     -10.649  17.169  45.290  1.00  0.00     0.211 HD
ENDBRANCH  25  33
ENDBRANCH  11  20
BRANCH  10  35
ATOM     35  O   UNL     1      -6.648  16.551  41.018  1.00  0.00    -0.507 OA
ATOM     36  H   UNL     1      -6.932  16.751  41.966  1.00  0.00     0.293 HD
ENDBRANCH  10  35
TORSDOF 9
ENDMDL
MODEL 5
REMARK VINA RESULT:    -5.849      8.899     13.443
REMARK INTER + INTRA:          -8.467
REMARK INTER:                  -7.133
REMARK INTRA:                  -1.333
REMARK UNBOUND:                -0.566
REMARK SMILES O=c1c(-c2ccc(O)cc2)coc2c([C@H]3O[C@H](CO)[C@@H](O)[C@H](O)[C@@H]3O)c(O)ccc12
REMARK SMILES IDX 3 1 11 2 12 3 13 4 30 5 2 6 1 7 29 8 28 9 26 10 14 11 4 12
REMARK SMILES IDX 5 13 6 14 7 15 10 16 9 17 8 18 15 20 24 21 16 22 22 23 17 24
REMARK SMILES IDX 20 25 25 26 23 28 18 30 19 31 21 33 27 35
REMARK H PARENT 8 19 25 27 23 29 19 32 21 34 27 36
REMARK Flexibility Score: inf
ROOT
ATOM      1  C   UNL     1     -22.025  27.184  42.585  1.00  0.00     0.065 A 
ATOM      2  C   UNL     1     -20.816  26.518  42.831  1.00  0.00     0.208 A 
ATOM      3  O   UNL     1     -20.633  25.267  42.427  1.00  0.00    -0.463 OA
ATOM      4  C   UNL     1     -21.558  24.566  41.775  1.00  0.00     0.147 A 
ATOM      5  C   UNL     1     -22.805  25.166  41.477  1.00  0.00     0.066 A 
ATOM      6  C   UNL     1     -23.032  26.492  41.887  1.00  0.00     0.200 A 
ATOM      7  O   UNL     1     -24.123  27.066  41.613  1.00  0.00    -0.288 OA
ATOM      8  C   UNL     1     -23.775  24.435  40.778  1.00  0.00     0.020 A 
ATOM      9  C   UNL     1     -23.510  23.133  40.365  1.00  0.00     0.047 A 
ATOM     10  C   UNL     1     -22.281  22.527  40.640  1.00  0.00     0.125 A 
ATOM     11  C   UNL     1     -21.292  23.230  41.381  1.00  0.00     0.069 A 
ENDROOT
BRANCH   1  12
ATOM     12  C   UNL     1     -22.210  28.580  43.054  1.00  0.00    -0.011 A 
ATOM     13  C   UNL     1     -23.066  28.858  44.135  1.00  0.00     0.013 A 
ATOM     14  C   UNL     1     -23.247  30.173  44.573  1.00  0.00     0.047 A 
ATOM     15  C   UNL     1     -22.581  31.227  43.933  1.00  0.00     0.115 A 
ATOM     16  C   UNL     1     -21.550  29.644  42.413  1.00  0.00     0.013 A 
ATOM     17  C   UNL     1     -21.735  30.958  42.854  1.00  0.00     0.047 A 
BRANCH  15  18
ATOM     18  O   UNL     1     -22.755  32.541  44.362  1.00  0.00    -0.508 OA
ATOM     19  H   UNL     1     -21.966  33.129  44.605  1.00  0.00     0.293 HD
ENDBRANCH  15  18
ENDBRANCH   1  12
BRANCH  11  20
ATOM     20  C   UNL     1     -19.950  22.596  41.732  1.00  0.00     0.188 C 
ATOM     21  C   UNL     1     -18.911  22.853  40.606  1.00  0.00     0.179 C 
ATOM     22  O   UNL     1     -20.127  21.211  41.980  1.00  0.00    -0.362 OA
ATOM     23  C   UNL     1     -17.793  21.781  40.606  1.00  0.00     0.177 C 
ATOM     24  C   UNL     1     -18.955  20.575  42.489  1.00  0.00     0.176 C 
ATOM     25  C   UNL     1     -17.609  21.203  42.017  1.00  0.00     0.177 C 
BRANCH  21  26
ATOM     26  O   UNL     1     -18.383  24.155  40.723  1.00  0.00    -0.387 OA
ATOM     27  H   UNL     1     -19.111  24.748  41.047  1.00  0.00     0.211 HD
ENDBRANCH  21  26
BRANCH  23  28
ATOM     28  O   UNL     1     -16.588  22.334  40.139  1.00  0.00    -0.387 OA
ATOM     29  H   UNL     1     -15.849  21.830  40.570  1.00  0.00     0.211 HD
ENDBRANCH  23  28
BRANCH  24  30
ATOM     30  C   UNL     1     -19.041  20.426  44.017  1.00  0.00     0.191 C 
BRANCH  30  31
ATOM     31  O   UNL     1     -17.895  20.938  44.637  1.00  0.00    -0.394 OA
ATOM     32  H   UNL     1     -17.706  20.338  45.405  1.00  0.00     0.210 HD
ENDBRANCH  30  31
ENDBRANCH  24  30
BRANCH  25  33
ATOM     33  O   UNL     1     -16.602  20.223  41.993  1.00  0.00    -0.388 OA
ATOM     34  H   UNL     1     -16.007  20.440  41.230  1.00  0.00     0.211 HD
ENDBRANCH  25  33
ENDBRANCH  11  20
BRANCH  10  35
ATOM     35  O   UNL     1     -22.085  21.233  40.149  1.00  0.00    -0.507 OA
ATOM     36  H   UNL     1     -21.184  20.847  39.903  1.00  0.00     0.293 HD
ENDBRANCH  10  35
TORSDOF 9
ENDMDL
MODEL 6
REMARK VINA RESULT:    -5.831      1.949      3.202
REMARK INTER + INTRA:          -8.442
REMARK INTER:                  -7.073
REMARK INTRA:                  -1.369
REMARK UNBOUND:                -0.566
REMARK SMILES O=c1c(-c2ccc(O)cc2)coc2c([C@H]3O[C@H](CO)[C@@H](O)[C@H](O)[C@@H]3O)c(O)ccc12
REMARK SMILES IDX 3 1 11 2 12 3 13 4 30 5 2 6 1 7 29 8 28 9 26 10 14 11 4 12
REMARK SMILES IDX 5 13 6 14 7 15 10 16 9 17 8 18 15 20 24 21 16 22 22 23 17 24
REMARK SMILES IDX 20 25 25 26 23 28 18 30 19 31 21 33 27 35
REMARK H PARENT 8 19 25 27 23 29 19 32 21 34 27 36
REMARK Flexibility Score: inf
ROOT
ATOM      1  C   UNL     1     -12.185  21.954  33.963  1.00  0.00     0.065 A 
ATOM      2  C   UNL     1     -13.374  22.099  33.235  1.00  0.00     0.208 A 
ATOM      3  O   UNL     1     -14.380  22.823  33.708  1.00  0.00    -0.463 OA
ATOM      4  C   UNL     1     -14.340  23.452  34.881  1.00  0.00     0.147 A 
ATOM      5  C   UNL     1     -13.173  23.367  35.677  1.00  0.00     0.066 A 
ATOM      6  C   UNL     1     -12.086  22.610  35.204  1.00  0.00     0.200 A 
ATOM      7  O   UNL     1     -11.020  22.536  35.876  1.00  0.00    -0.288 OA
ATOM      8  C   UNL     1     -13.122  24.039  36.906  1.00  0.00     0.020 A 
ATOM      9  C   UNL     1     -14.207  24.800  37.334  1.00  0.00     0.047 A 
ATOM     10  C   UNL     1     -15.364  24.905  36.557  1.00  0.00     0.125 A 
ATOM     11  C   UNL     1     -15.458  24.202  35.325  1.00  0.00     0.069 A 
ENDROOT
BRANCH   1  12
ATOM     12  C   UNL     1     -11.077  21.132  33.416  1.00  0.00    -0.011 A 
ATOM     13  C   UNL     1     -10.978  19.768  33.743  1.00  0.00     0.013 A 
ATOM     14  C   UNL     1      -9.930  18.994  33.235  1.00  0.00     0.047 A 
ATOM     15  C   UNL     1      -8.966  19.573  32.400  1.00  0.00     0.115 A 
ATOM     16  C   UNL     1     -10.101  21.708  32.583  1.00  0.00     0.013 A 
ATOM     17  C   UNL     1      -9.055  20.931  32.078  1.00  0.00     0.047 A 
BRANCH  15  18
ATOM     18  O   UNL     1      -7.918  18.811  31.890  1.00  0.00    -0.508 OA
ATOM     19  H   UNL     1      -7.027  18.748  32.367  1.00  0.00     0.293 HD
ENDBRANCH  15  18
ENDBRANCH   1  12
BRANCH  11  20
ATOM     20  C   UNL     1     -16.714  24.261  34.462  1.00  0.00     0.188 C 
ATOM     21  C   UNL     1     -16.696  25.523  33.554  1.00  0.00     0.179 C 
ATOM     22  O   UNL     1     -17.865  24.224  35.289  1.00  0.00    -0.362 OA
ATOM     23  C   UNL     1     -18.127  25.947  33.140  1.00  0.00     0.177 C 
ATOM     24  C   UNL     1     -19.083  24.095  34.556  1.00  0.00     0.176 C 
ATOM     25  C   UNL     1     -19.063  24.730  33.133  1.00  0.00     0.177 C 
BRANCH  21  26
ATOM     26  O   UNL     1     -15.874  25.300  32.432  1.00  0.00    -0.387 OA
ATOM     27  H   UNL     1     -15.553  24.361  32.474  1.00  0.00     0.211 HD
ENDBRANCH  21  26
BRANCH  23  28
ATOM     28  O   UNL     1     -18.106  26.560  31.875  1.00  0.00    -0.387 OA
ATOM     29  H   UNL     1     -18.633  25.983  31.262  1.00  0.00     0.211 HD
ENDBRANCH  23  28
BRANCH  24  30
ATOM     30  C   UNL     1     -19.559  22.633  34.551  1.00  0.00     0.191 C 
BRANCH  30  31
ATOM     31  O   UNL     1     -20.956  22.559  34.490  1.00  0.00    -0.394 OA
ATOM     32  H   UNL     1     -21.296  23.362  34.965  1.00  0.00     0.210 HD
ENDBRANCH  30  31
ENDBRANCH  24  30
BRANCH  25  33
ATOM     33  O   UNL     1     -20.358  25.137  32.769  1.00  0.00    -0.388 OA
ATOM     34  H   UNL     1     -20.462  24.938  31.803  1.00  0.00     0.211 HD
ENDBRANCH  25  33
ENDBRANCH  11  20
BRANCH  10  35
ATOM     35  O   UNL     1     -16.385  25.725  37.045  1.00  0.00    -0.507 OA
ATOM     36  H   UNL     1     -16.519  25.947  38.021  1.00  0.00     0.293 HD
ENDBRANCH  10  35
TORSDOF 9
ENDMDL
MODEL 7
REMARK VINA RESULT:    -5.761     10.764     12.330
REMARK INTER + INTRA:          -8.348
REMARK INTER:                  -7.938
REMARK INTRA:                  -0.410
REMARK UNBOUND:                -0.566
REMARK SMILES O=c1c(-c2ccc(O)cc2)coc2c([C@H]3O[C@H](CO)[C@@H](O)[C@H](O)[C@@H]3O)c(O)ccc12
REMARK SMILES IDX 3 1 11 2 12 3 13 4 30 5 2 6 1 7 29 8 28 9 26 10 14 11 4 12
REMARK SMILES IDX 5 13 6 14 7 15 10 16 9 17 8 18 15 20 24 21 16 22 22 23 17 24
REMARK SMILES IDX 20 25 25 26 23 28 18 30 19 31 21 33 27 35
REMARK H PARENT 8 19 25 27 23 29 19 32 21 34 27 36
REMARK Flexibility Score: inf
ROOT
ATOM      1  C   UNL     1      -8.356  28.123  44.232  1.00  0.00     0.065 A 
ATOM      2  C   UNL     1      -9.746  28.015  44.084  1.00  0.00     0.208 A 
ATOM      3  O   UNL     1     -10.273  27.248  43.138  1.00  0.00    -0.463 OA
ATOM      4  C   UNL     1      -9.542  26.540  42.279  1.00  0.00     0.147 A 
ATOM      5  C   UNL     1      -8.131  26.584  42.364  1.00  0.00     0.066 A 
ATOM      6  C   UNL     1      -7.538  27.385  43.358  1.00  0.00     0.200 A 
ATOM      7  O   UNL     1      -6.282  27.425  43.479  1.00  0.00    -0.288 OA
ATOM      8  C   UNL     1      -7.359  25.829  41.471  1.00  0.00     0.020 A 
ATOM      9  C   UNL     1      -7.977  25.028  40.515  1.00  0.00     0.047 A 
ATOM     10  C   UNL     1      -9.370  24.962  40.422  1.00  0.00     0.125 A 
ATOM     11  C   UNL     1     -10.177  25.747  41.290  1.00  0.00     0.069 A 
ENDROOT
BRANCH   1  12
ATOM     12  C   UNL     1      -7.790  28.995  45.292  1.00  0.00    -0.011 A 
ATOM     13  C   UNL     1      -8.392  30.231  45.590  1.00  0.00     0.013 A 
ATOM     14  C   UNL     1      -7.856  31.056  46.583  1.00  0.00     0.047 A 
ATOM     15  C   UNL     1      -6.710  30.661  47.286  1.00  0.00     0.115 A 
ATOM     16  C   UNL     1      -6.637  28.608  45.998  1.00  0.00     0.013 A 
ATOM     17  C   UNL     1      -6.104  29.437  46.989  1.00  0.00     0.047 A 
BRANCH  15  18
ATOM     18  O   UNL     1      -6.168  31.477  48.276  1.00  0.00    -0.508 OA
ATOM     19  H   UNL     1      -5.265  31.921  48.161  1.00  0.00     0.293 HD
ENDBRANCH  15  18
ENDBRANCH   1  12
BRANCH  11  20
ATOM     20  C   UNL     1     -11.699  25.732  41.201  1.00  0.00     0.188 C 
ATOM     21  C   UNL     1     -12.243  24.284  41.355  1.00  0.00     0.179 C 
ATOM     22  O   UNL     1     -12.113  26.323  39.980  1.00  0.00    -0.362 OA
ATOM     23  C   UNL     1     -13.635  24.125  40.694  1.00  0.00     0.177 C 
ATOM     24  C   UNL     1     -13.525  26.512  39.895  1.00  0.00     0.176 C 
ATOM     25  C   UNL     1     -14.376  25.469  40.682  1.00  0.00     0.177 C 
BRANCH  21  26
ATOM     26  O   UNL     1     -12.268  23.919  42.716  1.00  0.00    -0.387 OA
ATOM     27  H   UNL     1     -12.701  23.027  42.781  1.00  0.00     0.211 HD
ENDBRANCH  21  26
BRANCH  23  28
ATOM     28  O   UNL     1     -14.388  23.153  41.375  1.00  0.00    -0.387 OA
ATOM     29  H   UNL     1     -13.810  22.786  42.094  1.00  0.00     0.211 HD
ENDBRANCH  23  28
BRANCH  24  30
ATOM     30  C   UNL     1     -13.898  27.965  40.234  1.00  0.00     0.191 C 
BRANCH  30  31
ATOM     31  O   UNL     1     -14.640  28.030  41.420  1.00  0.00    -0.394 OA
ATOM     32  H   UNL     1     -15.213  28.836  41.343  1.00  0.00     0.210 HD
ENDBRANCH  30  31
ENDBRANCH  24  30
BRANCH  25  33
ATOM     33  O   UNL     1     -15.629  25.307  40.066  1.00  0.00    -0.388 OA
ATOM     34  H   UNL     1     -15.528  25.604  39.125  1.00  0.00     0.211 HD
ENDBRANCH  25  33
ENDBRANCH  11  20
BRANCH  10  35
ATOM     35  O   UNL     1      -9.903  24.098  39.461  1.00  0.00    -0.507 OA
ATOM     36  H   UNL     1     -10.887  23.889  39.368  1.00  0.00     0.293 HD
ENDBRANCH  10  35
TORSDOF 9
ENDMDL
MODEL 8
REMARK VINA RESULT:    -5.757      4.702      6.229
REMARK INTER + INTRA:          -8.342
REMARK INTER:                  -6.934
REMARK INTRA:                  -1.408
REMARK UNBOUND:                -0.566
REMARK SMILES O=c1c(-c2ccc(O)cc2)coc2c([C@H]3O[C@H](CO)[C@@H](O)[C@H](O)[C@@H]3O)c(O)ccc12
REMARK SMILES IDX 3 1 11 2 12 3 13 4 30 5 2 6 1 7 29 8 28 9 26 10 14 11 4 12
REMARK SMILES IDX 5 13 6 14 7 15 10 16 9 17 8 18 15 20 24 21 16 22 22 23 17 24
REMARK SMILES IDX 20 25 25 26 23 28 18 30 19 31 21 33 27 35
REMARK H PARENT 8 19 25 27 23 29 19 32 21 34 27 36
REMARK Flexibility Score: inf
ROOT
ATOM      1  C   UNL     1     -13.019  24.935  38.434  1.00  0.00     0.065 A 
ATOM      2  C   UNL     1     -14.237  25.303  37.846  1.00  0.00     0.208 A 
ATOM      3  O   UNL     1     -14.570  24.867  36.638  1.00  0.00    -0.463 OA
ATOM      4  C   UNL     1     -13.794  24.067  35.909  1.00  0.00     0.147 A 
ATOM      5  C   UNL     1     -12.550  23.639  36.431  1.00  0.00     0.066 A 
ATOM      6  C   UNL     1     -12.167  24.080  37.711  1.00  0.00     0.200 A 
ATOM      7  O   UNL     1     -11.077  23.694  38.218  1.00  0.00    -0.288 OA
ATOM      8  C   UNL     1     -11.737  22.786  35.673  1.00  0.00     0.020 A 
ATOM      9  C   UNL     1     -12.157  22.349  34.419  1.00  0.00     0.047 A 
ATOM     10  C   UNL     1     -13.387  22.752  33.891  1.00  0.00     0.125 A 
ATOM     11  C   UNL     1     -14.215  23.648  34.622  1.00  0.00     0.069 A 
ENDROOT
BRANCH   1  12
ATOM     12  C   UNL     1     -12.664  25.442  39.783  1.00  0.00    -0.011 A 
ATOM     13  C   UNL     1     -11.968  26.656  39.924  1.00  0.00     0.013 A 
ATOM     14  C   UNL     1     -11.627  27.131  41.194  1.00  0.00     0.047 A 
ATOM     15  C   UNL     1     -11.971  26.398  42.337  1.00  0.00     0.115 A 
ATOM     16  C   UNL     1     -13.000  24.708  40.935  1.00  0.00     0.013 A 
ATOM     17  C   UNL     1     -12.656  25.187  42.203  1.00  0.00     0.047 A 
BRANCH  15  18
ATOM     18  O   UNL     1     -11.635  26.863  43.607  1.00  0.00    -0.508 OA
ATOM     19  H   UNL     1     -10.703  26.743  43.985  1.00  0.00     0.293 HD
ENDBRANCH  15  18
ENDBRANCH   1  12
BRANCH  11  20
ATOM     20  C   UNL     1     -15.548  24.140  34.069  1.00  0.00     0.188 C 
ATOM     21  C   UNL     1     -16.668  23.094  34.328  1.00  0.00     0.179 C 
ATOM     22  O   UNL     1     -15.413  24.437  32.689  1.00  0.00    -0.362 OA
ATOM     23  C   UNL     1     -17.828  23.238  33.312  1.00  0.00     0.177 C 
ATOM     24  C   UNL     1     -16.564  25.072  32.133  1.00  0.00     0.176 C 
ATOM     25  C   UNL     1     -17.916  24.685  32.805  1.00  0.00     0.177 C 
BRANCH  21  26
ATOM     26  O   UNL     1     -17.125  23.193  35.657  1.00  0.00    -0.387 OA
ATOM     27  H   UNL     1     -18.118  23.176  35.638  1.00  0.00     0.211 HD
ENDBRANCH  21  26
BRANCH  23  28
ATOM     28  O   UNL     1     -19.043  22.848  33.902  1.00  0.00    -0.387 OA
ATOM     29  H   UNL     1     -19.456  23.664  34.289  1.00  0.00     0.211 HD
ENDBRANCH  23  28
BRANCH  24  30
ATOM     30  C   UNL     1     -16.354  26.592  32.047  1.00  0.00     0.191 C 
BRANCH  30  31
ATOM     31  O   UNL     1     -17.560  27.278  32.234  1.00  0.00    -0.394 OA
ATOM     32  H   UNL     1     -18.030  27.255  31.360  1.00  0.00     0.210 HD
ENDBRANCH  30  31
ENDBRANCH  24  30
BRANCH  25  33
ATOM     33  O   UNL     1     -18.965  24.792  31.875  1.00  0.00    -0.388 OA
ATOM     34  H   UNL     1     -18.601  25.270  31.086  1.00  0.00     0.211 HD
ENDBRANCH  25  33
ENDBRANCH  11  20
BRANCH  10  35
ATOM     35  O   UNL     1     -13.746  22.229  32.645  1.00  0.00    -0.507 OA
ATOM     36  H   UNL     1     -13.288  22.463  31.776  1.00  0.00     0.293 HD
ENDBRANCH  10  35
TORSDOF 9
ENDMDL
MODEL 9
REMARK VINA RESULT:    -5.666     12.954     14.720
REMARK INTER + INTRA:          -8.219
REMARK INTER:                  -6.917
REMARK INTRA:                  -1.302
REMARK UNBOUND:                -0.566
REMARK SMILES O=c1c(-c2ccc(O)cc2)coc2c([C@H]3O[C@H](CO)[C@@H](O)[C@H](O)[C@@H]3O)c(O)ccc12
REMARK SMILES IDX 3 1 11 2 12 3 13 4 30 5 2 6 1 7 29 8 28 9 26 10 14 11 4 12
REMARK SMILES IDX 5 13 6 14 7 15 10 16 9 17 8 18 15 20 24 21 16 22 22 23 17 24
REMARK SMILES IDX 20 25 25 26 23 28 18 30 19 31 21 33 27 35
REMARK H PARENT 8 19 25 27 23 29 19 32 21 34 27 36
REMARK Flexibility Score: inf
ROOT
ATOM      1  C   UNL     1     -10.193  27.931  42.263  1.00  0.00     0.065 A 
ATOM      2  C   UNL     1     -10.059  28.492  43.541  1.00  0.00     0.208 A 
ATOM      3  O   UNL     1      -9.160  29.439  43.778  1.00  0.00    -0.463 OA
ATOM      4  C   UNL     1      -8.339  29.917  42.846  1.00  0.00     0.147 A 
ATOM      5  C   UNL     1      -8.414  29.413  41.526  1.00  0.00     0.066 A 
ATOM      6  C   UNL     1      -9.358  28.411  41.239  1.00  0.00     0.200 A 
ATOM      7  O   UNL     1      -9.471  27.959  40.065  1.00  0.00    -0.288 OA
ATOM      8  C   UNL     1      -7.560  29.925  40.540  1.00  0.00     0.020 A 
ATOM      9  C   UNL     1      -6.654  30.935  40.852  1.00  0.00     0.047 A 
ATOM     10  C   UNL     1      -6.572  31.453  42.147  1.00  0.00     0.125 A 
ATOM     11  C   UNL     1      -7.399  30.926  43.177  1.00  0.00     0.069 A 
ENDROOT
BRANCH   1  12
ATOM     12  C   UNL     1     -11.200  26.866  42.025  1.00  0.00    -0.011 A 
ATOM     13  C   UNL     1     -12.556  27.199  41.852  1.00  0.00     0.013 A 
ATOM     14  C   UNL     1     -13.507  26.198  41.635  1.00  0.00     0.047 A 
ATOM     15  C   UNL     1     -13.117  24.852  41.594  1.00  0.00     0.115 A 
ATOM     16  C   UNL     1     -10.818  25.513  41.989  1.00  0.00     0.013 A 
ATOM     17  C   UNL     1     -11.773  24.515  41.772  1.00  0.00     0.047 A 
BRANCH  15  18
ATOM     18  O   UNL     1     -14.058  23.847  41.379  1.00  0.00    -0.508 OA
ATOM     19  H   UNL     1     -13.863  23.060  40.772  1.00  0.00     0.293 HD
ENDBRANCH  15  18
ENDBRANCH   1  12
BRANCH  11  20
ATOM     20  C   UNL     1      -7.318  31.439  44.611  1.00  0.00     0.188 C 
ATOM     21  C   UNL     1      -8.101  32.773  44.760  1.00  0.00     0.179 C 
ATOM     22  O   UNL     1      -5.960  31.578  44.993  1.00  0.00    -0.362 OA
ATOM     23  C   UNL     1      -7.574  33.612  45.951  1.00  0.00     0.177 C 
ATOM     24  C   UNL     1      -5.792  31.882  46.377  1.00  0.00     0.176 C 
ATOM     25  C   UNL     1      -6.958  32.696  47.017  1.00  0.00     0.177 C 
BRANCH  21  26
ATOM     26  O   UNL     1      -9.481  32.514  44.876  1.00  0.00    -0.387 OA
ATOM     27  H   UNL     1      -9.908  33.321  45.268  1.00  0.00     0.211 HD
ENDBRANCH  21  26
BRANCH  23  28
ATOM     28  O   UNL     1      -8.614  34.381  46.502  1.00  0.00    -0.387 OA
ATOM     29  H   UNL     1      -9.002  34.919  45.764  1.00  0.00     0.211 HD
ENDBRANCH  23  28
BRANCH  24  30
ATOM     30  C   UNL     1      -5.444  30.612  47.171  1.00  0.00     0.191 C 
BRANCH  30  31
ATOM     31  O   UNL     1      -6.509  30.226  47.995  1.00  0.00    -0.394 OA
ATOM     32  H   UNL     1      -7.195  29.836  47.394  1.00  0.00     0.210 HD
ENDBRANCH  30  31
ENDBRANCH  24  30
BRANCH  25  33
ATOM     33  O   UNL     1      -6.473  33.475  48.082  1.00  0.00    -0.388 OA
ATOM     34  H   UNL     1      -5.553  33.755  47.838  1.00  0.00     0.211 HD
ENDBRANCH  25  33
ENDBRANCH  11  20
BRANCH  10  35
ATOM     35  O   UNL     1      -5.664  32.495  42.359  1.00  0.00    -0.507 OA
ATOM     36  H   UNL     1      -5.066  32.882  41.643  1.00  0.00     0.293 HD
ENDBRANCH  10  35
TORSDOF 9
ENDMDL
