MODEL 1
REMARK VINA RESULT:    -3.911      0.000      0.000
REMARK INTER + INTRA:          -4.531
REMARK INTER:                  -4.483
REMARK INTRA:                  -0.048
REMARK UNBOUND:                -0.048
REMARK SMILES CC(C)[C@H]([NH3+])C(=O)[O-]
REMARK SMILES IDX 4 1 5 2 6 6 7 7 8 8 2 9 1 10 3 11
REMARK H PARENT 5 3 5 4 5 5
REMARK Flexibility Score: inf
ROOT
ATOM      1  C   UNL     1      23.212 -36.119 -29.305  1.00  0.00     0.230 C 
ENDROOT
BRANCH   1   2
ATOM      2  N   UNL     1      23.698 -34.732 -29.380  1.00  0.00    -0.350 N 
ATOM      3  H   UNL     1      24.120 -34.543 -30.317  1.00  0.00     0.345 HD
ATOM      4  H   UNL     1      22.892 -34.075 -29.260  1.00  0.00     0.345 HD
ATOM      5  H   UNL     1      24.402 -34.531 -28.634  1.00  0.00     0.345 HD
ENDBRANCH   1   2
BRANCH   1   6
ATOM      6  C   UNL     1      21.789 -36.214 -29.799  1.00  0.00     0.099 C 
ATOM      7  O   UNL     1      21.501 -37.006 -30.735  1.00  0.00    -0.544 OA
ATOM      8  O   UNL     1      20.779 -35.469 -29.202  1.00  0.00    -0.544 OA
ENDBRANCH   1   6
BRANCH   1   9
ATOM      9  C   UNL     1      23.346 -36.735 -27.880  1.00  0.00     0.047 C 
ATOM     10  C   UNL     1      24.001 -38.124 -27.915  1.00  0.00     0.014 C 
ATOM     11  C   UNL     1      24.083 -35.827 -26.882  1.00  0.00     0.014 C 
ENDBRANCH   1   9
TORSDOF 3
ENDMDL
MODEL 2
REMARK VINA RESULT:    -3.857      2.706      3.599
REMARK INTER + INTRA:          -4.468
REMARK INTER:                  -4.462
REMARK INTRA:                  -0.006
REMARK UNBOUND:                -0.048
REMARK SMILES CC(C)[C@H]([NH3+])C(=O)[O-]
REMARK SMILES IDX 4 1 5 2 6 6 7 7 8 8 2 9 1 10 3 11
REMARK H PARENT 5 3 5 4 5 5
REMARK Flexibility Score: inf
ROOT
ATOM      1  C   UNL     1      23.152 -34.873 -27.888  1.00  0.00     0.230 C 
ENDROOT
BRANCH   1   2
ATOM      2  N   UNL     1      24.125 -34.043 -28.617  1.00  0.00    -0.350 N 
ATOM      3  H   UNL     1      23.634 -33.385 -29.261  1.00  0.00     0.345 HD
ATOM      4  H   UNL     1      24.670 -33.467 -27.933  1.00  0.00     0.345 HD
ATOM      5  H   UNL     1      24.796 -34.629 -29.163  1.00  0.00     0.345 HD
ENDBRANCH   1   2
BRANCH   1   6
ATOM      6  C   UNL     1      23.709 -35.299 -26.551  1.00  0.00     0.099 C 
ATOM      7  O   UNL     1      23.596 -34.539 -25.554  1.00  0.00    -0.544 OA
ATOM      8  O   UNL     1      24.305 -36.545 -26.395  1.00  0.00    -0.544 OA
ENDBRANCH   1   6
BRANCH   1   9
ATOM      9  C   UNL     1      22.671 -36.108 -28.708  1.00  0.00     0.047 C 
ATOM     10  C   UNL     1      21.320 -35.850 -29.393  1.00  0.00     0.014 C 
ATOM     11  C   UNL     1      23.700 -36.605 -29.736  1.00  0.00     0.014 C 
ENDBRANCH   1   9
TORSDOF 3
ENDMDL
MODEL 3
REMARK VINA RESULT:    -3.795     10.654     11.613
REMARK INTER + INTRA:          -4.397
REMARK INTER:                  -4.334
REMARK INTRA:                  -0.063
REMARK UNBOUND:                -0.048
REMARK SMILES CC(C)[C@H]([NH3+])C(=O)[O-]
REMARK SMILES IDX 4 1 5 2 6 6 7 7 8 8 2 9 1 10 3 11
REMARK H PARENT 5 3 5 4 5 5
REMARK Flexibility Score: inf
ROOT
ATOM      1  C   UNL     1      14.887 -28.126 -31.236  1.00  0.00     0.230 C 
ENDROOT
BRANCH   1   2
ATOM      2  N   UNL     1      14.417 -26.988 -30.428  1.00  0.00    -0.350 N 
ATOM      3  H   UNL     1      15.032 -26.157 -30.577  1.00  0.00     0.345 HD
ATOM      4  H   UNL     1      13.451 -26.725 -30.731  1.00  0.00     0.345 HD
ATOM      5  H   UNL     1      14.392 -27.225 -29.411  1.00  0.00     0.345 HD
ENDBRANCH   1   2
BRANCH   1   6
ATOM      6  C   UNL     1      14.201 -28.146 -32.580  1.00  0.00     0.099 C 
ATOM      7  O   UNL     1      12.948 -28.037 -32.646  1.00  0.00    -0.544 OA
ATOM      8  O   UNL     1      14.940 -28.237 -33.754  1.00  0.00    -0.544 OA
ENDBRANCH   1   6
BRANCH   1   9
ATOM      9  C   UNL     1      14.725 -29.496 -30.510  1.00  0.00     0.047 C 
ATOM     10  C   UNL     1      15.635 -30.576 -31.115  1.00  0.00     0.014 C 
ATOM     11  C   UNL     1      14.935 -29.417 -28.989  1.00  0.00     0.014 C 
ENDBRANCH   1   9
TORSDOF 3
ENDMDL
MODEL 4
REMARK VINA RESULT:    -3.767      8.596      9.663
REMARK INTER + INTRA:          -4.365
REMARK INTER:                  -4.350
REMARK INTRA:                  -0.015
REMARK UNBOUND:                -0.048
REMARK SMILES CC(C)[C@H]([NH3+])C(=O)[O-]
REMARK SMILES IDX 4 1 5 2 6 6 7 7 8 8 2 9 1 10 3 11
REMARK H PARENT 5 3 5 4 5 5
REMARK Flexibility Score: inf
ROOT
ATOM      1  C   UNL     1      15.716 -30.043 -31.072  1.00  0.00     0.230 C 
ENDROOT
BRANCH   1   2
ATOM      2  N   UNL     1      15.597 -31.394 -31.644  1.00  0.00    -0.350 N 
ATOM      3  H   UNL     1      16.531 -31.857 -31.684  1.00  0.00     0.345 HD
ATOM      4  H   UNL     1      14.981 -31.976 -31.030  1.00  0.00     0.345 HD
ATOM      5  H   UNL     1      15.180 -31.368 -32.602  1.00  0.00     0.345 HD
ENDBRANCH   1   2
BRANCH   1   6
ATOM      6  C   UNL     1      15.971 -29.024 -32.157  1.00  0.00     0.099 C 
ATOM      7  O   UNL     1      15.080 -28.785 -33.014  1.00  0.00    -0.544 OA
ATOM      8  O   UNL     1      17.163 -28.310 -32.195  1.00  0.00    -0.544 OA
ENDBRANCH   1   6
BRANCH   1   9
ATOM      9  C   UNL     1      16.801 -29.948 -29.957  1.00  0.00     0.047 C 
ATOM     10  C   UNL     1      16.199 -30.131 -28.555  1.00  0.00     0.014 C 
ATOM     11  C   UNL     1      17.979 -30.915 -30.158  1.00  0.00     0.014 C 
ENDBRANCH   1   9
TORSDOF 3
ENDMDL
MODEL 5
REMARK VINA RESULT:    -3.756      8.302      9.364
REMARK INTER + INTRA:          -4.353
REMARK INTER:                  -4.293
REMARK INTRA:                  -0.060
REMARK UNBOUND:                -0.048
REMARK SMILES CC(C)[C@H]([NH3+])C(=O)[O-]
REMARK SMILES IDX 4 1 5 2 6 6 7 7 8 8 2 9 1 10 3 11
REMARK H PARENT 5 3 5 4 5 5
REMARK Flexibility Score: inf
ROOT
ATOM      1  C   UNL     1      16.004 -30.024 -31.193  1.00  0.00     0.230 C 
ENDROOT
BRANCH   1   2
ATOM      2  N   UNL     1      15.526 -31.384 -31.491  1.00  0.00    -0.350 N 
ATOM      3  H   UNL     1      16.280 -31.944 -31.947  1.00  0.00     0.345 HD
ATOM      4  H   UNL     1      15.272 -31.866 -30.598  1.00  0.00     0.345 HD
ATOM      5  H   UNL     1      14.683 -31.367 -32.109  1.00  0.00     0.345 HD
ENDBRANCH   1   2
BRANCH   1   6
ATOM      6  C   UNL     1      16.627 -29.397 -32.416  1.00  0.00     0.099 C 
ATOM      7  O   UNL     1      17.294 -28.334 -32.305  1.00  0.00    -0.544 OA
ATOM      8  O   UNL     1      16.514 -30.003 -33.662  1.00  0.00    -0.544 OA
ENDBRANCH   1   6
BRANCH   1   9
ATOM      9  C   UNL     1      16.986 -29.976 -29.984  1.00  0.00     0.047 C 
ATOM     10  C   UNL     1      16.261 -30.197 -28.647  1.00  0.00     0.014 C 
ATOM     11  C   UNL     1      18.170 -30.948 -30.111  1.00  0.00     0.014 C 
ENDBRANCH   1   9
TORSDOF 3
ENDMDL
MODEL 6
REMARK VINA RESULT:    -3.735      8.610      9.719
REMARK INTER + INTRA:          -4.329
REMARK INTER:                  -4.275
REMARK INTRA:                  -0.054
REMARK UNBOUND:                -0.048
REMARK SMILES CC(C)[C@H]([NH3+])C(=O)[O-]
REMARK SMILES IDX 4 1 5 2 6 6 7 7 8 8 2 9 1 10 3 11
REMARK H PARENT 5 3 5 4 5 5
REMARK Flexibility Score: inf
ROOT
ATOM      1  C   UNL     1      15.804 -30.478 -29.939  1.00  0.00     0.230 C 
ENDROOT
BRANCH   1   2
ATOM      2  N   UNL     1      15.495 -30.964 -31.294  1.00  0.00    -0.350 N 
ATOM      3  H   UNL     1      15.754 -30.247 -32.007  1.00  0.00     0.345 HD
ATOM      4  H   UNL     1      16.060 -31.823 -31.491  1.00  0.00     0.345 HD
ATOM      5  H   UNL     1      14.483 -31.204 -31.393  1.00  0.00     0.345 HD
ENDBRANCH   1   2
BRANCH   1   6
ATOM      6  C   UNL     1      14.811 -29.425 -29.510  1.00  0.00     0.099 C 
ATOM      7  O   UNL     1      14.655 -29.172 -28.286  1.00  0.00    -0.544 OA
ATOM      8  O   UNL     1      14.095 -28.697 -30.453  1.00  0.00    -0.544 OA
ENDBRANCH   1   6
BRANCH   1   9
ATOM      9  C   UNL     1      17.264 -29.951 -29.800  1.00  0.00     0.047 C 
ATOM     10  C   UNL     1      18.299 -31.035 -30.136  1.00  0.00     0.014 C 
ATOM     11  C   UNL     1      17.543 -28.681 -30.620  1.00  0.00     0.014 C 
ENDBRANCH   1   9
TORSDOF 3
ENDMDL
MODEL 7
REMARK VINA RESULT:    -3.734     17.131     17.876
REMARK INTER + INTRA:          -4.328
REMARK INTER:                  -4.289
REMARK INTRA:                  -0.039
REMARK UNBOUND:                -0.048
REMARK SMILES CC(C)[C@H]([NH3+])C(=O)[O-]
REMARK SMILES IDX 4 1 5 2 6 6 7 7 8 8 2 9 1 10 3 11
REMARK H PARENT 5 3 5 4 5 5
REMARK Flexibility Score: inf
ROOT
ATOM      1  C   UNL     1      16.433 -19.708 -25.735  1.00  0.00     0.230 C 
ENDROOT
BRANCH   1   2
ATOM      2  N   UNL     1      16.490 -18.586 -24.783  1.00  0.00    -0.350 N 
ATOM      3  H   UNL     1      16.973 -18.878 -23.904  1.00  0.00     0.345 HD
ATOM      4  H   UNL     1      17.044 -17.804 -25.203  1.00  0.00     0.345 HD
ATOM      5  H   UNL     1      15.535 -18.230 -24.554  1.00  0.00     0.345 HD
ENDBRANCH   1   2
BRANCH   1   6
ATOM      6  C   UNL     1      16.981 -20.968 -25.108  1.00  0.00     0.099 C 
ATOM      7  O   UNL     1      17.378 -20.952 -23.913  1.00  0.00    -0.544 OA
ATOM      8  O   UNL     1      17.009 -22.161 -25.821  1.00  0.00    -0.544 OA
ENDBRANCH   1   6
BRANCH   1   9
ATOM      9  C   UNL     1      17.154 -19.401 -27.082  1.00  0.00     0.047 C 
ATOM     10  C   UNL     1      16.696 -18.064 -27.685  1.00  0.00     0.014 C 
ATOM     11  C   UNL     1      18.688 -19.439 -26.984  1.00  0.00     0.014 C 
ENDBRANCH   1   9
TORSDOF 3
ENDMDL
MODEL 8
REMARK VINA RESULT:    -3.691     11.124     12.376
REMARK INTER + INTRA:          -4.279
REMARK INTER:                  -4.280
REMARK INTRA:                   0.001
REMARK UNBOUND:                -0.048
REMARK SMILES CC(C)[C@H]([NH3+])C(=O)[O-]
REMARK SMILES IDX 4 1 5 2 6 6 7 7 8 8 2 9 1 10 3 11
REMARK H PARENT 5 3 5 4 5 5
REMARK Flexibility Score: inf
ROOT
ATOM      1  C   UNL     1      13.860 -28.023 -30.964  1.00  0.00     0.230 C 
ENDROOT
BRANCH   1   2
ATOM      2  N   UNL     1      14.276 -26.674 -30.547  1.00  0.00    -0.350 N 
ATOM      3  H   UNL     1      13.861 -25.952 -31.178  1.00  0.00     0.345 HD
ATOM      4  H   UNL     1      13.924 -26.487 -29.580  1.00  0.00     0.345 HD
ATOM      5  H   UNL     1      15.316 -26.577 -30.544  1.00  0.00     0.345 HD
ENDBRANCH   1   2
BRANCH   1   6
ATOM      6  C   UNL     1      14.895 -29.047 -30.566  1.00  0.00     0.099 C 
ATOM      7  O   UNL     1      14.581 -30.266 -30.511  1.00  0.00    -0.544 OA
ATOM      8  O   UNL     1      16.206 -28.668 -30.304  1.00  0.00    -0.544 OA
ENDBRANCH   1   6
BRANCH   1   9
ATOM      9  C   UNL     1      13.542 -28.118 -32.487  1.00  0.00     0.047 C 
ATOM     10  C   UNL     1      12.797 -26.875 -32.996  1.00  0.00     0.014 C 
ATOM     11  C   UNL     1      14.779 -28.387 -33.359  1.00  0.00     0.014 C 
ENDBRANCH   1   9
TORSDOF 3
ENDMDL
MODEL 9
REMARK VINA RESULT:    -3.619      8.445      8.984
REMARK INTER + INTRA:          -4.196
REMARK INTER:                  -4.137
REMARK INTRA:                  -0.059
REMARK UNBOUND:                -0.048
REMARK SMILES CC(C)[C@H]([NH3+])C(=O)[O-]
REMARK SMILES IDX 4 1 5 2 6 6 7 7 8 8 2 9 1 10 3 11
REMARK H PARENT 5 3 5 4 5 5
REMARK Flexibility Score: inf
ROOT
ATOM      1  C   UNL     1      16.383 -30.375 -31.855  1.00  0.00     0.230 C 
ENDROOT
BRANCH   1   2
ATOM      2  N   UNL     1      15.172 -30.965 -31.262  1.00  0.00    -0.350 N 
ATOM      3  H   UNL     1      15.427 -31.653 -30.519  1.00  0.00     0.345 HD
ATOM      4  H   UNL     1      14.604 -30.210 -30.812  1.00  0.00     0.345 HD
ATOM      5  H   UNL     1      14.582 -31.435 -31.985  1.00  0.00     0.345 HD
ENDBRANCH   1   2
BRANCH   1   6
ATOM      6  C   UNL     1      16.945 -31.275 -32.929  1.00  0.00     0.099 C 
ATOM      7  O   UNL     1      16.364 -31.360 -34.043  1.00  0.00    -0.544 OA
ATOM      8  O   UNL     1      18.125 -31.980 -32.720  1.00  0.00    -0.544 OA
ENDBRANCH   1   6
BRANCH   1   9
ATOM      9  C   UNL     1      17.473 -30.029 -30.796  1.00  0.00     0.047 C 
ATOM     10  C   UNL     1      17.939 -28.569 -30.910  1.00  0.00     0.014 C 
ATOM     11  C   UNL     1      17.050 -30.339 -29.351  1.00  0.00     0.014 C 
ENDBRANCH   1   9
TORSDOF 3
ENDMDL
