MODEL 1
REMARK VINA RESULT:    -3.802      0.000      0.000
REMARK INTER + INTRA:          -4.567
REMARK INTER:                  -4.468
REMARK INTRA:                  -0.098
REMARK UNBOUND:                -0.098
REMARK SMILES O=C([O-])CCC(=O)[O-]
REMARK SMILES IDX 4 1 2 2 1 3 3 4 5 5 6 6 7 7 8 8
REMARK H PARENT
REMARK Flexibility Score: inf
ROOT
ATOM      1  C   UNL     1     159.766 145.765 154.502  1.00  0.00     0.059 C 
ENDROOT
BRANCH   1   2
ATOM      2  C   UNL     1     159.527 145.473 153.055  1.00  0.00     0.042 C 
ATOM      3  O   UNL     1     160.429 144.931 152.361  1.00  0.00    -0.550 OA
ATOM      4  O   UNL     1     158.329 145.843 152.458  1.00  0.00    -0.550 OA
ENDBRANCH   1   2
BRANCH   1   5
ATOM      5  C   UNL     1     160.876 146.804 154.663  1.00  0.00     0.059 C 
BRANCH   5   6
ATOM      6  C   UNL     1     160.301 148.129 155.052  1.00  0.00     0.042 C 
ATOM      7  O   UNL     1     160.655 148.684 156.125  1.00  0.00    -0.550 OA
ATOM      8  O   UNL     1     159.336 148.729 154.253  1.00  0.00    -0.550 OA
ENDBRANCH   5   6
ENDBRANCH   1   5
TORSDOF 3
ENDMDL
MODEL 2
REMARK VINA RESULT:    -3.730      0.858      3.851
REMARK INTER + INTRA:          -4.482
REMARK INTER:                  -4.421
REMARK INTRA:                  -0.061
REMARK UNBOUND:                -0.098
REMARK SMILES O=C([O-])CCC(=O)[O-]
REMARK SMILES IDX 4 1 2 2 1 3 3 4 5 5 6 6 7 7 8 8
REMARK H PARENT
REMARK Flexibility Score: inf
ROOT
ATOM      1  C   UNL     1     160.096 146.228 154.540  1.00  0.00     0.059 C 
ENDROOT
BRANCH   1   2
ATOM      2  C   UNL     1     160.456 147.609 154.987  1.00  0.00     0.042 C 
ATOM      3  O   UNL     1     161.444 147.792 155.746  1.00  0.00    -0.550 OA
ATOM      4  O   UNL     1     159.672 148.691 154.607  1.00  0.00    -0.550 OA
ENDBRANCH   1   2
BRANCH   1   5
ATOM      5  C   UNL     1     159.009 146.279 153.464  1.00  0.00     0.059 C 
BRANCH   5   6
ATOM      6  C   UNL     1     159.329 145.333 152.352  1.00  0.00     0.042 C 
ATOM      7  O   UNL     1     160.502 144.901 152.204  1.00  0.00    -0.550 OA
ATOM      8  O   UNL     1     158.342 144.965 151.446  1.00  0.00    -0.550 OA
ENDBRANCH   5   6
ENDBRANCH   1   5
TORSDOF 3
ENDMDL
MODEL 3
REMARK VINA RESULT:    -3.472      1.553      1.762
REMARK INTER + INTRA:          -4.179
REMARK INTER:                  -4.133
REMARK INTRA:                  -0.047
REMARK UNBOUND:                -0.098
REMARK SMILES O=C([O-])CCC(=O)[O-]
REMARK SMILES IDX 4 1 2 2 1 3 3 4 5 5 6 6 7 7 8 8
REMARK H PARENT
REMARK Flexibility Score: inf
ROOT
ATOM      1  C   UNL     1     159.059 145.389 153.048  1.00  0.00     0.059 C 
ENDROOT
BRANCH   1   2
ATOM      2  C   UNL     1     159.134 145.283 151.557  1.00  0.00     0.042 C 
ATOM      3  O   UNL     1     160.056 144.617 151.015  1.00  0.00    -0.550 OA
ATOM      4  O   UNL     1     158.215 145.958 150.765  1.00  0.00    -0.550 OA
ENDBRANCH   1   2
BRANCH   1   5
ATOM      5  C   UNL     1     158.957 146.854 153.476  1.00  0.00     0.059 C 
BRANCH   5   6
ATOM      6  C   UNL     1     159.943 147.153 154.559  1.00  0.00     0.042 C 
ATOM      7  O   UNL     1     160.503 146.214 155.184  1.00  0.00    -0.550 OA
ATOM      8  O   UNL     1     160.209 148.469 154.914  1.00  0.00    -0.550 OA
ENDBRANCH   5   6
ENDBRANCH   1   5
TORSDOF 3
ENDMDL
MODEL 4
REMARK VINA RESULT:    -3.383      2.770      4.328
REMARK INTER + INTRA:          -4.075
REMARK INTER:                  -3.978
REMARK INTRA:                  -0.096
REMARK UNBOUND:                -0.098
REMARK SMILES O=C([O-])CCC(=O)[O-]
REMARK SMILES IDX 4 1 2 2 1 3 3 4 5 5 6 6 7 7 8 8
REMARK H PARENT
REMARK Flexibility Score: inf
ROOT
ATOM      1  C   UNL     1     158.572 145.952 150.430  1.00  0.00     0.059 C 
ENDROOT
BRANCH   1   2
ATOM      2  C   UNL     1     157.981 144.940 149.500  1.00  0.00     0.042 C 
ATOM      3  O   UNL     1     156.733 144.774 149.455  1.00  0.00    -0.550 OA
ATOM      4  O   UNL     1     158.809 144.144 148.720  1.00  0.00    -0.550 OA
ENDBRANCH   1   2
BRANCH   1   5
ATOM      5  C   UNL     1     158.363 145.529 151.885  1.00  0.00     0.059 C 
BRANCH   5   6
ATOM      6  C   UNL     1     159.670 145.180 152.522  1.00  0.00     0.042 C 
ATOM      7  O   UNL     1     160.574 144.621 151.848  1.00  0.00    -0.550 OA
ATOM      8  O   UNL     1     159.873 145.428 153.873  1.00  0.00    -0.550 OA
ENDBRANCH   5   6
ENDBRANCH   1   5
TORSDOF 3
ENDMDL
MODEL 5
REMARK VINA RESULT:    -3.277     23.777     24.316
REMARK INTER + INTRA:          -3.950
REMARK INTER:                  -3.853
REMARK INTRA:                  -0.097
REMARK UNBOUND:                -0.098
REMARK SMILES O=C([O-])CCC(=O)[O-]
REMARK SMILES IDX 4 1 2 2 1 3 3 4 5 5 6 6 7 7 8 8
REMARK H PARENT
REMARK Flexibility Score: inf
ROOT
ATOM      1  C   UNL     1     151.656 163.882 138.260  1.00  0.00     0.059 C 
ENDROOT
BRANCH   1   2
ATOM      2  C   UNL     1     151.864 162.604 137.511  1.00  0.00     0.042 C 
ATOM      3  O   UNL     1     151.842 161.502 138.121  1.00  0.00    -0.550 OA
ATOM      4  O   UNL     1     152.131 162.631 136.149  1.00  0.00    -0.550 OA
ENDBRANCH   1   2
BRANCH   1   5
ATOM      5  C   UNL     1     150.182 164.050 138.635  1.00  0.00     0.059 C 
BRANCH   5   6
ATOM      6  C   UNL     1     150.016 164.045 140.121  1.00  0.00     0.042 C 
ATOM      7  O   UNL     1     151.023 164.125 140.871  1.00  0.00    -0.550 OA
ATOM      8  O   UNL     1     148.752 163.902 140.679  1.00  0.00    -0.550 OA
ENDBRANCH   5   6
ENDBRANCH   1   5
TORSDOF 3
ENDMDL
MODEL 6
REMARK VINA RESULT:    -2.171     15.207     16.303
REMARK INTER + INTRA:          -2.649
REMARK INTER:                  -2.530
REMARK INTRA:                  -0.119
REMARK UNBOUND:                -0.098
REMARK SMILES O=C([O-])CCC(=O)[O-]
REMARK SMILES IDX 4 1 2 2 1 3 3 4 5 5 6 6 7 7 8 8
REMARK H PARENT
REMARK Flexibility Score: inf
ROOT
ATOM      1  C   UNL     1     145.242 151.185 149.756  1.00  0.00     0.059 C 
ENDROOT
BRANCH   1   2
ATOM      2  C   UNL     1     145.590 149.857 150.350  1.00  0.00     0.042 C 
ATOM      3  O   UNL     1     146.421 149.105 149.776  1.00  0.00    -0.550 OA
ATOM      4  O   UNL     1     144.959 149.427 151.510  1.00  0.00    -0.550 OA
ENDBRANCH   1   2
BRANCH   1   5
ATOM      5  C   UNL     1     145.918 151.357 148.394  1.00  0.00     0.059 C 
BRANCH   5   6
ATOM      6  C   UNL     1     144.917 151.220 147.292  1.00  0.00     0.042 C 
ATOM      7  O   UNL     1     144.631 150.083 146.833  1.00  0.00    -0.550 OA
ATOM      8  O   UNL     1     144.336 152.353 146.736  1.00  0.00    -0.550 OA
ENDBRANCH   5   6
ENDBRANCH   1   5
TORSDOF 3
ENDMDL
MODEL 7
REMARK VINA RESULT:    -2.156     15.215     16.252
REMARK INTER + INTRA:          -2.632
REMARK INTER:                  -2.518
REMARK INTRA:                  -0.114
REMARK UNBOUND:                -0.098
REMARK SMILES O=C([O-])CCC(=O)[O-]
REMARK SMILES IDX 4 1 2 2 1 3 3 4 5 5 6 6 7 7 8 8
REMARK H PARENT
REMARK Flexibility Score: inf
ROOT
ATOM      1  C   UNL     1     145.934 151.358 148.343  1.00  0.00     0.059 C 
ENDROOT
BRANCH   1   2
ATOM      2  C   UNL     1     144.901 151.277 147.264  1.00  0.00     0.042 C 
ATOM      3  O   UNL     1     144.328 152.322 146.857  1.00  0.00    -0.550 OA
ATOM      4  O   UNL     1     144.536 150.044 146.741  1.00  0.00    -0.550 OA
ENDBRANCH   1   2
BRANCH   1   5
ATOM      5  C   UNL     1     145.285 151.193 149.719  1.00  0.00     0.059 C 
BRANCH   5   6
ATOM      6  C   UNL     1     145.610 149.851 150.293  1.00  0.00     0.042 C 
ATOM      7  O   UNL     1     146.445 149.102 149.721  1.00  0.00    -0.550 OA
ATOM      8  O   UNL     1     144.954 149.406 151.433  1.00  0.00    -0.550 OA
ENDBRANCH   5   6
ENDBRANCH   1   5
TORSDOF 3
ENDMDL
