MODEL 1
REMARK VINA RESULT:    -3.834      0.000      0.000
REMARK INTER + INTRA:          -9.185
REMARK INTER:                  -6.747
REMARK INTRA:                  -2.438
REMARK UNBOUND:                -2.438
REMARK SMILES CCCCCCC=CCCCCCCCC(=O)[O-]
REMARK SMILES IDX 10 1 11 2 12 3 13 4 14 5 15 6 16 7 17 8 18 9 9 10 8 11 7 12
REMARK SMILES IDX 6 13 5 14 4 15 3 16 2 17 1 18
REMARK H PARENT
REMARK Flexibility Score: inf
ROOT
ATOM      1  C   UNL     1      22.544  23.783  22.279  1.00  0.00     0.004 C 
ENDROOT
BRANCH   1   2
ATOM      2  C   UNL     1      22.760  24.392  23.674  1.00  0.00     0.000 C 
BRANCH   2   3
ATOM      3  C   UNL     1      21.658  23.993  24.671  1.00  0.00     0.000 C 
BRANCH   3   4
ATOM      4  C   UNL     1      20.368  23.531  23.973  1.00  0.00     0.000 C 
BRANCH   4   5
ATOM      5  C   UNL     1      19.113  24.225  24.529  1.00  0.00     0.006 C 
BRANCH   5   6
ATOM      6  C   UNL     1      18.761  25.498  23.745  1.00  0.00     0.053 C 
BRANCH   6   7
ATOM      7  C   UNL     1      19.445  26.707  24.307  1.00  0.00     0.041 C 
ATOM      8  O   UNL     1      20.532  27.106  23.812  1.00  0.00    -0.550 OA
ATOM      9  O   UNL     1      18.897  27.375  25.394  1.00  0.00    -0.550 OA
ENDBRANCH   6   7
ENDBRANCH   5   6
ENDBRANCH   4   5
ENDBRANCH   3   4
ENDBRANCH   2   3
ENDBRANCH   1   2
BRANCH   1  10
ATOM     10  C   UNL     1      22.671  24.821  21.154  1.00  0.00     0.027 C 
BRANCH  10  11
ATOM     11  C   UNL     1      21.543  24.691  20.169  1.00  0.00    -0.031 C 
ATOM     12  C   UNL     1      20.264  24.875  20.535  1.00  0.00    -0.031 C 
BRANCH  12  13
ATOM     13  C   UNL     1      19.134  24.727  19.555  1.00  0.00     0.027 C 
BRANCH  13  14
ATOM     14  C   UNL     1      18.570  23.297  19.571  1.00  0.00     0.004 C 
BRANCH  14  15
ATOM     15  C   UNL     1      18.537  22.699  20.993  1.00  0.00     0.000 C 
BRANCH  15  16
ATOM     16  C   UNL     1      19.266  21.350  21.111  1.00  0.00    -0.000 C 
BRANCH  16  17
ATOM     17  C   UNL     1      20.047  20.981  19.843  1.00  0.00    -0.003 C 
ATOM     18  C   UNL     1      21.551  20.997  20.099  1.00  0.00     0.004 C 
ENDBRANCH  16  17
ENDBRANCH  15  16
ENDBRANCH  14  15
ENDBRANCH  13  14
ENDBRANCH  12  13
ENDBRANCH  10  11
ENDBRANCH   1  10
TORSDOF 13
ENDMDL
MODEL 2
REMARK VINA RESULT:    -3.819      1.328      2.953
REMARK INTER + INTRA:          -9.159
REMARK INTER:                  -6.822
REMARK INTRA:                  -2.338
REMARK UNBOUND:                -2.438
REMARK SMILES CCCCCCC=CCCCCCCCC(=O)[O-]
REMARK SMILES IDX 10 1 11 2 12 3 13 4 14 5 15 6 16 7 17 8 18 9 9 10 8 11 7 12
REMARK SMILES IDX 6 13 5 14 4 15 3 16 2 17 1 18
REMARK H PARENT
REMARK Flexibility Score: inf
ROOT
ATOM      1  C   UNL     1      22.652  23.507  22.525  1.00  0.00     0.004 C 
ENDROOT
BRANCH   1   2
ATOM      2  C   UNL     1      22.743  24.991  22.136  1.00  0.00     0.000 C 
BRANCH   2   3
ATOM      3  C   UNL     1      22.026  25.299  20.809  1.00  0.00     0.000 C 
BRANCH   3   4
ATOM      4  C   UNL     1      20.634  25.917  21.019  1.00  0.00     0.000 C 
BRANCH   4   5
ATOM      5  C   UNL     1      20.595  26.905  22.197  1.00  0.00     0.006 C 
BRANCH   5   6
ATOM      6  C   UNL     1      19.414  26.635  23.140  1.00  0.00     0.053 C 
BRANCH   6   7
ATOM      7  C   UNL     1      19.842  26.597  24.576  1.00  0.00     0.041 C 
ATOM      8  O   UNL     1      19.321  27.382  25.412  1.00  0.00    -0.550 OA
ATOM      9  O   UNL     1      20.835  25.717  24.983  1.00  0.00    -0.550 OA
ENDBRANCH   6   7
ENDBRANCH   5   6
ENDBRANCH   4   5
ENDBRANCH   3   4
ENDBRANCH   2   3
ENDBRANCH   1   2
BRANCH   1  10
ATOM     10  C   UNL     1      23.054  22.568  21.377  1.00  0.00     0.027 C 
BRANCH  10  11
ATOM     11  C   UNL     1      21.924  21.647  21.012  1.00  0.00    -0.031 C 
ATOM     12  C   UNL     1      21.037  21.966  20.055  1.00  0.00    -0.031 C 
BRANCH  12  13
ATOM     13  C   UNL     1      19.895  21.053  19.703  1.00  0.00     0.027 C 
BRANCH  13  14
ATOM     14  C   UNL     1      18.643  21.387  20.528  1.00  0.00     0.004 C 
BRANCH  14  15
ATOM     15  C   UNL     1      18.475  22.906  20.745  1.00  0.00     0.000 C 
BRANCH  15  16
ATOM     16  C   UNL     1      18.122  23.286  22.193  1.00  0.00    -0.000 C 
BRANCH  16  17
ATOM     17  C   UNL     1      19.236  22.941  23.190  1.00  0.00    -0.003 C 
ATOM     18  C   UNL     1      18.660  22.379  24.486  1.00  0.00     0.004 C 
ENDBRANCH  16  17
ENDBRANCH  15  16
ENDBRANCH  14  15
ENDBRANCH  13  14
ENDBRANCH  12  13
ENDBRANCH  10  11
ENDBRANCH   1  10
TORSDOF 13
ENDMDL
MODEL 3
REMARK VINA RESULT:    -3.677     11.207     13.384
REMARK INTER + INTRA:          -8.909
REMARK INTER:                  -7.001
REMARK INTRA:                  -1.908
REMARK UNBOUND:                -2.438
REMARK SMILES CCCCCCC=CCCCCCCCC(=O)[O-]
REMARK SMILES IDX 10 1 11 2 12 3 13 4 14 5 15 6 16 7 17 8 18 9 9 10 8 11 7 12
REMARK SMILES IDX 6 13 5 14 4 15 3 16 2 17 1 18
REMARK H PARENT
REMARK Flexibility Score: inf
ROOT
ATOM      1  C   UNL     1      29.330  35.501  22.400  1.00  0.00     0.004 C 
ENDROOT
BRANCH   1   2
ATOM      2  C   UNL     1      29.393  36.166  21.016  1.00  0.00     0.000 C 
BRANCH   2   3
ATOM      3  C   UNL     1      30.638  35.746  20.214  1.00  0.00     0.000 C 
BRANCH   3   4
ATOM      4  C   UNL     1      30.345  34.610  19.220  1.00  0.00     0.000 C 
BRANCH   4   5
ATOM      5  C   UNL     1      31.254  33.387  19.433  1.00  0.00     0.006 C 
BRANCH   5   6
ATOM      6  C   UNL     1      32.093  33.506  20.713  1.00  0.00     0.053 C 
BRANCH   6   7
ATOM      7  C   UNL     1      31.761  32.429  21.700  1.00  0.00     0.041 C 
ATOM      8  O   UNL     1      30.561  32.185  21.992  1.00  0.00    -0.550 OA
ATOM      9  O   UNL     1      32.779  31.714  22.319  1.00  0.00    -0.550 OA
ENDBRANCH   6   7
ENDBRANCH   5   6
ENDBRANCH   4   5
ENDBRANCH   3   4
ENDBRANCH   2   3
ENDBRANCH   1   2
BRANCH   1  10
ATOM     10  C   UNL     1      27.996  34.781  22.650  1.00  0.00     0.027 C 
BRANCH  10  11
ATOM     11  C   UNL     1      27.359  34.358  21.356  1.00  0.00    -0.031 C 
ATOM     12  C   UNL     1      27.364  33.077  20.955  1.00  0.00    -0.031 C 
BRANCH  12  13
ATOM     13  C   UNL     1      26.744  32.656  19.652  1.00  0.00     0.027 C 
BRANCH  13  14
ATOM     14  C   UNL     1      26.588  33.852  18.700  1.00  0.00     0.004 C 
BRANCH  14  15
ATOM     15  C   UNL     1      25.109  34.134  18.356  1.00  0.00     0.000 C 
BRANCH  15  16
ATOM     16  C   UNL     1      24.148  33.901  19.534  1.00  0.00    -0.000 C 
BRANCH  16  17
ATOM     17  C   UNL     1      23.111  32.806  19.251  1.00  0.00    -0.003 C 
ATOM     18  C   UNL     1      22.431  32.347  20.538  1.00  0.00     0.004 C 
ENDBRANCH  16  17
ENDBRANCH  15  16
ENDBRANCH  14  15
ENDBRANCH  13  14
ENDBRANCH  12  13
ENDBRANCH  10  11
ENDBRANCH   1  10
TORSDOF 13
ENDMDL
MODEL 4
REMARK VINA RESULT:    -3.646     10.922     13.262
REMARK INTER + INTRA:          -8.855
REMARK INTER:                  -7.059
REMARK INTRA:                  -1.796
REMARK UNBOUND:                -2.438
REMARK SMILES CCCCCCC=CCCCCCCCC(=O)[O-]
REMARK SMILES IDX 10 1 11 2 12 3 13 4 14 5 15 6 16 7 17 8 18 9 9 10 8 11 7 12
REMARK SMILES IDX 6 13 5 14 4 15 3 16 2 17 1 18
REMARK H PARENT
REMARK Flexibility Score: inf
ROOT
ATOM      1  C   UNL     1      27.147  34.529  21.375  1.00  0.00     0.004 C 
ENDROOT
BRANCH   1   2
ATOM      2  C   UNL     1      27.393  33.081  20.923  1.00  0.00     0.000 C 
BRANCH   2   3
ATOM      3  C   UNL     1      27.371  32.927  19.392  1.00  0.00     0.000 C 
BRANCH   3   4
ATOM      4  C   UNL     1      26.199  33.679  18.740  1.00  0.00     0.000 C 
BRANCH   4   5
ATOM      5  C   UNL     1      24.857  32.945  18.906  1.00  0.00     0.006 C 
BRANCH   5   6
ATOM      6  C   UNL     1      23.874  33.728  19.788  1.00  0.00     0.053 C 
BRANCH   6   7
ATOM      7  C   UNL     1      22.534  33.062  19.859  1.00  0.00     0.041 C 
ATOM      8  O   UNL     1      21.596  33.448  19.113  1.00  0.00    -0.550 OA
ATOM      9  O   UNL     1      22.314  32.036  20.769  1.00  0.00    -0.550 OA
ENDBRANCH   6   7
ENDBRANCH   5   6
ENDBRANCH   4   5
ENDBRANCH   3   4
ENDBRANCH   2   3
ENDBRANCH   1   2
BRANCH   1  10
ATOM     10  C   UNL     1      27.785  34.840  22.738  1.00  0.00     0.027 C 
BRANCH  10  11
ATOM     11  C   UNL     1      29.193  35.342  22.573  1.00  0.00    -0.031 C 
ATOM     12  C   UNL     1      29.637  35.821  21.400  1.00  0.00    -0.031 C 
BRANCH  12  13
ATOM     13  C   UNL     1      31.049  36.305  21.230  1.00  0.00     0.027 C 
BRANCH  13  14
ATOM     14  C   UNL     1      31.836  35.396  20.273  1.00  0.00     0.004 C 
BRANCH  14  15
ATOM     15  C   UNL     1      30.953  34.285  19.666  1.00  0.00     0.000 C 
BRANCH  15  16
ATOM     16  C   UNL     1      31.453  32.864  19.975  1.00  0.00    -0.000 C 
BRANCH  16  17
ATOM     17  C   UNL     1      30.999  32.356  21.350  1.00  0.00    -0.003 C 
ATOM     18  C   UNL     1      32.196  32.041  22.242  1.00  0.00     0.004 C 
ENDBRANCH  16  17
ENDBRANCH  15  16
ENDBRANCH  14  15
ENDBRANCH  13  14
ENDBRANCH  12  13
ENDBRANCH  10  11
ENDBRANCH   1  10
TORSDOF 13
ENDMDL
MODEL 5
REMARK VINA RESULT:    -3.584      1.441      2.955
REMARK INTER + INTRA:          -8.745
REMARK INTER:                  -6.419
REMARK INTRA:                  -2.326
REMARK UNBOUND:                -2.438
REMARK SMILES CCCCCCC=CCCCCCCCC(=O)[O-]
REMARK SMILES IDX 10 1 11 2 12 3 13 4 14 5 15 6 16 7 17 8 18 9 9 10 8 11 7 12
REMARK SMILES IDX 6 13 5 14 4 15 3 16 2 17 1 18
REMARK H PARENT
REMARK Flexibility Score: inf
ROOT
ATOM      1  C   UNL     1      21.804  26.157  21.585  1.00  0.00     0.004 C 
ENDROOT
BRANCH   1   2
ATOM      2  C   UNL     1      20.367  26.685  21.442  1.00  0.00     0.000 C 
BRANCH   2   3
ATOM      3  C   UNL     1      19.360  25.572  21.103  1.00  0.00     0.000 C 
BRANCH   3   4
ATOM      4  C   UNL     1      18.029  25.730  21.857  1.00  0.00     0.000 C 
BRANCH   4   5
ATOM      5  C   UNL     1      18.165  26.591  23.125  1.00  0.00     0.006 C 
BRANCH   5   6
ATOM      6  C   UNL     1      18.524  25.751  24.359  1.00  0.00     0.053 C 
BRANCH   6   7
ATOM      7  C   UNL     1      19.275  26.551  25.380  1.00  0.00     0.041 C 
ATOM      8  O   UNL     1      20.428  26.194  25.740  1.00  0.00    -0.550 OA
ATOM      9  O   UNL     1      18.690  27.672  25.954  1.00  0.00    -0.550 OA
ENDBRANCH   6   7
ENDBRANCH   5   6
ENDBRANCH   4   5
ENDBRANCH   3   4
ENDBRANCH   2   3
ENDBRANCH   1   2
BRANCH   1  10
ATOM     10  C   UNL     1      22.026  25.397  22.902  1.00  0.00     0.027 C 
BRANCH  10  11
ATOM     11  C   UNL     1      22.447  23.978  22.643  1.00  0.00    -0.031 C 
ATOM     12  C   UNL     1      22.441  23.457  21.405  1.00  0.00    -0.031 C 
BRANCH  12  13
ATOM     13  C   UNL     1      22.843  22.032  21.148  1.00  0.00     0.027 C 
BRANCH  13  14
ATOM     14  C   UNL     1      21.697  21.240  20.499  1.00  0.00     0.004 C 
BRANCH  14  15
ATOM     15  C   UNL     1      20.616  22.165  19.899  1.00  0.00     0.000 C 
BRANCH  15  16
ATOM     16  C   UNL     1      19.203  21.890  20.439  1.00  0.00    -0.000 C 
BRANCH  16  17
ATOM     17  C   UNL     1      19.209  21.260  21.838  1.00  0.00    -0.003 C 
ATOM     18  C   UNL     1      19.135  22.330  22.923  1.00  0.00     0.004 C 
ENDBRANCH  16  17
ENDBRANCH  15  16
ENDBRANCH  14  15
ENDBRANCH  13  14
ENDBRANCH  12  13
ENDBRANCH  10  11
ENDBRANCH   1  10
TORSDOF 13
ENDMDL
MODEL 6
REMARK VINA RESULT:    -3.507      1.767      2.556
REMARK INTER + INTRA:          -8.610
REMARK INTER:                  -6.386
REMARK INTRA:                  -2.224
REMARK UNBOUND:                -2.438
REMARK SMILES CCCCCCC=CCCCCCCCC(=O)[O-]
REMARK SMILES IDX 10 1 11 2 12 3 13 4 14 5 15 6 16 7 17 8 18 9 9 10 8 11 7 12
REMARK SMILES IDX 6 13 5 14 4 15 3 16 2 17 1 18
REMARK H PARENT
REMARK Flexibility Score: inf
ROOT
ATOM      1  C   UNL     1      22.545  23.886  23.309  1.00  0.00     0.004 C 
ENDROOT
BRANCH   1   2
ATOM      2  C   UNL     1      21.518  24.240  24.396  1.00  0.00     0.000 C 
BRANCH   2   3
ATOM      3  C   UNL     1      20.959  25.666  24.240  1.00  0.00     0.000 C 
BRANCH   3   4
ATOM      4  C   UNL     1      19.441  25.735  24.479  1.00  0.00     0.000 C 
BRANCH   4   5
ATOM      5  C   UNL     1      18.704  26.525  23.384  1.00  0.00     0.006 C 
BRANCH   5   6
ATOM      6  C   UNL     1      19.097  26.064  21.974  1.00  0.00     0.053 C 
BRANCH   6   7
ATOM      7  C   UNL     1      19.561  27.205  21.121  1.00  0.00     0.041 C 
ATOM      8  O   UNL     1      20.693  27.721  21.316  1.00  0.00    -0.550 OA
ATOM      9  O   UNL     1      18.732  27.717  20.132  1.00  0.00    -0.550 OA
ENDBRANCH   6   7
ENDBRANCH   5   6
ENDBRANCH   4   5
ENDBRANCH   3   4
ENDBRANCH   2   3
ENDBRANCH   1   2
BRANCH   1  10
ATOM     10  C   UNL     1      22.774  25.035  22.315  1.00  0.00     0.027 C 
BRANCH  10  11
ATOM     11  C   UNL     1      22.354  24.641  20.927  1.00  0.00    -0.031 C 
ATOM     12  C   UNL     1      21.445  23.677  20.714  1.00  0.00    -0.031 C 
BRANCH  12  13
ATOM     13  C   UNL     1      21.039  23.269  19.325  1.00  0.00     0.027 C 
BRANCH  13  14
ATOM     14  C   UNL     1      20.910  21.742  19.211  1.00  0.00     0.004 C 
BRANCH  14  15
ATOM     15  C   UNL     1      21.307  21.023  20.518  1.00  0.00     0.000 C 
BRANCH  15  16
ATOM     16  C   UNL     1      20.161  20.214  21.148  1.00  0.00    -0.000 C 
BRANCH  16  17
ATOM     17  C   UNL     1      18.919  21.065  21.442  1.00  0.00    -0.003 C 
ATOM     18  C   UNL     1      19.081  21.841  22.746  1.00  0.00     0.004 C 
ENDBRANCH  16  17
ENDBRANCH  15  16
ENDBRANCH  14  15
ENDBRANCH  13  14
ENDBRANCH  12  13
ENDBRANCH  10  11
ENDBRANCH   1  10
TORSDOF 13
ENDMDL
MODEL 7
REMARK VINA RESULT:    -3.479     10.697     13.091
REMARK INTER + INTRA:          -8.561
REMARK INTER:                  -6.930
REMARK INTRA:                  -1.631
REMARK UNBOUND:                -2.438
REMARK SMILES CCCCCCC=CCCCCCCCC(=O)[O-]
REMARK SMILES IDX 10 1 11 2 12 3 13 4 14 5 15 6 16 7 17 8 18 9 9 10 8 11 7 12
REMARK SMILES IDX 6 13 5 14 4 15 3 16 2 17 1 18
REMARK H PARENT
REMARK Flexibility Score: inf
ROOT
ATOM      1  C   UNL     1      27.277  34.578  21.370  1.00  0.00     0.004 C 
ENDROOT
BRANCH   1   2
ATOM      2  C   UNL     1      27.415  33.096  20.985  1.00  0.00     0.000 C 
BRANCH   2   3
ATOM      3  C   UNL     1      27.210  32.854  19.479  1.00  0.00     0.000 C 
BRANCH   3   4
ATOM      4  C   UNL     1      25.833  32.248  19.160  1.00  0.00     0.000 C 
BRANCH   4   5
ATOM      5  C   UNL     1      24.814  33.303  18.696  1.00  0.00     0.006 C 
BRANCH   5   6
ATOM      6  C   UNL     1      23.941  33.812  19.852  1.00  0.00     0.053 C 
BRANCH   6   7
ATOM      7  C   UNL     1      22.611  33.123  19.894  1.00  0.00     0.041 C 
ATOM      8  O   UNL     1      21.658  33.544  19.187  1.00  0.00    -0.550 OA
ATOM      9  O   UNL     1      22.417  32.035  20.735  1.00  0.00    -0.550 OA
ENDBRANCH   6   7
ENDBRANCH   5   6
ENDBRANCH   4   5
ENDBRANCH   3   4
ENDBRANCH   2   3
ENDBRANCH   1   2
BRANCH   1  10
ATOM     10  C   UNL     1      28.629  35.305  21.421  1.00  0.00     0.027 C 
BRANCH  10  11
ATOM     11  C   UNL     1      29.746  34.348  21.731  1.00  0.00    -0.031 C 
ATOM     12  C   UNL     1      30.979  34.782  22.038  1.00  0.00    -0.031 C 
BRANCH  12  13
ATOM     13  C   UNL     1      32.101  33.825  22.329  1.00  0.00     0.027 C 
BRANCH  13  14
ATOM     14  C   UNL     1      31.703  32.381  21.986  1.00  0.00     0.004 C 
BRANCH  14  15
ATOM     15  C   UNL     1      32.562  31.796  20.844  1.00  0.00     0.000 C 
BRANCH  15  16
ATOM     16  C   UNL     1      31.846  31.777  19.483  1.00  0.00    -0.000 C 
BRANCH  16  17
ATOM     17  C   UNL     1      31.943  33.115  18.738  1.00  0.00    -0.003 C 
ATOM     18  C   UNL     1      30.599  33.505  18.132  1.00  0.00     0.004 C 
ENDBRANCH  16  17
ENDBRANCH  15  16
ENDBRANCH  14  15
ENDBRANCH  13  14
ENDBRANCH  12  13
ENDBRANCH  10  11
ENDBRANCH   1  10
TORSDOF 13
ENDMDL
MODEL 8
REMARK VINA RESULT:    -3.436      1.503      2.775
REMARK INTER + INTRA:          -8.485
REMARK INTER:                  -6.507
REMARK INTRA:                  -1.978
REMARK UNBOUND:                -2.438
REMARK SMILES CCCCCCC=CCCCCCCCC(=O)[O-]
REMARK SMILES IDX 10 1 11 2 12 3 13 4 14 5 15 6 16 7 17 8 18 9 9 10 8 11 7 12
REMARK SMILES IDX 6 13 5 14 4 15 3 16 2 17 1 18
REMARK H PARENT
REMARK Flexibility Score: inf
ROOT
ATOM      1  C   UNL     1      22.875  22.765  21.774  1.00  0.00     0.004 C 
ENDROOT
BRANCH   1   2
ATOM      2  C   UNL     1      22.670  24.188  21.231  1.00  0.00     0.000 C 
BRANCH   2   3
ATOM      3  C   UNL     1      22.126  25.155  22.298  1.00  0.00     0.000 C 
BRANCH   3   4
ATOM      4  C   UNL     1      22.051  24.514  23.694  1.00  0.00     0.000 C 
BRANCH   4   5
ATOM      5  C   UNL     1      20.986  25.168  24.591  1.00  0.00     0.006 C 
BRANCH   5   6
ATOM      6  C   UNL     1      20.349  26.398  23.929  1.00  0.00     0.053 C 
BRANCH   6   7
ATOM      7  C   UNL     1      19.221  26.951  24.746  1.00  0.00     0.041 C 
ATOM      8  O   UNL     1      19.443  27.432  25.888  1.00  0.00    -0.550 OA
ATOM      9  O   UNL     1      17.921  26.908  24.257  1.00  0.00    -0.550 OA
ENDBRANCH   6   7
ENDBRANCH   5   6
ENDBRANCH   4   5
ENDBRANCH   3   4
ENDBRANCH   2   3
ENDBRANCH   1   2
BRANCH   1  10
ATOM     10  C   UNL     1      22.166  21.700  20.922  1.00  0.00     0.027 C 
BRANCH  10  11
ATOM     11  C   UNL     1      21.108  22.319  20.053  1.00  0.00    -0.031 C 
ATOM     12  C   UNL     1      20.919  21.922  18.784  1.00  0.00    -0.031 C 
BRANCH  12  13
ATOM     13  C   UNL     1      19.873  22.554  17.908  1.00  0.00     0.027 C 
BRANCH  13  14
ATOM     14  C   UNL     1      18.495  22.537  18.588  1.00  0.00     0.004 C 
BRANCH  14  15
ATOM     15  C   UNL     1      17.931  23.959  18.797  1.00  0.00     0.000 C 
BRANCH  15  16
ATOM     16  C   UNL     1      18.907  24.910  19.508  1.00  0.00    -0.000 C 
BRANCH  16  17
ATOM     17  C   UNL     1      18.452  25.285  20.925  1.00  0.00    -0.003 C 
ATOM     18  C   UNL     1      18.463  24.068  21.845  1.00  0.00     0.004 C 
ENDBRANCH  16  17
ENDBRANCH  15  16
ENDBRANCH  14  15
ENDBRANCH  13  14
ENDBRANCH  12  13
ENDBRANCH  10  11
ENDBRANCH   1  10
TORSDOF 13
ENDMDL
MODEL 9
REMARK VINA RESULT:    -3.436      1.651      3.234
REMARK INTER + INTRA:          -8.485
REMARK INTER:                  -6.280
REMARK INTRA:                  -2.205
REMARK UNBOUND:                -2.438
REMARK SMILES CCCCCCC=CCCCCCCCC(=O)[O-]
REMARK SMILES IDX 10 1 11 2 12 3 13 4 14 5 15 6 16 7 17 8 18 9 9 10 8 11 7 12
REMARK SMILES IDX 6 13 5 14 4 15 3 16 2 17 1 18
REMARK H PARENT
REMARK Flexibility Score: inf
ROOT
ATOM      1  C   UNL     1      21.667  24.257  24.946  1.00  0.00     0.004 C 
ENDROOT
BRANCH   1   2
ATOM      2  C   UNL     1      22.962  24.250  24.118  1.00  0.00     0.000 C 
BRANCH   2   3
ATOM      3  C   UNL     1      22.861  25.124  22.855  1.00  0.00     0.000 C 
BRANCH   3   4
ATOM      4  C   UNL     1      22.425  24.323  21.616  1.00  0.00     0.000 C 
BRANCH   4   5
ATOM      5  C   UNL     1      21.886  25.222  20.489  1.00  0.00     0.006 C 
BRANCH   5   6
ATOM      6  C   UNL     1      20.382  25.493  20.636  1.00  0.00     0.053 C 
BRANCH   6   7
ATOM      7  C   UNL     1      20.101  26.935  20.934  1.00  0.00     0.041 C 
ATOM      8  O   UNL     1      21.000  27.666  21.428  1.00  0.00    -0.550 OA
ATOM      9  O   UNL     1      18.840  27.463  20.692  1.00  0.00    -0.550 OA
ENDBRANCH   6   7
ENDBRANCH   5   6
ENDBRANCH   4   5
ENDBRANCH   3   4
ENDBRANCH   2   3
ENDBRANCH   1   2
BRANCH   1  10
ATOM     10  C   UNL     1      20.665  25.318  24.467  1.00  0.00     0.027 C 
BRANCH  10  11
ATOM     11  C   UNL     1      19.355  24.689  24.079  1.00  0.00    -0.031 C 
ATOM     12  C   UNL     1      19.252  23.373  23.838  1.00  0.00    -0.031 C 
BRANCH  12  13
ATOM     13  C   UNL     1      17.948  22.746  23.431  1.00  0.00     0.027 C 
BRANCH  13  14
ATOM     14  C   UNL     1      18.125  21.847  22.197  1.00  0.00     0.004 C 
BRANCH  14  15
ATOM     15  C   UNL     1      19.498  22.049  21.521  1.00  0.00     0.000 C 
BRANCH  15  16
ATOM     16  C   UNL     1      20.200  20.732  21.150  1.00  0.00    -0.000 C 
BRANCH  16  17
ATOM     17  C   UNL     1      21.466  20.946  20.309  1.00  0.00    -0.003 C 
ATOM     18  C   UNL     1      21.155  21.734  19.040  1.00  0.00     0.004 C 
ENDBRANCH  16  17
ENDBRANCH  15  16
ENDBRANCH  14  15
ENDBRANCH  13  14
ENDBRANCH  12  13
ENDBRANCH  10  11
ENDBRANCH   1  10
TORSDOF 13
ENDMDL
