MODEL 1
REMARK VINA RESULT:    -6.296      0.000      0.000
REMARK INTER + INTRA:          -6.296
REMARK INTER:                  -6.296
REMARK INTRA:                   0.000
REMARK UNBOUND:                 0.000
REMARK SMILES CC1=CC[C@@H]2C[C@H]1C2(C)C
REMARK SMILES IDX 1 1 2 2 3 3 4 4 5 5 6 6 7 7 8 8 9 9 10 10
REMARK H PARENT
REMARK Flexibility Score: inf
ROOT
ATOM      1  C   UNL     1      -3.113 -18.887   8.007  1.00  0.00     0.039 C 
ATOM      2  C   UNL     1      -3.357 -17.412   8.121  1.00  0.00    -0.074 C 
ATOM      3  C   UNL     1      -4.523 -16.848   7.691  1.00  0.00    -0.027 C 
ATOM      4  C   UNL     1      -4.722 -15.329   7.864  1.00  0.00     0.031 C 
ATOM      5  C   UNL     1      -3.440 -14.689   8.503  1.00  0.00    -0.000 C 
ATOM      6  C   UNL     1      -2.247 -15.275   7.721  1.00  0.00     0.013 C 
ATOM      7  C   UNL     1      -2.304 -16.459   8.705  1.00  0.00     0.021 C 
ATOM      8  C   UNL     1      -2.980 -15.516   9.735  1.00  0.00    -0.026 C 
ATOM      9  C   UNL     1      -4.062 -16.109  10.680  1.00  0.00     0.012 C 
ATOM     10  C   UNL     1      -1.945 -14.752  10.599  1.00  0.00     0.012 C 
ENDROOT
TORSDOF 0
ENDMDL
MODEL 2
REMARK VINA RESULT:    -6.242      1.039      2.710
REMARK INTER + INTRA:          -6.242
REMARK INTER:                  -6.242
REMARK INTRA:                   0.000
REMARK UNBOUND:                 0.000
REMARK SMILES CC1=CC[C@@H]2C[C@H]1C2(C)C
REMARK SMILES IDX 1 1 2 2 3 3 4 4 5 5 6 6 7 7 8 8 9 9 10 10
REMARK H PARENT
REMARK Flexibility Score: inf
ROOT
ATOM      1  C   UNL     1      -5.086 -15.349   6.837  1.00  0.00     0.039 C 
ATOM      2  C   UNL     1      -4.468 -16.225   7.886  1.00  0.00    -0.074 C 
ATOM      3  C   UNL     1      -4.113 -17.515   7.617  1.00  0.00    -0.027 C 
ATOM      4  C   UNL     1      -3.456 -18.352   8.733  1.00  0.00     0.031 C 
ATOM      5  C   UNL     1      -3.362 -17.508  10.053  1.00  0.00    -0.000 C 
ATOM      6  C   UNL     1      -4.747 -16.852  10.229  1.00  0.00     0.013 C 
ATOM      7  C   UNL     1      -4.224 -15.725   9.317  1.00  0.00     0.021 C 
ATOM      8  C   UNL     1      -2.782 -16.098   9.753  1.00  0.00    -0.026 C 
ATOM      9  C   UNL     1      -1.639 -15.970   8.708  1.00  0.00     0.012 C 
ATOM     10  C   UNL     1      -2.348 -15.357  11.042  1.00  0.00     0.012 C 
ENDROOT
TORSDOF 0
ENDMDL
MODEL 3
REMARK VINA RESULT:    -6.231      1.244      2.490
REMARK INTER + INTRA:          -6.231
REMARK INTER:                  -6.231
REMARK INTRA:                   0.000
REMARK UNBOUND:                 0.000
REMARK SMILES CC1=CC[C@@H]2C[C@H]1C2(C)C
REMARK SMILES IDX 1 1 2 2 3 3 4 4 5 5 6 6 7 7 8 8 9 9 10 10
REMARK H PARENT
REMARK Flexibility Score: inf
ROOT
ATOM      1  C   UNL     1      -5.305 -16.556  11.208  1.00  0.00     0.039 C 
ATOM      2  C   UNL     1      -4.784 -16.599   9.803  1.00  0.00    -0.074 C 
ATOM      3  C   UNL     1      -5.618 -16.468   8.730  1.00  0.00    -0.027 C 
ATOM      4  C   UNL     1      -5.013 -16.493   7.312  1.00  0.00     0.031 C 
ATOM      5  C   UNL     1      -3.463 -16.722   7.393  1.00  0.00    -0.000 C 
ATOM      6  C   UNL     1      -3.264 -17.883   8.388  1.00  0.00     0.013 C 
ATOM      7  C   UNL     1      -3.294 -16.813   9.497  1.00  0.00     0.021 C 
ATOM      8  C   UNL     1      -2.830 -15.770   8.446  1.00  0.00    -0.026 C 
ATOM      9  C   UNL     1      -3.372 -14.318   8.558  1.00  0.00     0.012 C 
ATOM     10  C   UNL     1      -1.287 -15.706   8.324  1.00  0.00     0.012 C 
ENDROOT
TORSDOF 0
ENDMDL
MODEL 4
REMARK VINA RESULT:    -6.170      1.173      3.245
REMARK INTER + INTRA:          -6.170
REMARK INTER:                  -6.170
REMARK INTRA:                   0.000
REMARK UNBOUND:                 0.000
REMARK SMILES CC1=CC[C@@H]2C[C@H]1C2(C)C
REMARK SMILES IDX 1 1 2 2 3 3 4 4 5 5 6 6 7 7 8 8 9 9 10 10
REMARK H PARENT
REMARK Flexibility Score: inf
ROOT
ATOM      1  C   UNL     1      -0.988 -15.347   8.585  1.00  0.00     0.039 C 
ATOM      2  C   UNL     1      -2.432 -15.750   8.615  1.00  0.00    -0.074 C 
ATOM      3  C   UNL     1      -3.145 -15.758   9.779  1.00  0.00    -0.027 C 
ATOM      4  C   UNL     1      -4.634 -16.156   9.735  1.00  0.00     0.031 C 
ATOM      5  C   UNL     1      -5.044 -16.539   8.270  1.00  0.00    -0.000 C 
ATOM      6  C   UNL     1      -3.932 -17.474   7.756  1.00  0.00     0.013 C 
ATOM      7  C   UNL     1      -3.175 -16.196   7.347  1.00  0.00     0.021 C 
ATOM      8  C   UNL     1      -4.540 -15.463   7.269  1.00  0.00    -0.026 C 
ATOM      9  C   UNL     1      -4.602 -13.968   7.689  1.00  0.00     0.012 C 
ATOM     10  C   UNL     1      -5.204 -15.604   5.876  1.00  0.00     0.012 C 
ENDROOT
TORSDOF 0
ENDMDL
MODEL 5
REMARK VINA RESULT:    -6.156      1.321      2.734
REMARK INTER + INTRA:          -6.156
REMARK INTER:                  -6.156
REMARK INTRA:                   0.000
REMARK UNBOUND:                 0.000
REMARK SMILES CC1=CC[C@@H]2C[C@H]1C2(C)C
REMARK SMILES IDX 1 1 2 2 3 3 4 4 5 5 6 6 7 7 8 8 9 9 10 10
REMARK H PARENT
REMARK Flexibility Score: inf
ROOT
ATOM      1  C   UNL     1      -4.991 -14.660   7.219  1.00  0.00     0.039 C 
ATOM      2  C   UNL     1      -3.736 -15.101   7.911  1.00  0.00    -0.074 C 
ATOM      3  C   UNL     1      -2.525 -15.065   7.280  1.00  0.00    -0.027 C 
ATOM      4  C   UNL     1      -1.270 -15.507   8.059  1.00  0.00     0.031 C 
ATOM      5  C   UNL     1      -1.670 -15.982   9.499  1.00  0.00    -0.000 C 
ATOM      6  C   UNL     1      -2.885 -16.912   9.311  1.00  0.00     0.013 C 
ATOM      7  C   UNL     1      -3.749 -15.636   9.350  1.00  0.00     0.021 C 
ATOM      8  C   UNL     1      -2.621 -14.948  10.164  1.00  0.00    -0.026 C 
ATOM      9  C   UNL     1      -2.358 -13.434   9.927  1.00  0.00     0.012 C 
ATOM     10  C   UNL     1      -2.769 -15.184  11.688  1.00  0.00     0.012 C 
ENDROOT
TORSDOF 0
ENDMDL
MODEL 6
REMARK VINA RESULT:    -6.142      1.082      3.004
REMARK INTER + INTRA:          -6.142
REMARK INTER:                  -6.142
REMARK INTRA:                   0.000
REMARK UNBOUND:                 0.000
REMARK SMILES CC1=CC[C@@H]2C[C@H]1C2(C)C
REMARK SMILES IDX 1 1 2 2 3 3 4 4 5 5 6 6 7 7 8 8 9 9 10 10
REMARK H PARENT
REMARK Flexibility Score: inf
ROOT
ATOM      1  C   UNL     1      -2.904 -15.334  11.738  1.00  0.00     0.039 C 
ATOM      2  C   UNL     1      -2.906 -15.823  10.320  1.00  0.00    -0.074 C 
ATOM      3  C   UNL     1      -2.576 -17.111  10.012  1.00  0.00    -0.027 C 
ATOM      4  C   UNL     1      -2.625 -17.557   8.537  1.00  0.00     0.031 C 
ATOM      5  C   UNL     1      -3.030 -16.348   7.623  1.00  0.00    -0.000 C 
ATOM      6  C   UNL     1      -2.162 -15.162   8.091  1.00  0.00     0.013 C 
ATOM      7  C   UNL     1      -3.255 -14.899   9.145  1.00  0.00     0.021 C 
ATOM      8  C   UNL     1      -4.268 -15.616   8.213  1.00  0.00    -0.026 C 
ATOM      9  C   UNL     1      -5.396 -16.465   8.861  1.00  0.00     0.012 C 
ATOM     10  C   UNL     1      -4.915 -14.646   7.192  1.00  0.00     0.012 C 
ENDROOT
TORSDOF 0
ENDMDL
MODEL 7
REMARK VINA RESULT:    -6.128      1.011      3.242
REMARK INTER + INTRA:          -6.128
REMARK INTER:                  -6.128
REMARK INTRA:                   0.000
REMARK UNBOUND:                 0.000
REMARK SMILES CC1=CC[C@@H]2C[C@H]1C2(C)C
REMARK SMILES IDX 1 1 2 2 3 3 4 4 5 5 6 6 7 7 8 8 9 9 10 10
REMARK H PARENT
REMARK Flexibility Score: inf
ROOT
ATOM      1  C   UNL     1      -2.499 -15.622  11.709  1.00  0.00     0.039 C 
ATOM      2  C   UNL     1      -2.427 -15.498  10.217  1.00  0.00    -0.074 C 
ATOM      3  C   UNL     1      -1.230 -15.494   9.560  1.00  0.00    -0.027 C 
ATOM      4  C   UNL     1      -1.228 -15.392   8.022  1.00  0.00     0.031 C 
ATOM      5  C   UNL     1      -2.698 -15.262   7.490  1.00  0.00    -0.000 C 
ATOM      6  C   UNL     1      -3.371 -14.197   8.380  1.00  0.00     0.013 C 
ATOM      7  C   UNL     1      -3.688 -15.348   9.354  1.00  0.00     0.021 C 
ATOM      8  C   UNL     1      -3.610 -16.330   8.155  1.00  0.00    -0.026 C 
ATOM      9  C   UNL     1      -3.034 -17.752   8.402  1.00  0.00     0.012 C 
ATOM     10  C   UNL     1      -4.969 -16.475   7.426  1.00  0.00     0.012 C 
ENDROOT
TORSDOF 0
ENDMDL
MODEL 8
REMARK VINA RESULT:    -6.066      1.090      2.386
REMARK INTER + INTRA:          -6.066
REMARK INTER:                  -6.066
REMARK INTRA:                   0.000
REMARK UNBOUND:                 0.000
REMARK SMILES CC1=CC[C@@H]2C[C@H]1C2(C)C
REMARK SMILES IDX 1 1 2 2 3 3 4 4 5 5 6 6 7 7 8 8 9 9 10 10
REMARK H PARENT
REMARK Flexibility Score: inf
ROOT
ATOM      1  C   UNL     1      -4.970 -15.827   6.126  1.00  0.00     0.039 C 
ATOM      2  C   UNL     1      -4.314 -15.648   7.462  1.00  0.00    -0.074 C 
ATOM      3  C   UNL     1      -4.914 -16.075   8.612  1.00  0.00    -0.027 C 
ATOM      4  C   UNL     1      -4.172 -15.886   9.950  1.00  0.00     0.031 C 
ATOM      5  C   UNL     1      -2.806 -15.153   9.709  1.00  0.00    -0.000 C 
ATOM      6  C   UNL     1      -3.127 -13.968   8.776  1.00  0.00     0.013 C 
ATOM      7  C   UNL     1      -2.950 -14.959   7.610  1.00  0.00     0.021 C 
ATOM      8  C   UNL     1      -2.039 -15.814   8.530  1.00  0.00    -0.026 C 
ATOM      9  C   UNL     1      -2.087 -17.361   8.384  1.00  0.00     0.012 C 
ATOM     10  C   UNL     1      -0.558 -15.365   8.471  1.00  0.00     0.012 C 
ENDROOT
TORSDOF 0
ENDMDL
