MODEL 1
REMARK VINA RESULT:    -5.614      0.000      0.000
REMARK INTER + INTRA:          -7.531
REMARK INTER:                  -7.091
REMARK INTRA:                  -0.440
REMARK UNBOUND:                -0.440
REMARK SMILES Oc1cc(O)cc(CCc2ccccc2O)c1
REMARK SMILES IDX 9 1 10 2 12 3 13 4 11 5 14 6 15 7 16 8 8 10 7 11 6 12 17 13
REMARK SMILES IDX 4 14 2 15 3 16 5 17 1 19
REMARK H PARENT 16 9 5 18 1 20
REMARK Flexibility Score: inf
ROOT
ATOM      1  C   UNL     1     172.410 179.626 180.462  1.00  0.00     0.044 C 
ENDROOT
BRANCH   1   2
ATOM      2  C   UNL     1     171.167 178.822 180.748  1.00  0.00    -0.006 A 
ATOM      3  C   UNL     1     169.974 177.245 182.163  1.00  0.00     0.001 A 
ATOM      4  C   UNL     1     168.844 177.364 181.351  1.00  0.00     0.004 A 
ATOM      5  C   UNL     1     171.129 177.973 181.867  1.00  0.00     0.007 A 
ATOM      6  C   UNL     1     168.864 178.216 180.244  1.00  0.00     0.046 A 
ATOM      7  C   UNL     1     170.019 178.953 179.940  1.00  0.00     0.118 A 
BRANCH   7   8
ATOM      8  O   UNL     1     170.027 179.812 178.842  1.00  0.00    -0.508 OA
ATOM      9  H   UNL     1     169.206 180.346 178.579  1.00  0.00     0.293 HD
ENDBRANCH   7   8
ENDBRANCH   1   2
BRANCH   1  10
ATOM     10  C   UNL     1     173.279 178.923 179.416  1.00  0.00     0.040 C 
BRANCH  10  11
ATOM     11  C   UNL     1     174.738 179.170 179.688  1.00  0.00    -0.040 A 
ATOM     12  C   UNL     1     175.230 179.128 181.003  1.00  0.00     0.050 A 
ATOM     13  C   UNL     1     175.609 179.500 178.637  1.00  0.00     0.050 A 
ATOM     14  C   UNL     1     176.579 179.391 181.263  1.00  0.00     0.119 A 
ATOM     15  C   UNL     1     176.959 179.763 178.891  1.00  0.00     0.119 A 
ATOM     16  C   UNL     1     177.444 179.705 180.205  1.00  0.00     0.092 A 
BRANCH  14  17
ATOM     17  O   UNL     1     177.051 179.338 182.572  1.00  0.00    -0.508 OA
ATOM     18  H   UNL     1     176.883 178.533 183.164  1.00  0.00     0.293 HD
ENDBRANCH  14  17
BRANCH  15  19
ATOM     19  O   UNL     1     177.808 180.082 177.835  1.00  0.00    -0.508 OA
ATOM     20  H   UNL     1     178.423 179.391 177.422  1.00  0.00     0.293 HD
ENDBRANCH  15  19
ENDBRANCH  10  11
ENDBRANCH   1  10
TORSDOF 6
ENDMDL
MODEL 2
REMARK VINA RESULT:    -5.560      0.615      2.116
REMARK INTER + INTRA:          -7.463
REMARK INTER:                  -7.076
REMARK INTRA:                  -0.387
REMARK UNBOUND:                -0.440
REMARK SMILES Oc1cc(O)cc(CCc2ccccc2O)c1
REMARK SMILES IDX 9 1 10 2 12 3 13 4 11 5 14 6 15 7 16 8 8 10 7 11 6 12 17 13
REMARK SMILES IDX 4 14 2 15 3 16 5 17 1 19
REMARK H PARENT 16 9 5 18 1 20
REMARK Flexibility Score: inf
ROOT
ATOM      1  C   UNL     1     172.401 179.624 180.358  1.00  0.00     0.044 C 
ENDROOT
BRANCH   1   2
ATOM      2  C   UNL     1     171.002 179.074 180.480  1.00  0.00    -0.006 A 
ATOM      3  C   UNL     1     169.247 178.107 181.858  1.00  0.00     0.001 A 
ATOM      4  C   UNL     1     168.381 178.107 180.763  1.00  0.00     0.004 A 
ATOM      5  C   UNL     1     170.550 178.592 181.721  1.00  0.00     0.007 A 
ATOM      6  C   UNL     1     168.813 178.597 179.529  1.00  0.00     0.046 A 
ATOM      7  C   UNL     1     170.120 179.088 179.381  1.00  0.00     0.118 A 
BRANCH   7   8
ATOM      8  O   UNL     1     170.540 179.588 178.149  1.00  0.00    -0.508 OA
ATOM      9  H   UNL     1     171.412 180.096 178.051  1.00  0.00     0.293 HD
ENDBRANCH   7   8
ENDBRANCH   1   2
BRANCH   1  10
ATOM     10  C   UNL     1     173.384 178.517 179.966  1.00  0.00     0.040 C 
BRANCH  10  11
ATOM     11  C   UNL     1     174.800 179.020 180.034  1.00  0.00    -0.040 A 
ATOM     12  C   UNL     1     175.535 179.227 178.854  1.00  0.00     0.050 A 
ATOM     13  C   UNL     1     175.418 179.232 181.277  1.00  0.00     0.050 A 
ATOM     14  C   UNL     1     176.863 179.662 178.915  1.00  0.00     0.119 A 
ATOM     15  C   UNL     1     176.746 179.667 181.343  1.00  0.00     0.119 A 
ATOM     16  C   UNL     1     177.467 179.885 180.160  1.00  0.00     0.092 A 
BRANCH  14  17
ATOM     17  O   UNL     1     177.573 179.868 177.735  1.00  0.00    -0.508 OA
ATOM     18  H   UNL     1     177.605 179.166 177.005  1.00  0.00     0.293 HD
ENDBRANCH  14  17
BRANCH  15  19
ATOM     19  O   UNL     1     177.340 179.878 182.585  1.00  0.00    -0.508 OA
ATOM     20  H   UNL     1     176.958 179.469 183.430  1.00  0.00     0.293 HD
ENDBRANCH  15  19
ENDBRANCH  10  11
ENDBRANCH   1  10
TORSDOF 6
ENDMDL
MODEL 3
REMARK VINA RESULT:    -5.537      1.741      2.141
REMARK INTER + INTRA:          -7.434
REMARK INTER:                  -6.923
REMARK INTRA:                  -0.511
REMARK UNBOUND:                -0.440
REMARK SMILES Oc1cc(O)cc(CCc2ccccc2O)c1
REMARK SMILES IDX 9 1 10 2 12 3 13 4 11 5 14 6 15 7 16 8 8 10 7 11 6 12 17 13
REMARK SMILES IDX 4 14 2 15 3 16 5 17 1 19
REMARK H PARENT 16 9 5 18 1 20
REMARK Flexibility Score: inf
ROOT
ATOM      1  C   UNL     1     172.847 177.579 179.902  1.00  0.00     0.044 C 
ENDROOT
BRANCH   1   2
ATOM      2  C   UNL     1     171.875 177.515 181.053  1.00  0.00    -0.006 A 
ATOM      3  C   UNL     1     170.049 178.516 182.309  1.00  0.00     0.001 A 
ATOM      4  C   UNL     1     170.003 177.398 183.144  1.00  0.00     0.004 A 
ATOM      5  C   UNL     1     170.976 178.574 181.266  1.00  0.00     0.007 A 
ATOM      6  C   UNL     1     170.881 176.331 182.934  1.00  0.00     0.046 A 
ATOM      7  C   UNL     1     171.815 176.379 181.888  1.00  0.00     0.118 A 
BRANCH   7   8
ATOM      8  O   UNL     1     172.678 175.305 181.675  1.00  0.00    -0.508 OA
ATOM      9  H   UNL     1     172.357 174.346 181.734  1.00  0.00     0.293 HD
ENDBRANCH   7   8
ENDBRANCH   1   2
BRANCH   1  10
ATOM     10  C   UNL     1     173.219 179.031 179.590  1.00  0.00     0.040 C 
BRANCH  10  11
ATOM     11  C   UNL     1     174.691 179.257 179.804  1.00  0.00    -0.040 A 
ATOM     12  C   UNL     1     175.234 179.207 181.098  1.00  0.00     0.050 A 
ATOM     13  C   UNL     1     175.524 179.574 178.719  1.00  0.00     0.050 A 
ATOM     14  C   UNL     1     176.597 179.450 181.304  1.00  0.00     0.119 A 
ATOM     15  C   UNL     1     176.887 179.818 178.919  1.00  0.00     0.119 A 
ATOM     16  C   UNL     1     177.423 179.752 180.212  1.00  0.00     0.092 A 
BRANCH  14  17
ATOM     17  O   UNL     1     177.119 179.390 182.593  1.00  0.00    -0.508 OA
ATOM     18  H   UNL     1     177.012 178.564 183.171  1.00  0.00     0.293 HD
ENDBRANCH  14  17
BRANCH  15  19
ATOM     19  O   UNL     1     177.698 180.125 177.829  1.00  0.00    -0.508 OA
ATOM     20  H   UNL     1     178.381 180.872 177.872  1.00  0.00     0.293 HD
ENDBRANCH  15  19
ENDBRANCH  10  11
ENDBRANCH   1  10
TORSDOF 6
ENDMDL
MODEL 4
REMARK VINA RESULT:    -5.534      1.697      6.651
REMARK INTER + INTRA:          -7.430
REMARK INTER:                  -7.019
REMARK INTRA:                  -0.411
REMARK UNBOUND:                -0.440
REMARK SMILES Oc1cc(O)cc(CCc2ccccc2O)c1
REMARK SMILES IDX 9 1 10 2 12 3 13 4 11 5 14 6 15 7 16 8 8 10 7 11 6 12 17 13
REMARK SMILES IDX 4 14 2 15 3 16 5 17 1 19
REMARK H PARENT 16 9 5 18 1 20
REMARK Flexibility Score: inf
ROOT
ATOM      1  C   UNL     1     173.247 178.963 179.840  1.00  0.00     0.044 C 
ENDROOT
BRANCH   1   2
ATOM      2  C   UNL     1     174.707 179.302 180.009  1.00  0.00    -0.006 A 
ATOM      3  C   UNL     1     176.708 179.308 181.391  1.00  0.00     0.001 A 
ATOM      4  C   UNL     1     177.441 179.855 180.336  1.00  0.00     0.004 A 
ATOM      5  C   UNL     1     175.349 179.028 181.228  1.00  0.00     0.007 A 
ATOM      6  C   UNL     1     176.818 180.118 179.114  1.00  0.00     0.046 A 
ATOM      7  C   UNL     1     175.453 179.839 178.940  1.00  0.00     0.118 A 
BRANCH   7   8
ATOM      8  O   UNL     1     174.842 180.091 177.713  1.00  0.00    -0.508 OA
ATOM      9  H   UNL     1     175.248 180.729 177.038  1.00  0.00     0.293 HD
ENDBRANCH   7   8
ENDBRANCH   1   2
BRANCH   1  10
ATOM     10  C   UNL     1     172.603 178.659 181.195  1.00  0.00     0.040 C 
BRANCH  10  11
ATOM     11  C   UNL     1     171.177 178.215 181.016  1.00  0.00    -0.040 A 
ATOM     12  C   UNL     1     170.721 177.035 181.626  1.00  0.00     0.050 A 
ATOM     13  C   UNL     1     170.306 178.946 180.192  1.00  0.00     0.050 A 
ATOM     14  C   UNL     1     169.405 176.602 181.434  1.00  0.00     0.119 A 
ATOM     15  C   UNL     1     168.989 178.517 179.997  1.00  0.00     0.119 A 
ATOM     16  C   UNL     1     168.538 177.346 180.621  1.00  0.00     0.092 A 
BRANCH  14  17
ATOM     17  O   UNL     1     168.968 175.433 182.053  1.00  0.00    -0.508 OA
ATOM     18  H   UNL     1     168.615 175.436 183.003  1.00  0.00     0.293 HD
ENDBRANCH  14  17
BRANCH  15  19
ATOM     19  O   UNL     1     168.138 179.258 179.181  1.00  0.00    -0.508 OA
ATOM     20  H   UNL     1     168.228 180.264 179.098  1.00  0.00     0.293 HD
ENDBRANCH  15  19
ENDBRANCH  10  11
ENDBRANCH   1  10
TORSDOF 6
ENDMDL
MODEL 5
REMARK VINA RESULT:    -5.509      1.703      6.864
REMARK INTER + INTRA:          -7.398
REMARK INTER:                  -6.989
REMARK INTRA:                  -0.409
REMARK UNBOUND:                -0.440
REMARK SMILES Oc1cc(O)cc(CCc2ccccc2O)c1
REMARK SMILES IDX 9 1 10 2 12 3 13 4 11 5 14 6 15 7 16 8 8 10 7 11 6 12 17 13
REMARK SMILES IDX 4 14 2 15 3 16 5 17 1 19
REMARK H PARENT 16 9 5 18 1 20
REMARK Flexibility Score: inf
ROOT
ATOM      1  C   UNL     1     173.285 178.915 179.802  1.00  0.00     0.044 C 
ENDROOT
BRANCH   1   2
ATOM      2  C   UNL     1     174.735 179.280 179.999  1.00  0.00    -0.006 A 
ATOM      3  C   UNL     1     176.706 179.328 181.423  1.00  0.00     0.001 A 
ATOM      4  C   UNL     1     177.452 179.880 180.380  1.00  0.00     0.004 A 
ATOM      5  C   UNL     1     175.356 179.024 181.234  1.00  0.00     0.007 A 
ATOM      6  C   UNL     1     176.851 180.125 179.143  1.00  0.00     0.046 A 
ATOM      7  C   UNL     1     175.495 179.822 178.943  1.00  0.00     0.118 A 
BRANCH   7   8
ATOM      8  O   UNL     1     174.906 180.056 177.701  1.00  0.00    -0.508 OA
ATOM      9  H   UNL     1     174.188 180.761 177.578  1.00  0.00     0.293 HD
ENDBRANCH   7   8
ENDBRANCH   1   2
BRANCH   1  10
ATOM     10  C   UNL     1     172.658 178.463 181.123  1.00  0.00     0.040 C 
BRANCH  10  11
ATOM     11  C   UNL     1     171.223 178.062 180.918  1.00  0.00    -0.040 A 
ATOM     12  C   UNL     1     170.361 178.877 180.165  1.00  0.00     0.050 A 
ATOM     13  C   UNL     1     170.718 176.899 181.522  1.00  0.00     0.050 A 
ATOM     14  C   UNL     1     169.017 178.524 180.000  1.00  0.00     0.119 A 
ATOM     15  C   UNL     1     169.376 176.542 181.359  1.00  0.00     0.119 A 
ATOM     16  C   UNL     1     168.526 177.353 180.595  1.00  0.00     0.092 A 
BRANCH  14  17
ATOM     17  O   UNL     1     168.180 179.341 179.245  1.00  0.00    -0.508 OA
ATOM     18  H   UNL     1     167.495 179.947 179.682  1.00  0.00     0.293 HD
ENDBRANCH  14  17
BRANCH  15  19
ATOM     19  O   UNL     1     168.896 175.381 181.962  1.00  0.00    -0.508 OA
ATOM     20  H   UNL     1     168.500 174.626 181.414  1.00  0.00     0.293 HD
ENDBRANCH  15  19
ENDBRANCH  10  11
ENDBRANCH   1  10
TORSDOF 6
ENDMDL
MODEL 6
REMARK VINA RESULT:    -5.498      4.191      6.064
REMARK INTER + INTRA:          -7.385
REMARK INTER:                  -6.621
REMARK INTRA:                  -0.763
REMARK UNBOUND:                -0.440
REMARK SMILES Oc1cc(O)cc(CCc2ccccc2O)c1
REMARK SMILES IDX 9 1 10 2 12 3 13 4 11 5 14 6 15 7 16 8 8 10 7 11 6 12 17 13
REMARK SMILES IDX 4 14 2 15 3 16 5 17 1 19
REMARK H PARENT 16 9 5 18 1 20
REMARK Flexibility Score: inf
ROOT
ATOM      1  C   UNL     1     177.442 178.878 179.530  1.00  0.00     0.044 C 
ENDROOT
BRANCH   1   2
ATOM      2  C   UNL     1     176.391 178.848 178.449  1.00  0.00    -0.006 A 
ATOM      3  C   UNL     1     174.197 179.521 177.643  1.00  0.00     0.001 A 
ATOM      4  C   UNL     1     174.439 178.874 176.430  1.00  0.00     0.004 A 
ATOM      5  C   UNL     1     175.170 179.514 178.647  1.00  0.00     0.007 A 
ATOM      6  C   UNL     1     175.655 178.221 176.215  1.00  0.00     0.046 A 
ATOM      7  C   UNL     1     176.638 178.209 177.217  1.00  0.00     0.118 A 
BRANCH   7   8
ATOM      8  O   UNL     1     177.855 177.568 176.990  1.00  0.00    -0.508 OA
ATOM      9  H   UNL     1     177.918 176.559 176.911  1.00  0.00     0.293 HD
ENDBRANCH   7   8
ENDBRANCH   1   2
BRANCH   1  10
ATOM     10  C   UNL     1     176.916 178.227 180.812  1.00  0.00     0.040 C 
BRANCH  10  11
ATOM     11  C   UNL     1     176.705 176.751 180.607  1.00  0.00    -0.040 A 
ATOM     12  C   UNL     1     177.736 175.956 180.079  1.00  0.00     0.050 A 
ATOM     13  C   UNL     1     175.459 176.168 180.889  1.00  0.00     0.050 A 
ATOM     14  C   UNL     1     177.531 174.590 179.857  1.00  0.00     0.119 A 
ATOM     15  C   UNL     1     175.250 174.803 180.668  1.00  0.00     0.119 A 
ATOM     16  C   UNL     1     176.288 174.013 180.155  1.00  0.00     0.092 A 
BRANCH  14  17
ATOM     17  O   UNL     1     178.566 173.815 179.340  1.00  0.00    -0.508 OA
ATOM     18  H   UNL     1     178.433 172.838 179.107  1.00  0.00     0.293 HD
ENDBRANCH  14  17
BRANCH  15  19
ATOM     19  O   UNL     1     174.009 174.241 180.959  1.00  0.00    -0.508 OA
ATOM     20  H   UNL     1     173.930 173.325 181.385  1.00  0.00     0.293 HD
ENDBRANCH  15  19
ENDBRANCH  10  11
ENDBRANCH   1  10
TORSDOF 6
ENDMDL
MODEL 7
REMARK VINA RESULT:    -5.485      4.223      5.924
REMARK INTER + INTRA:          -7.368
REMARK INTER:                  -6.644
REMARK INTRA:                  -0.725
REMARK UNBOUND:                -0.440
REMARK SMILES Oc1cc(O)cc(CCc2ccccc2O)c1
REMARK SMILES IDX 9 1 10 2 12 3 13 4 11 5 14 6 15 7 16 8 8 10 7 11 6 12 17 13
REMARK SMILES IDX 4 14 2 15 3 16 5 17 1 19
REMARK H PARENT 16 9 5 18 1 20
REMARK Flexibility Score: inf
ROOT
ATOM      1  C   UNL     1     177.393 178.908 179.489  1.00  0.00     0.044 C 
ENDROOT
BRANCH   1   2
ATOM      2  C   UNL     1     176.371 178.844 178.381  1.00  0.00    -0.006 A 
ATOM      3  C   UNL     1     174.200 179.491 177.496  1.00  0.00     0.001 A 
ATOM      4  C   UNL     1     174.474 178.806 176.311  1.00  0.00     0.004 A 
ATOM      5  C   UNL     1     175.145 179.515 178.526  1.00  0.00     0.007 A 
ATOM      6  C   UNL     1     175.696 178.149 176.149  1.00  0.00     0.046 A 
ATOM      7  C   UNL     1     176.652 178.168 177.176  1.00  0.00     0.118 A 
BRANCH   7   8
ATOM      8  O   UNL     1     177.875 177.521 177.001  1.00  0.00    -0.508 OA
ATOM      9  H   UNL     1     178.400 177.157 177.788  1.00  0.00     0.293 HD
ENDBRANCH   7   8
ENDBRANCH   1   2
BRANCH   1  10
ATOM     10  C   UNL     1     176.859 178.233 180.755  1.00  0.00     0.040 C 
BRANCH  10  11
ATOM     11  C   UNL     1     176.665 176.758 180.526  1.00  0.00    -0.040 A 
ATOM     12  C   UNL     1     175.447 176.144 180.863  1.00  0.00     0.050 A 
ATOM     13  C   UNL     1     177.717 175.974 180.027  1.00  0.00     0.050 A 
ATOM     14  C   UNL     1     175.275 174.768 180.683  1.00  0.00     0.119 A 
ATOM     15  C   UNL     1     177.550 174.597 179.844  1.00  0.00     0.119 A 
ATOM     16  C   UNL     1     176.327 173.995 180.170  1.00  0.00     0.092 A 
BRANCH  14  17
ATOM     17  O   UNL     1     174.059 174.177 181.016  1.00  0.00    -0.508 OA
ATOM     18  H   UNL     1     173.175 174.600 180.755  1.00  0.00     0.293 HD
ENDBRANCH  14  17
BRANCH  15  19
ATOM     19  O   UNL     1     178.604 173.837 179.342  1.00  0.00    -0.508 OA
ATOM     20  H   UNL     1     178.448 173.097 178.668  1.00  0.00     0.293 HD
ENDBRANCH  15  19
ENDBRANCH  10  11
ENDBRANCH   1  10
TORSDOF 6
ENDMDL
MODEL 8
REMARK VINA RESULT:    -5.459      4.176      9.429
REMARK INTER + INTRA:          -7.334
REMARK INTER:                  -6.842
REMARK INTRA:                  -0.492
REMARK UNBOUND:                -0.440
REMARK SMILES Oc1cc(O)cc(CCc2ccccc2O)c1
REMARK SMILES IDX 9 1 10 2 12 3 13 4 11 5 14 6 15 7 16 8 8 10 7 11 6 12 17 13
REMARK SMILES IDX 4 14 2 15 3 16 5 17 1 19
REMARK H PARENT 16 9 5 18 1 20
REMARK Flexibility Score: inf
ROOT
ATOM      1  C   UNL     1     167.542 178.465 179.371  1.00  0.00     0.044 C 
ENDROOT
BRANCH   1   2
ATOM      2  C   UNL     1     168.861 178.665 180.075  1.00  0.00    -0.006 A 
ATOM      3  C   UNL     1     170.150 178.700 182.137  1.00  0.00     0.001 A 
ATOM      4  C   UNL     1     171.314 178.960 181.411  1.00  0.00     0.004 A 
ATOM      5  C   UNL     1     168.930 178.548 181.473  1.00  0.00     0.007 A 
ATOM      6  C   UNL     1     171.262 179.064 180.019  1.00  0.00     0.046 A 
ATOM      7  C   UNL     1     170.041 178.912 179.343  1.00  0.00     0.118 A 
BRANCH   7   8
ATOM      8  O   UNL     1     170.000 179.002 177.952  1.00  0.00    -0.508 OA
ATOM      9  H   UNL     1     170.835 179.177 177.406  1.00  0.00     0.293 HD
ENDBRANCH   7   8
ENDBRANCH   1   2
BRANCH   1  10
ATOM     10  C   UNL     1     166.531 177.792 180.303  1.00  0.00     0.040 C 
BRANCH  10  11
ATOM     11  C   UNL     1     165.191 178.469 180.207  1.00  0.00    -0.040 A 
ATOM     12  C   UNL     1     164.695 178.882 178.959  1.00  0.00     0.050 A 
ATOM     13  C   UNL     1     164.451 178.744 181.368  1.00  0.00     0.050 A 
ATOM     14  C   UNL     1     163.464 179.543 178.871  1.00  0.00     0.119 A 
ATOM     15  C   UNL     1     163.221 179.404 181.285  1.00  0.00     0.119 A 
ATOM     16  C   UNL     1     162.726 179.800 180.035  1.00  0.00     0.092 A 
BRANCH  14  17
ATOM     17  O   UNL     1     162.985 179.938 177.625  1.00  0.00    -0.508 OA
ATOM     18  H   UNL     1     163.381 179.577 176.765  1.00  0.00     0.293 HD
ENDBRANCH  14  17
BRANCH  15  19
ATOM     19  O   UNL     1     162.499 179.663 182.448  1.00  0.00    -0.508 OA
ATOM     20  H   UNL     1     161.515 179.434 182.522  1.00  0.00     0.293 HD
ENDBRANCH  15  19
ENDBRANCH  10  11
ENDBRANCH   1  10
TORSDOF 6
ENDMDL
