MODEL 1
REMARK VINA RESULT:    -3.525      0.000      0.000
REMARK INTER + INTRA:          -9.389
REMARK INTER:                  -6.410
REMARK INTRA:                  -2.979
REMARK UNBOUND:                -2.979
REMARK SMILES CCCCCC=CCC=CCCCCCCCC(=O)[O-]
REMARK SMILES IDX 11 1 12 2 13 3 14 4 15 5 16 6 17 7 18 8 19 9 20 10 10 11
REMARK SMILES IDX 9 12 8 13 7 14 6 15 5 16 4 17 3 18 2 19 1 20
REMARK H PARENT
REMARK Flexibility Score: inf
ROOT
ATOM      1  C   UNL     1      33.557  -5.811 -30.432  1.00  0.00     0.027 C 
ENDROOT
BRANCH   1   2
ATOM      2  C   UNL     1      33.789  -7.263 -30.001  1.00  0.00     0.004 C 
BRANCH   2   3
ATOM      3  C   UNL     1      32.574  -8.156 -30.309  1.00  0.00     0.000 C 
BRANCH   3   4
ATOM      4  C   UNL     1      32.012  -8.836 -29.043  1.00  0.00     0.000 C 
BRANCH   4   5
ATOM      5  C   UNL     1      30.785  -8.119 -28.449  1.00  0.00     0.000 C 
BRANCH   5   6
ATOM      6  C   UNL     1      31.034  -7.415 -27.102  1.00  0.00     0.006 C 
BRANCH   6   7
ATOM      7  C   UNL     1      32.237  -7.964 -26.317  1.00  0.00     0.053 C 
BRANCH   7   8
ATOM      8  C   UNL     1      31.834  -9.044 -25.361  1.00  0.00     0.041 C 
ATOM      9  O   UNL     1      31.833  -8.825 -24.121  1.00  0.00    -0.550 OA
ATOM     10  O   UNL     1      31.491 -10.302 -25.838  1.00  0.00    -0.550 OA
ENDBRANCH   7   8
ENDBRANCH   6   7
ENDBRANCH   5   6
ENDBRANCH   4   5
ENDBRANCH   3   4
ENDBRANCH   2   3
ENDBRANCH   1   2
BRANCH   1  11
ATOM     11  C   UNL     1      32.750  -5.058 -29.401  1.00  0.00    -0.031 C 
ATOM     12  C   UNL     1      31.524  -4.539 -29.606  1.00  0.00    -0.027 C 
BRANCH  12  13
ATOM     13  C   UNL     1      30.771  -4.591 -30.914  1.00  0.00     0.054 C 
BRANCH  13  14
ATOM     14  C   UNL     1      29.703  -5.651 -30.894  1.00  0.00    -0.027 C 
ATOM     15  C   UNL     1      29.785  -6.750 -31.660  1.00  0.00    -0.031 C 
BRANCH  15  16
ATOM     16  C   UNL     1      28.781  -7.865 -31.547  1.00  0.00     0.027 C 
BRANCH  16  17
ATOM     17  C   UNL     1      27.444  -7.390 -30.953  1.00  0.00     0.004 C 
BRANCH  17  18
ATOM     18  C   UNL     1      27.068  -8.153 -29.674  1.00  0.00     0.000 C 
BRANCH  18  19
ATOM     19  C   UNL     1      27.094  -7.226 -28.454  1.00  0.00    -0.003 C 
ATOM     20  C   UNL     1      26.662  -5.811 -28.827  1.00  0.00     0.004 C 
ENDBRANCH  18  19
ENDBRANCH  17  18
ENDBRANCH  16  17
ENDBRANCH  15  16
ENDBRANCH  13  14
ENDBRANCH  12  13
ENDBRANCH   1  11
TORSDOF 14
ENDMDL
MODEL 2
REMARK VINA RESULT:    -3.522      2.504      4.917
REMARK INTER + INTRA:          -9.384
REMARK INTER:                  -6.192
REMARK INTRA:                  -3.192
REMARK UNBOUND:                -2.979
REMARK SMILES CCCCCC=CCC=CCCCCCCCC(=O)[O-]
REMARK SMILES IDX 11 1 12 2 13 3 14 4 15 5 16 6 17 7 18 8 19 9 20 10 10 11
REMARK SMILES IDX 9 12 8 13 7 14 6 15 5 16 4 17 3 18 2 19 1 20
REMARK H PARENT
REMARK Flexibility Score: inf
ROOT
ATOM      1  C   UNL     1      33.976  -8.305 -29.994  1.00  0.00     0.027 C 
ENDROOT
BRANCH   1   2
ATOM      2  C   UNL     1      33.680  -7.007 -30.753  1.00  0.00     0.004 C 
BRANCH   2   3
ATOM      3  C   UNL     1      32.765  -7.246 -31.967  1.00  0.00     0.000 C 
BRANCH   3   4
ATOM      4  C   UNL     1      31.526  -8.092 -31.608  1.00  0.00     0.000 C 
BRANCH   4   5
ATOM      5  C   UNL     1      30.189  -7.392 -31.917  1.00  0.00     0.000 C 
BRANCH   5   6
ATOM      6  C   UNL     1      28.963  -7.991 -31.202  1.00  0.00     0.006 C 
BRANCH   6   7
ATOM      7  C   UNL     1      27.852  -6.973 -30.896  1.00  0.00     0.053 C 
BRANCH   7   8
ATOM      8  C   UNL     1      27.015  -7.393 -29.727  1.00  0.00     0.041 C 
ATOM      9  O   UNL     1      26.781  -8.613 -29.521  1.00  0.00    -0.550 OA
ATOM     10  O   UNL     1      26.468  -6.436 -28.884  1.00  0.00    -0.550 OA
ENDBRANCH   7   8
ENDBRANCH   6   7
ENDBRANCH   5   6
ENDBRANCH   4   5
ENDBRANCH   3   4
ENDBRANCH   2   3
ENDBRANCH   1   2
BRANCH   1  11
ATOM     11  C   UNL     1      34.057  -8.060 -28.506  1.00  0.00    -0.031 C 
ATOM     12  C   UNL     1      33.043  -8.231 -27.637  1.00  0.00    -0.027 C 
BRANCH  12  13
ATOM     13  C   UNL     1      31.645  -8.660 -28.015  1.00  0.00     0.054 C 
BRANCH  13  14
ATOM     14  C   UNL     1      30.657  -7.540 -27.832  1.00  0.00    -0.027 C 
ATOM     15  C   UNL     1      30.827  -6.346 -28.418  1.00  0.00    -0.031 C 
BRANCH  15  16
ATOM     16  C   UNL     1      29.776  -5.270 -28.336  1.00  0.00     0.027 C 
BRANCH  16  17
ATOM     17  C   UNL     1      29.990  -4.164 -29.382  1.00  0.00     0.004 C 
BRANCH  17  18
ATOM     18  C   UNL     1      31.360  -4.264 -30.069  1.00  0.00     0.000 C 
BRANCH  18  19
ATOM     19  C   UNL     1      31.233  -4.056 -31.582  1.00  0.00    -0.003 C 
ATOM     20  C   UNL     1      32.315  -3.115 -32.102  1.00  0.00     0.004 C 
ENDBRANCH  18  19
ENDBRANCH  17  18
ENDBRANCH  16  17
ENDBRANCH  15  16
ENDBRANCH  13  14
ENDBRANCH  12  13
ENDBRANCH   1  11
TORSDOF 14
ENDMDL
MODEL 3
REMARK VINA RESULT:    -3.375      2.553      5.238
REMARK INTER + INTRA:          -9.117
REMARK INTER:                  -6.901
REMARK INTRA:                  -2.216
REMARK UNBOUND:                -2.979
REMARK SMILES CCCCCC=CCC=CCCCCCCCC(=O)[O-]
REMARK SMILES IDX 11 1 12 2 13 3 14 4 15 5 16 6 17 7 18 8 19 9 20 10 10 11
REMARK SMILES IDX 9 12 8 13 7 14 6 15 5 16 4 17 3 18 2 19 1 20
REMARK H PARENT
REMARK Flexibility Score: inf
ROOT
ATOM      1  C   UNL     1      31.680  -5.390 -32.473  1.00  0.00     0.027 C 
ENDROOT
BRANCH   1   2
ATOM      2  C   UNL     1      32.130  -4.083 -31.812  1.00  0.00     0.004 C 
BRANCH   2   3
ATOM      3  C   UNL     1      31.297  -3.753 -30.561  1.00  0.00     0.000 C 
BRANCH   3   4
ATOM      4  C   UNL     1      31.267  -4.922 -29.554  1.00  0.00     0.000 C 
BRANCH   4   5
ATOM      5  C   UNL     1      29.849  -5.302 -29.090  1.00  0.00     0.000 C 
BRANCH   5   6
ATOM      6  C   UNL     1      28.760  -5.193 -30.175  1.00  0.00     0.006 C 
BRANCH   6   7
ATOM      7  C   UNL     1      28.243  -6.547 -30.687  1.00  0.00     0.053 C 
BRANCH   7   8
ATOM      8  C   UNL     1      27.205  -7.128 -29.779  1.00  0.00     0.041 C 
ATOM      9  O   UNL     1      26.534  -6.379 -29.021  1.00  0.00    -0.550 OA
ATOM     10  O   UNL     1      27.000  -8.501 -29.745  1.00  0.00    -0.550 OA
ENDBRANCH   7   8
ENDBRANCH   6   7
ENDBRANCH   5   6
ENDBRANCH   4   5
ENDBRANCH   3   4
ENDBRANCH   2   3
ENDBRANCH   1   2
BRANCH   1  11
ATOM     11  C   UNL     1      32.775  -6.430 -32.426  1.00  0.00    -0.031 C 
ATOM     12  C   UNL     1      32.636  -7.679 -31.942  1.00  0.00    -0.027 C 
BRANCH  12  13
ATOM     13  C   UNL     1      31.372  -8.232 -31.329  1.00  0.00     0.054 C 
BRANCH  13  14
ATOM     14  C   UNL     1      31.558  -8.547 -29.870  1.00  0.00    -0.027 C 
ATOM     15  C   UNL     1      32.712  -8.293 -29.234  1.00  0.00    -0.031 C 
BRANCH  15  16
ATOM     16  C   UNL     1      32.854  -8.493 -27.749  1.00  0.00     0.027 C 
BRANCH  16  17
ATOM     17  C   UNL     1      31.518  -8.847 -27.077  1.00  0.00     0.004 C 
BRANCH  17  18
ATOM     18  C   UNL     1      31.667  -9.959 -26.027  1.00  0.00     0.000 C 
BRANCH  18  19
ATOM     19  C   UNL     1      30.942  -9.590 -24.729  1.00  0.00    -0.003 C 
ATOM     20  C   UNL     1      31.500 -10.373 -23.544  1.00  0.00     0.004 C 
ENDBRANCH  18  19
ENDBRANCH  17  18
ENDBRANCH  16  17
ENDBRANCH  15  16
ENDBRANCH  13  14
ENDBRANCH  12  13
ENDBRANCH   1  11
TORSDOF 14
ENDMDL
MODEL 4
REMARK VINA RESULT:    -3.346      3.532      6.245
REMARK INTER + INTRA:          -9.064
REMARK INTER:                  -7.926
REMARK INTRA:                  -1.138
REMARK UNBOUND:                -2.979
REMARK SMILES CCCCCC=CCC=CCCCCCCCC(=O)[O-]
REMARK SMILES IDX 11 1 12 2 13 3 14 4 15 5 16 6 17 7 18 8 19 9 20 10 10 11
REMARK SMILES IDX 9 12 8 13 7 14 6 15 5 16 4 17 3 18 2 19 1 20
REMARK H PARENT
REMARK Flexibility Score: inf
ROOT
ATOM      1  C   UNL     1      31.474  -7.950 -27.884  1.00  0.00     0.027 C 
ENDROOT
BRANCH   1   2
ATOM      2  C   UNL     1      31.825  -8.786 -29.119  1.00  0.00     0.004 C 
BRANCH   2   3
ATOM      3  C   UNL     1      32.795  -8.048 -30.058  1.00  0.00     0.000 C 
BRANCH   3   4
ATOM      4  C   UNL     1      32.172  -7.769 -31.441  1.00  0.00     0.000 C 
BRANCH   4   5
ATOM      5  C   UNL     1      30.731  -8.296 -31.587  1.00  0.00     0.000 C 
BRANCH   5   6
ATOM      6  C   UNL     1      29.643  -7.207 -31.624  1.00  0.00     0.006 C 
BRANCH   6   7
ATOM      7  C   UNL     1      28.209  -7.743 -31.473  1.00  0.00     0.053 C 
BRANCH   7   8
ATOM      8  C   UNL     1      27.761  -7.742 -30.044  1.00  0.00     0.041 C 
ATOM      9  O   UNL     1      28.310  -6.977 -29.208  1.00  0.00    -0.550 OA
ATOM     10  O   UNL     1      26.759  -8.608 -29.629  1.00  0.00    -0.550 OA
ENDBRANCH   7   8
ENDBRANCH   6   7
ENDBRANCH   5   6
ENDBRANCH   4   5
ENDBRANCH   3   4
ENDBRANCH   2   3
ENDBRANCH   1   2
BRANCH   1  11
ATOM     11  C   UNL     1      32.533  -8.084 -26.815  1.00  0.00    -0.031 C 
ATOM     12  C   UNL     1      32.594  -9.077 -25.907  1.00  0.00    -0.027 C 
BRANCH  12  13
ATOM     13  C   UNL     1      31.591 -10.198 -25.783  1.00  0.00     0.054 C 
BRANCH  13  14
ATOM     14  C   UNL     1      31.047 -10.300 -24.384  1.00  0.00    -0.027 C 
ATOM     15  C   UNL     1      29.984  -9.586 -23.986  1.00  0.00    -0.031 C 
BRANCH  15  16
ATOM     16  C   UNL     1      29.367  -9.782 -22.627  1.00  0.00     0.027 C 
BRANCH  16  17
ATOM     17  C   UNL     1      28.111 -10.667 -22.678  1.00  0.00     0.004 C 
BRANCH  17  18
ATOM     18  C   UNL     1      26.855  -9.880 -23.081  1.00  0.00     0.000 C 
BRANCH  18  19
ATOM     19  C   UNL     1      25.599 -10.750 -22.963  1.00  0.00    -0.003 C 
ATOM     20  C   UNL     1      24.336  -9.894 -22.933  1.00  0.00     0.004 C 
ENDBRANCH  18  19
ENDBRANCH  17  18
ENDBRANCH  16  17
ENDBRANCH  15  16
ENDBRANCH  13  14
ENDBRANCH  12  13
ENDBRANCH   1  11
TORSDOF 14
ENDMDL
MODEL 5
REMARK VINA RESULT:    -3.330      3.204      6.019
REMARK INTER + INTRA:          -9.033
REMARK INTER:                  -7.589
REMARK INTRA:                  -1.445
REMARK UNBOUND:                -2.979
REMARK SMILES CCCCCC=CCC=CCCCCCCCC(=O)[O-]
REMARK SMILES IDX 11 1 12 2 13 3 14 4 15 5 16 6 17 7 18 8 19 9 20 10 10 11
REMARK SMILES IDX 9 12 8 13 7 14 6 15 5 16 4 17 3 18 2 19 1 20
REMARK H PARENT
REMARK Flexibility Score: inf
ROOT
ATOM      1  C   UNL     1      32.105  -8.530 -29.871  1.00  0.00     0.027 C 
ENDROOT
BRANCH   1   2
ATOM      2  C   UNL     1      31.626  -8.057 -31.247  1.00  0.00     0.004 C 
BRANCH   2   3
ATOM      3  C   UNL     1      32.010  -6.591 -31.519  1.00  0.00     0.000 C 
BRANCH   3   4
ATOM      4  C   UNL     1      30.783  -5.717 -31.852  1.00  0.00     0.000 C 
BRANCH   4   5
ATOM      5  C   UNL     1      30.017  -5.227 -30.609  1.00  0.00     0.000 C 
BRANCH   5   6
ATOM      6  C   UNL     1      28.500  -5.495 -30.634  1.00  0.00     0.006 C 
BRANCH   6   7
ATOM      7  C   UNL     1      28.023  -6.517 -29.589  1.00  0.00     0.053 C 
BRANCH   7   8
ATOM      8  C   UNL     1      27.654  -7.826 -30.216  1.00  0.00     0.041 C 
ATOM      9  O   UNL     1      26.848  -8.601 -29.638  1.00  0.00    -0.550 OA
ATOM     10  O   UNL     1      28.226  -8.204 -31.423  1.00  0.00    -0.550 OA
ENDBRANCH   7   8
ENDBRANCH   6   7
ENDBRANCH   5   6
ENDBRANCH   4   5
ENDBRANCH   3   4
ENDBRANCH   2   3
ENDBRANCH   1   2
BRANCH   1  11
ATOM     11  C   UNL     1      31.116  -8.160 -28.792  1.00  0.00    -0.031 C 
ATOM     12  C   UNL     1      31.214  -8.516 -27.497  1.00  0.00    -0.027 C 
BRANCH  12  13
ATOM     13  C   UNL     1      32.310  -9.378 -26.918  1.00  0.00     0.054 C 
BRANCH  13  14
ATOM     14  C   UNL     1      32.147  -9.555 -25.433  1.00  0.00    -0.027 C 
ATOM     15  C   UNL     1      30.953  -9.814 -24.880  1.00  0.00    -0.031 C 
BRANCH  15  16
ATOM     16  C   UNL     1      30.813 -10.114 -23.411  1.00  0.00     0.027 C 
BRANCH  16  17
ATOM     17  C   UNL     1      29.354 -10.379 -23.005  1.00  0.00     0.004 C 
BRANCH  17  18
ATOM     18  C   UNL     1      28.392  -9.310 -23.547  1.00  0.00     0.000 C 
BRANCH  18  19
ATOM     19  C   UNL     1      26.938  -9.658 -23.209  1.00  0.00    -0.003 C 
ATOM     20  C   UNL     1      26.834 -11.046 -22.584  1.00  0.00     0.004 C 
ENDBRANCH  18  19
ENDBRANCH  17  18
ENDBRANCH  16  17
ENDBRANCH  15  16
ENDBRANCH  13  14
ENDBRANCH  12  13
ENDBRANCH   1  11
TORSDOF 14
ENDMDL
MODEL 6
REMARK VINA RESULT:    -3.295      2.761      5.317
REMARK INTER + INTRA:          -8.971
REMARK INTER:                  -6.147
REMARK INTRA:                  -2.824
REMARK UNBOUND:                -2.979
REMARK SMILES CCCCCC=CCC=CCCCCCCCC(=O)[O-]
REMARK SMILES IDX 11 1 12 2 13 3 14 4 15 5 16 6 17 7 18 8 19 9 20 10 10 11
REMARK SMILES IDX 9 12 8 13 7 14 6 15 5 16 4 17 3 18 2 19 1 20
REMARK H PARENT
REMARK Flexibility Score: inf
ROOT
ATOM      1  C   UNL     1      28.257  -7.552 -31.497  1.00  0.00     0.027 C 
ENDROOT
BRANCH   1   2
ATOM      2  C   UNL     1      27.763  -7.848 -30.077  1.00  0.00     0.004 C 
BRANCH   2   3
ATOM      3  C   UNL     1      26.993  -6.659 -29.475  1.00  0.00     0.000 C 
BRANCH   3   4
ATOM      4  C   UNL     1      27.531  -6.257 -28.086  1.00  0.00     0.000 C 
BRANCH   4   5
ATOM      5  C   UNL     1      28.909  -6.862 -27.759  1.00  0.00     0.000 C 
BRANCH   5   6
ATOM      6  C   UNL     1      29.955  -5.854 -27.246  1.00  0.00     0.006 C 
BRANCH   6   7
ATOM      7  C   UNL     1      30.583  -4.982 -28.347  1.00  0.00     0.053 C 
BRANCH   7   8
ATOM      8  C   UNL     1      30.057  -3.581 -28.316  1.00  0.00     0.041 C 
ATOM      9  O   UNL     1      30.470  -2.767 -27.448  1.00  0.00    -0.550 OA
ATOM     10  O   UNL     1      29.088  -3.181 -29.226  1.00  0.00    -0.550 OA
ENDBRANCH   7   8
ENDBRANCH   6   7
ENDBRANCH   5   6
ENDBRANCH   4   5
ENDBRANCH   3   4
ENDBRANCH   2   3
ENDBRANCH   1   2
BRANCH   1  11
ATOM     11  C   UNL     1      29.342  -6.501 -31.489  1.00  0.00    -0.031 C 
ATOM     12  C   UNL     1      30.664  -6.755 -31.463  1.00  0.00    -0.027 C 
BRANCH  12  13
ATOM     13  C   UNL     1      31.279  -8.132 -31.398  1.00  0.00     0.054 C 
BRANCH  13  14
ATOM     14  C   UNL     1      31.561  -8.544 -29.978  1.00  0.00    -0.027 C 
ATOM     15  C   UNL     1      32.589  -8.031 -29.286  1.00  0.00    -0.031 C 
BRANCH  15  16
ATOM     16  C   UNL     1      32.795  -8.349 -27.829  1.00  0.00     0.027 C 
BRANCH  16  17
ATOM     17  C   UNL     1      31.641  -9.182 -27.244  1.00  0.00     0.004 C 
BRANCH  17  18
ATOM     18  C   UNL     1      32.099 -10.090 -26.094  1.00  0.00     0.000 C 
BRANCH  18  19
ATOM     19  C   UNL     1      31.102 -10.048 -24.931  1.00  0.00    -0.003 C 
ATOM     20  C   UNL     1      30.512  -8.651 -24.761  1.00  0.00     0.004 C 
ENDBRANCH  18  19
ENDBRANCH  17  18
ENDBRANCH  16  17
ENDBRANCH  15  16
ENDBRANCH  13  14
ENDBRANCH  12  13
ENDBRANCH   1  11
TORSDOF 14
ENDMDL
MODEL 7
REMARK VINA RESULT:    -3.282      1.807      4.957
REMARK INTER + INTRA:          -8.947
REMARK INTER:                  -6.592
REMARK INTRA:                  -2.355
REMARK UNBOUND:                -2.979
REMARK SMILES CCCCCC=CCC=CCCCCCCCC(=O)[O-]
REMARK SMILES IDX 11 1 12 2 13 3 14 4 15 5 16 6 17 7 18 8 19 9 20 10 10 11
REMARK SMILES IDX 9 12 8 13 7 14 6 15 5 16 4 17 3 18 2 19 1 20
REMARK H PARENT
REMARK Flexibility Score: inf
ROOT
ATOM      1  C   UNL     1      28.851  -7.823 -31.836  1.00  0.00     0.027 C 
ENDROOT
BRANCH   1   2
ATOM      2  C   UNL     1      27.458  -7.673 -31.216  1.00  0.00     0.004 C 
BRANCH   2   3
ATOM      3  C   UNL     1      27.439  -8.085 -29.733  1.00  0.00     0.000 C 
BRANCH   3   4
ATOM      4  C   UNL     1      26.913  -6.959 -28.820  1.00  0.00     0.000 C 
BRANCH   4   5
ATOM      5  C   UNL     1      28.027  -6.107 -28.184  1.00  0.00     0.000 C 
BRANCH   5   6
ATOM      6  C   UNL     1      29.256  -6.901 -27.701  1.00  0.00     0.006 C 
BRANCH   6   7
ATOM      7  C   UNL     1      30.096  -6.177 -26.637  1.00  0.00     0.053 C 
BRANCH   7   8
ATOM      8  C   UNL     1      29.886  -6.755 -25.272  1.00  0.00     0.041 C 
ATOM      9  O   UNL     1      28.951  -7.574 -25.067  1.00  0.00    -0.550 OA
ATOM     10  O   UNL     1      30.701  -6.364 -24.218  1.00  0.00    -0.550 OA
ENDBRANCH   7   8
ENDBRANCH   6   7
ENDBRANCH   5   6
ENDBRANCH   4   5
ENDBRANCH   3   4
ENDBRANCH   2   3
ENDBRANCH   1   2
BRANCH   1  11
ATOM     11  C   UNL     1      29.772  -6.716 -31.381  1.00  0.00    -0.031 C 
ATOM     12  C   UNL     1      31.083  -6.863 -31.108  1.00  0.00    -0.027 C 
BRANCH  12  13
ATOM     13  C   UNL     1      31.838  -8.168 -31.173  1.00  0.00     0.054 C 
BRANCH  13  14
ATOM     14  C   UNL     1      32.841  -8.282 -30.057  1.00  0.00    -0.027 C 
ATOM     15  C   UNL     1      32.474  -8.218 -28.769  1.00  0.00    -0.031 C 
BRANCH  15  16
ATOM     16  C   UNL     1      33.459  -8.457 -27.655  1.00  0.00     0.027 C 
BRANCH  16  17
ATOM     17  C   UNL     1      32.765  -8.790 -26.324  1.00  0.00     0.004 C 
BRANCH  17  18
ATOM     18  C   UNL     1      31.876 -10.038 -26.424  1.00  0.00     0.000 C 
BRANCH  18  19
ATOM     19  C   UNL     1      31.156 -10.308 -25.098  1.00  0.00    -0.003 C 
ATOM     20  C   UNL     1      31.930  -9.719 -23.922  1.00  0.00     0.004 C 
ENDBRANCH  18  19
ENDBRANCH  17  18
ENDBRANCH  16  17
ENDBRANCH  15  16
ENDBRANCH  13  14
ENDBRANCH  12  13
ENDBRANCH   1  11
TORSDOF 14
ENDMDL
MODEL 8
REMARK VINA RESULT:    -3.272      3.080      5.951
REMARK INTER + INTRA:          -8.929
REMARK INTER:                  -6.903
REMARK INTRA:                  -2.025
REMARK UNBOUND:                -2.979
REMARK SMILES CCCCCC=CCC=CCCCCCCCC(=O)[O-]
REMARK SMILES IDX 11 1 12 2 13 3 14 4 15 5 16 6 17 7 18 8 19 9 20 10 10 11
REMARK SMILES IDX 9 12 8 13 7 14 6 15 5 16 4 17 3 18 2 19 1 20
REMARK H PARENT
REMARK Flexibility Score: inf
ROOT
ATOM      1  C   UNL     1      31.490  -6.137 -27.998  1.00  0.00     0.027 C 
ENDROOT
BRANCH   1   2
ATOM      2  C   UNL     1      30.097  -5.670 -27.565  1.00  0.00     0.004 C 
BRANCH   2   3
ATOM      3  C   UNL     1      29.236  -6.833 -27.041  1.00  0.00     0.000 C 
BRANCH   3   4
ATOM      4  C   UNL     1      27.785  -6.400 -26.746  1.00  0.00     0.000 C 
BRANCH   4   5
ATOM      5  C   UNL     1      26.749  -7.024 -27.701  1.00  0.00     0.000 C 
BRANCH   5   6
ATOM      6  C   UNL     1      26.900  -6.616 -29.179  1.00  0.00     0.006 C 
BRANCH   6   7
ATOM      7  C   UNL     1      27.288  -7.772 -30.115  1.00  0.00     0.053 C 
BRANCH   7   8
ATOM      8  C   UNL     1      28.349  -7.368 -31.090  1.00  0.00     0.041 C 
ATOM      9  O   UNL     1      28.786  -6.186 -31.099  1.00  0.00    -0.550 OA
ATOM     10  O   UNL     1      28.834  -8.286 -32.012  1.00  0.00    -0.550 OA
ENDBRANCH   7   8
ENDBRANCH   6   7
ENDBRANCH   5   6
ENDBRANCH   4   5
ENDBRANCH   3   4
ENDBRANCH   2   3
ENDBRANCH   1   2
BRANCH   1  11
ATOM     11  C   UNL     1      31.403  -7.328 -28.923  1.00  0.00    -0.031 C 
ATOM     12  C   UNL     1      31.968  -8.529 -28.693  1.00  0.00    -0.027 C 
BRANCH  12  13
ATOM     13  C   UNL     1      32.815  -8.870 -27.491  1.00  0.00     0.054 C 
BRANCH  13  14
ATOM     14  C   UNL     1      32.105  -9.822 -26.568  1.00  0.00    -0.027 C 
ATOM     15  C   UNL     1      31.736  -9.462 -25.330  1.00  0.00    -0.031 C 
BRANCH  15  16
ATOM     16  C   UNL     1      30.917 -10.373 -24.455  1.00  0.00     0.027 C 
BRANCH  16  17
ATOM     17  C   UNL     1      30.160  -9.604 -23.359  1.00  0.00     0.004 C 
BRANCH  17  18
ATOM     18  C   UNL     1      28.954  -8.830 -23.912  1.00  0.00     0.000 C 
BRANCH  18  19
ATOM     19  C   UNL     1      27.637  -9.431 -23.410  1.00  0.00    -0.003 C 
ATOM     20  C   UNL     1      26.437  -8.673 -23.969  1.00  0.00     0.004 C 
ENDBRANCH  18  19
ENDBRANCH  17  18
ENDBRANCH  16  17
ENDBRANCH  15  16
ENDBRANCH  13  14
ENDBRANCH  12  13
ENDBRANCH   1  11
TORSDOF 14
ENDMDL
MODEL 9
REMARK VINA RESULT:    -3.206      2.466      5.644
REMARK INTER + INTRA:          -8.809
REMARK INTER:                  -6.261
REMARK INTRA:                  -2.549
REMARK UNBOUND:                -2.979
REMARK SMILES CCCCCC=CCC=CCCCCCCCC(=O)[O-]
REMARK SMILES IDX 11 1 12 2 13 3 14 4 15 5 16 6 17 7 18 8 19 9 20 10 10 11
REMARK SMILES IDX 9 12 8 13 7 14 6 15 5 16 4 17 3 18 2 19 1 20
REMARK H PARENT
REMARK Flexibility Score: inf
ROOT
ATOM      1  C   UNL     1      26.950  -6.621 -29.098  1.00  0.00     0.027 C 
ENDROOT
BRANCH   1   2
ATOM      2  C   UNL     1      27.223  -7.922 -29.860  1.00  0.00     0.004 C 
BRANCH   2   3
ATOM      3  C   UNL     1      27.795  -7.658 -31.264  1.00  0.00     0.000 C 
BRANCH   3   4
ATOM      4  C   UNL     1      29.274  -7.220 -31.221  1.00  0.00     0.000 C 
BRANCH   4   5
ATOM      5  C   UNL     1      30.262  -8.347 -31.577  1.00  0.00     0.000 C 
BRANCH   5   6
ATOM      6  C   UNL     1      31.749  -7.951 -31.511  1.00  0.00     0.006 C 
BRANCH   6   7
ATOM      7  C   UNL     1      32.007  -6.443 -31.662  1.00  0.00     0.053 C 
BRANCH   7   8
ATOM      8  C   UNL     1      32.960  -5.933 -30.626  1.00  0.00     0.041 C 
ATOM      9  O   UNL     1      32.913  -4.730 -30.258  1.00  0.00    -0.550 OA
ATOM     10  O   UNL     1      33.922  -6.779 -30.090  1.00  0.00    -0.550 OA
ENDBRANCH   7   8
ENDBRANCH   6   7
ENDBRANCH   5   6
ENDBRANCH   4   5
ENDBRANCH   3   4
ENDBRANCH   2   3
ENDBRANCH   1   2
BRANCH   1  11
ATOM     11  C   UNL     1      27.338  -6.749 -27.643  1.00  0.00    -0.031 C 
ATOM     12  C   UNL     1      28.526  -6.384 -27.125  1.00  0.00    -0.027 C 
BRANCH  12  13
ATOM     13  C   UNL     1      29.681  -5.824 -27.920  1.00  0.00     0.054 C 
BRANCH  13  14
ATOM     14  C   UNL     1      30.905  -6.691 -27.800  1.00  0.00    -0.027 C 
ATOM     15  C   UNL     1      30.833  -8.028 -27.873  1.00  0.00    -0.031 C 
BRANCH  15  16
ATOM     16  C   UNL     1      32.071  -8.885 -27.878  1.00  0.00     0.027 C 
BRANCH  16  17
ATOM     17  C   UNL     1      32.053  -9.944 -26.763  1.00  0.00     0.004 C 
BRANCH  17  18
ATOM     18  C   UNL     1      31.336  -9.450 -25.498  1.00  0.00     0.000 C 
BRANCH  18  19
ATOM     19  C   UNL     1      32.325  -9.269 -24.341  1.00  0.00    -0.003 C 
ATOM     20  C   UNL     1      33.163  -8.007 -24.525  1.00  0.00     0.004 C 
ENDBRANCH  18  19
ENDBRANCH  17  18
ENDBRANCH  16  17
ENDBRANCH  15  16
ENDBRANCH  13  14
ENDBRANCH  12  13
ENDBRANCH   1  11
TORSDOF 14
ENDMDL
