MODEL 1
REMARK VINA RESULT:    -4.042      0.000      0.000
REMARK INTER + INTRA:          -8.430
REMARK INTER:                  -7.349
REMARK INTRA:                  -1.080
REMARK UNBOUND:                -1.080
REMARK SMILES CCCCCCCCCCCCCCCC(=O)[O-]
REMARK SMILES IDX 9 1 10 2 11 3 12 4 13 5 14 6 15 7 16 8 17 9 18 10 8 11 7 12
REMARK SMILES IDX 6 13 5 14 4 15 3 16 2 17 1 18
REMARK H PARENT
REMARK Flexibility Score: inf
ROOT
ATOM      1  C   UNL     1      57.581  37.431  53.338  1.00  0.00     0.000 C 
ENDROOT
BRANCH   1   2
ATOM      2  C   UNL     1      57.430  36.549  52.085  1.00  0.00     0.000 C 
BRANCH   2   3
ATOM      3  C   UNL     1      58.379  35.334  52.018  1.00  0.00     0.000 C 
BRANCH   3   4
ATOM      4  C   UNL     1      59.270  35.270  50.766  1.00  0.00     0.000 C 
BRANCH   4   5
ATOM      5  C   UNL     1      58.694  36.061  49.582  1.00  0.00     0.000 C 
BRANCH   5   6
ATOM      6  C   UNL     1      59.552  35.867  48.322  1.00  0.00     0.006 C 
BRANCH   6   7
ATOM      7  C   UNL     1      60.183  37.180  47.842  1.00  0.00     0.053 C 
BRANCH   7   8
ATOM      8  C   UNL     1      61.603  37.316  48.303  1.00  0.00     0.041 C 
ATOM      9  O   UNL     1      62.133  38.453  48.395  1.00  0.00    -0.550 OA
ATOM     10  O   UNL     1      62.327  36.187  48.663  1.00  0.00    -0.550 OA
ENDBRANCH   7   8
ENDBRANCH   6   7
ENDBRANCH   5   6
ENDBRANCH   4   5
ENDBRANCH   3   4
ENDBRANCH   2   3
ENDBRANCH   1   2
BRANCH   1  11
ATOM     11  C   UNL     1      58.215  36.680  54.521  1.00  0.00     0.000 C 
BRANCH  11  12
ATOM     12  C   UNL     1      59.250  37.534  55.273  1.00  0.00    -0.000 C 
BRANCH  12  13
ATOM     13  C   UNL     1      60.611  36.828  55.407  1.00  0.00    -0.000 C 
BRANCH  13  14
ATOM     14  C   UNL     1      61.355  37.224  56.693  1.00  0.00    -0.000 C 
BRANCH  14  15
ATOM     15  C   UNL     1      60.574  36.860  57.967  1.00  0.00    -0.000 C 
BRANCH  15  16
ATOM     16  C   UNL     1      60.132  38.097  58.770  1.00  0.00    -0.000 C 
BRANCH  16  17
ATOM     17  C   UNL     1      58.616  38.360  58.764  1.00  0.00    -0.003 C 
ATOM     18  C   UNL     1      58.229  39.615  57.982  1.00  0.00     0.004 C 
ENDBRANCH  16  17
ENDBRANCH  15  16
ENDBRANCH  14  15
ENDBRANCH  13  14
ENDBRANCH  12  13
ENDBRANCH  11  12
ENDBRANCH   1  11
TORSDOF 14
ENDMDL
MODEL 2
REMARK VINA RESULT:    -3.980      3.661      8.233
REMARK INTER + INTRA:          -8.318
REMARK INTER:                  -7.010
REMARK INTRA:                  -1.308
REMARK UNBOUND:                -1.080
REMARK SMILES CCCCCCCCCCCCCCCC(=O)[O-]
REMARK SMILES IDX 9 1 10 2 11 3 12 4 13 5 14 6 15 7 16 8 17 9 18 10 8 11 7 12
REMARK SMILES IDX 6 13 5 14 4 15 3 16 2 17 1 18
REMARK H PARENT
REMARK Flexibility Score: inf
ROOT
ATOM      1  C   UNL     1      58.350  36.033  50.320  1.00  0.00     0.000 C 
ENDROOT
BRANCH   1   2
ATOM      2  C   UNL     1      58.365  35.823  51.846  1.00  0.00     0.000 C 
BRANCH   2   3
ATOM      3  C   UNL     1      57.400  36.725  52.643  1.00  0.00     0.000 C 
BRANCH   3   4
ATOM      4  C   UNL     1      57.786  36.956  54.113  1.00  0.00     0.000 C 
BRANCH   4   5
ATOM      5  C   UNL     1      59.180  36.410  54.457  1.00  0.00     0.000 C 
BRANCH   5   6
ATOM      6  C   UNL     1      59.669  36.963  55.805  1.00  0.00     0.006 C 
BRANCH   6   7
ATOM      7  C   UNL     1      59.159  38.385  56.068  1.00  0.00     0.053 C 
BRANCH   7   8
ATOM      8  C   UNL     1      58.666  38.546  57.474  1.00  0.00     0.041 C 
ATOM      9  O   UNL     1      58.941  37.681  58.346  1.00  0.00    -0.550 OA
ATOM     10  O   UNL     1      57.930  39.670  57.828  1.00  0.00    -0.550 OA
ENDBRANCH   7   8
ENDBRANCH   6   7
ENDBRANCH   5   6
ENDBRANCH   4   5
ENDBRANCH   3   4
ENDBRANCH   2   3
ENDBRANCH   1   2
BRANCH   1  11
ATOM     11  C   UNL     1      59.079  34.913  49.558  1.00  0.00     0.000 C 
BRANCH  11  12
ATOM     12  C   UNL     1      58.949  35.059  48.033  1.00  0.00    -0.000 C 
BRANCH  12  13
ATOM     13  C   UNL     1      58.814  36.527  47.590  1.00  0.00    -0.000 C 
BRANCH  13  14
ATOM     14  C   UNL     1      59.858  36.920  46.532  1.00  0.00    -0.000 C 
BRANCH  14  15
ATOM     15  C   UNL     1      61.303  36.749  47.031  1.00  0.00    -0.000 C 
BRANCH  15  16
ATOM     16  C   UNL     1      61.631  37.652  48.234  1.00  0.00    -0.000 C 
BRANCH  16  17
ATOM     17  C   UNL     1      62.557  37.013  49.284  1.00  0.00    -0.003 C 
ATOM     18  C   UNL     1      62.851  35.540  49.006  1.00  0.00     0.004 C 
ENDBRANCH  16  17
ENDBRANCH  15  16
ENDBRANCH  14  15
ENDBRANCH  13  14
ENDBRANCH  12  13
ENDBRANCH  11  12
ENDBRANCH   1  11
TORSDOF 14
ENDMDL
MODEL 3
REMARK VINA RESULT:    -3.792     13.589     15.274
REMARK INTER + INTRA:          -7.976
REMARK INTER:                  -7.377
REMARK INTRA:                  -0.599
REMARK UNBOUND:                -1.080
REMARK SMILES CCCCCCCCCCCCCCCC(=O)[O-]
REMARK SMILES IDX 9 1 10 2 11 3 12 4 13 5 14 6 15 7 16 8 17 9 18 10 8 11 7 12
REMARK SMILES IDX 6 13 5 14 4 15 3 16 2 17 1 18
REMARK H PARENT
REMARK Flexibility Score: inf
ROOT
ATOM      1  C   UNL     1      68.381  49.225  56.570  1.00  0.00     0.000 C 
ENDROOT
BRANCH   1   2
ATOM      2  C   UNL     1      68.780  50.646  56.131  1.00  0.00     0.000 C 
BRANCH   2   3
ATOM      3  C   UNL     1      70.086  50.739  55.315  1.00  0.00     0.000 C 
BRANCH   3   4
ATOM      4  C   UNL     1      69.925  51.275  53.882  1.00  0.00     0.000 C 
BRANCH   4   5
ATOM      5  C   UNL     1      71.265  51.423  53.146  1.00  0.00     0.000 C 
BRANCH   5   6
ATOM      6  C   UNL     1      71.043  51.671  51.646  1.00  0.00     0.006 C 
BRANCH   6   7
ATOM      7  C   UNL     1      69.632  52.193  51.347  1.00  0.00     0.053 C 
BRANCH   7   8
ATOM      8  C   UNL     1      68.953  51.381  50.285  1.00  0.00     0.041 C 
ATOM      9  O   UNL     1      69.007  51.741  49.080  1.00  0.00    -0.550 OA
ATOM     10  O   UNL     1      68.289  50.209  50.625  1.00  0.00    -0.550 OA
ENDBRANCH   7   8
ENDBRANCH   6   7
ENDBRANCH   5   6
ENDBRANCH   4   5
ENDBRANCH   3   4
ENDBRANCH   2   3
ENDBRANCH   1   2
BRANCH   1  11
ATOM     11  C   UNL     1      67.286  49.222  57.650  1.00  0.00     0.000 C 
BRANCH  11  12
ATOM     12  C   UNL     1      67.083  47.833  58.278  1.00  0.00    -0.000 C 
BRANCH  12  13
ATOM     13  C   UNL     1      66.111  46.956  57.469  1.00  0.00    -0.000 C 
BRANCH  13  14
ATOM     14  C   UNL     1      65.003  46.345  58.342  1.00  0.00    -0.000 C 
BRANCH  14  15
ATOM     15  C   UNL     1      64.929  44.813  58.223  1.00  0.00    -0.000 C 
BRANCH  15  16
ATOM     16  C   UNL     1      65.717  44.270  57.017  1.00  0.00    -0.000 C 
BRANCH  16  17
ATOM     17  C   UNL     1      66.176  42.807  57.156  1.00  0.00    -0.003 C 
ATOM     18  C   UNL     1      67.004  42.557  58.415  1.00  0.00     0.004 C 
ENDBRANCH  16  17
ENDBRANCH  15  16
ENDBRANCH  14  15
ENDBRANCH  13  14
ENDBRANCH  12  13
ENDBRANCH  11  12
ENDBRANCH   1  11
TORSDOF 14
ENDMDL
MODEL 4
REMARK VINA RESULT:    -3.734      3.206      8.083
REMARK INTER + INTRA:          -7.871
REMARK INTER:                  -6.984
REMARK INTRA:                  -0.887
REMARK UNBOUND:                -1.080
REMARK SMILES CCCCCCCCCCCCCCCC(=O)[O-]
REMARK SMILES IDX 9 1 10 2 11 3 12 4 13 5 14 6 15 7 16 8 17 9 18 10 8 11 7 12
REMARK SMILES IDX 6 13 5 14 4 15 3 16 2 17 1 18
REMARK H PARENT
REMARK Flexibility Score: inf
ROOT
ATOM      1  C   UNL     1      57.835  37.470  53.585  1.00  0.00     0.000 C 
ENDROOT
BRANCH   1   2
ATOM      2  C   UNL     1      58.490  36.875  54.845  1.00  0.00     0.000 C 
BRANCH   2   3
ATOM      3  C   UNL     1      59.381  37.848  55.644  1.00  0.00     0.000 C 
BRANCH   3   4
ATOM      4  C   UNL     1      58.702  38.512  56.854  1.00  0.00     0.000 C 
BRANCH   4   5
ATOM      5  C   UNL     1      59.313  38.076  58.194  1.00  0.00     0.000 C 
BRANCH   5   6
ATOM      6  C   UNL     1      60.564  37.213  57.973  1.00  0.00     0.006 C 
BRANCH   6   7
ATOM      7  C   UNL     1      61.779  37.743  58.746  1.00  0.00     0.053 C 
BRANCH   7   8
ATOM      8  C   UNL     1      62.756  38.430  57.841  1.00  0.00     0.041 C 
ATOM      9  O   UNL     1      62.845  38.094  56.631  1.00  0.00    -0.550 OA
ATOM     10  O   UNL     1      63.546  39.464  58.328  1.00  0.00    -0.550 OA
ENDBRANCH   7   8
ENDBRANCH   6   7
ENDBRANCH   5   6
ENDBRANCH   4   5
ENDBRANCH   3   4
ENDBRANCH   2   3
ENDBRANCH   1   2
BRANCH   1  11
ATOM     11  C   UNL     1      57.461  36.399  52.546  1.00  0.00     0.000 C 
BRANCH  11  12
ATOM     12  C   UNL     1      58.484  35.252  52.489  1.00  0.00    -0.000 C 
BRANCH  12  13
ATOM     13  C   UNL     1      59.149  35.123  51.107  1.00  0.00    -0.000 C 
BRANCH  13  14
ATOM     14  C   UNL     1      58.478  36.011  50.046  1.00  0.00    -0.000 C 
BRANCH  14  15
ATOM     15  C   UNL     1      59.090  35.830  48.647  1.00  0.00    -0.000 C 
BRANCH  15  16
ATOM     16  C   UNL     1      60.621  35.988  48.639  1.00  0.00    -0.000 C 
BRANCH  16  17
ATOM     17  C   UNL     1      61.155  37.028  47.639  1.00  0.00    -0.003 C 
ATOM     18  C   UNL     1      61.958  38.143  48.307  1.00  0.00     0.004 C 
ENDBRANCH  16  17
ENDBRANCH  15  16
ENDBRANCH  14  15
ENDBRANCH  13  14
ENDBRANCH  12  13
ENDBRANCH  11  12
ENDBRANCH   1  11
TORSDOF 14
ENDMDL
MODEL 5
REMARK VINA RESULT:    -3.732     14.545     16.956
REMARK INTER + INTRA:          -7.867
REMARK INTER:                  -6.818
REMARK INTRA:                  -1.049
REMARK UNBOUND:                -1.080
REMARK SMILES CCCCCCCCCCCCCCCC(=O)[O-]
REMARK SMILES IDX 9 1 10 2 11 3 12 4 13 5 14 6 15 7 16 8 17 9 18 10 8 11 7 12
REMARK SMILES IDX 6 13 5 14 4 15 3 16 2 17 1 18
REMARK H PARENT
REMARK Flexibility Score: inf
ROOT
ATOM      1  C   UNL     1      68.459  50.652  55.433  1.00  0.00     0.000 C 
ENDROOT
BRANCH   1   2
ATOM      2  C   UNL     1      69.041  49.448  56.197  1.00  0.00     0.000 C 
BRANCH   2   3
ATOM      3  C   UNL     1      68.512  49.264  57.634  1.00  0.00     0.000 C 
BRANCH   3   4
ATOM      4  C   UNL     1      67.155  49.928  57.921  1.00  0.00     0.000 C 
BRANCH   4   5
ATOM      5  C   UNL     1      66.046  48.911  58.229  1.00  0.00     0.000 C 
BRANCH   5   6
ATOM      6  C   UNL     1      66.363  47.546  57.600  1.00  0.00     0.006 C 
BRANCH   6   7
ATOM      7  C   UNL     1      65.396  46.452  58.070  1.00  0.00     0.053 C 
BRANCH   7   8
ATOM      8  C   UNL     1      65.516  45.210  57.241  1.00  0.00     0.041 C 
ATOM      9  O   UNL     1      65.214  44.090  57.729  1.00  0.00    -0.550 OA
ATOM     10  O   UNL     1      65.932  45.295  55.918  1.00  0.00    -0.550 OA
ENDBRANCH   7   8
ENDBRANCH   6   7
ENDBRANCH   5   6
ENDBRANCH   4   5
ENDBRANCH   3   4
ENDBRANCH   2   3
ENDBRANCH   1   2
BRANCH   1  11
ATOM     11  C   UNL     1      69.485  51.780  55.228  1.00  0.00     0.000 C 
BRANCH  11  12
ATOM     12  C   UNL     1      70.915  51.247  55.044  1.00  0.00    -0.000 C 
BRANCH  12  13
ATOM     13  C   UNL     1      71.314  51.129  53.562  1.00  0.00    -0.000 C 
BRANCH  13  14
ATOM     14  C   UNL     1      70.946  52.383  52.752  1.00  0.00    -0.000 C 
BRANCH  14  15
ATOM     15  C   UNL     1      70.804  52.098  51.247  1.00  0.00    -0.000 C 
BRANCH  15  16
ATOM     16  C   UNL     1      69.416  52.473  50.697  1.00  0.00    -0.000 C 
BRANCH  16  17
ATOM     17  C   UNL     1      68.669  51.324  49.998  1.00  0.00    -0.003 C 
ATOM     18  C   UNL     1      68.289  50.191  50.951  1.00  0.00     0.004 C 
ENDBRANCH  16  17
ENDBRANCH  15  16
ENDBRANCH  14  15
ENDBRANCH  13  14
ENDBRANCH  12  13
ENDBRANCH  11  12
ENDBRANCH   1  11
TORSDOF 14
ENDMDL
MODEL 6
REMARK VINA RESULT:    -3.586     13.869     16.248
REMARK INTER + INTRA:          -7.602
REMARK INTER:                  -6.827
REMARK INTRA:                  -0.774
REMARK UNBOUND:                -1.080
REMARK SMILES CCCCCCCCCCCCCCCC(=O)[O-]
REMARK SMILES IDX 9 1 10 2 11 3 12 4 13 5 14 6 15 7 16 8 17 9 18 10 8 11 7 12
REMARK SMILES IDX 6 13 5 14 4 15 3 16 2 17 1 18
REMARK H PARENT
REMARK Flexibility Score: inf
ROOT
ATOM      1  C   UNL     1      68.741  49.262  56.777  1.00  0.00     0.000 C 
ENDROOT
BRANCH   1   2
ATOM      2  C   UNL     1      67.485  49.961  57.329  1.00  0.00     0.000 C 
BRANCH   2   3
ATOM      3  C   UNL     1      66.612  49.100  58.265  1.00  0.00     0.000 C 
BRANCH   3   4
ATOM      4  C   UNL     1      66.734  47.581  58.058  1.00  0.00     0.000 C 
BRANCH   4   5
ATOM      5  C   UNL     1      65.372  46.871  58.027  1.00  0.00     0.000 C 
BRANCH   5   6
ATOM      6  C   UNL     1      65.537  45.357  58.231  1.00  0.00     0.006 C 
BRANCH   6   7
ATOM      7  C   UNL     1      65.773  44.616  56.909  1.00  0.00     0.053 C 
BRANCH   7   8
ATOM      8  C   UNL     1      65.746  43.129  57.093  1.00  0.00     0.041 C 
ATOM      9  O   UNL     1      64.650  42.527  57.236  1.00  0.00    -0.550 OA
ATOM     10  O   UNL     1      66.932  42.405  57.074  1.00  0.00    -0.550 OA
ENDBRANCH   7   8
ENDBRANCH   6   7
ENDBRANCH   5   6
ENDBRANCH   4   5
ENDBRANCH   3   4
ENDBRANCH   2   3
ENDBRANCH   1   2
BRANCH   1  11
ATOM     11  C   UNL     1      69.664  50.220  56.004  1.00  0.00     0.000 C 
BRANCH  11  12
ATOM     12  C   UNL     1      69.042  50.697  54.682  1.00  0.00    -0.000 C 
BRANCH  12  13
ATOM     13  C   UNL     1      69.817  51.870  54.055  1.00  0.00    -0.000 C 
BRANCH  13  14
ATOM     14  C   UNL     1      71.188  51.443  53.507  1.00  0.00    -0.000 C 
BRANCH  14  15
ATOM     15  C   UNL     1      71.229  51.408  51.969  1.00  0.00    -0.000 C 
BRANCH  15  16
ATOM     16  C   UNL     1      70.532  52.621  51.326  1.00  0.00    -0.000 C 
BRANCH  16  17
ATOM     17  C   UNL     1      69.522  52.270  50.219  1.00  0.00    -0.003 C 
ATOM     18  C   UNL     1      68.748  50.983  50.501  1.00  0.00     0.004 C 
ENDBRANCH  16  17
ENDBRANCH  15  16
ENDBRANCH  14  15
ENDBRANCH  13  14
ENDBRANCH  12  13
ENDBRANCH  11  12
ENDBRANCH   1  11
TORSDOF 14
ENDMDL
MODEL 7
REMARK VINA RESULT:    -3.582     14.813     16.331
REMARK INTER + INTRA:          -7.595
REMARK INTER:                  -6.720
REMARK INTRA:                  -0.875
REMARK UNBOUND:                -1.080
REMARK SMILES CCCCCCCCCCCCCCCC(=O)[O-]
REMARK SMILES IDX 9 1 10 2 11 3 12 4 13 5 14 6 15 7 16 8 17 9 18 10 8 11 7 12
REMARK SMILES IDX 6 13 5 14 4 15 3 16 2 17 1 18
REMARK H PARENT
REMARK Flexibility Score: inf
ROOT
ATOM      1  C   UNL     1      69.642  51.382  56.475  1.00  0.00     0.000 C 
ENDROOT
BRANCH   1   2
ATOM      2  C   UNL     1      69.418  52.198  55.189  1.00  0.00     0.000 C 
BRANCH   2   3
ATOM      3  C   UNL     1      70.604  52.210  54.202  1.00  0.00     0.000 C 
BRANCH   3   4
ATOM      4  C   UNL     1      70.218  52.117  52.716  1.00  0.00     0.000 C 
BRANCH   4   5
ATOM      5  C   UNL     1      69.341  50.897  52.402  1.00  0.00     0.000 C 
BRANCH   5   6
ATOM      6  C   UNL     1      68.919  50.888  50.925  1.00  0.00     0.006 C 
BRANCH   6   7
ATOM      7  C   UNL     1      69.786  51.821  50.069  1.00  0.00     0.053 C 
BRANCH   7   8
ATOM      8  C   UNL     1      68.953  52.798  49.295  1.00  0.00     0.041 C 
ATOM      9  O   UNL     1      67.807  53.118  49.704  1.00  0.00    -0.550 OA
ATOM     10  O   UNL     1      69.459  53.378  48.139  1.00  0.00    -0.550 OA
ENDBRANCH   7   8
ENDBRANCH   6   7
ENDBRANCH   5   6
ENDBRANCH   4   5
ENDBRANCH   3   4
ENDBRANCH   2   3
ENDBRANCH   1   2
BRANCH   1  11
ATOM     11  C   UNL     1      69.734  49.870  56.212  1.00  0.00     0.000 C 
BRANCH  11  12
ATOM     12  C   UNL     1      68.432  49.131  56.562  1.00  0.00    -0.000 C 
BRANCH  12  13
ATOM     13  C   UNL     1      67.873  49.541  57.937  1.00  0.00    -0.000 C 
BRANCH  13  14
ATOM     14  C   UNL     1      66.452  49.005  58.177  1.00  0.00    -0.000 C 
BRANCH  14  15
ATOM     15  C   UNL     1      66.267  47.564  57.673  1.00  0.00    -0.000 C 
BRANCH  15  16
ATOM     16  C   UNL     1      65.163  46.804  58.430  1.00  0.00    -0.000 C 
BRANCH  16  17
ATOM     17  C   UNL     1      64.980  45.338  57.999  1.00  0.00    -0.003 C 
ATOM     18  C   UNL     1      65.745  44.990  56.722  1.00  0.00     0.004 C 
ENDBRANCH  16  17
ENDBRANCH  15  16
ENDBRANCH  14  15
ENDBRANCH  13  14
ENDBRANCH  12  13
ENDBRANCH  11  12
ENDBRANCH   1  11
TORSDOF 14
ENDMDL
MODEL 8
REMARK VINA RESULT:    -3.500     15.631     17.192
REMARK INTER + INTRA:          -7.444
REMARK INTER:                  -6.232
REMARK INTRA:                  -1.212
REMARK UNBOUND:                -1.080
REMARK SMILES CCCCCCCCCCCCCCCC(=O)[O-]
REMARK SMILES IDX 9 1 10 2 11 3 12 4 13 5 14 6 15 7 16 8 17 9 18 10 8 11 7 12
REMARK SMILES IDX 6 13 5 14 4 15 3 16 2 17 1 18
REMARK H PARENT
REMARK Flexibility Score: inf
ROOT
ATOM      1  C   UNL     1      69.724  49.851  56.248  1.00  0.00     0.000 C 
ENDROOT
BRANCH   1   2
ATOM      2  C   UNL     1      68.943  50.865  55.391  1.00  0.00     0.000 C 
BRANCH   2   3
ATOM      3  C   UNL     1      69.416  50.991  53.928  1.00  0.00     0.000 C 
BRANCH   3   4
ATOM      4  C   UNL     1      70.797  51.643  53.742  1.00  0.00     0.000 C 
BRANCH   4   5
ATOM      5  C   UNL     1      71.348  51.477  52.318  1.00  0.00     0.000 C 
BRANCH   5   6
ATOM      6  C   UNL     1      70.834  52.594  51.396  1.00  0.00     0.006 C 
BRANCH   6   7
ATOM      7  C   UNL     1      70.342  52.054  50.048  1.00  0.00     0.053 C 
BRANCH   7   8
ATOM      8  C   UNL     1      68.885  51.702  50.089  1.00  0.00     0.041 C 
ATOM      9  O   UNL     1      68.022  52.527  49.689  1.00  0.00    -0.550 OA
ATOM     10  O   UNL     1      68.485  50.450  50.538  1.00  0.00    -0.550 OA
ENDBRANCH   7   8
ENDBRANCH   6   7
ENDBRANCH   5   6
ENDBRANCH   4   5
ENDBRANCH   3   4
ENDBRANCH   2   3
ENDBRANCH   1   2
BRANCH   1  11
ATOM     11  C   UNL     1      69.015  49.521  57.572  1.00  0.00     0.000 C 
BRANCH  11  12
ATOM     12  C   UNL     1      67.720  48.720  57.363  1.00  0.00    -0.000 C 
BRANCH  12  13
ATOM     13  C   UNL     1      66.552  49.254  58.211  1.00  0.00    -0.000 C 
BRANCH  13  14
ATOM     14  C   UNL     1      66.863  50.619  58.846  1.00  0.00    -0.000 C 
BRANCH  14  15
ATOM     15  C   UNL     1      65.844  51.703  58.453  1.00  0.00    -0.000 C 
BRANCH  15  16
ATOM     16  C   UNL     1      66.157  52.350  57.091  1.00  0.00    -0.000 C 
BRANCH  16  17
ATOM     17  C   UNL     1      66.690  53.791  57.170  1.00  0.00    -0.003 C 
ATOM     18  C   UNL     1      65.597  54.844  56.995  1.00  0.00     0.004 C 
ENDBRANCH  16  17
ENDBRANCH  15  16
ENDBRANCH  14  15
ENDBRANCH  13  14
ENDBRANCH  12  13
ENDBRANCH  11  12
ENDBRANCH   1  11
TORSDOF 14
ENDMDL
MODEL 9
REMARK VINA RESULT:    -3.497     16.929     19.140
REMARK INTER + INTRA:          -7.440
REMARK INTER:                  -5.539
REMARK INTRA:                  -1.901
REMARK UNBOUND:                -1.080
REMARK SMILES CCCCCCCCCCCCCCCC(=O)[O-]
REMARK SMILES IDX 9 1 10 2 11 3 12 4 13 5 14 6 15 7 16 8 17 9 18 10 8 11 7 12
REMARK SMILES IDX 6 13 5 14 4 15 3 16 2 17 1 18
REMARK H PARENT
REMARK Flexibility Score: inf
ROOT
ATOM      1  C   UNL     1      69.216  50.913  53.057  1.00  0.00     0.000 C 
ENDROOT
BRANCH   1   2
ATOM      2  C   UNL     1      69.975  51.777  54.081  1.00  0.00     0.000 C 
BRANCH   2   3
ATOM      3  C   UNL     1      71.389  51.278  54.443  1.00  0.00     0.000 C 
BRANCH   3   4
ATOM      4  C   UNL     1      71.681  51.179  55.950  1.00  0.00     0.000 C 
BRANCH   4   5
ATOM      5  C   UNL     1      71.917  49.736  56.419  1.00  0.00     0.000 C 
BRANCH   5   6
ATOM      6  C   UNL     1      70.613  49.105  56.932  1.00  0.00     0.006 C 
BRANCH   6   7
ATOM      7  C   UNL     1      69.624  50.157  57.450  1.00  0.00     0.053 C 
BRANCH   7   8
ATOM      8  C   UNL     1      68.245  49.937  56.906  1.00  0.00     0.041 C 
ATOM      9  O   UNL     1      67.757  48.778  56.863  1.00  0.00    -0.550 OA
ATOM     10  O   UNL     1      67.487  51.019  56.477  1.00  0.00    -0.550 OA
ENDBRANCH   7   8
ENDBRANCH   6   7
ENDBRANCH   5   6
ENDBRANCH   4   5
ENDBRANCH   3   4
ENDBRANCH   2   3
ENDBRANCH   1   2
BRANCH   1  11
ATOM     11  C   UNL     1      69.798  51.022  51.638  1.00  0.00     0.000 C 
BRANCH  11  12
ATOM     12  C   UNL     1      68.716  50.928  50.549  1.00  0.00    -0.000 C 
BRANCH  12  13
ATOM     13  C   UNL     1      68.894  51.988  49.447  1.00  0.00    -0.000 C 
BRANCH  13  14
ATOM     14  C   UNL     1      68.196  53.314  49.788  1.00  0.00    -0.000 C 
BRANCH  14  15
ATOM     15  C   UNL     1      69.190  54.465  50.023  1.00  0.00    -0.000 C 
BRANCH  15  16
ATOM     16  C   UNL     1      69.458  54.727  51.517  1.00  0.00    -0.000 C 
BRANCH  16  17
ATOM     17  C   UNL     1      70.936  54.624  51.932  1.00  0.00    -0.003 C 
ATOM     18  C   UNL     1      71.816  53.985  50.859  1.00  0.00     0.004 C 
ENDBRANCH  16  17
ENDBRANCH  15  16
ENDBRANCH  14  15
ENDBRANCH  13  14
ENDBRANCH  12  13
ENDBRANCH  11  12
ENDBRANCH   1  11
TORSDOF 14
ENDMDL
