MODEL 1
REMARK VINA RESULT:    -4.870      0.000      0.000
REMARK INTER + INTRA:         -10.450
REMARK INTER:                  -9.425
REMARK INTRA:                  -1.025
REMARK UNBOUND:                -1.025
REMARK SMILES CCCCCCCCCCCCCCCCCC(=O)[O-]
REMARK SMILES IDX 10 1 11 2 12 3 13 4 14 5 15 6 16 7 17 8 18 9 19 10 20 11
REMARK SMILES IDX 9 12 8 13 7 14 6 15 5 16 4 17 3 18 2 19 1 20
REMARK H PARENT
REMARK Flexibility Score: inf
ROOT
ATOM      1  C   UNL     1       0.967  -1.758   5.298  1.00  0.00     0.000 C 
ENDROOT
BRANCH   1   2
ATOM      2  C   UNL     1       1.506  -0.363   5.646  1.00  0.00     0.000 C 
BRANCH   2   3
ATOM      3  C   UNL     1       1.264  -0.047   7.129  1.00  0.00     0.000 C 
BRANCH   3   4
ATOM      4  C   UNL     1       1.881   1.293   7.565  1.00  0.00     0.000 C 
BRANCH   4   5
ATOM      5  C   UNL     1       1.420   2.517   6.746  1.00  0.00     0.000 C 
BRANCH   5   6
ATOM      6  C   UNL     1       0.723   3.630   7.558  1.00  0.00     0.000 C 
BRANCH   6   7
ATOM      7  C   UNL     1       0.822   5.040   6.947  1.00  0.00     0.006 C 
BRANCH   7   8
ATOM      8  C   UNL     1      -0.535   5.597   6.503  1.00  0.00     0.053 C 
BRANCH   8   9
ATOM      9  C   UNL     1      -0.509   5.923   5.044  1.00  0.00     0.041 C 
ATOM     10  O   UNL     1       0.026   5.124   4.231  1.00  0.00    -0.550 OA
ATOM     11  O   UNL     1      -1.147   7.063   4.569  1.00  0.00    -0.550 OA
ENDBRANCH   8   9
ENDBRANCH   7   8
ENDBRANCH   6   7
ENDBRANCH   5   6
ENDBRANCH   4   5
ENDBRANCH   3   4
ENDBRANCH   2   3
ENDBRANCH   1   2
BRANCH   1  12
ATOM     12  C   UNL     1      -0.148  -2.227   6.250  1.00  0.00     0.000 C 
BRANCH  12  13
ATOM     13  C   UNL     1      -1.447  -2.669   5.552  1.00  0.00    -0.000 C 
BRANCH  13  14
ATOM     14  C   UNL     1      -1.857  -1.732   4.401  1.00  0.00    -0.000 C 
BRANCH  14  15
ATOM     15  C   UNL     1      -2.912  -2.350   3.472  1.00  0.00    -0.000 C 
BRANCH  15  16
ATOM     16  C   UNL     1      -4.354  -2.051   3.926  1.00  0.00    -0.000 C 
BRANCH  16  17
ATOM     17  C   UNL     1      -4.438  -0.784   4.793  1.00  0.00    -0.000 C 
BRANCH  17  18
ATOM     18  C   UNL     1      -4.956  -1.081   6.212  1.00  0.00    -0.000 C 
BRANCH  18  19
ATOM     19  C   UNL     1      -5.871   0.032   6.746  1.00  0.00    -0.003 C 
ATOM     20  C   UNL     1      -7.349  -0.362   6.730  1.00  0.00     0.004 C 
ENDBRANCH  18  19
ENDBRANCH  17  18
ENDBRANCH  16  17
ENDBRANCH  15  16
ENDBRANCH  14  15
ENDBRANCH  13  14
ENDBRANCH  12  13
ENDBRANCH   1  12
TORSDOF 16
ENDMDL
MODEL 2
REMARK VINA RESULT:    -4.808      1.121      1.860
REMARK INTER + INTRA:         -10.330
REMARK INTER:                  -9.117
REMARK INTRA:                  -1.213
REMARK UNBOUND:                -1.025
REMARK SMILES CCCCCCCCCCCCCCCCCC(=O)[O-]
REMARK SMILES IDX 10 1 11 2 12 3 13 4 14 5 15 6 16 7 17 8 18 9 19 10 20 11
REMARK SMILES IDX 9 12 8 13 7 14 6 15 5 16 4 17 3 18 2 19 1 20
REMARK H PARENT
REMARK Flexibility Score: inf
ROOT
ATOM      1  C   UNL     1       2.655  -0.865   6.354  1.00  0.00     0.000 C 
ENDROOT
BRANCH   1   2
ATOM      2  C   UNL     1       1.848   0.343   6.852  1.00  0.00     0.000 C 
BRANCH   2   3
ATOM      3  C   UNL     1       1.487   0.173   8.335  1.00  0.00     0.000 C 
BRANCH   3   4
ATOM      4  C   UNL     1       1.076   1.496   9.006  1.00  0.00     0.000 C 
BRANCH   4   5
ATOM      5  C   UNL     1       1.329   2.760   8.159  1.00  0.00     0.000 C 
BRANCH   5   6
ATOM      6  C   UNL     1       0.175   3.785   8.140  1.00  0.00     0.000 C 
BRANCH   6   7
ATOM      7  C   UNL     1       0.266   4.848   7.031  1.00  0.00     0.006 C 
BRANCH   7   8
ATOM      8  C   UNL     1       1.012   4.353   5.786  1.00  0.00     0.053 C 
BRANCH   8   9
ATOM      9  C   UNL     1       0.555   5.104   4.577  1.00  0.00     0.041 C 
ATOM     10  O   UNL     1      -0.591   5.622   4.554  1.00  0.00    -0.550 OA
ATOM     11  O   UNL     1       1.421   5.304   3.508  1.00  0.00    -0.550 OA
ENDBRANCH   8   9
ENDBRANCH   7   8
ENDBRANCH   6   7
ENDBRANCH   5   6
ENDBRANCH   4   5
ENDBRANCH   3   4
ENDBRANCH   2   3
ENDBRANCH   1   2
BRANCH   1  12
ATOM     12  C   UNL     1       1.802  -1.876   5.567  1.00  0.00     0.000 C 
BRANCH  12  13
ATOM     13  C   UNL     1       0.386  -1.386   5.214  1.00  0.00    -0.000 C 
BRANCH  13  14
ATOM     14  C   UNL     1      -0.717  -2.345   5.699  1.00  0.00    -0.000 C 
BRANCH  14  15
ATOM     15  C   UNL     1      -1.589  -2.883   4.554  1.00  0.00    -0.000 C 
BRANCH  15  16
ATOM     16  C   UNL     1      -2.520  -1.809   3.960  1.00  0.00    -0.000 C 
BRANCH  16  17
ATOM     17  C   UNL     1      -3.911  -2.372   3.621  1.00  0.00    -0.000 C 
BRANCH  17  18
ATOM     18  C   UNL     1      -5.047  -1.504   4.192  1.00  0.00    -0.000 C 
BRANCH  18  19
ATOM     19  C   UNL     1      -4.609  -0.709   5.433  1.00  0.00    -0.003 C 
ATOM     20  C   UNL     1      -5.256  -1.222   6.720  1.00  0.00     0.004 C 
ENDBRANCH  18  19
ENDBRANCH  17  18
ENDBRANCH  16  17
ENDBRANCH  15  16
ENDBRANCH  14  15
ENDBRANCH  13  14
ENDBRANCH  12  13
ENDBRANCH   1  12
TORSDOF 16
ENDMDL
MODEL 3
REMARK VINA RESULT:    -4.543      1.940      3.568
REMARK INTER + INTRA:          -9.817
REMARK INTER:                  -8.707
REMARK INTRA:                  -1.110
REMARK UNBOUND:                -1.025
REMARK SMILES CCCCCCCCCCCCCCCCCC(=O)[O-]
REMARK SMILES IDX 10 1 11 2 12 3 13 4 14 5 15 6 16 7 17 8 18 9 19 10 20 11
REMARK SMILES IDX 9 12 8 13 7 14 6 15 5 16 4 17 3 18 2 19 1 20
REMARK H PARENT
REMARK Flexibility Score: inf
ROOT
ATOM      1  C   UNL     1       1.716   1.574   7.099  1.00  0.00     0.000 C 
ENDROOT
BRANCH   1   2
ATOM      2  C   UNL     1       1.147   1.981   8.467  1.00  0.00     0.000 C 
BRANCH   2   3
ATOM      3  C   UNL     1       0.374   3.302   8.356  1.00  0.00     0.000 C 
BRANCH   3   4
ATOM      4  C   UNL     1       1.135   4.377   7.559  1.00  0.00     0.000 C 
BRANCH   4   5
ATOM      5  C   UNL     1       0.243   5.308   6.711  1.00  0.00     0.000 C 
BRANCH   5   6
ATOM      6  C   UNL     1       0.267   5.041   5.190  1.00  0.00     0.000 C 
BRANCH   6   7
ATOM      7  C   UNL     1       1.624   4.573   4.634  1.00  0.00     0.006 C 
BRANCH   7   8
ATOM      8  C   UNL     1       2.385   5.682   3.897  1.00  0.00     0.053 C 
BRANCH   8   9
ATOM      9  C   UNL     1       2.936   5.164   2.608  1.00  0.00     0.041 C 
ATOM     10  O   UNL     1       2.228   5.184   1.568  1.00  0.00    -0.550 OA
ATOM     11  O   UNL     1       4.256   4.735   2.532  1.00  0.00    -0.550 OA
ENDBRANCH   8   9
ENDBRANCH   7   8
ENDBRANCH   6   7
ENDBRANCH   5   6
ENDBRANCH   4   5
ENDBRANCH   3   4
ENDBRANCH   2   3
ENDBRANCH   1   2
BRANCH   1  12
ATOM     12  C   UNL     1       1.666   0.055   6.854  1.00  0.00     0.000 C 
BRANCH  12  13
ATOM     13  C   UNL     1       1.128  -0.357   5.472  1.00  0.00    -0.000 C 
BRANCH  13  14
ATOM     14  C   UNL     1       0.783  -1.855   5.387  1.00  0.00    -0.000 C 
BRANCH  14  15
ATOM     15  C   UNL     1      -0.212  -2.304   6.467  1.00  0.00    -0.000 C 
BRANCH  15  16
ATOM     16  C   UNL     1      -1.592  -2.672   5.890  1.00  0.00    -0.000 C 
BRANCH  16  17
ATOM     17  C   UNL     1      -1.805  -2.092   4.482  1.00  0.00    -0.000 C 
BRANCH  17  18
ATOM     18  C   UNL     1      -3.241  -2.314   3.971  1.00  0.00    -0.000 C 
BRANCH  18  19
ATOM     19  C   UNL     1      -4.109  -1.052   4.097  1.00  0.00    -0.003 C 
ATOM     20  C   UNL     1      -4.786  -0.938   5.463  1.00  0.00     0.004 C 
ENDBRANCH  18  19
ENDBRANCH  17  18
ENDBRANCH  16  17
ENDBRANCH  15  16
ENDBRANCH  14  15
ENDBRANCH  13  14
ENDBRANCH  12  13
ENDBRANCH   1  12
TORSDOF 16
ENDMDL
MODEL 4
REMARK VINA RESULT:    -4.489      4.669      7.840
REMARK INTER + INTRA:          -9.714
REMARK INTER:                  -8.228
REMARK INTRA:                  -1.486
REMARK UNBOUND:                -1.025
REMARK SMILES CCCCCCCCCCCCCCCCCC(=O)[O-]
REMARK SMILES IDX 10 1 11 2 12 3 13 4 14 5 15 6 16 7 17 8 18 9 19 10 20 11
REMARK SMILES IDX 9 12 8 13 7 14 6 15 5 16 4 17 3 18 2 19 1 20
REMARK H PARENT
REMARK Flexibility Score: inf
ROOT
ATOM      1  C   UNL     1      -5.260  -3.272   3.055  1.00  0.00     0.000 C 
ENDROOT
BRANCH   1   2
ATOM      2  C   UNL     1      -5.260  -2.315   4.256  1.00  0.00     0.000 C 
BRANCH   2   3
ATOM      3  C   UNL     1      -4.333  -1.120   3.991  1.00  0.00     0.000 C 
BRANCH   3   4
ATOM      4  C   UNL     1      -2.843  -1.504   3.998  1.00  0.00     0.000 C 
BRANCH   4   5
ATOM      5  C   UNL     1      -2.348  -2.157   5.305  1.00  0.00     0.000 C 
BRANCH   5   6
ATOM      6  C   UNL     1      -0.941  -2.790   5.235  1.00  0.00     0.000 C 
BRANCH   6   7
ATOM      7  C   UNL     1       0.112  -2.139   6.150  1.00  0.00     0.006 C 
BRANCH   7   8
ATOM      8  C   UNL     1       1.254  -1.475   5.371  1.00  0.00     0.053 C 
BRANCH   8   9
ATOM      9  C   UNL     1       2.472  -2.341   5.402  1.00  0.00     0.041 C 
ATOM     10  O   UNL     1       2.636  -3.165   6.340  1.00  0.00    -0.550 OA
ATOM     11  O   UNL     1       3.386  -2.303   4.354  1.00  0.00    -0.550 OA
ENDBRANCH   8   9
ENDBRANCH   7   8
ENDBRANCH   6   7
ENDBRANCH   5   6
ENDBRANCH   4   5
ENDBRANCH   3   4
ENDBRANCH   2   3
ENDBRANCH   1   2
BRANCH   1  12
ATOM     12  C   UNL     1      -5.016  -4.739   3.454  1.00  0.00     0.000 C 
BRANCH  12  13
ATOM     13  C   UNL     1      -3.536  -5.162   3.480  1.00  0.00    -0.000 C 
BRANCH  13  14
ATOM     14  C   UNL     1      -2.767  -4.726   2.219  1.00  0.00    -0.000 C 
BRANCH  14  15
ATOM     15  C   UNL     1      -3.005  -5.658   1.021  1.00  0.00    -0.000 C 
BRANCH  15  16
ATOM     16  C   UNL     1      -2.934  -4.921  -0.330  1.00  0.00    -0.000 C 
BRANCH  16  17
ATOM     17  C   UNL     1      -1.654  -5.264  -1.111  1.00  0.00    -0.000 C 
BRANCH  17  18
ATOM     18  C   UNL     1      -1.068  -4.039  -1.838  1.00  0.00    -0.000 C 
BRANCH  18  19
ATOM     19  C   UNL     1       0.053  -4.420  -2.817  1.00  0.00    -0.003 C 
ATOM     20  C   UNL     1       1.050  -5.411  -2.213  1.00  0.00     0.004 C 
ENDBRANCH  18  19
ENDBRANCH  17  18
ENDBRANCH  16  17
ENDBRANCH  15  16
ENDBRANCH  14  15
ENDBRANCH  13  14
ENDBRANCH  12  13
ENDBRANCH   1  12
TORSDOF 16
ENDMDL
MODEL 5
REMARK VINA RESULT:    -4.487      1.874      2.915
REMARK INTER + INTRA:          -9.708
REMARK INTER:                  -8.611
REMARK INTRA:                  -1.097
REMARK UNBOUND:                -1.025
REMARK SMILES CCCCCCCCCCCCCCCCCC(=O)[O-]
REMARK SMILES IDX 10 1 11 2 12 3 13 4 14 5 15 6 16 7 17 8 18 9 19 10 20 11
REMARK SMILES IDX 9 12 8 13 7 14 6 15 5 16 4 17 3 18 2 19 1 20
REMARK H PARENT
REMARK Flexibility Score: inf
ROOT
ATOM      1  C   UNL     1       2.180  -1.737   5.589  1.00  0.00     0.000 C 
ENDROOT
BRANCH   1   2
ATOM      2  C   UNL     1       2.659  -0.679   6.594  1.00  0.00     0.000 C 
BRANCH   2   3
ATOM      3  C   UNL     1       1.590   0.406   6.784  1.00  0.00     0.000 C 
BRANCH   3   4
ATOM      4  C   UNL     1       2.167   1.727   7.322  1.00  0.00     0.000 C 
BRANCH   4   5
ATOM      5  C   UNL     1       1.134   2.860   7.502  1.00  0.00     0.000 C 
BRANCH   5   6
ATOM      6  C   UNL     1       1.313   4.072   6.561  1.00  0.00     0.000 C 
BRANCH   6   7
ATOM      7  C   UNL     1       0.158   5.089   6.584  1.00  0.00     0.006 C 
BRANCH   7   8
ATOM      8  C   UNL     1      -0.266   5.547   5.184  1.00  0.00     0.053 C 
BRANCH   8   9
ATOM      9  C   UNL     1      -0.800   6.942   5.235  1.00  0.00     0.041 C 
ATOM     10  O   UNL     1      -1.244   7.406   6.318  1.00  0.00    -0.550 OA
ATOM     11  O   UNL     1      -0.733   7.760   4.113  1.00  0.00    -0.550 OA
ENDBRANCH   8   9
ENDBRANCH   7   8
ENDBRANCH   6   7
ENDBRANCH   5   6
ENDBRANCH   4   5
ENDBRANCH   3   4
ENDBRANCH   2   3
ENDBRANCH   1   2
BRANCH   1  12
ATOM     12  C   UNL     1       0.684  -1.609   5.249  1.00  0.00     0.000 C 
BRANCH  12  13
ATOM     13  C   UNL     1      -0.212  -2.702   5.859  1.00  0.00    -0.000 C 
BRANCH  13  14
ATOM     14  C   UNL     1      -1.711  -2.459   5.604  1.00  0.00    -0.000 C 
BRANCH  14  15
ATOM     15  C   UNL     1      -1.989  -1.818   4.236  1.00  0.00    -0.000 C 
BRANCH  15  16
ATOM     16  C   UNL     1      -3.485  -1.831   3.866  1.00  0.00    -0.000 C 
BRANCH  16  17
ATOM     17  C   UNL     1      -3.962  -3.227   3.432  1.00  0.00    -0.000 C 
BRANCH  17  18
ATOM     18  C   UNL     1      -2.957  -3.923   2.496  1.00  0.00    -0.000 C 
BRANCH  18  19
ATOM     19  C   UNL     1      -2.603  -5.342   2.969  1.00  0.00    -0.003 C 
ATOM     20  C   UNL     1      -3.065  -5.618   4.400  1.00  0.00     0.004 C 
ENDBRANCH  18  19
ENDBRANCH  17  18
ENDBRANCH  16  17
ENDBRANCH  15  16
ENDBRANCH  14  15
ENDBRANCH  13  14
ENDBRANCH  12  13
ENDBRANCH   1  12
TORSDOF 16
ENDMDL
MODEL 6
REMARK VINA RESULT:    -4.476      4.207      5.864
REMARK INTER + INTRA:          -9.687
REMARK INTER:                  -7.052
REMARK INTRA:                  -2.635
REMARK UNBOUND:                -1.025
REMARK SMILES CCCCCCCCCCCCCCCCCC(=O)[O-]
REMARK SMILES IDX 10 1 11 2 12 3 13 4 14 5 15 6 16 7 17 8 18 9 19 10 20 11
REMARK SMILES IDX 9 12 8 13 7 14 6 15 5 16 4 17 3 18 2 19 1 20
REMARK H PARENT
REMARK Flexibility Score: inf
ROOT
ATOM      1  C   UNL     1      -5.301  -4.935   4.872  1.00  0.00     0.000 C 
ENDROOT
BRANCH   1   2
ATOM      2  C   UNL     1      -4.947  -4.620   6.333  1.00  0.00     0.000 C 
BRANCH   2   3
ATOM      3  C   UNL     1      -3.479  -4.965   6.617  1.00  0.00     0.000 C 
BRANCH   3   4
ATOM      4  C   UNL     1      -2.613  -3.722   6.888  1.00  0.00     0.000 C 
BRANCH   4   5
ATOM      5  C   UNL     1      -1.171  -3.804   6.344  1.00  0.00     0.000 C 
BRANCH   5   6
ATOM      6  C   UNL     1      -0.302  -2.551   6.584  1.00  0.00     0.000 C 
BRANCH   6   7
ATOM      7  C   UNL     1       0.138  -1.810   5.309  1.00  0.00     0.006 C 
BRANCH   7   8
ATOM      8  C   UNL     1       1.310  -0.850   5.547  1.00  0.00     0.053 C 
BRANCH   8   9
ATOM      9  C   UNL     1       2.594  -1.611   5.621  1.00  0.00     0.041 C 
ATOM     10  O   UNL     1       3.045  -2.186   4.596  1.00  0.00    -0.550 OA
ATOM     11  O   UNL     1       3.339  -1.617   6.795  1.00  0.00    -0.550 OA
ENDBRANCH   8   9
ENDBRANCH   7   8
ENDBRANCH   6   7
ENDBRANCH   5   6
ENDBRANCH   4   5
ENDBRANCH   3   4
ENDBRANCH   2   3
ENDBRANCH   1   2
BRANCH   1  12
ATOM     12  C   UNL     1      -4.318  -5.919   4.214  1.00  0.00     0.000 C 
BRANCH  12  13
ATOM     13  C   UNL     1      -3.596  -5.373   2.969  1.00  0.00    -0.000 C 
BRANCH  13  14
ATOM     14  C   UNL     1      -3.824  -3.865   2.759  1.00  0.00    -0.000 C 
BRANCH  14  15
ATOM     15  C   UNL     1      -2.607  -3.015   3.155  1.00  0.00    -0.000 C 
BRANCH  15  16
ATOM     16  C   UNL     1      -2.997  -1.606   3.639  1.00  0.00    -0.000 C 
BRANCH  16  17
ATOM     17  C   UNL     1      -4.439  -1.554   4.173  1.00  0.00    -0.000 C 
BRANCH  17  18
ATOM     18  C   UNL     1      -4.511  -0.989   5.604  1.00  0.00    -0.000 C 
BRANCH  18  19
ATOM     19  C   UNL     1      -5.951  -0.930   6.138  1.00  0.00    -0.003 C 
ATOM     20  C   UNL     1      -6.213   0.316   6.984  1.00  0.00     0.004 C 
ENDBRANCH  18  19
ENDBRANCH  17  18
ENDBRANCH  16  17
ENDBRANCH  15  16
ENDBRANCH  14  15
ENDBRANCH  13  14
ENDBRANCH  12  13
ENDBRANCH   1  12
TORSDOF 16
ENDMDL
MODEL 7
REMARK VINA RESULT:    -4.466      4.511      6.391
REMARK INTER + INTRA:          -9.669
REMARK INTER:                  -7.005
REMARK INTRA:                  -2.664
REMARK UNBOUND:                -1.025
REMARK SMILES CCCCCCCCCCCCCCCCCC(=O)[O-]
REMARK SMILES IDX 10 1 11 2 12 3 13 4 14 5 15 6 16 7 17 8 18 9 19 10 20 11
REMARK SMILES IDX 9 12 8 13 7 14 6 15 5 16 4 17 3 18 2 19 1 20
REMARK H PARENT
REMARK Flexibility Score: inf
ROOT
ATOM      1  C   UNL     1      -5.308  -2.768   6.735  1.00  0.00     0.000 C 
ENDROOT
BRANCH   1   2
ATOM      2  C   UNL     1      -4.075  -2.259   7.496  1.00  0.00     0.000 C 
BRANCH   2   3
ATOM      3  C   UNL     1      -2.945  -3.297   7.444  1.00  0.00     0.000 C 
BRANCH   3   4
ATOM      4  C   UNL     1      -1.552  -2.660   7.296  1.00  0.00     0.000 C 
BRANCH   4   5
ATOM      5  C   UNL     1      -0.744  -3.143   6.073  1.00  0.00     0.000 C 
BRANCH   5   6
ATOM      6  C   UNL     1      -0.301  -2.034   5.094  1.00  0.00     0.000 C 
BRANCH   6   7
ATOM      7  C   UNL     1       0.962  -1.261   5.516  1.00  0.00     0.006 C 
BRANCH   7   8
ATOM      8  C   UNL     1       1.983  -2.136   6.252  1.00  0.00     0.053 C 
BRANCH   8   9
ATOM      9  C   UNL     1       3.315  -2.056   5.578  1.00  0.00     0.041 C 
ATOM     10  O   UNL     1       4.348  -1.813   6.254  1.00  0.00    -0.550 OA
ATOM     11  O   UNL     1       3.431  -2.331   4.220  1.00  0.00    -0.550 OA
ENDBRANCH   8   9
ENDBRANCH   7   8
ENDBRANCH   6   7
ENDBRANCH   5   6
ENDBRANCH   4   5
ENDBRANCH   3   4
ENDBRANCH   2   3
ENDBRANCH   1   2
BRANCH   1  12
ATOM     12  C   UNL     1      -5.529  -2.044   5.395  1.00  0.00     0.000 C 
BRANCH  12  13
ATOM     13  C   UNL     1      -4.438  -1.022   5.027  1.00  0.00    -0.000 C 
BRANCH  13  14
ATOM     14  C   UNL     1      -3.640  -1.424   3.773  1.00  0.00    -0.000 C 
BRANCH  14  15
ATOM     15  C   UNL     1      -3.905  -2.872   3.333  1.00  0.00    -0.000 C 
BRANCH  15  16
ATOM     16  C   UNL     1      -2.621  -3.608   2.905  1.00  0.00    -0.000 C 
BRANCH  16  17
ATOM     17  C   UNL     1      -2.697  -5.118   3.187  1.00  0.00    -0.000 C 
BRANCH  17  18
ATOM     18  C   UNL     1      -3.483  -5.432   4.473  1.00  0.00    -0.000 C 
BRANCH  18  19
ATOM     19  C   UNL     1      -2.701  -6.347   5.429  1.00  0.00    -0.003 C 
ATOM     20  C   UNL     1      -1.650  -7.191   4.707  1.00  0.00     0.004 C 
ENDBRANCH  18  19
ENDBRANCH  17  18
ENDBRANCH  16  17
ENDBRANCH  15  16
ENDBRANCH  14  15
ENDBRANCH  13  14
ENDBRANCH  12  13
ENDBRANCH   1  12
TORSDOF 16
ENDMDL
MODEL 8
REMARK VINA RESULT:    -4.454      4.409      6.013
REMARK INTER + INTRA:          -9.645
REMARK INTER:                  -6.819
REMARK INTRA:                  -2.826
REMARK UNBOUND:                -1.025
REMARK SMILES CCCCCCCCCCCCCCCCCC(=O)[O-]
REMARK SMILES IDX 10 1 11 2 12 3 13 4 14 5 15 6 16 7 17 8 18 9 19 10 20 11
REMARK SMILES IDX 9 12 8 13 7 14 6 15 5 16 4 17 3 18 2 19 1 20
REMARK H PARENT
REMARK Flexibility Score: inf
ROOT
ATOM      1  C   UNL     1      -4.533  -0.898   5.284  1.00  0.00     0.000 C 
ENDROOT
BRANCH   1   2
ATOM      2  C   UNL     1      -4.928  -2.112   6.137  1.00  0.00     0.000 C 
BRANCH   2   3
ATOM      3  C   UNL     1      -4.001  -2.239   7.354  1.00  0.00     0.000 C 
BRANCH   3   4
ATOM      4  C   UNL     1      -3.350  -3.629   7.469  1.00  0.00     0.000 C 
BRANCH   4   5
ATOM      5  C   UNL     1      -1.829  -3.614   7.725  1.00  0.00     0.000 C 
BRANCH   5   6
ATOM      6  C   UNL     1      -1.064  -2.432   7.091  1.00  0.00     0.000 C 
BRANCH   6   7
ATOM      7  C   UNL     1       0.069  -2.831   6.128  1.00  0.00     0.006 C 
BRANCH   7   8
ATOM      8  C   UNL     1       0.674  -1.634   5.385  1.00  0.00     0.053 C 
BRANCH   8   9
ATOM      9  C   UNL     1       2.164  -1.655   5.499  1.00  0.00     0.041 C 
ATOM     10  O   UNL     1       2.856  -2.216   4.609  1.00  0.00    -0.550 OA
ATOM     11  O   UNL     1       2.797  -0.984   6.540  1.00  0.00    -0.550 OA
ENDBRANCH   8   9
ENDBRANCH   7   8
ENDBRANCH   6   7
ENDBRANCH   5   6
ENDBRANCH   4   5
ENDBRANCH   3   4
ENDBRANCH   2   3
ENDBRANCH   1   2
BRANCH   1  12
ATOM     12  C   UNL     1      -3.999  -1.287   3.894  1.00  0.00     0.000 C 
BRANCH  12  13
ATOM     13  C   UNL     1      -2.556  -1.821   3.883  1.00  0.00    -0.000 C 
BRANCH  13  14
ATOM     14  C   UNL     1      -2.410  -3.136   3.096  1.00  0.00    -0.000 C 
BRANCH  14  15
ATOM     15  C   UNL     1      -2.627  -4.383   3.967  1.00  0.00    -0.000 C 
BRANCH  15  16
ATOM     16  C   UNL     1      -4.057  -4.946   3.855  1.00  0.00    -0.000 C 
BRANCH  16  17
ATOM     17  C   UNL     1      -4.497  -5.125   2.392  1.00  0.00    -0.000 C 
BRANCH  17  18
ATOM     18  C   UNL     1      -5.585  -4.117   1.982  1.00  0.00    -0.000 C 
BRANCH  18  19
ATOM     19  C   UNL     1      -6.516  -3.752   3.149  1.00  0.00    -0.003 C 
ATOM     20  C   UNL     1      -7.654  -2.822   2.726  1.00  0.00     0.004 C 
ENDBRANCH  18  19
ENDBRANCH  17  18
ENDBRANCH  16  17
ENDBRANCH  15  16
ENDBRANCH  14  15
ENDBRANCH  13  14
ENDBRANCH  12  13
ENDBRANCH   1  12
TORSDOF 16
ENDMDL
MODEL 9
REMARK VINA RESULT:    -4.384      4.100      5.587
REMARK INTER + INTRA:          -9.509
REMARK INTER:                  -6.810
REMARK INTRA:                  -2.700
REMARK UNBOUND:                -1.025
REMARK SMILES CCCCCCCCCCCCCCCCCC(=O)[O-]
REMARK SMILES IDX 10 1 11 2 12 3 13 4 14 5 15 6 16 7 17 8 18 9 19 10 20 11
REMARK SMILES IDX 9 12 8 13 7 14 6 15 5 16 4 17 3 18 2 19 1 20
REMARK H PARENT
REMARK Flexibility Score: inf
ROOT
ATOM      1  C   UNL     1      -2.949  -4.485   5.313  1.00  0.00     0.000 C 
ENDROOT
BRANCH   1   2
ATOM      2  C   UNL     1      -2.152  -5.558   6.069  1.00  0.00     0.000 C 
BRANCH   2   3
ATOM      3  C   UNL     1      -1.145  -4.906   7.026  1.00  0.00     0.000 C 
BRANCH   3   4
ATOM      4  C   UNL     1      -1.512  -3.456   7.385  1.00  0.00     0.000 C 
BRANCH   4   5
ATOM      5  C   UNL     1      -0.351  -2.445   7.274  1.00  0.00     0.000 C 
BRANCH   5   6
ATOM      6  C   UNL     1       0.472  -2.526   5.970  1.00  0.00     0.000 C 
BRANCH   6   7
ATOM      7  C   UNL     1       0.857  -1.167   5.360  1.00  0.00     0.006 C 
BRANCH   7   8
ATOM      8  C   UNL     1       1.846  -0.378   6.227  1.00  0.00     0.053 C 
BRANCH   8   9
ATOM      9  C   UNL     1       3.130  -1.132   6.363  1.00  0.00     0.041 C 
ATOM     10  O   UNL     1       3.606  -1.365   7.504  1.00  0.00    -0.550 OA
ATOM     11  O   UNL     1       3.760  -1.651   5.237  1.00  0.00    -0.550 OA
ENDBRANCH   8   9
ENDBRANCH   7   8
ENDBRANCH   6   7
ENDBRANCH   5   6
ENDBRANCH   4   5
ENDBRANCH   3   4
ENDBRANCH   2   3
ENDBRANCH   1   2
BRANCH   1  12
ATOM     12  C   UNL     1      -2.617  -4.434   3.811  1.00  0.00     0.000 C 
BRANCH  12  13
ATOM     13  C   UNL     1      -2.367  -3.022   3.253  1.00  0.00    -0.000 C 
BRANCH  13  14
ATOM     14  C   UNL     1      -2.641  -1.913   4.286  1.00  0.00    -0.000 C 
BRANCH  14  15
ATOM     15  C   UNL     1      -3.939  -1.142   4.007  1.00  0.00    -0.000 C 
BRANCH  15  16
ATOM     16  C   UNL     1      -4.914  -1.165   5.200  1.00  0.00    -0.000 C 
BRANCH  16  17
ATOM     17  C   UNL     1      -5.949  -2.296   5.082  1.00  0.00    -0.000 C 
BRANCH  17  18
ATOM     18  C   UNL     1      -6.376  -2.547   3.624  1.00  0.00    -0.000 C 
BRANCH  18  19
ATOM     19  C   UNL     1      -6.269  -4.028   3.229  1.00  0.00    -0.003 C 
ATOM     20  C   UNL     1      -5.688  -4.223   1.828  1.00  0.00     0.004 C 
ENDBRANCH  18  19
ENDBRANCH  17  18
ENDBRANCH  16  17
ENDBRANCH  15  16
ENDBRANCH  14  15
ENDBRANCH  13  14
ENDBRANCH  12  13
ENDBRANCH   1  12
TORSDOF 16
ENDMDL
