MODEL 1
REMARK VINA RESULT:    -6.140      0.000      0.000
REMARK INTER + INTRA:          -6.797
REMARK INTER:                  -6.499
REMARK INTRA:                  -0.298
REMARK UNBOUND:                -0.298
REMARK SMILES CC1=CC[C@@H]2[C@H]3[C@H](C(C)C)CC[C@]2(C)[C@@H]13
REMARK SMILES IDX 1 1 2 2 3 3 4 4 5 5 6 6 15 7 13 8 12 9 11 10 7 11 14 12 8 13
REMARK SMILES IDX 9 14 10 15
REMARK H PARENT
REMARK Flexibility Score: inf
ROOT
ATOM      1  C   UNL     1     -50.361 -51.055  14.844  1.00  0.00     0.039 C 
ATOM      2  C   UNL     1     -49.481 -50.996  16.055  1.00  0.00    -0.073 C 
ATOM      3  C   UNL     1     -48.457 -51.873  16.225  1.00  0.00    -0.027 C 
ATOM      4  C   UNL     1     -47.580 -51.753  17.476  1.00  0.00     0.031 C 
ATOM      5  C   UNL     1     -48.089 -50.590  18.388  1.00  0.00     0.003 C 
ATOM      6  C   UNL     1     -49.624 -50.732  18.510  1.00  0.00     0.004 C 
ATOM      7  C   UNL     1     -49.705 -49.965  17.164  1.00  0.00     0.024 C 
ATOM      8  C   UNL     1     -48.366 -49.305  17.571  1.00  0.00    -0.022 C 
ATOM      9  C   UNL     1     -48.615 -48.120  18.556  1.00  0.00     0.008 C 
ATOM     10  C   UNL     1     -49.843 -48.359  19.476  1.00  0.00     0.005 C 
ATOM     11  C   UNL     1     -50.132 -49.874  19.707  1.00  0.00    -0.005 C 
ATOM     12  C   UNL     1     -47.366 -48.901  16.462  1.00  0.00     0.012 C 
ENDROOT
BRANCH  11  13
ATOM     13  C   UNL     1     -51.611 -50.196  20.078  1.00  0.00    -0.014 C 
ATOM     14  C   UNL     1     -51.908 -51.695  20.250  1.00  0.00     0.007 C 
ATOM     15  C   UNL     1     -52.595 -49.568  19.079  1.00  0.00     0.007 C 
ENDBRANCH  11  13
TORSDOF 1
ENDMDL
MODEL 2
REMARK VINA RESULT:    -5.895     13.128     14.907
REMARK INTER + INTRA:          -6.538
REMARK INTER:                  -6.161
REMARK INTRA:                  -0.377
REMARK UNBOUND:                -0.298
REMARK SMILES CC1=CC[C@@H]2[C@H]3[C@H](C(C)C)CC[C@]2(C)[C@@H]13
REMARK SMILES IDX 1 1 2 2 3 3 4 4 5 5 6 6 15 7 13 8 12 9 11 10 7 11 14 12 8 13
REMARK SMILES IDX 9 14 10 15
REMARK H PARENT
REMARK Flexibility Score: inf
ROOT
ATOM      1  C   UNL     1     -43.295 -51.891  34.125  1.00  0.00     0.039 C 
ATOM      2  C   UNL     1     -44.438 -51.666  33.182  1.00  0.00    -0.073 C 
ATOM      3  C   UNL     1     -45.492 -52.522  33.136  1.00  0.00    -0.027 C 
ATOM      4  C   UNL     1     -46.640 -52.230  32.164  1.00  0.00     0.031 C 
ATOM      5  C   UNL     1     -46.339 -50.938  31.337  1.00  0.00     0.003 C 
ATOM      6  C   UNL     1     -44.881 -51.039  30.831  1.00  0.00     0.004 C 
ATOM      7  C   UNL     1     -44.463 -50.479  32.216  1.00  0.00     0.024 C 
ATOM      8  C   UNL     1     -45.846 -49.784  32.243  1.00  0.00    -0.022 C 
ATOM      9  C   UNL     1     -45.814 -48.464  31.412  1.00  0.00     0.008 C 
ATOM     10  C   UNL     1     -44.848 -48.547  30.200  1.00  0.00     0.005 C 
ATOM     11  C   UNL     1     -44.655 -50.007  29.686  1.00  0.00    -0.005 C 
ATOM     12  C   UNL     1     -46.542 -49.563  33.607  1.00  0.00     0.012 C 
ENDROOT
BRANCH  11  13
ATOM     13  C   UNL     1     -43.315 -50.249  28.928  1.00  0.00    -0.014 C 
ATOM     14  C   UNL     1     -42.533 -51.484  29.407  1.00  0.00     0.007 C 
ATOM     15  C   UNL     1     -42.417 -49.004  28.955  1.00  0.00     0.007 C 
ENDBRANCH  11  13
TORSDOF 1
ENDMDL
MODEL 3
REMARK VINA RESULT:    -5.774      3.680      6.030
REMARK INTER + INTRA:          -6.409
REMARK INTER:                  -6.230
REMARK INTRA:                  -0.179
REMARK UNBOUND:                -0.298
REMARK SMILES CC1=CC[C@@H]2[C@H]3[C@H](C(C)C)CC[C@]2(C)[C@@H]13
REMARK SMILES IDX 1 1 2 2 3 3 4 4 5 5 6 6 15 7 13 8 12 9 11 10 7 11 14 12 8 13
REMARK SMILES IDX 9 14 10 15
REMARK H PARENT
REMARK Flexibility Score: inf
ROOT
ATOM      1  C   UNL     1     -50.114 -48.796  19.891  1.00  0.00     0.039 C 
ATOM      2  C   UNL     1     -50.806 -48.680  21.217  1.00  0.00    -0.073 C 
ATOM      3  C   UNL     1     -50.387 -49.393  22.294  1.00  0.00    -0.027 C 
ATOM      4  C   UNL     1     -51.123 -49.219  23.628  1.00  0.00     0.031 C 
ATOM      5  C   UNL     1     -52.310 -48.215  23.467  1.00  0.00     0.003 C 
ATOM      6  C   UNL     1     -53.081 -48.605  22.184  1.00  0.00     0.004 C 
ATOM      7  C   UNL     1     -52.024 -47.773  21.411  1.00  0.00     0.024 C 
ATOM      8  C   UNL     1     -51.877 -46.938  22.707  1.00  0.00    -0.022 C 
ATOM      9  C   UNL     1     -53.016 -45.876  22.806  1.00  0.00     0.008 C 
ATOM     10  C   UNL     1     -54.344 -46.367  22.171  1.00  0.00     0.005 C 
ATOM     11  C   UNL     1     -54.480 -47.921  22.189  1.00  0.00    -0.005 C 
ATOM     12  C   UNL     1     -50.503 -46.308  23.036  1.00  0.00     0.012 C 
ENDROOT
BRANCH  11  13
ATOM     13  C   UNL     1     -55.423 -48.496  21.089  1.00  0.00    -0.014 C 
ATOM     14  C   UNL     1     -54.847 -48.427  19.664  1.00  0.00     0.007 C 
ATOM     15  C   UNL     1     -56.812 -47.841  21.136  1.00  0.00     0.007 C 
ENDBRANCH  11  13
TORSDOF 1
ENDMDL
MODEL 4
REMARK VINA RESULT:    -5.689     12.611     13.866
REMARK INTER + INTRA:          -6.319
REMARK INTER:                  -6.074
REMARK INTRA:                  -0.245
REMARK UNBOUND:                -0.298
REMARK SMILES CC1=CC[C@@H]2[C@H]3[C@H](C(C)C)CC[C@]2(C)[C@@H]13
REMARK SMILES IDX 1 1 2 2 3 3 4 4 5 5 6 6 15 7 13 8 12 9 11 10 7 11 14 12 8 13
REMARK SMILES IDX 9 14 10 15
REMARK H PARENT
REMARK Flexibility Score: inf
ROOT
ATOM      1  C   UNL     1     -44.341 -47.143  29.063  1.00  0.00     0.039 C 
ATOM      2  C   UNL     1     -43.909 -48.578  29.068  1.00  0.00    -0.073 C 
ATOM      3  C   UNL     1     -43.620 -49.231  27.913  1.00  0.00    -0.027 C 
ATOM      4  C   UNL     1     -43.166 -50.693  27.983  1.00  0.00     0.031 C 
ATOM      5  C   UNL     1     -43.157 -51.190  29.465  1.00  0.00     0.003 C 
ATOM      6  C   UNL     1     -44.488 -50.743  30.115  1.00  0.00     0.004 C 
ATOM      7  C   UNL     1     -43.794 -49.378  30.368  1.00  0.00     0.024 C 
ATOM      8  C   UNL     1     -42.465 -50.171  30.402  1.00  0.00    -0.022 C 
ATOM      9  C   UNL     1     -42.254 -50.829  31.801  1.00  0.00     0.008 C 
ATOM     10  C   UNL     1     -43.592 -51.242  32.472  1.00  0.00     0.005 C 
ATOM     11  C   UNL     1     -44.716 -51.541  31.433  1.00  0.00    -0.005 C 
ATOM     12  C   UNL     1     -41.170 -49.477  29.917  1.00  0.00     0.012 C 
ENDROOT
BRANCH  11  13
ATOM     13  C   UNL     1     -46.163 -51.366  31.985  1.00  0.00    -0.014 C 
ATOM     14  C   UNL     1     -46.895 -50.121  31.457  1.00  0.00     0.007 C 
ATOM     15  C   UNL     1     -46.189 -51.391  33.521  1.00  0.00     0.007 C 
ENDBRANCH  11  13
TORSDOF 1
ENDMDL
MODEL 5
REMARK VINA RESULT:    -5.687      4.625      6.556
REMARK INTER + INTRA:          -6.317
REMARK INTER:                  -6.007
REMARK INTRA:                  -0.310
REMARK UNBOUND:                -0.298
REMARK SMILES CC1=CC[C@@H]2[C@H]3[C@H](C(C)C)CC[C@]2(C)[C@@H]13
REMARK SMILES IDX 1 1 2 2 3 3 4 4 5 5 6 6 15 7 13 8 12 9 11 10 7 11 14 12 8 13
REMARK SMILES IDX 9 14 10 15
REMARK H PARENT
REMARK Flexibility Score: inf
ROOT
ATOM      1  C   UNL     1     -48.505 -47.756  21.631  1.00  0.00     0.039 C 
ATOM      2  C   UNL     1     -49.519 -48.273  22.607  1.00  0.00    -0.073 C 
ATOM      3  C   UNL     1     -49.326 -49.444  23.268  1.00  0.00    -0.027 C 
ATOM      4  C   UNL     1     -50.390 -49.914  24.267  1.00  0.00     0.031 C 
ATOM      5  C   UNL     1     -51.583 -48.904  24.307  1.00  0.00     0.003 C 
ATOM      6  C   UNL     1     -51.962 -48.574  22.844  1.00  0.00     0.004 C 
ATOM      7  C   UNL     1     -50.823 -47.522  22.887  1.00  0.00     0.024 C 
ATOM      8  C   UNL     1     -51.087 -47.441  24.410  1.00  0.00    -0.022 C 
ATOM      9  C   UNL     1     -52.305 -46.512  24.707  1.00  0.00     0.008 C 
ATOM     10  C   UNL     1     -53.377 -46.560  23.586  1.00  0.00     0.005 C 
ATOM     11  C   UNL     1     -53.372 -47.913  22.809  1.00  0.00    -0.005 C 
ATOM     12  C   UNL     1     -49.905 -47.123  25.356  1.00  0.00     0.012 C 
ENDROOT
BRANCH  11  13
ATOM     13  C   UNL     1     -53.948 -47.825  21.363  1.00  0.00    -0.014 C 
ATOM     14  C   UNL     1     -55.484 -47.849  21.293  1.00  0.00     0.007 C 
ATOM     15  C   UNL     1     -53.354 -48.909  20.451  1.00  0.00     0.007 C 
ENDBRANCH  11  13
TORSDOF 1
ENDMDL
MODEL 6
REMARK VINA RESULT:    -5.661     11.510     13.121
REMARK INTER + INTRA:          -6.290
REMARK INTER:                  -5.926
REMARK INTRA:                  -0.364
REMARK UNBOUND:                -0.298
REMARK SMILES CC1=CC[C@@H]2[C@H]3[C@H](C(C)C)CC[C@]2(C)[C@@H]13
REMARK SMILES IDX 1 1 2 2 3 3 4 4 5 5 6 6 15 7 13 8 12 9 11 10 7 11 14 12 8 13
REMARK SMILES IDX 9 14 10 15
REMARK H PARENT
REMARK Flexibility Score: inf
ROOT
ATOM      1  C   UNL     1     -44.746 -48.497  30.414  1.00  0.00     0.039 C 
ATOM      2  C   UNL     1     -44.128 -48.742  29.070  1.00  0.00    -0.073 C 
ATOM      3  C   UNL     1     -44.493 -49.808  28.312  1.00  0.00    -0.027 C 
ATOM      4  C   UNL     1     -43.839 -49.997  26.938  1.00  0.00     0.031 C 
ATOM      5  C   UNL     1     -42.787 -48.871  26.677  1.00  0.00     0.003 C 
ATOM      6  C   UNL     1     -41.922 -48.736  27.953  1.00  0.00     0.004 C 
ATOM      7  C   UNL     1     -43.047 -47.820  28.502  1.00  0.00     0.024 C 
ATOM      8  C   UNL     1     -43.351 -47.472  27.024  1.00  0.00    -0.022 C 
ATOM      9  C   UNL     1     -42.364 -46.382  26.503  1.00  0.00     0.008 C 
ATOM     10  C   UNL     1     -40.959 -46.490  27.155  1.00  0.00     0.005 C 
ATOM     11  C   UNL     1     -40.625 -47.941  27.620  1.00  0.00    -0.005 C 
ATOM     12  C   UNL     1     -44.807 -47.138  26.622  1.00  0.00     0.012 C 
ENDROOT
BRANCH  11  13
ATOM     13  C   UNL     1     -39.573 -48.021  28.767  1.00  0.00    -0.014 C 
ATOM     14  C   UNL     1     -40.019 -48.860  29.976  1.00  0.00     0.007 C 
ATOM     15  C   UNL     1     -39.126 -46.623  29.223  1.00  0.00     0.007 C 
ENDBRANCH  11  13
TORSDOF 1
ENDMDL
MODEL 7
REMARK VINA RESULT:    -5.620     11.604     12.979
REMARK INTER + INTRA:          -6.246
REMARK INTER:                  -5.976
REMARK INTRA:                  -0.271
REMARK UNBOUND:                -0.298
REMARK SMILES CC1=CC[C@@H]2[C@H]3[C@H](C(C)C)CC[C@]2(C)[C@@H]13
REMARK SMILES IDX 1 1 2 2 3 3 4 4 5 5 6 6 15 7 13 8 12 9 11 10 7 11 14 12 8 13
REMARK SMILES IDX 9 14 10 15
REMARK H PARENT
REMARK Flexibility Score: inf
ROOT
ATOM      1  C   UNL     1     -39.293 -48.535  28.540  1.00  0.00     0.039 C 
ATOM      2  C   UNL     1     -40.654 -47.997  28.214  1.00  0.00    -0.073 C 
ATOM      3  C   UNL     1     -40.839 -46.686  27.911  1.00  0.00    -0.027 C 
ATOM      4  C   UNL     1     -42.251 -46.197  27.569  1.00  0.00     0.031 C 
ATOM      5  C   UNL     1     -43.275 -47.374  27.677  1.00  0.00     0.003 C 
ATOM      6  C   UNL     1     -42.994 -48.115  29.006  1.00  0.00     0.004 C 
ATOM      7  C   UNL     1     -41.897 -48.890  28.230  1.00  0.00     0.024 C 
ATOM      8  C   UNL     1     -42.756 -48.647  26.966  1.00  0.00    -0.022 C 
ATOM      9  C   UNL     1     -43.915 -49.689  26.882  1.00  0.00     0.008 C 
ATOM     10  C   UNL     1     -44.433 -50.118  28.281  1.00  0.00     0.005 C 
ATOM     11  C   UNL     1     -44.211 -49.018  29.365  1.00  0.00    -0.005 C 
ATOM     12  C   UNL     1     -42.047 -48.497  25.600  1.00  0.00     0.012 C 
ENDROOT
BRANCH  11  13
ATOM     13  C   UNL     1     -44.134 -49.561  30.823  1.00  0.00    -0.014 C 
ATOM     14  C   UNL     1     -43.446 -50.931  30.952  1.00  0.00     0.007 C 
ATOM     15  C   UNL     1     -45.518 -49.593  31.489  1.00  0.00     0.007 C 
ENDBRANCH  11  13
TORSDOF 1
ENDMDL
MODEL 8
REMARK VINA RESULT:    -5.599      2.992      6.175
REMARK INTER + INTRA:          -6.224
REMARK INTER:                  -5.981
REMARK INTRA:                  -0.243
REMARK UNBOUND:                -0.298
REMARK SMILES CC1=CC[C@@H]2[C@H]3[C@H](C(C)C)CC[C@]2(C)[C@@H]13
REMARK SMILES IDX 1 1 2 2 3 3 4 4 5 5 6 6 15 7 13 8 12 9 11 10 7 11 14 12 8 13
REMARK SMILES IDX 9 14 10 15
REMARK H PARENT
REMARK Flexibility Score: inf
ROOT
ATOM      1  C   UNL     1     -54.614 -48.504  21.365  1.00  0.00     0.039 C 
ATOM      2  C   UNL     1     -53.326 -47.929  21.873  1.00  0.00    -0.073 C 
ATOM      3  C   UNL     1     -53.287 -46.712  22.476  1.00  0.00    -0.027 C 
ATOM      4  C   UNL     1     -51.943 -46.185  22.991  1.00  0.00     0.031 C 
ATOM      5  C   UNL     1     -50.800 -47.203  22.671  1.00  0.00     0.003 C 
ATOM      6  C   UNL     1     -50.965 -47.640  21.196  1.00  0.00     0.004 C 
ATOM      7  C   UNL     1     -51.998 -48.673  21.719  1.00  0.00     0.024 C 
ATOM      8  C   UNL     1     -51.203 -48.649  23.048  1.00  0.00    -0.022 C 
ATOM      9  C   UNL     1     -49.946 -49.569  22.952  1.00  0.00     0.008 C 
ATOM     10  C   UNL     1     -49.348 -49.612  21.521  1.00  0.00     0.005 C 
ATOM     11  C   UNL     1     -49.651 -48.317  20.704  1.00  0.00    -0.005 C 
ATOM     12  C   UNL     1     -51.962 -48.886  24.374  1.00  0.00     0.012 C 
ENDROOT
BRANCH  11  13
ATOM     13  C   UNL     1     -49.631 -48.514  19.159  1.00  0.00    -0.014 C 
ATOM     14  C   UNL     1     -49.583 -49.985  18.709  1.00  0.00     0.007 C 
ATOM     15  C   UNL     1     -48.494 -47.717  18.502  1.00  0.00     0.007 C 
ENDBRANCH  11  13
TORSDOF 1
ENDMDL
MODEL 9
REMARK VINA RESULT:    -5.544     10.956     12.167
REMARK INTER + INTRA:          -6.166
REMARK INTER:                  -5.738
REMARK INTRA:                  -0.428
REMARK UNBOUND:                -0.298
REMARK SMILES CC1=CC[C@@H]2[C@H]3[C@H](C(C)C)CC[C@]2(C)[C@@H]13
REMARK SMILES IDX 1 1 2 2 3 3 4 4 5 5 6 6 15 7 13 8 12 9 11 10 7 11 14 12 8 13
REMARK SMILES IDX 9 14 10 15
REMARK H PARENT
REMARK Flexibility Score: inf
ROOT
ATOM      1  C   UNL     1     -44.004 -50.052  24.935  1.00  0.00     0.039 C 
ATOM      2  C   UNL     1     -43.263 -49.193  25.915  1.00  0.00    -0.073 C 
ATOM      3  C   UNL     1     -42.125 -48.540  25.561  1.00  0.00    -0.027 C 
ATOM      4  C   UNL     1     -41.421 -47.663  26.601  1.00  0.00     0.031 C 
ATOM      5  C   UNL     1     -42.180 -47.722  27.967  1.00  0.00     0.003 C 
ATOM      6  C   UNL     1     -42.489 -49.208  28.264  1.00  0.00     0.004 C 
ATOM      7  C   UNL     1     -43.738 -49.030  27.361  1.00  0.00     0.024 C 
ATOM      8  C   UNL     1     -43.706 -47.539  27.778  1.00  0.00    -0.022 C 
ATOM      9  C   UNL     1     -44.371 -47.346  29.176  1.00  0.00     0.008 C 
ATOM     10  C   UNL     1     -44.162 -48.570  30.109  1.00  0.00     0.005 C 
ATOM     11  C   UNL     1     -42.867 -49.370  29.766  1.00  0.00    -0.005 C 
ATOM     12  C   UNL     1     -44.207 -46.474  26.775  1.00  0.00     0.012 C 
ENDROOT
BRANCH  11  13
ATOM     13  C   UNL     1     -42.900 -50.864  30.209  1.00  0.00    -0.014 C 
ATOM     14  C   UNL     1     -42.122 -51.814  29.284  1.00  0.00     0.007 C 
ATOM     15  C   UNL     1     -44.339 -51.365  30.402  1.00  0.00     0.007 C 
ENDBRANCH  11  13
TORSDOF 1
ENDMDL
