MODEL 1
REMARK VINA RESULT:    15.104      0.000      0.000
REMARK INTER + INTRA:          18.594
REMARK INTER:                  18.194
REMARK INTRA:                   0.400
REMARK UNBOUND:                 0.400
REMARK SMILES [NH3+][C@H](Cc1c[nH]c2ccccc12)C(=O)[O-]
REMARK SMILES IDX 3 1 2 2 1 3 13 7 14 8 15 9 4 10 12 11 5 12 7 13 11 14 6 15
REMARK SMILES IDX 8 16 10 17 9 19
REMARK H PARENT 1 4 1 5 1 6 6 18
REMARK Flexibility Score: inf
ROOT
ATOM      1  C   UNL     1      31.984   1.074  11.711  1.00  0.00     0.109 C 
ENDROOT
BRANCH   1   2
ATOM      2  C   UNL     1      32.472   0.380  10.421  1.00  0.00     0.232 C 
BRANCH   2   3
ATOM      3  N   UNL     1      33.681  -0.420  10.654  1.00  0.00    -0.350 N 
ATOM      4  H   UNL     1      33.441  -1.390  10.961  1.00  0.00     0.345 HD
ATOM      5  H   UNL     1      34.242  -0.474   9.773  1.00  0.00     0.345 HD
ATOM      6  H   UNL     1      34.271   0.036  11.388  1.00  0.00     0.345 HD
ENDBRANCH   2   3
BRANCH   2   7
ATOM      7  C   UNL     1      31.380  -0.453   9.797  1.00  0.00     0.099 C 
ATOM      8  O   UNL     1      30.600  -1.116  10.531  1.00  0.00    -0.544 OA
ATOM      9  O   UNL     1      31.255  -0.540   8.415  1.00  0.00    -0.544 OA
ENDBRANCH   2   7
ENDBRANCH   1   2
BRANCH   1  10
ATOM     10  C   UNL     1      32.256   2.553  11.736  1.00  0.00    -0.016 A 
ATOM     11  C   UNL     1      32.911   3.312  10.784  1.00  0.00     0.003 A 
ATOM     12  C   UNL     1      31.930   3.437  12.761  1.00  0.00     0.087 A 
ATOM     13  C   UNL     1      32.951   4.598  11.259  1.00  0.00     0.046 A 
ATOM     14  C   UNL     1      33.468   2.968   9.551  1.00  0.00     0.010 A 
ATOM     15  N   UNL     1      32.357   4.686  12.463  1.00  0.00    -0.361 N 
ATOM     16  C   UNL     1      33.554   5.627  10.539  1.00  0.00     0.026 A 
ATOM     17  C   UNL     1      34.083   3.988   8.801  1.00  0.00     0.001 A 
ATOM     18  H   UNL     1      32.249   5.540  13.052  1.00  0.00     0.166 HD
ATOM     19  C   UNL     1      34.125   5.312   9.293  1.00  0.00     0.002 A 
ENDBRANCH   1  10
TORSDOF 4
ENDMDL
MODEL 2
REMARK VINA RESULT:    15.570      1.589      2.721
REMARK INTER + INTRA:          19.156
REMARK INTER:                  17.150
REMARK INTRA:                   2.006
REMARK UNBOUND:                 0.400
REMARK SMILES [NH3+][C@H](Cc1c[nH]c2ccccc12)C(=O)[O-]
REMARK SMILES IDX 3 1 2 2 1 3 13 7 14 8 15 9 4 10 12 11 5 12 7 13 11 14 6 15
REMARK SMILES IDX 8 16 10 17 9 19
REMARK H PARENT 1 4 1 5 1 6 6 18
REMARK Flexibility Score: inf
ROOT
ATOM      1  C   UNL     1      33.046   1.273   9.888  1.00  0.00     0.109 C 
ENDROOT
BRANCH   1   2
ATOM      2  C   UNL     1      31.971   0.821  10.901  1.00  0.00     0.232 C 
BRANCH   2   3
ATOM      3  N   UNL     1      30.900   1.816  11.042  1.00  0.00    -0.350 N 
ATOM      4  H   UNL     1      31.279   2.743  11.342  1.00  0.00     0.345 HD
ATOM      5  H   UNL     1      30.408   1.934  10.127  1.00  0.00     0.345 HD
ATOM      6  H   UNL     1      30.202   1.486  11.747  1.00  0.00     0.345 HD
ENDBRANCH   2   3
BRANCH   2   7
ATOM      7  C   UNL     1      31.412  -0.533  10.543  1.00  0.00     0.099 C 
ATOM      8  O   UNL     1      31.804  -1.118   9.498  1.00  0.00    -0.544 OA
ATOM      9  O   UNL     1      30.427  -1.124  11.326  1.00  0.00    -0.544 OA
ENDBRANCH   2   7
ENDBRANCH   1   2
BRANCH   1  10
ATOM     10  C   UNL     1      33.320   2.751   9.924  1.00  0.00    -0.016 A 
ATOM     11  C   UNL     1      33.056   3.639  10.951  1.00  0.00     0.003 A 
ATOM     12  C   UNL     1      33.858   3.518   8.895  1.00  0.00     0.087 A 
ATOM     13  C   UNL     1      33.441   4.880  10.512  1.00  0.00     0.046 A 
ATOM     14  C   UNL     1      32.512   3.447  12.222  1.00  0.00     0.010 A 
ATOM     15  N   UNL     1      33.931   4.818   9.261  1.00  0.00    -0.361 N 
ATOM     16  C   UNL     1      33.305   6.014  11.310  1.00  0.00     0.026 A 
ATOM     17  C   UNL     1      32.363   4.575  13.050  1.00  0.00     0.001 A 
ATOM     18  H   UNL     1      34.290   5.611   8.685  1.00  0.00     0.166 HD
ATOM     19  C   UNL     1      32.758   5.853  12.596  1.00  0.00     0.002 A 
ENDBRANCH   1  10
TORSDOF 4
ENDMDL
MODEL 3
REMARK VINA RESULT:    17.896     22.055     23.739
REMARK INTER + INTRA:          21.958
REMARK INTER:                  21.669
REMARK INTRA:                   0.289
REMARK UNBOUND:                 0.400
REMARK SMILES [NH3+][C@H](Cc1c[nH]c2ccccc12)C(=O)[O-]
REMARK SMILES IDX 3 1 2 2 1 3 13 7 14 8 15 9 4 10 12 11 5 12 7 13 11 14 6 15
REMARK SMILES IDX 8 16 10 17 9 19
REMARK H PARENT 1 4 1 5 1 6 6 18
REMARK Flexibility Score: inf
ROOT
ATOM      1  C   UNL     1      15.654  14.402  18.620  1.00  0.00     0.109 C 
ENDROOT
BRANCH   1   2
ATOM      2  C   UNL     1      14.582  14.303  17.513  1.00  0.00     0.232 C 
BRANCH   2   3
ATOM      3  N   UNL     1      14.589  15.483  16.638  1.00  0.00    -0.350 N 
ATOM      4  H   UNL     1      15.540  15.913  16.587  1.00  0.00     0.345 HD
ATOM      5  H   UNL     1      14.292  15.206  15.674  1.00  0.00     0.345 HD
ATOM      6  H   UNL     1      13.910  16.193  16.996  1.00  0.00     0.345 HD
ENDBRANCH   2   3
BRANCH   2   7
ATOM      7  C   UNL     1      14.730  13.032  16.714  1.00  0.00     0.099 C 
ATOM      8  O   UNL     1      13.876  12.740  15.836  1.00  0.00    -0.544 OA
ATOM      9  O   UNL     1      15.774  12.150  16.971  1.00  0.00    -0.544 OA
ENDBRANCH   2   7
ENDBRANCH   1   2
BRANCH   1  10
ATOM     10  C   UNL     1      15.489  15.604  19.509  1.00  0.00    -0.016 A 
ATOM     11  C   UNL     1      15.388  15.634  20.887  1.00  0.00     0.003 A 
ATOM     12  C   UNL     1      15.362  16.928  19.095  1.00  0.00     0.087 A 
ATOM     13  C   UNL     1      15.211  16.946  21.244  1.00  0.00     0.046 A 
ATOM     14  C   UNL     1      15.437  14.615  21.839  1.00  0.00     0.010 A 
ATOM     15  N   UNL     1      15.193  17.743  20.161  1.00  0.00    -0.361 N 
ATOM     16  C   UNL     1      15.066  17.330  22.576  1.00  0.00     0.026 A 
ATOM     17  C   UNL     1      15.294  14.973  23.193  1.00  0.00     0.001 A 
ATOM     18  H   UNL     1      15.070  18.779  20.141  1.00  0.00     0.166 HD
ATOM     19  C   UNL     1      15.110  16.325  23.559  1.00  0.00     0.002 A 
ENDBRANCH   1  10
TORSDOF 4
ENDMDL
