MODEL 1
REMARK VINA RESULT:    -3.505      0.000      0.000
REMARK INTER + INTRA:          -4.059
REMARK INTER:                  -4.018
REMARK INTRA:                  -0.042
REMARK UNBOUND:                -0.042
REMARK SMILES CC(C)[C@@H]([NH3+])C(=O)[O-]
REMARK SMILES IDX 4 1 5 2 6 6 7 7 8 8 2 9 1 10 3 11
REMARK H PARENT 5 3 5 4 5 5
REMARK Flexibility Score: inf
ROOT
ATOM      1  C   UNL     1       9.851  26.616  13.745  1.00  0.00     0.230 C 
ENDROOT
BRANCH   1   2
ATOM      2  N   UNL     1       9.943  27.477  12.555  1.00  0.00    -0.350 N 
ATOM      3  H   UNL     1      10.306  28.420  12.824  1.00  0.00     0.345 HD
ATOM      4  H   UNL     1      10.571  27.061  11.830  1.00  0.00     0.345 HD
ATOM      5  H   UNL     1       8.992  27.602  12.139  1.00  0.00     0.345 HD
ENDBRANCH   1   2
BRANCH   1   6
ATOM      6  C   UNL     1       9.607  25.179  13.350  1.00  0.00     0.099 C 
ATOM      7  O   UNL     1       8.847  24.442  14.034  1.00  0.00    -0.544 OA
ATOM      8  O   UNL     1      10.203  24.667  12.204  1.00  0.00    -0.544 OA
ENDBRANCH   1   6
BRANCH   1   9
ATOM      9  C   UNL     1      11.088  26.784  14.678  1.00  0.00     0.047 C 
ATOM     10  C   UNL     1      11.713  28.180  14.531  1.00  0.00     0.014 C 
ATOM     11  C   UNL     1      10.788  26.494  16.159  1.00  0.00     0.014 C 
ENDBRANCH   1   9
TORSDOF 3
ENDMDL
MODEL 2
REMARK VINA RESULT:    -3.429      1.696      2.446
REMARK INTER + INTRA:          -3.971
REMARK INTER:                  -3.920
REMARK INTRA:                  -0.052
REMARK UNBOUND:                -0.042
REMARK SMILES CC(C)[C@@H]([NH3+])C(=O)[O-]
REMARK SMILES IDX 4 1 5 2 6 6 7 7 8 8 2 9 1 10 3 11
REMARK H PARENT 5 3 5 4 5 5
REMARK Flexibility Score: inf
ROOT
ATOM      1  C   UNL     1       9.257  26.157  11.945  1.00  0.00     0.230 C 
ENDROOT
BRANCH   1   2
ATOM      2  N   UNL     1       9.512  27.589  11.721  1.00  0.00    -0.350 N 
ATOM      3  H   UNL     1       8.681  28.033  11.268  1.00  0.00     0.345 HD
ATOM      4  H   UNL     1       9.721  28.085  12.617  1.00  0.00     0.345 HD
ATOM      5  H   UNL     1      10.329  27.703  11.079  1.00  0.00     0.345 HD
ENDBRANCH   1   2
BRANCH   1   6
ATOM      6  C   UNL     1       9.941  25.320  10.891  1.00  0.00     0.099 C 
ATOM      7  O   UNL     1      10.181  24.099  11.091  1.00  0.00    -0.544 OA
ATOM      8  O   UNL     1      10.285  25.891   9.671  1.00  0.00    -0.544 OA
ENDBRANCH   1   6
BRANCH   1   9
ATOM      9  C   UNL     1       9.630  25.723  13.395  1.00  0.00     0.047 C 
ATOM     10  C   UNL     1      10.612  26.714  14.039  1.00  0.00     0.014 C 
ATOM     11  C   UNL     1       8.411  25.518  14.311  1.00  0.00     0.014 C 
ENDBRANCH   1   9
TORSDOF 3
ENDMDL
MODEL 3
REMARK VINA RESULT:    -3.390      3.288      4.075
REMARK INTER + INTRA:          -3.927
REMARK INTER:                  -4.049
REMARK INTRA:                   0.122
REMARK UNBOUND:                -0.042
REMARK SMILES CC(C)[C@@H]([NH3+])C(=O)[O-]
REMARK SMILES IDX 4 1 5 2 6 6 7 7 8 8 2 9 1 10 3 11
REMARK H PARENT 5 3 5 4 5 5
REMARK Flexibility Score: inf
ROOT
ATOM      1  C   UNL     1       8.283  25.403  15.964  1.00  0.00     0.230 C 
ENDROOT
BRANCH   1   2
ATOM      2  N   UNL     1       7.118  24.506  16.005  1.00  0.00    -0.350 N 
ATOM      3  H   UNL     1       7.421  23.519  15.839  1.00  0.00     0.345 HD
ATOM      4  H   UNL     1       6.622  24.564  16.924  1.00  0.00     0.345 HD
ATOM      5  H   UNL     1       6.446  24.770  15.248  1.00  0.00     0.345 HD
ENDBRANCH   1   2
BRANCH   1   6
ATOM      6  C   UNL     1       9.209  25.135  17.127  1.00  0.00     0.099 C 
ATOM      7  O   UNL     1       9.962  26.040  17.574  1.00  0.00    -0.544 OA
ATOM      8  O   UNL     1       9.211  23.884  17.733  1.00  0.00    -0.544 OA
ENDBRANCH   1   6
BRANCH   1   9
ATOM      9  C   UNL     1       9.011  25.343  14.587  1.00  0.00     0.047 C 
ATOM     10  C   UNL     1       8.012  25.433  13.423  1.00  0.00     0.014 C 
ATOM     11  C   UNL     1      10.110  26.407  14.423  1.00  0.00     0.014 C 
ENDBRANCH   1   9
TORSDOF 3
ENDMDL
MODEL 4
REMARK VINA RESULT:    -3.359      5.408      6.517
REMARK INTER + INTRA:          -3.891
REMARK INTER:                  -3.839
REMARK INTRA:                  -0.053
REMARK UNBOUND:                -0.042
REMARK SMILES CC(C)[C@@H]([NH3+])C(=O)[O-]
REMARK SMILES IDX 4 1 5 2 6 6 7 7 8 8 2 9 1 10 3 11
REMARK H PARENT 5 3 5 4 5 5
REMARK Flexibility Score: inf
ROOT
ATOM      1  C   UNL     1       9.706  24.000  19.402  1.00  0.00     0.230 C 
ENDROOT
BRANCH   1   2
ATOM      2  N   UNL     1      11.146  23.744  19.558  1.00  0.00    -0.350 N 
ATOM      3  H   UNL     1      11.422  22.904  18.999  1.00  0.00     0.345 HD
ATOM      4  H   UNL     1      11.716  24.563  19.250  1.00  0.00     0.345 HD
ATOM      5  H   UNL     1      11.360  23.548  20.563  1.00  0.00     0.345 HD
ENDBRANCH   1   2
BRANCH   1   6
ATOM      6  C   UNL     1       9.375  24.353  17.971  1.00  0.00     0.099 C 
ATOM      7  O   UNL     1       9.815  25.412  17.449  1.00  0.00    -0.544 OA
ATOM      8  O   UNL     1       8.600  23.488  17.208  1.00  0.00    -0.544 OA
ENDBRANCH   1   6
BRANCH   1   9
ATOM      9  C   UNL     1       8.846  22.820  19.946  1.00  0.00     0.047 C 
ATOM     10  C   UNL     1       9.660  21.518  20.009  1.00  0.00     0.014 C 
ATOM     11  C   UNL     1       8.200  23.105  21.313  1.00  0.00     0.014 C 
ENDBRANCH   1   9
TORSDOF 3
ENDMDL
MODEL 5
REMARK VINA RESULT:    -3.323      2.343      3.175
REMARK INTER + INTRA:          -3.850
REMARK INTER:                  -3.837
REMARK INTRA:                  -0.013
REMARK UNBOUND:                -0.042
REMARK SMILES CC(C)[C@@H]([NH3+])C(=O)[O-]
REMARK SMILES IDX 4 1 5 2 6 6 7 7 8 8 2 9 1 10 3 11
REMARK H PARENT 5 3 5 4 5 5
REMARK Flexibility Score: inf
ROOT
ATOM      1  C   UNL     1      10.015  26.129  13.854  1.00  0.00     0.230 C 
ENDROOT
BRANCH   1   2
ATOM      2  N   UNL     1      10.126  26.778  12.538  1.00  0.00    -0.350 N 
ATOM      3  H   UNL     1      10.994  27.359  12.498  1.00  0.00     0.345 HD
ATOM      4  H   UNL     1      10.147  26.075  11.765  1.00  0.00     0.345 HD
ATOM      5  H   UNL     1       9.306  27.410  12.390  1.00  0.00     0.345 HD
ENDBRANCH   1   2
BRANCH   1   6
ATOM      6  C   UNL     1      10.818  26.878  14.891  1.00  0.00     0.099 C 
ATOM      7  O   UNL     1      10.844  26.491  16.090  1.00  0.00    -0.544 OA
ATOM      8  O   UNL     1      11.562  27.990  14.517  1.00  0.00    -0.544 OA
ENDBRANCH   1   6
BRANCH   1   9
ATOM      9  C   UNL     1       8.528  25.925  14.274  1.00  0.00     0.047 C 
ATOM     10  C   UNL     1       7.579  26.121  13.082  1.00  0.00     0.014 C 
ATOM     11  C   UNL     1       8.257  24.568  14.946  1.00  0.00     0.014 C 
ENDBRANCH   1   9
TORSDOF 3
ENDMDL
MODEL 6
REMARK VINA RESULT:    -3.285      2.295      2.915
REMARK INTER + INTRA:          -3.807
REMARK INTER:                  -3.761
REMARK INTRA:                  -0.046
REMARK UNBOUND:                -0.042
REMARK SMILES CC(C)[C@@H]([NH3+])C(=O)[O-]
REMARK SMILES IDX 4 1 5 2 6 6 7 7 8 8 2 9 1 10 3 11
REMARK H PARENT 5 3 5 4 5 5
REMARK Flexibility Score: inf
ROOT
ATOM      1  C   UNL     1       8.498  25.865  14.284  1.00  0.00     0.230 C 
ENDROOT
BRANCH   1   2
ATOM      2  N   UNL     1       7.552  25.629  13.182  1.00  0.00    -0.350 N 
ATOM      3  H   UNL     1       7.475  24.604  12.990  1.00  0.00     0.345 HD
ATOM      4  H   UNL     1       6.604  26.010  13.403  1.00  0.00     0.345 HD
ATOM      5  H   UNL     1       7.904  26.095  12.314  1.00  0.00     0.345 HD
ENDBRANCH   1   2
BRANCH   1   6
ATOM      6  C   UNL     1       8.143  25.023  15.486  1.00  0.00     0.099 C 
ATOM      7  O   UNL     1       7.207  24.181  15.431  1.00  0.00    -0.544 OA
ATOM      8  O   UNL     1       8.873  25.154  16.661  1.00  0.00    -0.544 OA
ENDBRANCH   1   6
BRANCH   1   9
ATOM      9  C   UNL     1       9.976  25.672  13.828  1.00  0.00     0.047 C 
ATOM     10  C   UNL     1      10.064  25.402  12.318  1.00  0.00     0.014 C 
ATOM     11  C   UNL     1      10.898  26.843  14.209  1.00  0.00     0.014 C 
ENDBRANCH   1   9
TORSDOF 3
ENDMDL
MODEL 7
REMARK VINA RESULT:    -3.168      2.587      3.559
REMARK INTER + INTRA:          -3.673
REMARK INTER:                  -3.710
REMARK INTRA:                   0.037
REMARK UNBOUND:                -0.042
REMARK SMILES CC(C)[C@@H]([NH3+])C(=O)[O-]
REMARK SMILES IDX 4 1 5 2 6 6 7 7 8 8 2 9 1 10 3 11
REMARK H PARENT 5 3 5 4 5 5
REMARK Flexibility Score: inf
ROOT
ATOM      1  C   UNL     1      11.263  26.935  14.449  1.00  0.00     0.230 C 
ENDROOT
BRANCH   1   2
ATOM      2  N   UNL     1      10.915  28.149  13.694  1.00  0.00    -0.350 N 
ATOM      3  H   UNL     1      11.757  28.760  13.591  1.00  0.00     0.345 HD
ATOM      4  H   UNL     1      10.540  27.917  12.747  1.00  0.00     0.345 HD
ATOM      5  H   UNL     1      10.186  28.688  14.217  1.00  0.00     0.345 HD
ENDBRANCH   1   2
BRANCH   1   6
ATOM      6  C   UNL     1      11.408  27.242  15.921  1.00  0.00     0.099 C 
ATOM      7  O   UNL     1      11.610  28.420  16.318  1.00  0.00    -0.544 OA
ATOM      8  O   UNL     1      11.287  26.219  16.854  1.00  0.00    -0.544 OA
ENDBRANCH   1   6
BRANCH   1   9
ATOM      9  C   UNL     1      10.263  25.773  14.170  1.00  0.00     0.047 C 
ATOM     10  C   UNL     1       8.853  26.118  14.672  1.00  0.00     0.014 C 
ATOM     11  C   UNL     1      10.208  25.347  12.693  1.00  0.00     0.014 C 
ENDBRANCH   1   9
TORSDOF 3
ENDMDL
MODEL 8
REMARK VINA RESULT:    -3.157      2.154      3.179
REMARK INTER + INTRA:          -3.660
REMARK INTER:                  -3.604
REMARK INTRA:                  -0.056
REMARK UNBOUND:                -0.042
REMARK SMILES CC(C)[C@@H]([NH3+])C(=O)[O-]
REMARK SMILES IDX 4 1 5 2 6 6 7 7 8 8 2 9 1 10 3 11
REMARK H PARENT 5 3 5 4 5 5
REMARK Flexibility Score: inf
ROOT
ATOM      1  C   UNL     1       9.877  25.902  13.341  1.00  0.00     0.230 C 
ENDROOT
BRANCH   1   2
ATOM      2  N   UNL     1      10.391  27.275  13.454  1.00  0.00    -0.350 N 
ATOM      3  H   UNL     1      10.099  27.836  12.621  1.00  0.00     0.345 HD
ATOM      4  H   UNL     1      10.045  27.743  14.322  1.00  0.00     0.345 HD
ATOM      5  H   UNL     1      11.436  27.256  13.480  1.00  0.00     0.345 HD
ENDBRANCH   1   2
BRANCH   1   6
ATOM      6  C   UNL     1       8.888  25.606  14.444  1.00  0.00     0.099 C 
ATOM      7  O   UNL     1       9.236  25.655  15.654  1.00  0.00    -0.544 OA
ATOM      8  O   UNL     1       7.568  25.306  14.126  1.00  0.00    -0.544 OA
ENDBRANCH   1   6
BRANCH   1   9
ATOM      9  C   UNL     1       9.301  25.614  11.922  1.00  0.00     0.047 C 
ATOM     10  C   UNL     1       9.000  26.918  11.167  1.00  0.00     0.014 C 
ATOM     11  C   UNL     1      10.196  24.703  11.065  1.00  0.00     0.014 C 
ENDBRANCH   1   9
TORSDOF 3
ENDMDL
MODEL 9
REMARK VINA RESULT:    -3.112      2.827      3.755
REMARK INTER + INTRA:          -3.609
REMARK INTER:                  -3.563
REMARK INTRA:                  -0.046
REMARK UNBOUND:                -0.042
REMARK SMILES CC(C)[C@@H]([NH3+])C(=O)[O-]
REMARK SMILES IDX 4 1 5 2 6 6 7 7 8 8 2 9 1 10 3 11
REMARK H PARENT 5 3 5 4 5 5
REMARK Flexibility Score: inf
ROOT
ATOM      1  C   UNL     1       9.071  26.585  11.596  1.00  0.00     0.230 C 
ENDROOT
BRANCH   1   2
ATOM      2  N   UNL     1       9.924  27.169  12.643  1.00  0.00    -0.350 N 
ATOM      3  H   UNL     1       9.936  26.547  13.483  1.00  0.00     0.345 HD
ATOM      4  H   UNL     1      10.903  27.308  12.305  1.00  0.00     0.345 HD
ATOM      5  H   UNL     1       9.537  28.096  12.932  1.00  0.00     0.345 HD
ENDBRANCH   1   2
BRANCH   1   6
ATOM      6  C   UNL     1       9.841  25.576  10.777  1.00  0.00     0.099 C 
ATOM      7  O   UNL     1      10.277  25.871   9.632  1.00  0.00    -0.544 OA
ATOM      8  O   UNL     1      10.099  24.315  11.301  1.00  0.00    -0.544 OA
ENDBRANCH   1   6
BRANCH   1   9
ATOM      9  C   UNL     1       7.750  26.003  12.183  1.00  0.00     0.047 C 
ATOM     10  C   UNL     1       7.856  25.802  13.703  1.00  0.00     0.014 C 
ATOM     11  C   UNL     1       6.504  26.840  11.848  1.00  0.00     0.014 C 
ENDBRANCH   1   9
TORSDOF 3
ENDMDL
