MODEL 1
REMARK VINA RESULT:    -3.787      0.000      0.000
REMARK INTER + INTRA:          -4.554
REMARK INTER:                  -4.451
REMARK INTRA:                  -0.103
REMARK UNBOUND:                -0.103
REMARK SMILES O=C([O-])CCC(=O)[O-]
REMARK SMILES IDX 4 1 2 2 1 3 3 4 5 5 6 6 7 7 8 8
REMARK H PARENT
REMARK Flexibility Score: inf
ROOT
ATOM      1  C   UNL     1     -11.208 -18.282  29.121  1.00  0.00     0.059 C 
ENDROOT
BRANCH   1   2
ATOM      2  C   UNL     1     -10.305 -18.046  30.293  1.00  0.00     0.042 C 
ATOM      3  O   UNL     1      -9.780 -19.020  30.895  1.00  0.00    -0.550 OA
ATOM      4  O   UNL     1     -10.074 -16.753  30.744  1.00  0.00    -0.550 OA
ENDBRANCH   1   2
BRANCH   1   5
ATOM      5  C   UNL     1     -11.677 -16.963  28.497  1.00  0.00     0.059 C 
BRANCH   5   6
ATOM      6  C   UNL     1     -13.119 -16.691  28.799  1.00  0.00     0.042 C 
ATOM      7  O   UNL     1     -13.810 -15.990  28.013  1.00  0.00    -0.550 OA
ATOM      8  O   UNL     1     -13.711 -17.244  29.927  1.00  0.00    -0.550 OA
ENDBRANCH   5   6
ENDBRANCH   1   5
TORSDOF 3
ENDMDL
MODEL 2
REMARK VINA RESULT:    -3.776      2.618      3.468
REMARK INTER + INTRA:          -4.540
REMARK INTER:                  -4.430
REMARK INTRA:                  -0.110
REMARK UNBOUND:                -0.103
REMARK SMILES O=C([O-])CCC(=O)[O-]
REMARK SMILES IDX 4 1 2 2 1 3 3 4 5 5 6 6 7 7 8 8
REMARK H PARENT
REMARK Flexibility Score: inf
ROOT
ATOM      1  C   UNL     1     -11.577 -15.733  26.818  1.00  0.00     0.059 C 
ENDROOT
BRANCH   1   2
ATOM      2  C   UNL     1     -10.167 -15.246  26.677  1.00  0.00     0.042 C 
ATOM      3  O   UNL     1      -9.277 -15.640  27.477  1.00  0.00    -0.550 OA
ATOM      4  O   UNL     1      -9.844 -14.326  25.689  1.00  0.00    -0.550 OA
ENDBRANCH   1   2
BRANCH   1   5
ATOM      5  C   UNL     1     -11.670 -16.918  27.785  1.00  0.00     0.059 C 
BRANCH   5   6
ATOM      6  C   UNL     1     -12.394 -16.548  29.044  1.00  0.00     0.042 C 
ATOM      7  O   UNL     1     -13.639 -16.717  29.131  1.00  0.00    -0.550 OA
ATOM      8  O   UNL     1     -11.688 -16.055  30.133  1.00  0.00    -0.550 OA
ENDBRANCH   5   6
ENDBRANCH   1   5
TORSDOF 3
ENDMDL
MODEL 3
REMARK VINA RESULT:    -3.770      0.129      3.855
REMARK INTER + INTRA:          -4.533
REMARK INTER:                  -4.429
REMARK INTRA:                  -0.105
REMARK UNBOUND:                -0.103
REMARK SMILES O=C([O-])CCC(=O)[O-]
REMARK SMILES IDX 4 1 2 2 1 3 3 4 5 5 6 6 7 7 8 8
REMARK H PARENT
REMARK Flexibility Score: inf
ROOT
ATOM      1  C   UNL     1     -11.626 -17.014  28.557  1.00  0.00     0.059 C 
ENDROOT
BRANCH   1   2
ATOM      2  C   UNL     1     -13.073 -16.753  28.849  1.00  0.00     0.042 C 
ATOM      3  O   UNL     1     -13.755 -16.028  28.078  1.00  0.00    -0.550 OA
ATOM      4  O   UNL     1     -13.656 -17.279  29.994  1.00  0.00    -0.550 OA
ENDBRANCH   1   2
BRANCH   1   5
ATOM      5  C   UNL     1     -11.140 -18.304  29.226  1.00  0.00     0.059 C 
BRANCH   5   6
ATOM      6  C   UNL     1     -10.225 -18.019  30.377  1.00  0.00     0.042 C 
ATOM      7  O   UNL     1     -10.001 -16.830  30.729  1.00  0.00    -0.550 OA
ATOM      8  O   UNL     1      -9.652 -19.065  31.087  1.00  0.00    -0.550 OA
ENDBRANCH   5   6
ENDBRANCH   1   5
TORSDOF 3
ENDMDL
MODEL 4
REMARK VINA RESULT:    -3.742      1.815      3.454
REMARK INTER + INTRA:          -4.501
REMARK INTER:                  -4.381
REMARK INTRA:                  -0.120
REMARK UNBOUND:                -0.103
REMARK SMILES O=C([O-])CCC(=O)[O-]
REMARK SMILES IDX 4 1 2 2 1 3 3 4 5 5 6 6 7 7 8 8
REMARK H PARENT
REMARK Flexibility Score: inf
ROOT
ATOM      1  C   UNL     1     -10.921 -16.730  28.498  1.00  0.00     0.059 C 
ENDROOT
BRANCH   1   2
ATOM      2  C   UNL     1     -11.414 -16.002  27.285  1.00  0.00     0.042 C 
ATOM      3  O   UNL     1     -10.607 -15.367  26.554  1.00  0.00    -0.550 OA
ATOM      4  O   UNL     1     -12.769 -15.990  26.984  1.00  0.00    -0.550 OA
ENDBRANCH   1   2
BRANCH   1   5
ATOM      5  C   UNL     1     -11.657 -18.059  28.695  1.00  0.00     0.059 C 
BRANCH   5   6
ATOM      6  C   UNL     1     -12.510 -18.041  29.926  1.00  0.00     0.042 C 
ATOM      7  O   UNL     1     -12.105 -18.589  30.986  1.00  0.00    -0.550 OA
ATOM      8  O   UNL     1     -13.734 -17.385  29.916  1.00  0.00    -0.550 OA
ENDBRANCH   5   6
ENDBRANCH   1   5
TORSDOF 3
ENDMDL
MODEL 5
REMARK VINA RESULT:    -3.730      1.518      1.841
REMARK INTER + INTRA:          -4.487
REMARK INTER:                  -4.367
REMARK INTRA:                  -0.119
REMARK UNBOUND:                -0.103
REMARK SMILES O=C([O-])CCC(=O)[O-]
REMARK SMILES IDX 4 1 2 2 1 3 3 4 5 5 6 6 7 7 8 8
REMARK H PARENT
REMARK Flexibility Score: inf
ROOT
ATOM      1  C   UNL     1     -11.619 -18.028  28.759  1.00  0.00     0.059 C 
ENDROOT
BRANCH   1   2
ATOM      2  C   UNL     1     -10.499 -17.885  29.745  1.00  0.00     0.042 C 
ATOM      3  O   UNL     1      -9.939 -18.907  30.222  1.00  0.00    -0.550 OA
ATOM      4  O   UNL     1     -10.102 -16.623  30.167  1.00  0.00    -0.550 OA
ENDBRANCH   1   2
BRANCH   1   5
ATOM      5  C   UNL     1     -12.429 -16.734  28.635  1.00  0.00     0.059 C 
BRANCH   5   6
ATOM      6  C   UNL     1     -12.265 -16.106  27.284  1.00  0.00     0.042 C 
ATOM      7  O   UNL     1     -13.275 -15.856  26.574  1.00  0.00    -0.550 OA
ATOM      8  O   UNL     1     -11.000 -15.762  26.826  1.00  0.00    -0.550 OA
ENDBRANCH   5   6
ENDBRANCH   1   5
TORSDOF 3
ENDMDL
MODEL 6
REMARK VINA RESULT:    -3.727      1.570      4.016
REMARK INTER + INTRA:          -4.484
REMARK INTER:                  -4.363
REMARK INTRA:                  -0.121
REMARK UNBOUND:                -0.103
REMARK SMILES O=C([O-])CCC(=O)[O-]
REMARK SMILES IDX 4 1 2 2 1 3 3 4 5 5 6 6 7 7 8 8
REMARK H PARENT
REMARK Flexibility Score: inf
ROOT
ATOM      1  C   UNL     1     -12.338 -16.684  28.638  1.00  0.00     0.059 C 
ENDROOT
BRANCH   1   2
ATOM      2  C   UNL     1     -12.051 -16.048  27.311  1.00  0.00     0.042 C 
ATOM      3  O   UNL     1     -10.867 -15.774  26.983  1.00  0.00    -0.550 OA
ATOM      4  O   UNL     1     -13.095 -15.722  26.456  1.00  0.00    -0.550 OA
ENDBRANCH   1   2
BRANCH   1   5
ATOM      5  C   UNL     1     -11.619 -18.029  28.785  1.00  0.00     0.059 C 
BRANCH   5   6
ATOM      6  C   UNL     1     -10.492 -17.947  29.770  1.00  0.00     0.042 C 
ATOM      7  O   UNL     1      -9.954 -18.999  30.205  1.00  0.00    -0.550 OA
ATOM      8  O   UNL     1     -10.010 -16.709  30.175  1.00  0.00    -0.550 OA
ENDBRANCH   5   6
ENDBRANCH   1   5
TORSDOF 3
ENDMDL
MODEL 7
REMARK VINA RESULT:    -3.724      1.794      2.729
REMARK INTER + INTRA:          -4.480
REMARK INTER:                  -4.361
REMARK INTRA:                  -0.119
REMARK UNBOUND:                -0.103
REMARK SMILES O=C([O-])CCC(=O)[O-]
REMARK SMILES IDX 4 1 2 2 1 3 3 4 5 5 6 6 7 7 8 8
REMARK H PARENT
REMARK Flexibility Score: inf
ROOT
ATOM      1  C   UNL     1     -11.635 -18.073  28.719  1.00  0.00     0.059 C 
ENDROOT
BRANCH   1   2
ATOM      2  C   UNL     1     -12.438 -18.046  29.984  1.00  0.00     0.042 C 
ATOM      3  O   UNL     1     -13.585 -17.527  29.996  1.00  0.00    -0.550 OA
ATOM      4  O   UNL     1     -11.902 -18.559  31.158  1.00  0.00    -0.550 OA
ENDBRANCH   1   2
BRANCH   1   5
ATOM      5  C   UNL     1     -10.868 -16.763  28.511  1.00  0.00     0.059 C 
BRANCH   5   6
ATOM      6  C   UNL     1     -11.376 -16.009  27.319  1.00  0.00     0.042 C 
ATOM      7  O   UNL     1     -10.573 -15.386  26.575  1.00  0.00    -0.550 OA
ATOM      8  O   UNL     1     -12.729 -16.027  27.009  1.00  0.00    -0.550 OA
ENDBRANCH   5   6
ENDBRANCH   1   5
TORSDOF 3
ENDMDL
MODEL 8
REMARK VINA RESULT:    -3.669      2.864      4.035
REMARK INTER + INTRA:          -4.415
REMARK INTER:                  -4.383
REMARK INTRA:                  -0.032
REMARK UNBOUND:                -0.103
REMARK SMILES O=C([O-])CCC(=O)[O-]
REMARK SMILES IDX 4 1 2 2 1 3 3 4 5 5 6 6 7 7 8 8
REMARK H PARENT
REMARK Flexibility Score: inf
ROOT
ATOM      1  C   UNL     1     -11.006 -16.342  28.104  1.00  0.00     0.059 C 
ENDROOT
BRANCH   1   2
ATOM      2  C   UNL     1     -12.331 -16.844  28.592  1.00  0.00     0.042 C 
ATOM      3  O   UNL     1     -12.418 -17.977  29.136  1.00  0.00    -0.550 OA
ATOM      4  O   UNL     1     -13.474 -16.078  28.410  1.00  0.00    -0.550 OA
ENDBRANCH   1   2
BRANCH   1   5
ATOM      5  C   UNL     1     -11.130 -15.665  26.735  1.00  0.00     0.059 C 
BRANCH   5   6
ATOM      6  C   UNL     1      -9.864 -14.962  26.349  1.00  0.00     0.042 C 
ATOM      7  O   UNL     1      -9.896 -13.994  25.544  1.00  0.00    -0.550 OA
ATOM      8  O   UNL     1      -8.654 -15.351  26.909  1.00  0.00    -0.550 OA
ENDBRANCH   5   6
ENDBRANCH   1   5
TORSDOF 3
ENDMDL
MODEL 9
REMARK VINA RESULT:    -3.513      5.025      5.636
REMARK INTER + INTRA:          -4.232
REMARK INTER:                  -4.164
REMARK INTRA:                  -0.067
REMARK UNBOUND:                -0.103
REMARK SMILES O=C([O-])CCC(=O)[O-]
REMARK SMILES IDX 4 1 2 2 1 3 3 4 5 5 6 6 7 7 8 8
REMARK H PARENT
REMARK Flexibility Score: inf
ROOT
ATOM      1  C   UNL     1      -7.036 -14.336  26.683  1.00  0.00     0.059 C 
ENDROOT
BRANCH   1   2
ATOM      2  C   UNL     1      -6.410 -14.347  28.044  1.00  0.00     0.042 C 
ATOM      3  O   UNL     1      -5.192 -14.058  28.185  1.00  0.00    -0.550 OA
ATOM      4  O   UNL     1      -7.162 -14.716  29.152  1.00  0.00    -0.550 OA
ENDBRANCH   1   2
BRANCH   1   5
ATOM      5  C   UNL     1      -8.294 -15.209  26.634  1.00  0.00     0.059 C 
BRANCH   5   6
ATOM      6  C   UNL     1      -9.474 -14.448  26.111  1.00  0.00     0.042 C 
ATOM      7  O   UNL     1     -10.634 -14.928  26.214  1.00  0.00    -0.550 OA
ATOM      8  O   UNL     1      -9.298 -13.191  25.546  1.00  0.00    -0.550 OA
ENDBRANCH   5   6
ENDBRANCH   1   5
TORSDOF 3
ENDMDL
