MODEL 1
REMARK VINA RESULT:    -2.966      0.000      0.000
REMARK INTER + INTRA:          -3.692
REMARK INTER:                  -3.399
REMARK INTRA:                  -0.293
REMARK UNBOUND:                -0.293
REMARK SMILES O=C1C[C@@H](c2ccc(O)cc2)Oc2cc(O)cc(O)c21
REMARK SMILES IDX 3 1 4 2 12 3 13 4 14 5 15 6 17 7 18 8 20 9 2 10 1 11 5 12
REMARK SMILES IDX 6 13 11 14 7 15 10 16 8 17 9 18 19 20 16 22
REMARK H PARENT 9 19 19 21 16 23
REMARK Flexibility Score: inf
ROOT
ATOM      1  C   UNL     1      36.084  22.140  12.549  1.00  0.00     0.131 C 
ATOM      2  C   UNL     1      34.590  22.129  12.207  1.00  0.00     0.211 C 
ATOM      3  O   UNL     1      34.018  20.867  12.550  1.00  0.00    -0.484 OA
ATOM      4  C   UNL     1      34.292  20.242  13.772  1.00  0.00     0.138 A 
ATOM      5  C   UNL     1      33.472  19.190  14.187  1.00  0.00     0.093 A 
ATOM      6  C   UNL     1      33.700  18.562  15.410  1.00  0.00     0.123 A 
ATOM      7  C   UNL     1      34.742  19.000  16.232  1.00  0.00     0.093 A 
ATOM      8  C   UNL     1      35.573  20.058  15.839  1.00  0.00     0.133 A 
ATOM      9  C   UNL     1      35.382  20.663  14.564  1.00  0.00     0.102 A 
ATOM     10  C   UNL     1      36.307  21.666  13.959  1.00  0.00     0.174 C 
ATOM     11  O   UNL     1      37.346  22.053  14.555  1.00  0.00    -0.294 OA
ENDROOT
BRANCH   2  12
ATOM     12  C   UNL     1      34.373  22.417  10.742  1.00  0.00    -0.007 A 
ATOM     13  C   UNL     1      33.071  22.558  10.225  1.00  0.00     0.011 A 
ATOM     14  C   UNL     1      35.469  22.493   9.866  1.00  0.00     0.011 A 
ATOM     15  C   UNL     1      32.876  22.795   8.862  1.00  0.00     0.046 A 
ATOM     16  C   UNL     1      35.269  22.731   8.503  1.00  0.00     0.046 A 
ATOM     17  C   UNL     1      33.975  22.883   7.997  1.00  0.00     0.115 A 
BRANCH  17  18
ATOM     18  O   UNL     1      33.791  23.120   6.636  1.00  0.00    -0.508 OA
ATOM     19  H   UNL     1      34.441  23.687   6.105  1.00  0.00     0.293 HD
ENDBRANCH  17  18
ENDBRANCH   2  12
BRANCH   8  20
ATOM     20  O   UNL     1      36.547  20.468  16.753  1.00  0.00    -0.507 OA
ATOM     21  H   UNL     1      37.281  21.128  16.548  1.00  0.00     0.293 HD
ENDBRANCH   8  20
BRANCH   6  22
ATOM     22  O   UNL     1      32.876  17.510  15.807  1.00  0.00    -0.508 OA
ATOM     23  H   UNL     1      32.816  17.221  16.776  1.00  0.00     0.293 HD
ENDBRANCH   6  22
TORSDOF 4
ENDMDL
MODEL 2
REMARK VINA RESULT:    -2.769     15.510     18.692
REMARK INTER + INTRA:          -3.466
REMARK INTER:                  -3.152
REMARK INTRA:                  -0.314
REMARK UNBOUND:                -0.293
REMARK SMILES O=C1C[C@@H](c2ccc(O)cc2)Oc2cc(O)cc(O)c21
REMARK SMILES IDX 3 1 4 2 12 3 13 4 14 5 15 6 17 7 18 8 20 9 2 10 1 11 5 12
REMARK SMILES IDX 6 13 11 14 7 15 10 16 8 17 9 18 19 20 16 22
REMARK H PARENT 9 19 19 21 16 23
REMARK Flexibility Score: inf
ROOT
ATOM      1  C   UNL     1      49.278  22.464  19.566  1.00  0.00     0.131 C 
ATOM      2  C   UNL     1      50.674  23.098  19.600  1.00  0.00     0.211 C 
ATOM      3  O   UNL     1      51.553  22.394  18.723  1.00  0.00    -0.484 OA
ATOM      4  C   UNL     1      51.164  22.026  17.430  1.00  0.00     0.138 A 
ATOM      5  C   UNL     1      52.148  21.637  16.518  1.00  0.00     0.093 A 
ATOM      6  C   UNL     1      51.799  21.288  15.215  1.00  0.00     0.123 A 
ATOM      7  C   UNL     1      50.461  21.346  14.814  1.00  0.00     0.093 A 
ATOM      8  C   UNL     1      49.459  21.740  15.711  1.00  0.00     0.133 A 
ATOM      9  C   UNL     1      49.802  22.039  17.060  1.00  0.00     0.102 A 
ATOM     10  C   UNL     1      48.810  22.291  18.147  1.00  0.00     0.174 C 
ATOM     11  O   UNL     1      47.571  22.254  17.934  1.00  0.00    -0.294 OA
ENDROOT
BRANCH   2  12
ATOM     12  C   UNL     1      51.229  23.098  21.003  1.00  0.00    -0.007 A 
ATOM     13  C   UNL     1      52.618  23.054  21.223  1.00  0.00     0.011 A 
ATOM     14  C   UNL     1      50.360  23.087  22.107  1.00  0.00     0.011 A 
ATOM     15  C   UNL     1      53.125  23.024  22.525  1.00  0.00     0.046 A 
ATOM     16  C   UNL     1      50.871  23.057  23.408  1.00  0.00     0.046 A 
ATOM     17  C   UNL     1      52.253  23.027  23.621  1.00  0.00     0.115 A 
BRANCH  17  18
ATOM     18  O   UNL     1      52.747  22.998  24.923  1.00  0.00    -0.508 OA
ATOM     19  H   UNL     1      52.206  22.612  25.687  1.00  0.00     0.293 HD
ENDBRANCH  17  18
ENDBRANCH   2  12
BRANCH   8  20
ATOM     20  O   UNL     1      48.159  21.829  15.204  1.00  0.00    -0.507 OA
ATOM     21  H   UNL     1      47.656  21.063  14.785  1.00  0.00     0.293 HD
ENDBRANCH   8  20
BRANCH   6  22
ATOM     22  O   UNL     1      52.792  20.897  14.318  1.00  0.00    -0.508 OA
ATOM     23  H   UNL     1      53.725  21.291  14.355  1.00  0.00     0.293 HD
ENDBRANCH   6  22
TORSDOF 4
ENDMDL
MODEL 3
REMARK VINA RESULT:    -1.754      1.136      1.343
REMARK INTER + INTRA:          -2.302
REMARK INTER:                  -2.020
REMARK INTRA:                  -0.282
REMARK UNBOUND:                -0.293
REMARK SMILES O=C1C[C@@H](c2ccc(O)cc2)Oc2cc(O)cc(O)c21
REMARK SMILES IDX 3 1 4 2 12 3 13 4 14 5 15 6 17 7 18 8 20 9 2 10 1 11 5 12
REMARK SMILES IDX 6 13 11 14 7 15 10 16 8 17 9 18 19 20 16 22
REMARK H PARENT 9 19 19 21 16 23
REMARK Flexibility Score: inf
ROOT
ATOM      1  C   UNL     1      36.420  22.529  13.496  1.00  0.00     0.131 C 
ATOM      2  C   UNL     1      35.186  22.292  12.617  1.00  0.00     0.211 C 
ATOM      3  O   UNL     1      34.706  20.960  12.795  1.00  0.00    -0.484 OA
ATOM      4  C   UNL     1      34.574  20.389  14.065  1.00  0.00     0.138 A 
ATOM      5  C   UNL     1      33.811  19.227  14.204  1.00  0.00     0.093 A 
ATOM      6  C   UNL     1      33.637  18.646  15.458  1.00  0.00     0.123 A 
ATOM      7  C   UNL     1      34.216  19.239  16.585  1.00  0.00     0.093 A 
ATOM      8  C   UNL     1      34.980  20.407  16.470  1.00  0.00     0.133 A 
ATOM      9  C   UNL     1      35.210  20.972  15.183  1.00  0.00     0.102 A 
ATOM     10  C   UNL     1      36.150  22.100  14.912  1.00  0.00     0.174 C 
ATOM     11  O   UNL     1      36.817  22.641  15.831  1.00  0.00    -0.294 OA
ENDROOT
BRANCH   2  12
ATOM     12  C   UNL     1      35.509  22.539  11.163  1.00  0.00    -0.007 A 
ATOM     13  C   UNL     1      34.478  22.724  10.223  1.00  0.00     0.011 A 
ATOM     14  C   UNL     1      36.843  22.532  10.724  1.00  0.00     0.011 A 
ATOM     15  C   UNL     1      34.782  22.922   8.873  1.00  0.00     0.046 A 
ATOM     16  C   UNL     1      37.144  22.731   9.373  1.00  0.00     0.046 A 
ATOM     17  C   UNL     1      36.116  22.927   8.445  1.00  0.00     0.115 A 
BRANCH  17  18
ATOM     18  O   UNL     1      36.430  23.125   7.102  1.00  0.00    -0.508 OA
ATOM     19  H   UNL     1      35.881  23.741   6.515  1.00  0.00     0.293 HD
ENDBRANCH  17  18
ENDBRANCH   2  12
BRANCH   8  20
ATOM     20  O   UNL     1      35.465  20.963  17.658  1.00  0.00    -0.507 OA
ATOM     21  H   UNL     1      35.701  21.935  17.779  1.00  0.00     0.293 HD
ENDBRANCH   8  20
BRANCH   6  22
ATOM     22  O   UNL     1      32.877  17.484  15.578  1.00  0.00    -0.508 OA
ATOM     23  H   UNL     1      33.310  16.569  15.618  1.00  0.00     0.293 HD
ENDBRANCH   6  22
TORSDOF 4
ENDMDL
MODEL 4
REMARK VINA RESULT:    -1.636      2.321      7.277
REMARK INTER + INTRA:          -2.167
REMARK INTER:                  -1.875
REMARK INTRA:                  -0.293
REMARK UNBOUND:                -0.293
REMARK SMILES O=C1C[C@@H](c2ccc(O)cc2)Oc2cc(O)cc(O)c21
REMARK SMILES IDX 3 1 4 2 12 3 13 4 14 5 15 6 17 7 18 8 20 9 2 10 1 11 5 12
REMARK SMILES IDX 6 13 11 14 7 15 10 16 8 17 9 18 19 20 16 22
REMARK H PARENT 9 19 19 21 16 23
REMARK Flexibility Score: inf
ROOT
ATOM      1  C   UNL     1      33.129  19.017  13.554  1.00  0.00     0.131 C 
ATOM      2  C   UNL     1      33.460  19.510  14.967  1.00  0.00     0.211 C 
ATOM      3  O   UNL     1      34.798  20.005  15.013  1.00  0.00    -0.484 OA
ATOM      4  C   UNL     1      35.304  20.851  14.019  1.00  0.00     0.138 A 
ATOM      5  C   UNL     1      36.484  21.554  14.272  1.00  0.00     0.093 A 
ATOM      6  C   UNL     1      37.002  22.425  13.316  1.00  0.00     0.123 A 
ATOM      7  C   UNL     1      36.327  22.608  12.105  1.00  0.00     0.093 A 
ATOM      8  C   UNL     1      35.139  21.918  11.833  1.00  0.00     0.133 A 
ATOM      9  C   UNL     1      34.637  20.983  12.782  1.00  0.00     0.102 A 
ATOM     10  C   UNL     1      33.491  20.060  12.532  1.00  0.00     0.174 C 
ATOM     11  O   UNL     1      32.876  20.049  11.435  1.00  0.00    -0.294 OA
ENDROOT
BRANCH   2  12
ATOM     12  C   UNL     1      33.281  18.403  15.977  1.00  0.00    -0.007 A 
ATOM     13  C   UNL     1      33.436  18.656  17.353  1.00  0.00     0.011 A 
ATOM     14  C   UNL     1      33.012  17.092  15.549  1.00  0.00     0.011 A 
ATOM     15  C   UNL     1      33.298  17.620  18.281  1.00  0.00     0.046 A 
ATOM     16  C   UNL     1      32.875  16.058  16.480  1.00  0.00     0.046 A 
ATOM     17  C   UNL     1      33.017  16.318  17.847  1.00  0.00     0.115 A 
BRANCH  17  18
ATOM     18  O   UNL     1      32.877  15.279  18.764  1.00  0.00    -0.508 OA
ATOM     19  H   UNL     1      32.639  14.340  18.468  1.00  0.00     0.293 HD
ENDBRANCH  17  18
ENDBRANCH   2  12
BRANCH   8  20
ATOM     20  O   UNL     1      34.502  22.213  10.624  1.00  0.00    -0.507 OA
ATOM     21  H   UNL     1      33.883  22.996  10.481  1.00  0.00     0.293 HD
ENDBRANCH   8  20
BRANCH   6  22
ATOM     22  O   UNL     1      38.184  23.115  13.582  1.00  0.00    -0.508 OA
ATOM     23  H   UNL     1      38.501  23.275  14.531  1.00  0.00     0.293 HD
ENDBRANCH   6  22
TORSDOF 4
ENDMDL
MODEL 5
REMARK VINA RESULT:    -0.508      1.633      3.334
REMARK INTER + INTRA:          -0.875
REMARK INTER:                  -0.597
REMARK INTRA:                  -0.278
REMARK UNBOUND:                -0.293
REMARK SMILES O=C1C[C@@H](c2ccc(O)cc2)Oc2cc(O)cc(O)c21
REMARK SMILES IDX 3 1 4 2 12 3 13 4 14 5 15 6 17 7 18 8 20 9 2 10 1 11 5 12
REMARK SMILES IDX 6 13 11 14 7 15 10 16 8 17 9 18 19 20 16 22
REMARK H PARENT 9 19 19 21 16 23
REMARK Flexibility Score: inf
ROOT
ATOM      1  C   UNL     1      34.239  20.989  12.841  1.00  0.00     0.131 C 
ATOM      2  C   UNL     1      35.291  21.162  11.740  1.00  0.00     0.211 C 
ATOM      3  O   UNL     1      36.330  22.032  12.187  1.00  0.00    -0.484 OA
ATOM      4  C   UNL     1      36.903  21.903  13.458  1.00  0.00     0.138 A 
ATOM      5  C   UNL     1      38.111  22.553  13.720  1.00  0.00     0.093 A 
ATOM      6  C   UNL     1      38.721  22.426  14.966  1.00  0.00     0.123 A 
ATOM      7  C   UNL     1      38.131  21.628  15.951  1.00  0.00     0.093 A 
ATOM      8  C   UNL     1      36.923  20.961  15.707  1.00  0.00     0.133 A 
ATOM      9  C   UNL     1      36.264  21.136  14.457  1.00  0.00     0.102 A 
ATOM     10  C   UNL     1      34.894  20.631  14.147  1.00  0.00     0.174 C 
ATOM     11  O   UNL     1      34.214  19.998  14.995  1.00  0.00    -0.294 OA
ENDROOT
BRANCH   2  12
ATOM     12  C   UNL     1      34.664  21.706  10.480  1.00  0.00    -0.007 A 
ATOM     13  C   UNL     1      33.468  22.445  10.537  1.00  0.00     0.011 A 
ATOM     14  C   UNL     1      35.241  21.433   9.228  1.00  0.00     0.011 A 
ATOM     15  C   UNL     1      32.876  22.920   9.363  1.00  0.00     0.046 A 
ATOM     16  C   UNL     1      34.646  21.910   8.056  1.00  0.00     0.046 A 
ATOM     17  C   UNL     1      33.464  22.655   8.120  1.00  0.00     0.115 A 
BRANCH  17  18
ATOM     18  O   UNL     1      32.882  23.124   6.944  1.00  0.00    -0.508 OA
ATOM     19  H   UNL     1      32.714  22.512   6.155  1.00  0.00     0.293 HD
ENDBRANCH  17  18
ENDBRANCH   2  12
BRANCH   8  20
ATOM     20  O   UNL     1      36.441  20.136  16.728  1.00  0.00    -0.507 OA
ATOM     21  H   UNL     1      37.024  19.629  17.375  1.00  0.00     0.293 HD
ENDBRANCH   8  20
BRANCH   6  22
ATOM     22  O   UNL     1      39.924  23.086  15.213  1.00  0.00    -0.508 OA
ATOM     23  H   UNL     1      40.773  22.577  15.428  1.00  0.00     0.293 HD
ENDBRANCH   6  22
TORSDOF 4
ENDMDL
