MODEL 1
REMARK VINA RESULT:    -7.055      0.000      0.000
REMARK INTER + INTRA:          -8.419
REMARK INTER:                  -8.292
REMARK INTRA:                  -0.126
REMARK UNBOUND:                -0.126
REMARK SMILES O=C([O-])C=Cc1ccc(O)c(O)c1
REMARK SMILES IDX 6 1 13 2 7 3 11 4 8 5 9 6 5 7 4 8 2 9 1 10 3 11 12 12 10 14
REMARK H PARENT 12 13 10 15
REMARK Flexibility Score: inf
ROOT
ATOM      1  C   UNL     1      33.666  26.265  18.521  1.00  0.00    -0.022 A 
ATOM      2  C   UNL     1      33.184  27.497  18.036  1.00  0.00     0.058 A 
ATOM      3  C   UNL     1      33.890  25.219  17.612  1.00  0.00     0.012 A 
ATOM      4  C   UNL     1      32.908  27.669  16.674  1.00  0.00     0.157 A 
ATOM      5  C   UNL     1      33.614  25.387  16.253  1.00  0.00     0.051 A 
ATOM      6  C   UNL     1      33.120  26.608  15.777  1.00  0.00     0.157 A 
ENDROOT
BRANCH   1   7
ATOM      7  C   UNL     1      33.984  26.040  19.954  1.00  0.00     0.010 C 
ATOM      8  C   UNL     1      34.062  27.023  20.862  1.00  0.00     0.025 C 
BRANCH   8   9
ATOM      9  C   UNL     1      34.369  26.752  22.276  1.00  0.00     0.064 C 
ATOM     10  O   UNL     1      34.738  25.600  22.621  1.00  0.00    -0.545 OA
ATOM     11  O   UNL     1      34.257  27.749  23.238  1.00  0.00    -0.545 OA
ENDBRANCH   8   9
ENDBRANCH   1   7
BRANCH   4  12
ATOM     12  O   UNL     1      32.428  28.901  16.231  1.00  0.00    -0.504 OA
ATOM     13  H   UNL     1      32.178  29.643  16.874  1.00  0.00     0.293 HD
ENDBRANCH   4  12
BRANCH   6  14
ATOM     14  O   UNL     1      32.844  26.772  14.422  1.00  0.00    -0.504 OA
ATOM     15  H   UNL     1      32.343  27.583  14.077  1.00  0.00     0.293 HD
ENDBRANCH   6  14
TORSDOF 4
ENDMDL
MODEL 2
REMARK VINA RESULT:    -6.843      1.426      2.372
REMARK INTER + INTRA:          -8.169
REMARK INTER:                  -8.046
REMARK INTRA:                  -0.123
REMARK UNBOUND:                -0.126
REMARK SMILES O=C([O-])C=Cc1ccc(O)c(O)c1
REMARK SMILES IDX 6 1 13 2 7 3 11 4 8 5 9 6 5 7 4 8 2 9 1 10 3 11 12 12 10 14
REMARK H PARENT 12 13 10 15
REMARK Flexibility Score: inf
ROOT
ATOM      1  C   UNL     1      33.775  26.485  19.354  1.00  0.00    -0.022 A 
ATOM      2  C   UNL     1      33.991  25.241  18.729  1.00  0.00     0.058 A 
ATOM      3  C   UNL     1      33.289  27.555  18.584  1.00  0.00     0.012 A 
ATOM      4  C   UNL     1      33.751  25.079  17.358  1.00  0.00     0.157 A 
ATOM      5  C   UNL     1      33.051  27.396  17.217  1.00  0.00     0.051 A 
ATOM      6  C   UNL     1      33.282  26.162  16.597  1.00  0.00     0.157 A 
ENDROOT
BRANCH   1   7
ATOM      7  C   UNL     1      34.003  26.701  20.805  1.00  0.00     0.010 C 
ATOM      8  C   UNL     1      34.812  25.938  21.552  1.00  0.00     0.025 C 
BRANCH   8   9
ATOM      9  C   UNL     1      35.018  26.196  22.986  1.00  0.00     0.064 C 
ATOM     10  O   UNL     1      35.462  27.313  23.358  1.00  0.00    -0.545 OA
ATOM     11  O   UNL     1      34.732  25.225  23.939  1.00  0.00    -0.545 OA
ENDBRANCH   8   9
ENDBRANCH   1   7
BRANCH   4  12
ATOM     12  O   UNL     1      33.980  23.834  16.774  1.00  0.00    -0.504 OA
ATOM     13  H   UNL     1      34.580  23.721  15.965  1.00  0.00     0.293 HD
ENDBRANCH   4  12
BRANCH   6  14
ATOM     14  O   UNL     1      33.045  26.007  15.233  1.00  0.00    -0.504 OA
ATOM     15  H   UNL     1      32.104  25.966  14.859  1.00  0.00     0.293 HD
ENDBRANCH   6  14
TORSDOF 4
ENDMDL
MODEL 3
REMARK VINA RESULT:    -6.823      2.877      3.899
REMARK INTER + INTRA:          -8.146
REMARK INTER:                  -7.996
REMARK INTRA:                  -0.150
REMARK UNBOUND:                -0.126
REMARK SMILES O=C([O-])C=Cc1ccc(O)c(O)c1
REMARK SMILES IDX 6 1 13 2 7 3 11 4 8 5 9 6 5 7 4 8 2 9 1 10 3 11 12 12 10 14
REMARK H PARENT 12 13 10 15
REMARK Flexibility Score: inf
ROOT
ATOM      1  C   UNL     1      33.639  24.976  17.794  1.00  0.00    -0.022 A 
ATOM      2  C   UNL     1      33.425  26.228  18.407  1.00  0.00     0.058 A 
ATOM      3  C   UNL     1      33.602  24.893  16.394  1.00  0.00     0.012 A 
ATOM      4  C   UNL     1      33.156  27.364  17.634  1.00  0.00     0.157 A 
ATOM      5  C   UNL     1      33.332  26.025  15.621  1.00  0.00     0.051 A 
ATOM      6  C   UNL     1      33.105  27.262  16.234  1.00  0.00     0.157 A 
ENDROOT
BRANCH   1   7
ATOM      7  C   UNL     1      33.939  23.747  18.571  1.00  0.00     0.010 C 
ATOM      8  C   UNL     1      33.616  22.512  18.164  1.00  0.00     0.025 C 
BRANCH   8   9
ATOM      9  C   UNL     1      33.944  21.320  18.962  1.00  0.00     0.064 C 
ATOM     10  O   UNL     1      34.676  21.435  19.978  1.00  0.00    -0.545 OA
ATOM     11  O   UNL     1      33.459  20.065  18.610  1.00  0.00    -0.545 OA
ENDBRANCH   8   9
ENDBRANCH   1   7
BRANCH   4  12
ATOM     12  O   UNL     1      32.947  28.584  18.276  1.00  0.00    -0.504 OA
ATOM     13  H   UNL     1      33.676  29.043  18.810  1.00  0.00     0.293 HD
ENDBRANCH   4  12
BRANCH   6  14
ATOM     14  O   UNL     1      32.835  28.389  15.461  1.00  0.00    -0.504 OA
ATOM     15  H   UNL     1      32.316  28.325  14.592  1.00  0.00     0.293 HD
ENDBRANCH   6  14
TORSDOF 4
ENDMDL
MODEL 4
REMARK VINA RESULT:    -6.804      1.094      5.994
REMARK INTER + INTRA:          -8.124
REMARK INTER:                  -7.969
REMARK INTRA:                  -0.155
REMARK UNBOUND:                -0.126
REMARK SMILES O=C([O-])C=Cc1ccc(O)c(O)c1
REMARK SMILES IDX 6 1 13 2 7 3 11 4 8 5 9 6 5 7 4 8 2 9 1 10 3 11 12 12 10 14
REMARK H PARENT 12 13 10 15
REMARK Flexibility Score: inf
ROOT
ATOM      1  C   UNL     1      33.873  26.483  19.550  1.00  0.00    -0.022 A 
ATOM      2  C   UNL     1      34.593  25.828  20.569  1.00  0.00     0.058 A 
ATOM      3  C   UNL     1      33.177  27.662  19.862  1.00  0.00     0.012 A 
ATOM      4  C   UNL     1      34.594  26.329  21.877  1.00  0.00     0.157 A 
ATOM      5  C   UNL     1      33.174  28.162  21.166  1.00  0.00     0.051 A 
ATOM      6  C   UNL     1      33.878  27.499  22.179  1.00  0.00     0.157 A 
ENDROOT
BRANCH   1   7
ATOM      7  C   UNL     1      33.853  25.997  18.147  1.00  0.00     0.010 C 
ATOM      8  C   UNL     1      33.276  26.663  17.137  1.00  0.00     0.025 C 
BRANCH   8   9
ATOM      9  C   UNL     1      33.290  26.149  15.758  1.00  0.00     0.064 C 
ATOM     10  O   UNL     1      34.038  25.181  15.465  1.00  0.00    -0.545 OA
ATOM     11  O   UNL     1      32.491  26.716  14.772  1.00  0.00    -0.545 OA
ENDBRANCH   8   9
ENDBRANCH   1   7
BRANCH   4  12
ATOM     12  O   UNL     1      35.314  25.651  22.860  1.00  0.00    -0.504 OA
ATOM     13  H   UNL     1      35.448  24.647  22.833  1.00  0.00     0.293 HD
ENDBRANCH   4  12
BRANCH   6  14
ATOM     14  O   UNL     1      33.872  28.000  23.479  1.00  0.00    -0.504 OA
ATOM     15  H   UNL     1      34.690  28.444  23.881  1.00  0.00     0.293 HD
ENDBRANCH   6  14
TORSDOF 4
ENDMDL
MODEL 5
REMARK VINA RESULT:    -6.708      3.129      4.403
REMARK INTER + INTRA:          -8.010
REMARK INTER:                  -7.885
REMARK INTRA:                  -0.125
REMARK UNBOUND:                -0.126
REMARK SMILES O=C([O-])C=Cc1ccc(O)c(O)c1
REMARK SMILES IDX 6 1 13 2 7 3 11 4 8 5 9 6 5 7 4 8 2 9 1 10 3 11 12 12 10 14
REMARK H PARENT 12 13 10 15
REMARK Flexibility Score: inf
ROOT
ATOM      1  C   UNL     1      33.728  24.634  18.065  1.00  0.00    -0.022 A 
ATOM      2  C   UNL     1      33.520  24.871  16.692  1.00  0.00     0.058 A 
ATOM      3  C   UNL     1      33.608  25.706  18.964  1.00  0.00     0.012 A 
ATOM      4  C   UNL     1      33.224  26.159  16.227  1.00  0.00     0.157 A 
ATOM      5  C   UNL     1      33.315  26.991  18.503  1.00  0.00     0.051 A 
ATOM      6  C   UNL     1      33.125  27.225  17.136  1.00  0.00     0.157 A 
ENDROOT
BRANCH   1   7
ATOM      7  C   UNL     1      34.031  23.285  18.606  1.00  0.00     0.010 C 
ATOM      8  C   UNL     1      33.517  22.151  18.109  1.00  0.00     0.025 C 
BRANCH   8   9
ATOM      9  C   UNL     1      33.856  20.833  18.670  1.00  0.00     0.064 C 
ATOM     10  O   UNL     1      34.995  20.344  18.461  1.00  0.00    -0.545 OA
ATOM     11  O   UNL     1      32.935  20.117  19.427  1.00  0.00    -0.545 OA
ENDBRANCH   8   9
ENDBRANCH   1   7
BRANCH   4  12
ATOM     12  O   UNL     1      33.028  26.356  14.861  1.00  0.00    -0.504 OA
ATOM     13  H   UNL     1      32.231  26.868  14.500  1.00  0.00     0.293 HD
ENDBRANCH   4  12
BRANCH   6  14
ATOM     14  O   UNL     1      32.834  28.509  16.678  1.00  0.00    -0.504 OA
ATOM     15  H   UNL     1      32.421  28.666  15.767  1.00  0.00     0.293 HD
ENDBRANCH   6  14
TORSDOF 4
ENDMDL
MODEL 6
REMARK VINA RESULT:    -6.617      1.008      5.851
REMARK INTER + INTRA:          -7.904
REMARK INTER:                  -7.752
REMARK INTRA:                  -0.153
REMARK UNBOUND:                -0.126
REMARK SMILES O=C([O-])C=Cc1ccc(O)c(O)c1
REMARK SMILES IDX 6 1 13 2 7 3 11 4 8 5 9 6 5 7 4 8 2 9 1 10 3 11 12 12 10 14
REMARK H PARENT 12 13 10 15
REMARK Flexibility Score: inf
ROOT
ATOM      1  C   UNL     1      33.833  26.797  19.940  1.00  0.00    -0.022 A 
ATOM      2  C   UNL     1      33.531  27.634  21.033  1.00  0.00     0.058 A 
ATOM      3  C   UNL     1      34.573  25.625  20.168  1.00  0.00     0.012 A 
ATOM      4  C   UNL     1      33.982  27.317  22.321  1.00  0.00     0.157 A 
ATOM      5  C   UNL     1      35.025  25.308  21.451  1.00  0.00     0.051 A 
ATOM      6  C   UNL     1      34.736  26.150  22.531  1.00  0.00     0.157 A 
ENDROOT
BRANCH   1   7
ATOM      7  C   UNL     1      33.367  27.085  18.560  1.00  0.00     0.010 C 
ATOM      8  C   UNL     1      33.555  26.256  17.524  1.00  0.00     0.025 C 
BRANCH   8   9
ATOM      9  C   UNL     1      33.065  26.578  16.174  1.00  0.00     0.064 C 
ATOM     10  O   UNL     1      33.028  25.677  15.296  1.00  0.00    -0.545 OA
ATOM     11  O   UNL     1      32.642  27.862  15.850  1.00  0.00    -0.545 OA
ENDBRANCH   8   9
ENDBRANCH   1   7
BRANCH   4  12
ATOM     12  O   UNL     1      33.666  28.171  23.377  1.00  0.00    -0.504 OA
ATOM     13  H   UNL     1      32.791  28.681  23.413  1.00  0.00     0.293 HD
ENDBRANCH   4  12
BRANCH   6  14
ATOM     14  O   UNL     1      35.189  25.832  23.810  1.00  0.00    -0.504 OA
ATOM     15  H   UNL     1      35.750  25.006  23.984  1.00  0.00     0.293 HD
ENDBRANCH   6  14
TORSDOF 4
ENDMDL
MODEL 7
REMARK VINA RESULT:    -6.371      1.736      2.463
REMARK INTER + INTRA:          -7.614
REMARK INTER:                  -7.480
REMARK INTRA:                  -0.134
REMARK UNBOUND:                -0.126
REMARK SMILES O=C([O-])C=Cc1ccc(O)c(O)c1
REMARK SMILES IDX 6 1 13 2 7 3 11 4 8 5 9 6 5 7 4 8 2 9 1 10 3 11 12 12 10 14
REMARK H PARENT 12 13 10 15
REMARK Flexibility Score: inf
ROOT
ATOM      1  C   UNL     1      33.990  26.782  20.222  1.00  0.00    -0.022 A 
ATOM      2  C   UNL     1      33.508  27.332  19.017  1.00  0.00     0.058 A 
ATOM      3  C   UNL     1      34.495  25.473  20.215  1.00  0.00     0.012 A 
ATOM      4  C   UNL     1      33.510  26.578  17.837  1.00  0.00     0.157 A 
ATOM      5  C   UNL     1      34.495  24.717  19.040  1.00  0.00     0.051 A 
ATOM      6  C   UNL     1      34.002  25.262  17.849  1.00  0.00     0.157 A 
ENDROOT
BRANCH   1   7
ATOM      7  C   UNL     1      34.020  27.548  21.494  1.00  0.00     0.010 C 
ATOM      8  C   UNL     1      35.127  28.109  21.999  1.00  0.00     0.025 C 
BRANCH   8   9
ATOM      9  C   UNL     1      35.108  28.870  23.258  1.00  0.00     0.064 C 
ATOM     10  O   UNL     1      34.299  28.548  24.166  1.00  0.00    -0.545 OA
ATOM     11  O   UNL     1      35.970  29.942  23.463  1.00  0.00    -0.545 OA
ENDBRANCH   8   9
ENDBRANCH   1   7
BRANCH   4  12
ATOM     12  O   UNL     1      33.023  27.154  16.665  1.00  0.00    -0.504 OA
ATOM     13  H   UNL     1      32.175  27.710  16.651  1.00  0.00     0.293 HD
ENDBRANCH   4  12
BRANCH   6  14
ATOM     14  O   UNL     1      34.002  24.505  16.679  1.00  0.00    -0.504 OA
ATOM     15  H   UNL     1      33.864  24.933  15.771  1.00  0.00     0.293 HD
ENDBRANCH   6  14
TORSDOF 4
ENDMDL
MODEL 8
REMARK VINA RESULT:    -6.160      2.670      6.016
REMARK INTER + INTRA:          -7.366
REMARK INTER:                  -7.215
REMARK INTRA:                  -0.152
REMARK UNBOUND:                -0.126
REMARK SMILES O=C([O-])C=Cc1ccc(O)c(O)c1
REMARK SMILES IDX 6 1 13 2 7 3 11 4 8 5 9 6 5 7 4 8 2 9 1 10 3 11 12 12 10 14
REMARK H PARENT 12 13 10 15
REMARK Flexibility Score: inf
ROOT
ATOM      1  C   UNL     1      33.779  24.407  17.820  1.00  0.00    -0.022 A 
ATOM      2  C   UNL     1      33.644  23.007  17.726  1.00  0.00     0.058 A 
ATOM      3  C   UNL     1      34.357  24.957  18.975  1.00  0.00     0.012 A 
ATOM      4  C   UNL     1      34.057  22.179  18.778  1.00  0.00     0.157 A 
ATOM      5  C   UNL     1      34.768  24.133  20.026  1.00  0.00     0.051 A 
ATOM      6  C   UNL     1      34.618  22.744  19.935  1.00  0.00     0.157 A 
ENDROOT
BRANCH   1   7
ATOM      7  C   UNL     1      33.368  25.324  16.727  1.00  0.00     0.010 C 
ATOM      8  C   UNL     1      33.255  26.651  16.872  1.00  0.00     0.025 C 
BRANCH   8   9
ATOM      9  C   UNL     1      32.855  27.524  15.757  1.00  0.00     0.064 C 
ATOM     10  O   UNL     1      32.901  28.773  15.899  1.00  0.00    -0.545 OA
ATOM     11  O   UNL     1      32.425  26.991  14.547  1.00  0.00    -0.545 OA
ENDBRANCH   8   9
ENDBRANCH   1   7
BRANCH   4  12
ATOM     12  O   UNL     1      33.905  20.799  18.651  1.00  0.00    -0.504 OA
ATOM     13  H   UNL     1      33.000  20.348  18.726  1.00  0.00     0.293 HD
ENDBRANCH   4  12
BRANCH   6  14
ATOM     14  O   UNL     1      35.027  21.925  20.985  1.00  0.00    -0.504 OA
ATOM     15  H   UNL     1      35.997  21.877  21.275  1.00  0.00     0.293 HD
ENDBRANCH   6  14
TORSDOF 4
ENDMDL
MODEL 9
REMARK VINA RESULT:    -5.888      3.758      6.504
REMARK INTER + INTRA:          -7.047
REMARK INTER:                  -6.922
REMARK INTRA:                  -0.125
REMARK UNBOUND:                -0.126
REMARK SMILES O=C([O-])C=Cc1ccc(O)c(O)c1
REMARK SMILES IDX 6 1 13 2 7 3 11 4 8 5 9 6 5 7 4 8 2 9 1 10 3 11 12 12 10 14
REMARK H PARENT 12 13 10 15
REMARK Flexibility Score: inf
ROOT
ATOM      1  C   UNL     1      33.759  22.570  18.289  1.00  0.00    -0.022 A 
ATOM      2  C   UNL     1      34.380  22.593  19.554  1.00  0.00     0.058 A 
ATOM      3  C   UNL     1      33.059  21.418  17.897  1.00  0.00     0.012 A 
ATOM      4  C   UNL     1      34.321  21.476  20.398  1.00  0.00     0.157 A 
ATOM      5  C   UNL     1      33.001  20.303  18.736  1.00  0.00     0.051 A 
ATOM      6  C   UNL     1      33.631  20.323  19.986  1.00  0.00     0.157 A 
ENDROOT
BRANCH   1   7
ATOM      7  C   UNL     1      33.785  23.733  17.366  1.00  0.00     0.010 C 
ATOM      8  C   UNL     1      33.272  24.934  17.669  1.00  0.00     0.025 C 
BRANCH   8   9
ATOM      9  C   UNL     1      33.330  26.064  16.727  1.00  0.00     0.064 C 
ATOM     10  O   UNL     1      33.278  27.241  17.166  1.00  0.00    -0.545 OA
ATOM     11  O   UNL     1      33.440  25.851  15.358  1.00  0.00    -0.545 OA
ENDBRANCH   8   9
ENDBRANCH   1   7
BRANCH   4  12
ATOM     12  O   UNL     1      34.949  21.534  21.641  1.00  0.00    -0.504 OA
ATOM     13  H   UNL     1      35.875  21.151  21.794  1.00  0.00     0.293 HD
ENDBRANCH   4  12
BRANCH   6  14
ATOM     14  O   UNL     1      33.572  19.209  20.819  1.00  0.00    -0.504 OA
ATOM     15  H   UNL     1      34.025  19.199  21.726  1.00  0.00     0.293 HD
ENDBRANCH   6  14
TORSDOF 4
ENDMDL
