MODEL 1
REMARK VINA RESULT:    -5.242      0.000      0.000
REMARK INTER + INTRA:          -8.460
REMARK INTER:                  -8.001
REMARK INTRA:                  -0.459
REMARK UNBOUND:                -0.459
REMARK SMILES CCCCCCCCCCC(=O)[O-]
REMARK SMILES IDX 7 1 8 2 9 3 10 4 11 5 12 6 13 7 6 8 5 9 4 10 3 11 2 12 1 13
REMARK H PARENT
REMARK Flexibility Score: inf
ROOT
ATOM      1  C   UNL     1     -16.578  27.666  -0.347  1.00  0.00     0.000 C 
ENDROOT
BRANCH   1   2
ATOM      2  C   UNL     1     -16.354  26.694   0.828  1.00  0.00     0.000 C 
BRANCH   2   3
ATOM      3  C   UNL     1     -17.602  25.864   1.197  1.00  0.00     0.006 C 
BRANCH   3   4
ATOM      4  C   UNL     1     -18.000  24.885   0.084  1.00  0.00     0.053 C 
BRANCH   4   5
ATOM      5  C   UNL     1     -19.286  24.200   0.421  1.00  0.00     0.041 C 
ATOM      6  O   UNL     1     -19.312  22.954   0.605  1.00  0.00    -0.550 OA
ATOM      7  O   UNL     1     -20.450  24.943   0.579  1.00  0.00    -0.550 OA
ENDBRANCH   4   5
ENDBRANCH   3   4
ENDBRANCH   2   3
ENDBRANCH   1   2
BRANCH   1   8
ATOM      8  C   UNL     1     -16.660  29.151   0.048  1.00  0.00     0.000 C 
BRANCH   8   9
ATOM      9  C   UNL     1     -15.921  29.458   1.363  1.00  0.00    -0.000 C 
BRANCH   9  10
ATOM     10  C   UNL     1     -15.500  30.935   1.473  1.00  0.00    -0.000 C 
BRANCH  10  11
ATOM     11  C   UNL     1     -16.666  31.933   1.345  1.00  0.00    -0.000 C 
BRANCH  11  12
ATOM     12  C   UNL     1     -16.404  33.016   0.287  1.00  0.00    -0.003 C 
ATOM     13  C   UNL     1     -17.509  33.031  -0.767  1.00  0.00     0.004 C 
ENDBRANCH  11  12
ENDBRANCH  10  11
ENDBRANCH   9  10
ENDBRANCH   8   9
ENDBRANCH   1   8
TORSDOF 9
ENDMDL
MODEL 2
REMARK VINA RESULT:    -5.222      0.937      1.690
REMARK INTER + INTRA:          -8.429
REMARK INTER:                  -7.940
REMARK INTRA:                  -0.489
REMARK UNBOUND:                -0.459
REMARK SMILES CCCCCCCCCCC(=O)[O-]
REMARK SMILES IDX 7 1 8 2 9 3 10 4 11 5 12 6 13 7 6 8 5 9 4 10 3 11 2 12 1 13
REMARK H PARENT
REMARK Flexibility Score: inf
ROOT
ATOM      1  C   UNL     1     -16.248  28.369   1.762  1.00  0.00     0.000 C 
ENDROOT
BRANCH   1   2
ATOM      2  C   UNL     1     -16.644  28.281   0.275  1.00  0.00     0.000 C 
BRANCH   2   3
ATOM      3  C   UNL     1     -17.065  26.866  -0.175  1.00  0.00     0.006 C 
BRANCH   3   4
ATOM      4  C   UNL     1     -17.608  26.022   0.986  1.00  0.00     0.053 C 
BRANCH   4   5
ATOM      5  C   UNL     1     -18.497  24.934   0.475  1.00  0.00     0.041 C 
ATOM      6  O   UNL     1     -18.016  23.987  -0.200  1.00  0.00    -0.550 OA
ATOM      7  O   UNL     1     -19.852  24.941   0.784  1.00  0.00    -0.550 OA
ENDBRANCH   4   5
ENDBRANCH   3   4
ENDBRANCH   2   3
ENDBRANCH   1   2
BRANCH   1   8
ATOM      8  C   UNL     1     -15.931  29.788   2.264  1.00  0.00     0.000 C 
BRANCH   8   9
ATOM      9  C   UNL     1     -15.734  30.796   1.117  1.00  0.00    -0.000 C 
BRANCH   9  10
ATOM     10  C   UNL     1     -16.567  32.077   1.307  1.00  0.00    -0.000 C 
BRANCH  10  11
ATOM     11  C   UNL     1     -16.573  33.011   0.082  1.00  0.00    -0.000 C 
BRANCH  11  12
ATOM     12  C   UNL     1     -17.915  32.995  -0.666  1.00  0.00    -0.003 C 
ATOM     13  C   UNL     1     -18.118  31.670  -1.397  1.00  0.00     0.004 C 
ENDBRANCH  11  12
ENDBRANCH  10  11
ENDBRANCH   9  10
ENDBRANCH   8   9
ENDBRANCH   1   8
TORSDOF 9
ENDMDL
MODEL 3
REMARK VINA RESULT:    -5.171      3.902      7.154
REMARK INTER + INTRA:          -8.350
REMARK INTER:                  -7.932
REMARK INTRA:                  -0.418
REMARK UNBOUND:                -0.459
REMARK SMILES CCCCCCCCCCC(=O)[O-]
REMARK SMILES IDX 7 1 8 2 9 3 10 4 11 5 12 6 13 7 6 8 5 9 4 10 3 11 2 12 1 13
REMARK H PARENT
REMARK Flexibility Score: inf
ROOT
ATOM      1  C   UNL     1     -18.441  30.167  -1.774  1.00  0.00     0.000 C 
ENDROOT
BRANCH   1   2
ATOM      2  C   UNL     1     -18.174  31.666  -2.010  1.00  0.00     0.000 C 
BRANCH   2   3
ATOM      3  C   UNL     1     -18.175  32.511  -0.718  1.00  0.00     0.006 C 
BRANCH   3   4
ATOM      4  C   UNL     1     -16.949  33.429  -0.621  1.00  0.00     0.053 C 
BRANCH   4   5
ATOM      5  C   UNL     1     -16.227  33.208   0.670  1.00  0.00     0.041 C 
ATOM      6  O   UNL     1     -15.905  32.045   1.026  1.00  0.00    -0.550 OA
ATOM      7  O   UNL     1     -15.868  34.294   1.460  1.00  0.00    -0.550 OA
ENDBRANCH   4   5
ENDBRANCH   3   4
ENDBRANCH   2   3
ENDBRANCH   1   2
BRANCH   1   8
ATOM      8  C   UNL     1     -17.583  29.522  -0.673  1.00  0.00     0.000 C 
BRANCH   8   9
ATOM      9  C   UNL     1     -17.737  27.991  -0.617  1.00  0.00    -0.000 C 
BRANCH   9  10
ATOM     10  C   UNL     1     -16.496  27.293  -0.031  1.00  0.00    -0.000 C 
BRANCH  10  11
ATOM     11  C   UNL     1     -16.816  26.045   0.813  1.00  0.00    -0.000 C 
BRANCH  11  12
ATOM     12  C   UNL     1     -17.709  25.041   0.067  1.00  0.00    -0.003 C 
ATOM     13  C   UNL     1     -19.002  24.782   0.837  1.00  0.00     0.004 C 
ENDBRANCH  11  12
ENDBRANCH  10  11
ENDBRANCH   9  10
ENDBRANCH   8   9
ENDBRANCH   1   8
TORSDOF 9
ENDMDL
MODEL 4
REMARK VINA RESULT:    -5.111      2.819      6.029
REMARK INTER + INTRA:          -8.260
REMARK INTER:                  -7.703
REMARK INTRA:                  -0.557
REMARK UNBOUND:                -0.459
REMARK SMILES CCCCCCCCCCC(=O)[O-]
REMARK SMILES IDX 7 1 8 2 9 3 10 4 11 5 12 6 13 7 6 8 5 9 4 10 3 11 2 12 1 13
REMARK H PARENT
REMARK Flexibility Score: inf
ROOT
ATOM      1  C   UNL     1     -15.684  31.168   1.238  1.00  0.00     0.000 C 
ENDROOT
BRANCH   1   2
ATOM      2  C   UNL     1     -16.900  32.091   1.019  1.00  0.00     0.000 C 
BRANCH   2   3
ATOM      3  C   UNL     1     -17.017  32.636  -0.420  1.00  0.00     0.006 C 
BRANCH   3   4
ATOM      4  C   UNL     1     -18.383  32.329  -1.049  1.00  0.00     0.053 C 
BRANCH   4   5
ATOM      5  C   UNL     1     -18.307  31.099  -1.896  1.00  0.00     0.041 C 
ATOM      6  O   UNL     1     -18.117  31.195  -3.137  1.00  0.00    -0.550 OA
ATOM      7  O   UNL     1     -18.401  29.843  -1.309  1.00  0.00    -0.550 OA
ENDBRANCH   4   5
ENDBRANCH   3   4
ENDBRANCH   2   3
ENDBRANCH   1   2
BRANCH   1   8
ATOM      8  C   UNL     1     -15.917  29.693   0.872  1.00  0.00     0.000 C 
BRANCH   8   9
ATOM      9  C   UNL     1     -16.226  28.816   2.099  1.00  0.00    -0.000 C 
BRANCH   9  10
ATOM     10  C   UNL     1     -16.479  27.344   1.724  1.00  0.00    -0.000 C 
BRANCH  10  11
ATOM     11  C   UNL     1     -16.469  27.070   0.208  1.00  0.00    -0.000 C 
BRANCH  11  12
ATOM     12  C   UNL     1     -17.510  26.020  -0.210  1.00  0.00    -0.003 C 
ATOM     13  C   UNL     1     -18.249  25.468   1.007  1.00  0.00     0.004 C 
ENDBRANCH  11  12
ENDBRANCH  10  11
ENDBRANCH   9  10
ENDBRANCH   8   9
ENDBRANCH   1   8
TORSDOF 9
ENDMDL
MODEL 5
REMARK VINA RESULT:    -4.943      3.651      7.412
REMARK INTER + INTRA:          -8.002
REMARK INTER:                  -7.809
REMARK INTRA:                  -0.193
REMARK UNBOUND:                -0.459
REMARK SMILES CCCCCCCCCCC(=O)[O-]
REMARK SMILES IDX 7 1 8 2 9 3 10 4 11 5 12 6 13 7 6 8 5 9 4 10 3 11 2 12 1 13
REMARK H PARENT
REMARK Flexibility Score: inf
ROOT
ATOM      1  C   UNL     1     -16.600  28.038   0.928  1.00  0.00     0.000 C 
ENDROOT
BRANCH   1   2
ATOM      2  C   UNL     1     -16.164  28.969   2.077  1.00  0.00     0.000 C 
BRANCH   2   3
ATOM      3  C   UNL     1     -15.527  30.292   1.600  1.00  0.00     0.006 C 
BRANCH   3   4
ATOM      4  C   UNL     1     -16.267  31.523   2.141  1.00  0.00     0.053 C 
BRANCH   4   5
ATOM      5  C   UNL     1     -16.623  32.454   1.027  1.00  0.00     0.041 C 
ATOM      6  O   UNL     1     -15.991  33.532   0.875  1.00  0.00    -0.550 OA
ATOM      7  O   UNL     1     -17.625  32.111   0.126  1.00  0.00    -0.550 OA
ENDBRANCH   4   5
ENDBRANCH   3   4
ENDBRANCH   2   3
ENDBRANCH   1   2
BRANCH   1   8
ATOM      8  C   UNL     1     -16.442  26.536   1.217  1.00  0.00     0.000 C 
BRANCH   8   9
ATOM      9  C   UNL     1     -17.762  25.758   1.067  1.00  0.00    -0.000 C 
BRANCH   9  10
ATOM     10  C   UNL     1     -17.846  24.987  -0.262  1.00  0.00    -0.000 C 
BRANCH  10  11
ATOM     11  C   UNL     1     -18.962  23.926  -0.305  1.00  0.00    -0.000 C 
BRANCH  11  12
ATOM     12  C   UNL     1     -19.047  23.212  -1.663  1.00  0.00    -0.003 C 
ATOM     13  C   UNL     1     -20.269  22.298  -1.725  1.00  0.00     0.004 C 
ENDBRANCH  11  12
ENDBRANCH  10  11
ENDBRANCH   9  10
ENDBRANCH   8   9
ENDBRANCH   1   8
TORSDOF 9
ENDMDL
MODEL 6
REMARK VINA RESULT:    -4.909      3.755      7.452
REMARK INTER + INTRA:          -7.951
REMARK INTER:                  -7.552
REMARK INTRA:                  -0.399
REMARK UNBOUND:                -0.459
REMARK SMILES CCCCCCCCCCC(=O)[O-]
REMARK SMILES IDX 7 1 8 2 9 3 10 4 11 5 12 6 13 7 6 8 5 9 4 10 3 11 2 12 1 13
REMARK H PARENT
REMARK Flexibility Score: inf
ROOT
ATOM      1  C   UNL     1     -16.920  26.816   0.027  1.00  0.00     0.000 C 
ENDROOT
BRANCH   1   2
ATOM      2  C   UNL     1     -16.589  26.751   1.531  1.00  0.00     0.000 C 
BRANCH   2   3
ATOM      3  C   UNL     1     -16.302  28.128   2.167  1.00  0.00     0.006 C 
BRANCH   3   4
ATOM      4  C   UNL     1     -16.132  29.231   1.115  1.00  0.00     0.053 C 
BRANCH   4   5
ATOM      5  C   UNL     1     -15.513  30.449   1.724  1.00  0.00     0.041 C 
ATOM      6  O   UNL     1     -15.676  31.577   1.191  1.00  0.00    -0.550 OA
ATOM      7  O   UNL     1     -14.792  30.344   2.908  1.00  0.00    -0.550 OA
ENDBRANCH   4   5
ENDBRANCH   3   4
ENDBRANCH   2   3
ENDBRANCH   1   2
BRANCH   1   8
ATOM      8  C   UNL     1     -17.750  25.636  -0.505  1.00  0.00     0.000 C 
BRANCH   8   9
ATOM      9  C   UNL     1     -18.667  25.021   0.568  1.00  0.00    -0.000 C 
BRANCH   9  10
ATOM     10  C   UNL     1     -19.534  23.874   0.018  1.00  0.00    -0.000 C 
BRANCH  10  11
ATOM     11  C   UNL     1     -19.132  23.402  -1.393  1.00  0.00    -0.000 C 
BRANCH  11  12
ATOM     12  C   UNL     1     -19.945  22.186  -1.864  1.00  0.00    -0.003 C 
ATOM     13  C   UNL     1     -19.030  21.005  -2.177  1.00  0.00     0.004 C 
ENDBRANCH  11  12
ENDBRANCH  10  11
ENDBRANCH   9  10
ENDBRANCH   8   9
ENDBRANCH   1   8
TORSDOF 9
ENDMDL
MODEL 7
REMARK VINA RESULT:    -4.810      3.099      7.123
REMARK INTER + INTRA:          -7.801
REMARK INTER:                  -7.415
REMARK INTRA:                  -0.386
REMARK UNBOUND:                -0.459
REMARK SMILES CCCCCCCCCCC(=O)[O-]
REMARK SMILES IDX 7 1 8 2 9 3 10 4 11 5 12 6 13 7 6 8 5 9 4 10 3 11 2 12 1 13
REMARK H PARENT
REMARK Flexibility Score: inf
ROOT
ATOM      1  C   UNL     1     -16.555  26.143   1.007  1.00  0.00     0.000 C 
ENDROOT
BRANCH   1   2
ATOM      2  C   UNL     1     -16.435  27.674   0.870  1.00  0.00     0.000 C 
BRANCH   2   3
ATOM      3  C   UNL     1     -17.341  28.274  -0.226  1.00  0.00     0.006 C 
BRANCH   3   4
ATOM      4  C   UNL     1     -17.134  29.786  -0.388  1.00  0.00     0.053 C 
BRANCH   4   5
ATOM      5  C   UNL     1     -18.167  30.363  -1.303  1.00  0.00     0.041 C 
ATOM      6  O   UNL     1     -19.067  29.628  -1.788  1.00  0.00    -0.550 OA
ATOM      7  O   UNL     1     -18.164  31.724  -1.584  1.00  0.00    -0.550 OA
ENDBRANCH   4   5
ENDBRANCH   3   4
ENDBRANCH   2   3
ENDBRANCH   1   2
BRANCH   1   8
ATOM      8  C   UNL     1     -17.609  25.492   0.095  1.00  0.00     0.000 C 
BRANCH   8   9
ATOM      9  C   UNL     1     -18.850  25.010   0.867  1.00  0.00    -0.000 C 
BRANCH   9  10
ATOM     10  C   UNL     1     -19.478  23.748   0.247  1.00  0.00    -0.000 C 
BRANCH  10  11
ATOM     11  C   UNL     1     -18.901  23.370  -1.130  1.00  0.00    -0.000 C 
BRANCH  11  12
ATOM     12  C   UNL     1     -19.750  22.316  -1.857  1.00  0.00    -0.003 C 
ATOM     13  C   UNL     1     -18.910  21.094  -2.223  1.00  0.00     0.004 C 
ENDBRANCH  11  12
ENDBRANCH  10  11
ENDBRANCH   9  10
ENDBRANCH   8   9
ENDBRANCH   1   8
TORSDOF 9
ENDMDL
MODEL 8
REMARK VINA RESULT:    -4.800      1.173      1.728
REMARK INTER + INTRA:          -7.785
REMARK INTER:                  -7.405
REMARK INTRA:                  -0.380
REMARK UNBOUND:                -0.459
REMARK SMILES CCCCCCCCCCC(=O)[O-]
REMARK SMILES IDX 7 1 8 2 9 3 10 4 11 5 12 6 13 7 6 8 5 9 4 10 3 11 2 12 1 13
REMARK H PARENT
REMARK Flexibility Score: inf
ROOT
ATOM      1  C   UNL     1     -17.150  27.177  -0.168  1.00  0.00     0.000 C 
ENDROOT
BRANCH   1   2
ATOM      2  C   UNL     1     -17.511  26.155   0.929  1.00  0.00     0.000 C 
BRANCH   2   3
ATOM      3  C   UNL     1     -18.596  25.142   0.505  1.00  0.00     0.006 C 
BRANCH   3   4
ATOM      4  C   UNL     1     -18.116  24.211  -0.616  1.00  0.00     0.053 C 
BRANCH   4   5
ATOM      5  C   UNL     1     -19.001  23.009  -0.717  1.00  0.00     0.041 C 
ATOM      6  O   UNL     1     -20.252  23.146  -0.766  1.00  0.00    -0.550 OA
ATOM      7  O   UNL     1     -18.443  21.740  -0.804  1.00  0.00    -0.550 OA
ENDBRANCH   4   5
ENDBRANCH   3   4
ENDBRANCH   2   3
ENDBRANCH   1   2
BRANCH   1   8
ATOM      8  C   UNL     1     -16.330  28.384   0.317  1.00  0.00     0.000 C 
BRANCH   8   9
ATOM      9  C   UNL     1     -16.212  28.447   1.851  1.00  0.00    -0.000 C 
BRANCH   9  10
ATOM     10  C   UNL     1     -15.822  29.848   2.357  1.00  0.00    -0.000 C 
BRANCH  10  11
ATOM     11  C   UNL     1     -15.713  30.910   1.246  1.00  0.00    -0.000 C 
BRANCH  11  12
ATOM     12  C   UNL     1     -16.637  32.114   1.488  1.00  0.00    -0.003 C 
ATOM     13  C   UNL     1     -16.268  33.279   0.573  1.00  0.00     0.004 C 
ENDBRANCH  11  12
ENDBRANCH  10  11
ENDBRANCH   9  10
ENDBRANCH   8   9
ENDBRANCH   1   8
TORSDOF 9
ENDMDL
MODEL 9
REMARK VINA RESULT:    -4.786      1.611      2.898
REMARK INTER + INTRA:          -7.764
REMARK INTER:                  -7.375
REMARK INTRA:                  -0.388
REMARK UNBOUND:                -0.459
REMARK SMILES CCCCCCCCCCC(=O)[O-]
REMARK SMILES IDX 7 1 8 2 9 3 10 4 11 5 12 6 13 7 6 8 5 9 4 10 3 11 2 12 1 13
REMARK H PARENT
REMARK Flexibility Score: inf
ROOT
ATOM      1  C   UNL     1     -18.094  25.475   0.870  1.00  0.00     0.000 C 
ENDROOT
BRANCH   1   2
ATOM      2  C   UNL     1     -18.111  24.957  -0.582  1.00  0.00     0.000 C 
BRANCH   2   3
ATOM      3  C   UNL     1     -18.620  23.506  -0.720  1.00  0.00     0.006 C 
BRANCH   3   4
ATOM      4  C   UNL     1     -20.010  23.315  -0.100  1.00  0.00     0.053 C 
BRANCH   4   5
ATOM      5  C   UNL     1     -20.973  22.790  -1.117  1.00  0.00     0.041 C 
ATOM      6  O   UNL     1     -20.558  22.103  -2.087  1.00  0.00    -0.550 OA
ATOM      7  O   UNL     1     -22.335  23.020  -0.969  1.00  0.00    -0.550 OA
ENDBRANCH   4   5
ENDBRANCH   3   4
ENDBRANCH   2   3
ENDBRANCH   1   2
BRANCH   1   8
ATOM      8  C   UNL     1     -16.898  26.376   1.221  1.00  0.00     0.000 C 
BRANCH   8   9
ATOM      9  C   UNL     1     -16.291  27.068  -0.013  1.00  0.00    -0.000 C 
BRANCH   9  10
ATOM     10  C   UNL     1     -16.288  28.603   0.112  1.00  0.00    -0.000 C 
BRANCH  10  11
ATOM     11  C   UNL     1     -16.155  29.116   1.558  1.00  0.00    -0.000 C 
BRANCH  11  12
ATOM     12  C   UNL     1     -15.417  30.461   1.642  1.00  0.00    -0.003 C 
ATOM     13  C   UNL     1     -16.270  31.590   1.069  1.00  0.00     0.004 C 
ENDBRANCH  11  12
ENDBRANCH  10  11
ENDBRANCH   9  10
ENDBRANCH   8   9
ENDBRANCH   1   8
TORSDOF 9
ENDMDL
