MODEL 1
REMARK VINA RESULT:    -3.873      0.000      0.000
REMARK INTER + INTRA:          -6.298
REMARK INTER:                  -5.572
REMARK INTRA:                  -0.726
REMARK UNBOUND:                -0.726
REMARK SMILES O=C(CO)[C@H](O)[C@@H](O)[C@@H](O)CO
REMARK SMILES IDX 7 1 9 2 11 3 12 4 10 6 5 8 2 9 1 10 3 11 4 12 6 14 8 16
REMARK H PARENT 12 5 10 7 4 13 6 15 8 17
REMARK Flexibility Score: inf
ROOT
ATOM      1  C   UNL     1      -0.029  -5.579  -7.306  1.00  0.00     0.181 C 
ENDROOT
BRANCH   1   2
ATOM      2  C   UNL     1      -1.285  -4.674  -7.173  1.00  0.00     0.171 C 
BRANCH   2   3
ATOM      3  C   UNL     1      -1.820  -4.126  -8.512  1.00  0.00     0.190 C 
BRANCH   3   4
ATOM      4  O   UNL     1      -1.211  -2.901  -8.816  1.00  0.00    -0.394 OA
ATOM      5  H   UNL     1      -0.606  -3.076  -9.582  1.00  0.00     0.210 HD
ENDBRANCH   3   4
ENDBRANCH   2   3
BRANCH   2   6
ATOM      6  O   UNL     1      -1.012  -3.610  -6.293  1.00  0.00    -0.388 OA
ATOM      7  H   UNL     1      -1.512  -2.816  -6.616  1.00  0.00     0.211 HD
ENDBRANCH   2   6
ENDBRANCH   1   2
BRANCH   1   8
ATOM      8  C   UNL     1       1.300  -4.788  -7.241  1.00  0.00     0.214 C 
BRANCH   8   9
ATOM      9  C   UNL     1       1.887  -4.612  -8.627  1.00  0.00     0.189 C 
ATOM     10  O   UNL     1       1.743  -3.545  -9.204  1.00  0.00    -0.294 OA
BRANCH   9  11
ATOM     11  C   UNL     1       2.613  -5.726  -9.328  1.00  0.00     0.234 C 
BRANCH  11  12
ATOM     12  O   UNL     1       3.881  -5.885  -8.758  1.00  0.00    -0.388 OA
ATOM     13  H   UNL     1       4.413  -6.411  -9.411  1.00  0.00     0.211 HD
ENDBRANCH  11  12
ENDBRANCH   9  11
ENDBRANCH   8   9
BRANCH   8  14
ATOM     14  O   UNL     1       2.221  -5.445  -6.409  1.00  0.00    -0.382 OA
ATOM     15  H   UNL     1       1.718  -6.151  -5.923  1.00  0.00     0.211 HD
ENDBRANCH   8  14
ENDBRANCH   1   8
BRANCH   1  16
ATOM     16  O   UNL     1      -0.053  -6.581  -6.319  1.00  0.00    -0.387 OA
ATOM     17  H   UNL     1       0.560  -7.302  -6.616  1.00  0.00     0.211 HD
ENDBRANCH   1  16
TORSDOF 10
ENDMDL
MODEL 2
REMARK VINA RESULT:    -3.724     12.788     13.773
REMARK INTER + INTRA:          -6.082
REMARK INTER:                  -5.541
REMARK INTRA:                  -0.541
REMARK UNBOUND:                -0.726
REMARK SMILES O=C(CO)[C@H](O)[C@@H](O)[C@@H](O)CO
REMARK SMILES IDX 7 1 9 2 11 3 12 4 10 6 5 8 2 9 1 10 3 11 4 12 6 14 8 16
REMARK H PARENT 12 5 10 7 4 13 6 15 8 17
REMARK Flexibility Score: inf
ROOT
ATOM      1  C   UNL     1       7.259   5.208  -3.436  1.00  0.00     0.181 C 
ENDROOT
BRANCH   1   2
ATOM      2  C   UNL     1       7.513   6.016  -4.738  1.00  0.00     0.171 C 
BRANCH   2   3
ATOM      3  C   UNL     1       8.253   5.231  -5.841  1.00  0.00     0.190 C 
BRANCH   3   4
ATOM      4  O   UNL     1       7.442   5.104  -6.977  1.00  0.00    -0.394 OA
ATOM      5  H   UNL     1       8.037   4.794  -7.707  1.00  0.00     0.210 HD
ENDBRANCH   3   4
ENDBRANCH   2   3
BRANCH   2   6
ATOM      6  O   UNL     1       8.216   7.197  -4.434  1.00  0.00    -0.388 OA
ATOM      7  H   UNL     1       8.946   6.959  -3.805  1.00  0.00     0.211 HD
ENDBRANCH   2   6
ENDBRANCH   1   2
BRANCH   1   8
ATOM      8  C   UNL     1       7.550   6.020  -2.150  1.00  0.00     0.214 C 
BRANCH   8   9
ATOM      9  C   UNL     1       7.723   5.096  -0.962  1.00  0.00     0.189 C 
ATOM     10  O   UNL     1       6.911   4.203  -0.778  1.00  0.00    -0.294 OA
BRANCH   9  11
ATOM     11  C   UNL     1       8.850   5.267   0.019  1.00  0.00     0.234 C 
BRANCH  11  12
ATOM     12  O   UNL     1       9.879   4.372  -0.295  1.00  0.00    -0.388 OA
ATOM     13  H   UNL     1       9.679   3.536   0.202  1.00  0.00     0.211 HD
ENDBRANCH  11  12
ENDBRANCH   9  11
ENDBRANCH   8   9
BRANCH   8  14
ATOM     14  O   UNL     1       6.513   6.934  -1.902  1.00  0.00    -0.382 OA
ATOM     15  H   UNL     1       6.490   7.559  -2.673  1.00  0.00     0.211 HD
ENDBRANCH   8  14
ENDBRANCH   1   8
BRANCH   1  16
ATOM     16  O   UNL     1       5.939   4.723  -3.423  1.00  0.00    -0.387 OA
ATOM     17  H   UNL     1       5.472   5.159  -2.664  1.00  0.00     0.211 HD
ENDBRANCH   1  16
TORSDOF 10
ENDMDL
MODEL 3
REMARK VINA RESULT:    -3.700      1.002      4.125
REMARK INTER + INTRA:          -6.048
REMARK INTER:                  -5.472
REMARK INTRA:                  -0.576
REMARK UNBOUND:                -0.726
REMARK SMILES O=C(CO)[C@H](O)[C@@H](O)[C@@H](O)CO
REMARK SMILES IDX 7 1 9 2 11 3 12 4 10 6 5 8 2 9 1 10 3 11 4 12 6 14 8 16
REMARK H PARENT 12 5 10 7 4 13 6 15 8 17
REMARK Flexibility Score: inf
ROOT
ATOM      1  C   UNL     1       1.239  -4.917  -7.329  1.00  0.00     0.181 C 
ENDROOT
BRANCH   1   2
ATOM      2  C   UNL     1       1.494  -4.965  -8.861  1.00  0.00     0.171 C 
BRANCH   2   3
ATOM      3  C   UNL     1       2.459  -6.082  -9.310  1.00  0.00     0.190 C 
BRANCH   3   4
ATOM      4  O   UNL     1       3.770  -5.781  -8.917  1.00  0.00    -0.394 OA
ATOM      5  H   UNL     1       3.799  -5.911  -7.934  1.00  0.00     0.210 HD
ENDBRANCH   3   4
ENDBRANCH   2   3
BRANCH   2   6
ATOM      6  O   UNL     1       1.966  -3.716  -9.303  1.00  0.00    -0.388 OA
ATOM      7  H   UNL     1       2.323  -3.836 -10.221  1.00  0.00     0.211 HD
ENDBRANCH   2   6
ENDBRANCH   1   2
BRANCH   1   8
ATOM      8  C   UNL     1       0.015  -5.756  -6.890  1.00  0.00     0.214 C 
BRANCH   8   9
ATOM      9  C   UNL     1      -1.221  -5.348  -7.665  1.00  0.00     0.189 C 
ATOM     10  O   UNL     1      -1.804  -6.183  -8.340  1.00  0.00    -0.294 OA
BRANCH   9  11
ATOM     11  C   UNL     1      -1.733  -3.934  -7.655  1.00  0.00     0.234 C 
BRANCH  11  12
ATOM     12  O   UNL     1      -1.823  -3.482  -6.333  1.00  0.00    -0.388 OA
ATOM     13  H   UNL     1      -2.409  -2.680  -6.356  1.00  0.00     0.211 HD
ENDBRANCH  11  12
ENDBRANCH   9  11
ENDBRANCH   8   9
BRANCH   8  14
ATOM     14  O   UNL     1      -0.211  -5.609  -5.511  1.00  0.00    -0.382 OA
ATOM     15  H   UNL     1      -0.812  -4.826  -5.400  1.00  0.00     0.211 HD
ENDBRANCH   8  14
ENDBRANCH   1   8
BRANCH   1  16
ATOM     16  O   UNL     1       2.392  -5.329  -6.637  1.00  0.00    -0.387 OA
ATOM     17  H   UNL     1       2.692  -6.181  -7.046  1.00  0.00     0.211 HD
ENDBRANCH   1  16
TORSDOF 10
ENDMDL
MODEL 4
REMARK VINA RESULT:    -3.698      1.448      2.234
REMARK INTER + INTRA:          -6.045
REMARK INTER:                  -5.088
REMARK INTRA:                  -0.957
REMARK UNBOUND:                -0.726
REMARK SMILES O=C(CO)[C@H](O)[C@@H](O)[C@@H](O)CO
REMARK SMILES IDX 7 1 9 2 11 3 12 4 10 6 5 8 2 9 1 10 3 11 4 12 6 14 8 16
REMARK H PARENT 12 5 10 7 4 13 6 15 8 17
REMARK Flexibility Score: inf
ROOT
ATOM      1  C   UNL     1       0.614  -5.482  -8.561  1.00  0.00     0.181 C 
ENDROOT
BRANCH   1   2
ATOM      2  C   UNL     1      -0.167  -4.199  -8.162  1.00  0.00     0.171 C 
BRANCH   2   3
ATOM      3  C   UNL     1      -0.746  -4.225  -6.732  1.00  0.00     0.190 C 
BRANCH   3   4
ATOM      4  O   UNL     1       0.273  -4.461  -5.799  1.00  0.00    -0.394 OA
ATOM      5  H   UNL     1      -0.127  -5.031  -5.093  1.00  0.00     0.210 HD
ENDBRANCH   3   4
ENDBRANCH   2   3
BRANCH   2   6
ATOM      6  O   UNL     1      -1.195  -3.961  -9.093  1.00  0.00    -0.388 OA
ATOM      7  H   UNL     1      -1.149  -3.005  -9.355  1.00  0.00     0.211 HD
ENDBRANCH   2   6
ENDBRANCH   1   2
BRANCH   1   8
ATOM      8  C   UNL     1       2.138  -5.246  -8.703  1.00  0.00     0.214 C 
BRANCH   8   9
ATOM      9  C   UNL     1       2.742  -6.225  -9.689  1.00  0.00     0.189 C 
ATOM     10  O   UNL     1       2.052  -7.134 -10.125  1.00  0.00    -0.294 OA
BRANCH   9  11
ATOM     11  C   UNL     1       4.178  -6.130 -10.123  1.00  0.00     0.234 C 
BRANCH  11  12
ATOM     12  O   UNL     1       5.011  -6.268  -9.006  1.00  0.00    -0.388 OA
ATOM     13  H   UNL     1       5.797  -6.792  -9.313  1.00  0.00     0.211 HD
ENDBRANCH  11  12
ENDBRANCH   9  11
ENDBRANCH   8   9
BRANCH   8  14
ATOM     14  O   UNL     1       2.771  -5.369  -7.455  1.00  0.00    -0.382 OA
ATOM     15  H   UNL     1       3.668  -5.759  -7.623  1.00  0.00     0.211 HD
ENDBRANCH   8  14
ENDBRANCH   1   8
BRANCH   1  16
ATOM     16  O   UNL     1       0.360  -6.507  -7.633  1.00  0.00    -0.387 OA
ATOM     17  H   UNL     1       0.308  -6.086  -6.736  1.00  0.00     0.211 HD
ENDBRANCH   1  16
TORSDOF 10
ENDMDL
MODEL 5
REMARK VINA RESULT:    -3.622      1.818      3.242
REMARK INTER + INTRA:          -5.936
REMARK INTER:                  -4.909
REMARK INTRA:                  -1.027
REMARK UNBOUND:                -0.726
REMARK SMILES O=C(CO)[C@H](O)[C@@H](O)[C@@H](O)CO
REMARK SMILES IDX 7 1 9 2 11 3 12 4 10 6 5 8 2 9 1 10 3 11 4 12 6 14 8 16
REMARK H PARENT 12 5 10 7 4 13 6 15 8 17
REMARK Flexibility Score: inf
ROOT
ATOM      1  C   UNL     1       0.379  -3.671  -8.450  1.00  0.00     0.181 C 
ENDROOT
BRANCH   1   2
ATOM      2  C   UNL     1       0.283  -2.140  -8.694  1.00  0.00     0.171 C 
BRANCH   2   3
ATOM      3  C   UNL     1      -1.015  -1.686  -9.392  1.00  0.00     0.190 C 
BRANCH   3   4
ATOM      4  O   UNL     1      -2.132  -2.051  -8.629  1.00  0.00    -0.394 OA
ATOM      5  H   UNL     1      -2.908  -1.586  -9.036  1.00  0.00     0.210 HD
ENDBRANCH   3   4
ENDBRANCH   2   3
BRANCH   2   6
ATOM      6  O   UNL     1       1.402  -1.706  -9.428  1.00  0.00    -0.388 OA
ATOM      7  H   UNL     1       1.281  -0.739  -9.618  1.00  0.00     0.211 HD
ENDBRANCH   2   6
ENDBRANCH   1   2
BRANCH   1   8
ATOM      8  C   UNL     1       0.198  -4.064  -6.964  1.00  0.00     0.214 C 
BRANCH   8   9
ATOM      9  C   UNL     1       0.891  -5.378  -6.669  1.00  0.00     0.189 C 
ATOM     10  O   UNL     1       2.100  -5.389  -6.497  1.00  0.00    -0.294 OA
BRANCH   9  11
ATOM     11  C   UNL     1       0.136  -6.678  -6.614  1.00  0.00     0.234 C 
BRANCH  11  12
ATOM     12  O   UNL     1      -0.613  -6.830  -7.786  1.00  0.00    -0.388 OA
ATOM     13  H   UNL     1      -0.589  -7.799  -8.004  1.00  0.00     0.211 HD
ENDBRANCH  11  12
ENDBRANCH   9  11
ENDBRANCH   8   9
BRANCH   8  14
ATOM     14  O   UNL     1      -1.167  -4.156  -6.644  1.00  0.00    -0.382 OA
ATOM     15  H   UNL     1      -1.654  -4.294  -7.498  1.00  0.00     0.211 HD
ENDBRANCH   8  14
ENDBRANCH   1   8
BRANCH   1  16
ATOM     16  O   UNL     1      -0.560  -4.344  -9.254  1.00  0.00    -0.387 OA
ATOM     17  H   UNL     1      -0.397  -4.067 -10.192  1.00  0.00     0.211 HD
ENDBRANCH   1  16
TORSDOF 10
ENDMDL
MODEL 6
REMARK VINA RESULT:    -3.599     12.893     13.868
REMARK INTER + INTRA:          -5.902
REMARK INTER:                  -5.182
REMARK INTRA:                  -0.721
REMARK UNBOUND:                -0.726
REMARK SMILES O=C(CO)[C@H](O)[C@@H](O)[C@@H](O)CO
REMARK SMILES IDX 7 1 9 2 11 3 12 4 10 6 5 8 2 9 1 10 3 11 4 12 6 14 8 16
REMARK H PARENT 12 5 10 7 4 13 6 15 8 17
REMARK Flexibility Score: inf
ROOT
ATOM      1  C   UNL     1       7.537   6.271  -2.051  1.00  0.00     0.181 C 
ENDROOT
BRANCH   1   2
ATOM      2  C   UNL     1       7.700   5.458  -0.737  1.00  0.00     0.171 C 
BRANCH   2   3
ATOM      3  C   UNL     1       9.163   5.150  -0.356  1.00  0.00     0.190 C 
BRANCH   3   4
ATOM      4  O   UNL     1       9.541   3.894  -0.849  1.00  0.00    -0.394 OA
ATOM      5  H   UNL     1      10.174   3.516  -0.185  1.00  0.00     0.210 HD
ENDBRANCH   3   4
ENDBRANCH   2   3
BRANCH   2   6
ATOM      6  O   UNL     1       6.964   4.261  -0.826  1.00  0.00    -0.388 OA
ATOM      7  H   UNL     1       7.020   3.942  -1.764  1.00  0.00     0.211 HD
ENDBRANCH   2   6
ENDBRANCH   1   2
BRANCH   1   8
ATOM      8  C   UNL     1       7.536   5.383  -3.320  1.00  0.00     0.214 C 
BRANCH   8   9
ATOM      9  C   UNL     1       8.104   6.140  -4.503  1.00  0.00     0.189 C 
ATOM     10  O   UNL     1       8.257   7.349  -4.419  1.00  0.00    -0.294 OA
BRANCH   9  11
ATOM     11  C   UNL     1       8.456   5.449  -5.791  1.00  0.00     0.234 C 
BRANCH  11  12
ATOM     12  O   UNL     1       7.304   5.311  -6.573  1.00  0.00    -0.388 OA
ATOM     13  H   UNL     1       7.396   4.443  -7.049  1.00  0.00     0.211 HD
ENDBRANCH  11  12
ENDBRANCH   9  11
ENDBRANCH   8   9
BRANCH   8  14
ATOM     14  O   UNL     1       6.233   4.945  -3.610  1.00  0.00    -0.382 OA
ATOM     15  H   UNL     1       5.680   5.758  -3.751  1.00  0.00     0.211 HD
ENDBRANCH   8  14
ENDBRANCH   1   8
BRANCH   1  16
ATOM     16  O   UNL     1       6.365   7.046  -1.993  1.00  0.00    -0.387 OA
ATOM     17  H   UNL     1       6.578   7.932  -2.384  1.00  0.00     0.211 HD
ENDBRANCH   1  16
TORSDOF 10
ENDMDL
MODEL 7
REMARK VINA RESULT:    -3.560      1.506      4.206
REMARK INTER + INTRA:          -5.846
REMARK INTER:                  -4.381
REMARK INTRA:                  -1.465
REMARK UNBOUND:                -0.726
REMARK SMILES O=C(CO)[C@H](O)[C@@H](O)[C@@H](O)CO
REMARK SMILES IDX 7 1 9 2 11 3 12 4 10 6 5 8 2 9 1 10 3 11 4 12 6 14 8 16
REMARK H PARENT 12 5 10 7 4 13 6 15 8 17
REMARK Flexibility Score: inf
ROOT
ATOM      1  C   UNL     1       0.540  -4.422  -8.589  1.00  0.00     0.181 C 
ENDROOT
BRANCH   1   2
ATOM      2  C   UNL     1       1.349  -5.370  -7.661  1.00  0.00     0.171 C 
BRANCH   2   3
ATOM      3  C   UNL     1       1.231  -5.043  -6.158  1.00  0.00     0.190 C 
BRANCH   3   4
ATOM      4  O   UNL     1      -0.087  -5.228  -5.721  1.00  0.00    -0.394 OA
ATOM      5  H   UNL     1      -0.536  -5.770  -6.420  1.00  0.00     0.210 HD
ENDBRANCH   3   4
ENDBRANCH   2   3
BRANCH   2   6
ATOM      6  O   UNL     1       2.701  -5.373  -8.049  1.00  0.00    -0.388 OA
ATOM      7  H   UNL     1       2.917  -4.469  -8.396  1.00  0.00     0.211 HD
ENDBRANCH   2   6
ENDBRANCH   1   2
BRANCH   1   8
ATOM      8  C   UNL     1      -0.798  -5.036  -9.069  1.00  0.00     0.214 C 
BRANCH   8   9
ATOM      9  C   UNL     1      -1.919  -4.023  -8.966  1.00  0.00     0.189 C 
ATOM     10  O   UNL     1      -1.975  -3.112  -9.778  1.00  0.00    -0.294 OA
BRANCH   9  11
ATOM     11  C   UNL     1      -2.949  -4.088  -7.872  1.00  0.00     0.234 C 
BRANCH  11  12
ATOM     12  O   UNL     1      -2.327  -3.880  -6.636  1.00  0.00    -0.388 OA
ATOM     13  H   UNL     1      -2.497  -4.700  -6.101  1.00  0.00     0.211 HD
ENDBRANCH  11  12
ENDBRANCH   9  11
ENDBRANCH   8   9
BRANCH   8  14
ATOM     14  O   UNL     1      -1.111  -6.179  -8.315  1.00  0.00    -0.382 OA
ATOM     15  H   UNL     1      -1.184  -6.936  -8.954  1.00  0.00     0.211 HD
ENDBRANCH   8  14
ENDBRANCH   1   8
BRANCH   1  16
ATOM     16  O   UNL     1       0.313  -3.195  -7.941  1.00  0.00    -0.387 OA
ATOM     17  H   UNL     1       0.965  -2.543  -8.306  1.00  0.00     0.211 HD
ENDBRANCH   1  16
TORSDOF 10
ENDMDL
MODEL 8
REMARK VINA RESULT:    -3.478      1.710      3.882
REMARK INTER + INTRA:          -5.728
REMARK INTER:                  -4.238
REMARK INTRA:                  -1.491
REMARK UNBOUND:                -0.726
REMARK SMILES O=C(CO)[C@H](O)[C@@H](O)[C@@H](O)CO
REMARK SMILES IDX 7 1 9 2 11 3 12 4 10 6 5 8 2 9 1 10 3 11 4 12 6 14 8 16
REMARK H PARENT 12 5 10 7 4 13 6 15 8 17
REMARK Flexibility Score: inf
ROOT
ATOM      1  C   UNL     1       0.396  -4.085  -7.080  1.00  0.00     0.181 C 
ENDROOT
BRANCH   1   2
ATOM      2  C   UNL     1       1.049  -5.493  -7.149  1.00  0.00     0.171 C 
BRANCH   2   3
ATOM      3  C   UNL     1       0.105  -6.652  -6.767  1.00  0.00     0.190 C 
BRANCH   3   4
ATOM      4  O   UNL     1      -0.948  -6.745  -7.687  1.00  0.00    -0.394 OA
ATOM      5  H   UNL     1      -1.360  -7.637  -7.545  1.00  0.00     0.210 HD
ENDBRANCH   3   4
ENDBRANCH   2   3
BRANCH   2   6
ATOM      6  O   UNL     1       2.199  -5.522  -6.339  1.00  0.00    -0.388 OA
ATOM      7  H   UNL     1       2.535  -4.592  -6.258  1.00  0.00     0.211 HD
ENDBRANCH   2   6
ENDBRANCH   1   2
BRANCH   1   8
ATOM      8  C   UNL     1       0.149  -3.460  -8.475  1.00  0.00     0.214 C 
BRANCH   8   9
ATOM      9  C   UNL     1      -1.165  -2.707  -8.499  1.00  0.00     0.189 C 
ATOM     10  O   UNL     1      -1.250  -1.638  -7.914  1.00  0.00    -0.294 OA
BRANCH   9  11
ATOM     11  C   UNL     1      -2.380  -3.254  -9.196  1.00  0.00     0.234 C 
BRANCH  11  12
ATOM     12  O   UNL     1      -2.689  -4.514  -8.671  1.00  0.00    -0.388 OA
ATOM     13  H   UNL     1      -3.309  -4.939  -9.322  1.00  0.00     0.211 HD
ENDBRANCH  11  12
ENDBRANCH   9  11
ENDBRANCH   8   9
BRANCH   8  14
ATOM     14  O   UNL     1       0.151  -4.456  -9.465  1.00  0.00    -0.382 OA
ATOM     15  H   UNL     1       1.060  -4.858  -9.468  1.00  0.00     0.211 HD
ENDBRANCH   8  14
ENDBRANCH   1   8
BRANCH   1  16
ATOM     16  O   UNL     1      -0.805  -4.148  -6.350  1.00  0.00    -0.387 OA
ATOM     17  H   UNL     1      -1.499  -3.682  -6.885  1.00  0.00     0.211 HD
ENDBRANCH   1  16
TORSDOF 10
ENDMDL
MODEL 9
REMARK VINA RESULT:    -3.462      1.811      3.804
REMARK INTER + INTRA:          -5.706
REMARK INTER:                  -4.536
REMARK INTRA:                  -1.170
REMARK UNBOUND:                -0.726
REMARK SMILES O=C(CO)[C@H](O)[C@@H](O)[C@@H](O)CO
REMARK SMILES IDX 7 1 9 2 11 3 12 4 10 6 5 8 2 9 1 10 3 11 4 12 6 14 8 16
REMARK H PARENT 12 5 10 7 4 13 6 15 8 17
REMARK Flexibility Score: inf
ROOT
ATOM      1  C   UNL     1      -0.238  -4.830  -8.373  1.00  0.00     0.181 C 
ENDROOT
BRANCH   1   2
ATOM      2  C   UNL     1       0.060  -4.251  -6.962  1.00  0.00     0.171 C 
BRANCH   2   3
ATOM      3  C   UNL     1       0.774  -5.232  -6.009  1.00  0.00     0.190 C 
BRANCH   3   4
ATOM      4  O   UNL     1       2.119  -5.375  -6.375  1.00  0.00    -0.394 OA
ATOM      5  H   UNL     1       2.309  -4.644  -7.018  1.00  0.00     0.210 HD
ENDBRANCH   3   4
ENDBRANCH   2   3
BRANCH   2   6
ATOM      6  O   UNL     1      -1.134  -3.794  -6.375  1.00  0.00    -0.388 OA
ATOM      7  H   UNL     1      -1.771  -4.554  -6.355  1.00  0.00     0.211 HD
ENDBRANCH   2   6
ENDBRANCH   1   2
BRANCH   1   8
ATOM      8  C   UNL     1      -0.718  -3.757  -9.381  1.00  0.00     0.214 C 
BRANCH   8   9
ATOM      9  C   UNL     1       0.205  -2.556  -9.365  1.00  0.00     0.189 C 
ATOM     10  O   UNL     1       1.407  -2.726  -9.502  1.00  0.00    -0.294 OA
BRANCH   9  11
ATOM     11  C   UNL     1      -0.313  -1.160  -9.153  1.00  0.00     0.234 C 
BRANCH  11  12
ATOM     12  O   UNL     1      -0.875  -1.063  -7.875  1.00  0.00    -0.388 OA
ATOM     13  H   UNL     1      -0.118  -1.131  -7.235  1.00  0.00     0.211 HD
ENDBRANCH  11  12
ENDBRANCH   9  11
ENDBRANCH   8   9
BRANCH   8  14
ATOM     14  O   UNL     1      -2.032  -3.358  -9.083  1.00  0.00    -0.382 OA
ATOM     15  H   UNL     1      -1.990  -2.832  -8.241  1.00  0.00     0.211 HD
ENDBRANCH   8  14
ENDBRANCH   1   8
BRANCH   1  16
ATOM     16  O   UNL     1       0.898  -5.496  -8.868  1.00  0.00    -0.387 OA
ATOM     17  H   UNL     1       1.553  -4.801  -9.135  1.00  0.00     0.211 HD
ENDBRANCH   1  16
TORSDOF 10
ENDMDL
