MODEL 1
REMARK VINA RESULT:    -6.161      0.000      0.000
REMARK INTER + INTRA:          -7.481
REMARK INTER:                  -7.241
REMARK INTRA:                  -0.240
REMARK UNBOUND:                -0.240
REMARK SMILES O=c1c(O)c(-c2ccc(O)cc2)oc2cc(O)cc(O)c12
REMARK SMILES IDX 5 1 3 2 2 3 1 4 21 5 19 6 18 7 16 8 15 9 14 10 13 11 6 12
REMARK SMILES IDX 7 13 8 14 9 15 12 16 11 17 10 18 4 20 20 22 17 24
REMARK H PARENT 10 19 4 21 20 23 17 25
REMARK Flexibility Score: inf
ROOT
ATOM      1  C   UNL     1       8.609  -6.708   5.869  1.00  0.00     0.180 A 
ATOM      2  C   UNL     1       8.371  -7.760   6.772  1.00  0.00     0.208 A 
ATOM      3  C   UNL     1       8.455  -7.506   8.150  1.00  0.00     0.238 A 
ATOM      4  O   UNL     1       8.187  -8.438   8.954  1.00  0.00    -0.285 OA
ATOM      5  C   UNL     1       8.792  -6.210   8.610  1.00  0.00     0.111 A 
ATOM      6  C   UNL     1       8.944  -5.850   9.983  1.00  0.00     0.134 A 
ATOM      7  C   UNL     1       9.150  -4.508  10.326  1.00  0.00     0.093 A 
ATOM      8  C   UNL     1       9.275  -3.525   9.345  1.00  0.00     0.123 A 
ATOM      9  C   UNL     1       9.187  -3.875   7.997  1.00  0.00     0.094 A 
ATOM     10  C   UNL     1       8.946  -5.199   7.624  1.00  0.00     0.146 A 
ATOM     11  O   UNL     1       8.858  -5.489   6.332  1.00  0.00    -0.452 OA
ENDROOT
BRANCH   1  12
ATOM     12  C   UNL     1       8.564  -6.904   4.402  1.00  0.00     0.021 A 
ATOM     13  C   UNL     1       7.448  -6.505   3.644  1.00  0.00     0.016 A 
ATOM     14  C   UNL     1       7.418  -6.723   2.262  1.00  0.00     0.047 A 
ATOM     15  C   UNL     1       8.495  -7.352   1.625  1.00  0.00     0.115 A 
ATOM     16  C   UNL     1       9.630  -7.554   3.758  1.00  0.00     0.016 A 
ATOM     17  C   UNL     1       9.598  -7.768   2.377  1.00  0.00     0.047 A 
BRANCH  15  18
ATOM     18  O   UNL     1       8.476  -7.573   0.250  1.00  0.00    -0.508 OA
ATOM     19  H   UNL     1       7.850  -8.251  -0.169  1.00  0.00     0.293 HD
ENDBRANCH  15  18
ENDBRANCH   1  12
BRANCH   2  20
ATOM     20  O   UNL     1       8.019  -9.027   6.298  1.00  0.00    -0.502 OA
ATOM     21  H   UNL     1       7.219  -9.537   6.653  1.00  0.00     0.293 HD
ENDBRANCH   2  20
BRANCH   6  22
ATOM     22  O   UNL     1       8.928  -6.768  11.036  1.00  0.00    -0.507 OA
ATOM     23  H   UNL     1       8.135  -7.338  11.291  1.00  0.00     0.293 HD
ENDBRANCH   6  22
BRANCH   8  24
ATOM     24  O   UNL     1       9.496  -2.202   9.723  1.00  0.00    -0.508 OA
ATOM     25  H   UNL     1       9.956  -1.543   9.105  1.00  0.00     0.293 HD
ENDBRANCH   8  24
TORSDOF 5
ENDMDL
MODEL 2
REMARK VINA RESULT:    -6.046      1.768      6.532
REMARK INTER + INTRA:          -7.346
REMARK INTER:                  -7.080
REMARK INTRA:                  -0.266
REMARK UNBOUND:                -0.240
REMARK SMILES O=c1c(O)c(-c2ccc(O)cc2)oc2cc(O)cc(O)c12
REMARK SMILES IDX 5 1 3 2 2 3 1 4 21 5 19 6 18 7 16 8 15 9 14 10 13 11 6 12
REMARK SMILES IDX 7 13 8 14 9 15 12 16 11 17 10 18 4 20 20 22 17 24
REMARK H PARENT 10 19 4 21 20 23 17 25
REMARK Flexibility Score: inf
ROOT
ATOM      1  C   UNL     1       8.853  -6.627   5.837  1.00  0.00     0.180 A 
ATOM      2  C   UNL     1       8.174  -7.827   6.116  1.00  0.00     0.208 A 
ATOM      3  C   UNL     1       8.059  -8.794   5.105  1.00  0.00     0.238 A 
ATOM      4  O   UNL     1       7.497  -9.888   5.377  1.00  0.00    -0.285 OA
ATOM      5  C   UNL     1       8.608  -8.545   3.825  1.00  0.00     0.111 A 
ATOM      6  C   UNL     1       8.515  -9.438   2.714  1.00  0.00     0.134 A 
ATOM      7  C   UNL     1       9.208  -9.146   1.534  1.00  0.00     0.093 A 
ATOM      8  C   UNL     1       9.937  -7.965   1.400  1.00  0.00     0.123 A 
ATOM      9  C   UNL     1       9.986  -7.057   2.458  1.00  0.00     0.094 A 
ATOM     10  C   UNL     1       9.334  -7.337   3.661  1.00  0.00     0.146 A 
ATOM     11  O   UNL     1       9.414  -6.452   4.647  1.00  0.00    -0.452 OA
ENDROOT
BRANCH   1  12
ATOM     12  C   UNL     1       8.994  -5.550   6.843  1.00  0.00     0.021 A 
ATOM     13  C   UNL     1       7.935  -4.667   7.124  1.00  0.00     0.016 A 
ATOM     14  C   UNL     1       8.101  -3.641   8.061  1.00  0.00     0.047 A 
ATOM     15  C   UNL     1       9.328  -3.477   8.717  1.00  0.00     0.115 A 
ATOM     16  C   UNL     1      10.227  -5.365   7.490  1.00  0.00     0.016 A 
ATOM     17  C   UNL     1      10.389  -4.339   8.427  1.00  0.00     0.047 A 
BRANCH  15  18
ATOM     18  O   UNL     1       9.503  -2.460   9.652  1.00  0.00    -0.508 OA
ATOM     19  H   UNL     1      10.426  -2.141   9.922  1.00  0.00     0.293 HD
ENDBRANCH  15  18
ENDBRANCH   1  12
BRANCH   2  20
ATOM     20  O   UNL     1       7.657  -8.062   7.394  1.00  0.00    -0.502 OA
ATOM     21  H   UNL     1       6.678  -8.265   7.555  1.00  0.00     0.293 HD
ENDBRANCH   2  20
BRANCH   6  22
ATOM     22  O   UNL     1       7.739 -10.600   2.712  1.00  0.00    -0.507 OA
ATOM     23  H   UNL     1       7.202 -10.936   3.498  1.00  0.00     0.293 HD
ENDBRANCH   6  22
BRANCH   8  24
ATOM     24  O   UNL     1      10.601  -7.700   0.204  1.00  0.00    -0.508 OA
ATOM     25  H   UNL     1      11.578  -7.428   0.189  1.00  0.00     0.293 HD
ENDBRANCH   8  24
TORSDOF 5
ENDMDL
MODEL 3
REMARK VINA RESULT:    -5.242      2.006      2.449
REMARK INTER + INTRA:          -6.402
REMARK INTER:                  -6.128
REMARK INTRA:                  -0.273
REMARK UNBOUND:                -0.240
REMARK SMILES O=c1c(O)c(-c2ccc(O)cc2)oc2cc(O)cc(O)c12
REMARK SMILES IDX 5 1 3 2 2 3 1 4 21 5 19 6 18 7 16 8 15 9 14 10 13 11 6 12
REMARK SMILES IDX 7 13 8 14 9 15 12 16 11 17 10 18 4 20 20 22 17 24
REMARK H PARENT 10 19 4 21 20 23 17 25
REMARK Flexibility Score: inf
ROOT
ATOM      1  C   UNL     1       8.816  -7.528   6.792  1.00  0.00     0.180 A 
ATOM      2  C   UNL     1       9.500  -7.916   7.958  1.00  0.00     0.208 A 
ATOM      3  C   UNL     1       9.714  -6.966   8.968  1.00  0.00     0.238 A 
ATOM      4  O   UNL     1      10.279  -7.333  10.033  1.00  0.00    -0.285 OA
ATOM      5  C   UNL     1       9.260  -5.637   8.796  1.00  0.00     0.111 A 
ATOM      6  C   UNL     1       9.459  -4.582   9.737  1.00  0.00     0.134 A 
ATOM      7  C   UNL     1       8.851  -3.339   9.520  1.00  0.00     0.093 A 
ATOM      8  C   UNL     1       8.108  -3.093   8.367  1.00  0.00     0.123 A 
ATOM      9  C   UNL     1       7.957  -4.098   7.411  1.00  0.00     0.094 A 
ATOM     10  C   UNL     1       8.520  -5.359   7.616  1.00  0.00     0.146 A 
ATOM     11  O   UNL     1       8.344  -6.291   6.688  1.00  0.00    -0.452 OA
ENDROOT
BRANCH   1  12
ATOM     12  C   UNL     1       8.573  -8.466   5.672  1.00  0.00     0.021 A 
ATOM     13  C   UNL     1       9.405  -8.484   4.537  1.00  0.00     0.016 A 
ATOM     14  C   UNL     1       9.141  -9.362   3.481  1.00  0.00     0.047 A 
ATOM     15  C   UNL     1       8.036 -10.222   3.539  1.00  0.00     0.115 A 
ATOM     16  C   UNL     1       7.456  -9.316   5.712  1.00  0.00     0.016 A 
ATOM     17  C   UNL     1       7.195 -10.194   4.656  1.00  0.00     0.047 A 
BRANCH  15  18
ATOM     18  O   UNL     1       7.765 -11.101   2.494  1.00  0.00    -0.508 OA
ATOM     19  H   UNL     1       7.201 -10.821   1.699  1.00  0.00     0.293 HD
ENDBRANCH  15  18
ENDBRANCH   1  12
BRANCH   2  20
ATOM     20  O   UNL     1       9.922  -9.239   8.118  1.00  0.00    -0.502 OA
ATOM     21  H   UNL     1      10.112  -9.642   9.026  1.00  0.00     0.293 HD
ENDBRANCH   2  20
BRANCH   6  22
ATOM     22  O   UNL     1      10.259  -4.695  10.877  1.00  0.00    -0.507 OA
ATOM     23  H   UNL     1      10.848  -3.962  11.242  1.00  0.00     0.293 HD
ENDBRANCH   6  22
BRANCH   8  24
ATOM     24  O   UNL     1       7.531  -1.838   8.177  1.00  0.00    -0.508 OA
ATOM     25  H   UNL     1       6.812  -1.686   7.478  1.00  0.00     0.293 HD
ENDBRANCH   8  24
TORSDOF 5
ENDMDL
MODEL 4
REMARK VINA RESULT:    -4.978      2.046      2.228
REMARK INTER + INTRA:          -6.091
REMARK INTER:                  -5.817
REMARK INTRA:                  -0.273
REMARK UNBOUND:                -0.240
REMARK SMILES O=c1c(O)c(-c2ccc(O)cc2)oc2cc(O)cc(O)c12
REMARK SMILES IDX 5 1 3 2 2 3 1 4 21 5 19 6 18 7 16 8 15 9 14 10 13 11 6 12
REMARK SMILES IDX 7 13 8 14 9 15 12 16 11 17 10 18 4 20 20 22 17 24
REMARK H PARENT 10 19 4 21 20 23 17 25
REMARK Flexibility Score: inf
ROOT
ATOM      1  C   UNL     1       8.974  -7.715   6.283  1.00  0.00     0.180 A 
ATOM      2  C   UNL     1       9.756  -8.134   7.375  1.00  0.00     0.208 A 
ATOM      3  C   UNL     1       9.994  -7.236   8.426  1.00  0.00     0.238 A 
ATOM      4  O   UNL     1      10.649  -7.634   9.425  1.00  0.00    -0.285 OA
ATOM      5  C   UNL     1       9.464  -5.924   8.367  1.00  0.00     0.111 A 
ATOM      6  C   UNL     1       9.678  -4.918   9.357  1.00  0.00     0.134 A 
ATOM      7  C   UNL     1       8.997  -3.698   9.260  1.00  0.00     0.093 A 
ATOM      8  C   UNL     1       8.164  -3.423   8.176  1.00  0.00     0.123 A 
ATOM      9  C   UNL     1       7.995  -4.377   7.172  1.00  0.00     0.094 A 
ATOM     10  C   UNL     1       8.632  -5.617   7.259  1.00  0.00     0.146 A 
ATOM     11  O   UNL     1       8.436  -6.501   6.288  1.00  0.00    -0.452 OA
ENDROOT
BRANCH   1  12
ATOM     12  C   UNL     1       8.699  -8.597   5.126  1.00  0.00     0.021 A 
ATOM     13  C   UNL     1       7.663  -9.548   5.159  1.00  0.00     0.016 A 
ATOM     14  C   UNL     1       7.439 -10.387   4.062  1.00  0.00     0.047 A 
ATOM     15  C   UNL     1       8.253 -10.295   2.926  1.00  0.00     0.115 A 
ATOM     16  C   UNL     1       9.524  -8.526   3.991  1.00  0.00     0.016 A 
ATOM     17  C   UNL     1       9.296  -9.364   2.896  1.00  0.00     0.047 A 
BRANCH  15  18
ATOM     18  O   UNL     1       8.037 -11.124   1.829  1.00  0.00    -0.508 OA
ATOM     19  H   UNL     1       8.805 -11.584   1.353  1.00  0.00     0.293 HD
ENDBRANCH  15  18
ENDBRANCH   1  12
BRANCH   2  20
ATOM     20  O   UNL     1      10.252  -9.440   7.423  1.00  0.00    -0.502 OA
ATOM     21  H   UNL     1      10.919  -9.742   8.122  1.00  0.00     0.293 HD
ENDBRANCH   2  20
BRANCH   6  22
ATOM     22  O   UNL     1      10.560  -5.056  10.431  1.00  0.00    -0.507 OA
ATOM     23  H   UNL     1      10.371  -4.752  11.375  1.00  0.00     0.293 HD
ENDBRANCH   6  22
BRANCH   8  24
ATOM     24  O   UNL     1       7.515  -2.192   8.104  1.00  0.00    -0.508 OA
ATOM     25  H   UNL     1       6.535  -2.095   8.346  1.00  0.00     0.293 HD
ENDBRANCH   8  24
TORSDOF 5
ENDMDL
MODEL 5
REMARK VINA RESULT:    -4.866      2.489      6.506
REMARK INTER + INTRA:          -5.960
REMARK INTER:                  -5.918
REMARK INTRA:                  -0.042
REMARK UNBOUND:                -0.240
REMARK SMILES O=c1c(O)c(-c2ccc(O)cc2)oc2cc(O)cc(O)c12
REMARK SMILES IDX 5 1 3 2 2 3 1 4 21 5 19 6 18 7 16 8 15 9 14 10 13 11 6 12
REMARK SMILES IDX 7 13 8 14 9 15 12 16 11 17 10 18 4 20 20 22 17 24
REMARK H PARENT 10 19 4 21 20 23 17 25
REMARK Flexibility Score: inf
ROOT
ATOM      1  C   UNL     1       8.685  -6.783   7.002  1.00  0.00     0.180 A 
ATOM      2  C   UNL     1       7.335  -7.173   6.938  1.00  0.00     0.208 A 
ATOM      3  C   UNL     1       6.974  -8.235   6.094  1.00  0.00     0.238 A 
ATOM      4  O   UNL     1       5.773  -8.615   6.082  1.00  0.00    -0.285 OA
ATOM      5  C   UNL     1       7.960  -8.882   5.311  1.00  0.00     0.111 A 
ATOM      6  C   UNL     1       7.699  -9.942   4.391  1.00  0.00     0.134 A 
ATOM      7  C   UNL     1       8.770 -10.595   3.769  1.00  0.00     0.093 A 
ATOM      8  C   UNL     1      10.085 -10.184   3.982  1.00  0.00     0.123 A 
ATOM      9  C   UNL     1      10.348  -9.110   4.833  1.00  0.00     0.094 A 
ATOM     10  C   UNL     1       9.303  -8.462   5.497  1.00  0.00     0.146 A 
ATOM     11  O   UNL     1       9.596  -7.452   6.306  1.00  0.00    -0.452 OA
ENDROOT
BRANCH   1  12
ATOM     12  C   UNL     1       9.140  -5.657   7.850  1.00  0.00     0.021 A 
ATOM     13  C   UNL     1       8.559  -4.379   7.745  1.00  0.00     0.016 A 
ATOM     14  C   UNL     1       9.023  -3.325   8.539  1.00  0.00     0.047 A 
ATOM     15  C   UNL     1      10.079  -3.531   9.436  1.00  0.00     0.115 A 
ATOM     16  C   UNL     1      10.212  -5.848   8.736  1.00  0.00     0.016 A 
ATOM     17  C   UNL     1      10.672  -4.793   9.530  1.00  0.00     0.047 A 
BRANCH  15  18
ATOM     18  O   UNL     1      10.548  -2.489  10.232  1.00  0.00    -0.508 OA
ATOM     19  H   UNL     1      10.538  -1.528   9.907  1.00  0.00     0.293 HD
ENDBRANCH  15  18
ENDBRANCH   1  12
BRANCH   2  20
ATOM     20  O   UNL     1       6.380  -6.535   7.735  1.00  0.00    -0.502 OA
ATOM     21  H   UNL     1       6.187  -5.544   7.662  1.00  0.00     0.293 HD
ENDBRANCH   2  20
BRANCH   6  22
ATOM     22  O   UNL     1       6.417 -10.369   4.037  1.00  0.00    -0.507 OA
ATOM     23  H   UNL     1       5.683  -9.766   3.696  1.00  0.00     0.293 HD
ENDBRANCH   6  22
BRANCH   8  24
ATOM     24  O   UNL     1      11.125 -10.847   3.333  1.00  0.00    -0.508 OA
ATOM     25  H   UNL     1      11.042 -11.148   2.368  1.00  0.00     0.293 HD
ENDBRANCH   8  24
TORSDOF 5
ENDMDL
MODEL 6
REMARK VINA RESULT:    -4.768      1.891      2.233
REMARK INTER + INTRA:          -5.845
REMARK INTER:                  -5.634
REMARK INTRA:                  -0.211
REMARK UNBOUND:                -0.240
REMARK SMILES O=c1c(O)c(-c2ccc(O)cc2)oc2cc(O)cc(O)c12
REMARK SMILES IDX 5 1 3 2 2 3 1 4 21 5 19 6 18 7 16 8 15 9 14 10 13 11 6 12
REMARK SMILES IDX 7 13 8 14 9 15 12 16 11 17 10 18 4 20 20 22 17 24
REMARK H PARENT 10 19 4 21 20 23 17 25
REMARK Flexibility Score: inf
ROOT
ATOM      1  C   UNL     1       8.693  -8.167   4.817  1.00  0.00     0.180 A 
ATOM      2  C   UNL     1       7.687  -8.580   5.710  1.00  0.00     0.208 A 
ATOM      3  C   UNL     1       7.584  -7.947   6.958  1.00  0.00     0.238 A 
ATOM      4  O   UNL     1       6.648  -8.283   7.731  1.00  0.00    -0.285 OA
ATOM      5  C   UNL     1       8.496  -6.922   7.307  1.00  0.00     0.111 A 
ATOM      6  C   UNL     1       8.509  -6.240   8.562  1.00  0.00     0.134 A 
ATOM      7  C   UNL     1       9.372  -5.154   8.748  1.00  0.00     0.093 A 
ATOM      8  C   UNL     1      10.267  -4.766   7.752  1.00  0.00     0.123 A 
ATOM      9  C   UNL     1      10.304  -5.463   6.543  1.00  0.00     0.094 A 
ATOM     10  C   UNL     1       9.431  -6.529   6.314  1.00  0.00     0.146 A 
ATOM     11  O   UNL     1       9.491  -7.159   5.147  1.00  0.00    -0.452 OA
ENDROOT
BRANCH   1  12
ATOM     12  C   UNL     1       8.881  -8.803   3.493  1.00  0.00     0.021 A 
ATOM     13  C   UNL     1       8.484  -8.158   2.308  1.00  0.00     0.016 A 
ATOM     14  C   UNL     1       8.649  -8.789   1.070  1.00  0.00     0.047 A 
ATOM     15  C   UNL     1       9.199 -10.076   1.004  1.00  0.00     0.115 A 
ATOM     16  C   UNL     1       9.411 -10.102   3.419  1.00  0.00     0.016 A 
ATOM     17  C   UNL     1       9.577 -10.729   2.180  1.00  0.00     0.047 A 
BRANCH  15  18
ATOM     18  O   UNL     1       9.369 -10.713  -0.223  1.00  0.00    -0.508 OA
ATOM     19  H   UNL     1      10.291 -10.899  -0.600  1.00  0.00     0.293 HD
ENDBRANCH  15  18
ENDBRANCH   1  12
BRANCH   2  20
ATOM     20  O   UNL     1       6.784  -9.579   5.337  1.00  0.00    -0.502 OA
ATOM     21  H   UNL     1       5.840  -9.373   5.033  1.00  0.00     0.293 HD
ENDBRANCH   2  20
BRANCH   6  22
ATOM     22  O   UNL     1       7.720  -6.606   9.656  1.00  0.00    -0.507 OA
ATOM     23  H   UNL     1       6.945  -6.067  10.012  1.00  0.00     0.293 HD
ENDBRANCH   6  22
BRANCH   8  24
ATOM     24  O   UNL     1      11.123  -3.690   7.978  1.00  0.00    -0.508 OA
ATOM     25  H   UNL     1      11.307  -2.998   7.260  1.00  0.00     0.293 HD
ENDBRANCH   8  24
TORSDOF 5
ENDMDL
MODEL 7
REMARK VINA RESULT:    -4.727      1.503      3.338
REMARK INTER + INTRA:          -5.795
REMARK INTER:                  -5.547
REMARK INTRA:                  -0.248
REMARK UNBOUND:                -0.240
REMARK SMILES O=c1c(O)c(-c2ccc(O)cc2)oc2cc(O)cc(O)c12
REMARK SMILES IDX 5 1 3 2 2 3 1 4 21 5 19 6 18 7 16 8 15 9 14 10 13 11 6 12
REMARK SMILES IDX 7 13 8 14 9 15 12 16 11 17 10 18 4 20 20 22 17 24
REMARK H PARENT 10 19 4 21 20 23 17 25
REMARK Flexibility Score: inf
ROOT
ATOM      1  C   UNL     1       8.634  -7.139   6.047  1.00  0.00     0.180 A 
ATOM      2  C   UNL     1       8.628  -5.925   6.758  1.00  0.00     0.208 A 
ATOM      3  C   UNL     1       8.543  -5.959   8.158  1.00  0.00     0.238 A 
ATOM      4  O   UNL     1       8.593  -4.871   8.793  1.00  0.00    -0.285 OA
ATOM      5  C   UNL     1       8.447  -7.201   8.831  1.00  0.00     0.111 A 
ATOM      6  C   UNL     1       8.315  -7.350  10.244  1.00  0.00     0.134 A 
ATOM      7  C   UNL     1       8.361  -8.630  10.810  1.00  0.00     0.093 A 
ATOM      8  C   UNL     1       8.469  -9.767  10.011  1.00  0.00     0.123 A 
ATOM      9  C   UNL     1       8.538  -9.636   8.624  1.00  0.00     0.094 A 
ATOM     10  C   UNL     1       8.531  -8.371   8.032  1.00  0.00     0.146 A 
ATOM     11  O   UNL     1       8.611  -8.289   6.709  1.00  0.00    -0.452 OA
ENDROOT
BRANCH   1  12
ATOM     12  C   UNL     1       8.697  -7.185   4.568  1.00  0.00     0.021 A 
ATOM     13  C   UNL     1       7.574  -6.878   3.777  1.00  0.00     0.016 A 
ATOM     14  C   UNL     1       7.651  -6.953   2.382  1.00  0.00     0.047 A 
ATOM     15  C   UNL     1       8.844  -7.347   1.762  1.00  0.00     0.115 A 
ATOM     16  C   UNL     1       9.883  -7.599   3.939  1.00  0.00     0.016 A 
ATOM     17  C   UNL     1       9.957  -7.671   2.544  1.00  0.00     0.047 A 
BRANCH  15  18
ATOM     18  O   UNL     1       8.932  -7.423   0.375  1.00  0.00    -0.508 OA
ATOM     19  H   UNL     1       8.987  -8.314  -0.105  1.00  0.00     0.293 HD
ENDBRANCH  15  18
ENDBRANCH   1  12
BRANCH   2  20
ATOM     20  O   UNL     1       8.745  -4.710   6.076  1.00  0.00    -0.502 OA
ATOM     21  H   UNL     1       7.980  -4.308   5.549  1.00  0.00     0.293 HD
ENDBRANCH   2  20
BRANCH   6  22
ATOM     22  O   UNL     1       8.111  -6.285  11.125  1.00  0.00    -0.507 OA
ATOM     23  H   UNL     1       7.378  -5.597  11.037  1.00  0.00     0.293 HD
ENDBRANCH   6  22
BRANCH   8  24
ATOM     24  O   UNL     1       8.496 -11.026  10.608  1.00  0.00    -0.508 OA
ATOM     25  H   UNL     1       7.983 -11.809  10.218  1.00  0.00     0.293 HD
ENDBRANCH   8  24
TORSDOF 5
ENDMDL
MODEL 8
REMARK VINA RESULT:    -4.677      1.805      7.225
REMARK INTER + INTRA:          -5.737
REMARK INTER:                  -5.449
REMARK INTRA:                  -0.288
REMARK UNBOUND:                -0.240
REMARK SMILES O=c1c(O)c(-c2ccc(O)cc2)oc2cc(O)cc(O)c12
REMARK SMILES IDX 5 1 3 2 2 3 1 4 21 5 19 6 18 7 16 8 15 9 14 10 13 11 6 12
REMARK SMILES IDX 7 13 8 14 9 15 12 16 11 17 10 18 4 20 20 22 17 24
REMARK H PARENT 10 19 4 21 20 23 17 25
REMARK Flexibility Score: inf
ROOT
ATOM      1  C   UNL     1       8.569  -7.075   5.289  1.00  0.00     0.180 A 
ATOM      2  C   UNL     1       7.593  -6.540   4.429  1.00  0.00     0.208 A 
ATOM      3  C   UNL     1       7.536  -6.990   3.101  1.00  0.00     0.238 A 
ATOM      4  O   UNL     1       6.626  -6.548   2.351  1.00  0.00    -0.285 OA
ATOM      5  C   UNL     1       8.464  -7.957   2.643  1.00  0.00     0.111 A 
ATOM      6  C   UNL     1       8.523  -8.455   1.306  1.00  0.00     0.134 A 
ATOM      7  C   UNL     1       9.396  -9.505   0.999  1.00  0.00     0.093 A 
ATOM      8  C   UNL     1      10.258 -10.030   1.962  1.00  0.00     0.123 A 
ATOM      9  C   UNL     1      10.250  -9.510   3.257  1.00  0.00     0.094 A 
ATOM     10  C   UNL     1       9.365  -8.487   3.603  1.00  0.00     0.146 A 
ATOM     11  O   UNL     1       9.382  -8.028   4.848  1.00  0.00    -0.452 OA
ENDROOT
BRANCH   1  12
ATOM     12  C   UNL     1       8.709  -6.632   6.695  1.00  0.00     0.021 A 
ATOM     13  C   UNL     1       9.428  -5.470   7.029  1.00  0.00     0.016 A 
ATOM     14  C   UNL     1       9.567  -5.085   8.367  1.00  0.00     0.047 A 
ATOM     15  C   UNL     1       9.001  -5.863   9.386  1.00  0.00     0.115 A 
ATOM     16  C   UNL     1       8.163  -7.417   7.724  1.00  0.00     0.016 A 
ATOM     17  C   UNL     1       8.302  -7.029   9.060  1.00  0.00     0.047 A 
BRANCH  15  18
ATOM     18  O   UNL     1       9.132  -5.488  10.721  1.00  0.00    -0.508 OA
ATOM     19  H   UNL     1       9.986  -5.071  11.073  1.00  0.00     0.293 HD
ENDBRANCH  15  18
ENDBRANCH   1  12
BRANCH   2  20
ATOM     20  O   UNL     1       6.674  -5.602   4.907  1.00  0.00    -0.502 OA
ATOM     21  H   UNL     1       5.926  -5.233   4.333  1.00  0.00     0.293 HD
ENDBRANCH   2  20
BRANCH   6  22
ATOM     22  O   UNL     1       7.771  -7.939   0.248  1.00  0.00    -0.507 OA
ATOM     23  H   UNL     1       8.156  -7.608  -0.624  1.00  0.00     0.293 HD
ENDBRANCH   6  22
BRANCH   8  24
ATOM     24  O   UNL     1      11.125 -11.065   1.616  1.00  0.00    -0.508 OA
ATOM     25  H   UNL     1      11.234 -11.366   0.654  1.00  0.00     0.293 HD
ENDBRANCH   8  24
TORSDOF 5
ENDMDL
MODEL 9
REMARK VINA RESULT:    -4.626      1.723      6.647
REMARK INTER + INTRA:          -5.678
REMARK INTER:                  -5.739
REMARK INTRA:                   0.061
REMARK UNBOUND:                -0.240
REMARK SMILES O=c1c(O)c(-c2ccc(O)cc2)oc2cc(O)cc(O)c12
REMARK SMILES IDX 5 1 3 2 2 3 1 4 21 5 19 6 18 7 16 8 15 9 14 10 13 11 6 12
REMARK SMILES IDX 7 13 8 14 9 15 12 16 11 17 10 18 4 20 20 22 17 24
REMARK H PARENT 10 19 4 21 20 23 17 25
REMARK Flexibility Score: inf
ROOT
ATOM      1  C   UNL     1       9.546  -6.833   6.486  1.00  0.00     0.180 A 
ATOM      2  C   UNL     1      10.227  -8.061   6.564  1.00  0.00     0.208 A 
ATOM      3  C   UNL     1      10.266  -8.891   5.434  1.00  0.00     0.238 A 
ATOM      4  O   UNL     1      10.923  -9.964   5.493  1.00  0.00    -0.285 OA
ATOM      5  C   UNL     1       9.610  -8.494   4.244  1.00  0.00     0.111 A 
ATOM      6  C   UNL     1       9.550  -9.276   3.050  1.00  0.00     0.134 A 
ATOM      7  C   UNL     1       8.987  -8.726   1.892  1.00  0.00     0.093 A 
ATOM      8  C   UNL     1       8.423  -7.451   1.902  1.00  0.00     0.123 A 
ATOM      9  C   UNL     1       8.422  -6.701   3.079  1.00  0.00     0.094 A 
ATOM     10  C   UNL     1       9.009  -7.208   4.240  1.00  0.00     0.146 A 
ATOM     11  O   UNL     1       8.998  -6.459   5.336  1.00  0.00    -0.452 OA
ENDROOT
BRANCH   1  12
ATOM     12  C   UNL     1       9.440  -5.915   7.643  1.00  0.00     0.021 A 
ATOM     13  C   UNL     1       9.790  -4.556   7.534  1.00  0.00     0.016 A 
ATOM     14  C   UNL     1       9.705  -3.714   8.648  1.00  0.00     0.047 A 
ATOM     15  C   UNL     1       9.284  -4.221   9.884  1.00  0.00     0.115 A 
ATOM     16  C   UNL     1       9.039  -6.419   8.891  1.00  0.00     0.016 A 
ATOM     17  C   UNL     1       8.954  -5.574  10.002  1.00  0.00     0.047 A 
BRANCH  15  18
ATOM     18  O   UNL     1       9.195  -3.391  10.999  1.00  0.00    -0.508 OA
ATOM     19  H   UNL     1       9.361  -2.393  10.931  1.00  0.00     0.293 HD
ENDBRANCH  15  18
ENDBRANCH   1  12
BRANCH   2  20
ATOM     20  O   UNL     1      10.886  -8.425   7.742  1.00  0.00    -0.502 OA
ATOM     21  H   UNL     1      10.433  -8.954   8.477  1.00  0.00     0.293 HD
ENDBRANCH   2  20
BRANCH   6  22
ATOM     22  O   UNL     1      10.002 -10.595   2.959  1.00  0.00    -0.507 OA
ATOM     23  H   UNL     1      10.795 -10.895   2.411  1.00  0.00     0.293 HD
ENDBRANCH   6  22
BRANCH   8  24
ATOM     24  O   UNL     1       7.856  -6.942   0.735  1.00  0.00    -0.508 OA
ATOM     25  H   UNL     1       7.869  -5.950   0.528  1.00  0.00     0.293 HD
ENDBRANCH   8  24
TORSDOF 5
ENDMDL
