MODEL 1
REMARK VINA RESULT:    -5.064      0.000      0.000
REMARK INTER + INTRA:          -6.909
REMARK INTER:                  -6.841
REMARK INTRA:                  -0.068
REMARK UNBOUND:                -0.068
REMARK SMILES [NH3+]CCCC[C@H]([NH3+])C(=O)[O-]
REMARK SMILES IDX 4 1 3 2 2 3 1 4 5 8 6 9 7 10 8 14 9 15 10 16
REMARK H PARENT 1 5 1 6 1 7 7 11 7 12 7 13
REMARK Flexibility Score: inf
ROOT
ATOM      1  C   UNL     1     -22.480  69.981   0.015  1.00  0.00     0.012 C 
ENDROOT
BRANCH   1   2
ATOM      2  C   UNL     1     -22.208  70.771   1.304  1.00  0.00     0.061 C 
BRANCH   2   3
ATOM      3  C   UNL     1     -21.910  72.256   1.034  1.00  0.00     0.258 C 
BRANCH   3   4
ATOM      4  N   UNL     1     -22.155  73.091   2.212  1.00  0.00    -0.358 N 
ATOM      5  H   UNL     1     -22.258  74.092   1.931  1.00  0.00     0.344 HD
ATOM      6  H   UNL     1     -23.045  72.783   2.666  1.00  0.00     0.344 HD
ATOM      7  H   UNL     1     -21.374  72.990   2.900  1.00  0.00     0.344 HD
ENDBRANCH   3   4
ENDBRANCH   2   3
ENDBRANCH   1   2
BRANCH   1   8
ATOM      8  C   UNL     1     -21.358  70.204  -1.012  1.00  0.00     0.072 C 
BRANCH   8   9
ATOM      9  C   UNL     1     -19.956  69.901  -0.438  1.00  0.00     0.227 C 
BRANCH   9  10
ATOM     10  N   UNL     1     -18.888  70.413  -1.309  1.00  0.00    -0.350 N 
ATOM     11  H   UNL     1     -18.078  69.750  -1.306  1.00  0.00     0.345 HD
ATOM     12  H   UNL     1     -19.232  70.528  -2.290  1.00  0.00     0.345 HD
ATOM     13  H   UNL     1     -18.542  71.332  -0.953  1.00  0.00     0.345 HD
ENDBRANCH   9  10
BRANCH   9  14
ATOM     14  C   UNL     1     -19.799  68.417  -0.241  1.00  0.00     0.099 C 
ATOM     15  O   UNL     1     -19.544  67.947   0.901  1.00  0.00    -0.544 OA
ATOM     16  O   UNL     1     -19.915  67.556  -1.325  1.00  0.00    -0.544 OA
ENDBRANCH   9  14
ENDBRANCH   8   9
ENDBRANCH   1   8
TORSDOF 7
ENDMDL
MODEL 2
REMARK VINA RESULT:    -5.057      2.887      4.687
REMARK INTER + INTRA:          -6.898
REMARK INTER:                  -6.785
REMARK INTRA:                  -0.113
REMARK UNBOUND:                -0.068
REMARK SMILES [NH3+]CCCC[C@H]([NH3+])C(=O)[O-]
REMARK SMILES IDX 4 1 3 2 2 3 1 4 5 8 6 9 7 10 8 14 9 15 10 16
REMARK H PARENT 1 5 1 6 1 7 7 11 7 12 7 13
REMARK Flexibility Score: inf
ROOT
ATOM      1  C   UNL     1     -19.813  69.374  -1.167  1.00  0.00     0.012 C 
ENDROOT
BRANCH   1   2
ATOM      2  C   UNL     1     -19.692  67.867  -0.896  1.00  0.00     0.061 C 
BRANCH   2   3
ATOM      3  C   UNL     1     -20.288  67.015  -2.029  1.00  0.00     0.258 C 
BRANCH   3   4
ATOM      4  N   UNL     1     -19.756  65.650  -2.031  1.00  0.00    -0.358 N 
ATOM      5  H   UNL     1     -20.163  65.102  -1.239  1.00  0.00     0.344 HD
ATOM      6  H   UNL     1     -20.025  65.183  -2.927  1.00  0.00     0.344 HD
ATOM      7  H   UNL     1     -18.713  65.664  -1.958  1.00  0.00     0.344 HD
ENDBRANCH   3   4
ENDBRANCH   2   3
ENDBRANCH   1   2
BRANCH   1   8
ATOM      8  C   UNL     1     -21.287  69.798  -1.267  1.00  0.00     0.072 C 
BRANCH   8   9
ATOM      9  C   UNL     1     -22.147  69.238  -0.111  1.00  0.00     0.227 C 
BRANCH   9  10
ATOM     10  N   UNL     1     -23.577  69.231  -0.450  1.00  0.00    -0.350 N 
ATOM     11  H   UNL     1     -24.150  69.251   0.426  1.00  0.00     0.345 HD
ATOM     12  H   UNL     1     -23.824  70.060  -1.037  1.00  0.00     0.345 HD
ATOM     13  H   UNL     1     -23.821  68.356  -0.965  1.00  0.00     0.345 HD
ENDBRANCH   9  10
BRANCH   9  14
ATOM     14  C   UNL     1     -21.911  70.050   1.134  1.00  0.00     0.099 C 
ATOM     15  O   UNL     1     -21.516  69.494   2.195  1.00  0.00    -0.544 OA
ATOM     16  O   UNL     1     -22.149  71.419   1.127  1.00  0.00    -0.544 OA
ENDBRANCH   9  14
ENDBRANCH   8   9
ENDBRANCH   1   8
TORSDOF 7
ENDMDL
MODEL 3
REMARK VINA RESULT:    -5.008      2.749      4.255
REMARK INTER + INTRA:          -6.833
REMARK INTER:                  -6.352
REMARK INTRA:                  -0.481
REMARK UNBOUND:                -0.068
REMARK SMILES [NH3+]CCCC[C@H]([NH3+])C(=O)[O-]
REMARK SMILES IDX 4 1 3 2 2 3 1 4 5 8 6 9 7 10 8 14 9 15 10 16
REMARK H PARENT 1 5 1 6 1 7 7 11 7 12 7 13
REMARK Flexibility Score: inf
ROOT
ATOM      1  C   UNL     1     -21.083  68.605  -0.520  1.00  0.00     0.012 C 
ENDROOT
BRANCH   1   2
ATOM      2  C   UNL     1     -19.755  68.804  -1.267  1.00  0.00     0.061 C 
BRANCH   2   3
ATOM      3  C   UNL     1     -18.797  69.751  -0.524  1.00  0.00     0.258 C 
BRANCH   3   4
ATOM      4  N   UNL     1     -18.574  70.998  -1.258  1.00  0.00    -0.358 N 
ATOM      5  H   UNL     1     -19.210  71.747  -0.902  1.00  0.00     0.344 HD
ATOM      6  H   UNL     1     -17.586  71.307  -1.109  1.00  0.00     0.344 HD
ATOM      7  H   UNL     1     -18.730  70.853  -2.282  1.00  0.00     0.344 HD
ENDBRANCH   3   4
ENDBRANCH   2   3
ENDBRANCH   1   2
BRANCH   1   8
ATOM      8  C   UNL     1     -21.072  69.348   0.825  1.00  0.00     0.072 C 
BRANCH   8   9
ATOM      9  C   UNL     1     -22.307  70.258   1.013  1.00  0.00     0.227 C 
BRANCH   9  10
ATOM     10  N   UNL     1     -23.376  69.930   0.061  1.00  0.00    -0.350 N 
ATOM     11  H   UNL     1     -24.237  69.636   0.580  1.00  0.00     0.345 HD
ATOM     12  H   UNL     1     -23.605  70.755  -0.539  1.00  0.00     0.345 HD
ATOM     13  H   UNL     1     -23.087  69.130  -0.545  1.00  0.00     0.345 HD
ENDBRANCH   9  10
BRANCH   9  14
ATOM     14  C   UNL     1     -21.900  71.699   0.863  1.00  0.00     0.099 C 
ATOM     15  O   UNL     1     -21.277  72.084  -0.164  1.00  0.00    -0.544 OA
ATOM     16  O   UNL     1     -22.191  72.613   1.868  1.00  0.00    -0.544 OA
ENDBRANCH   9  14
ENDBRANCH   8   9
ENDBRANCH   1   8
TORSDOF 7
ENDMDL
MODEL 4
REMARK VINA RESULT:    -4.943      2.241      2.577
REMARK INTER + INTRA:          -6.745
REMARK INTER:                  -6.241
REMARK INTRA:                  -0.505
REMARK UNBOUND:                -0.068
REMARK SMILES [NH3+]CCCC[C@H]([NH3+])C(=O)[O-]
REMARK SMILES IDX 4 1 3 2 2 3 1 4 5 8 6 9 7 10 8 14 9 15 10 16
REMARK H PARENT 1 5 1 6 1 7 7 11 7 12 7 13
REMARK Flexibility Score: inf
ROOT
ATOM      1  C   UNL     1     -21.005  70.499   0.335  1.00  0.00     0.012 C 
ENDROOT
BRANCH   1   2
ATOM      2  C   UNL     1     -22.539  70.555   0.367  1.00  0.00     0.061 C 
BRANCH   2   3
ATOM      3  C   UNL     1     -23.177  69.162   0.501  1.00  0.00     0.258 C 
BRANCH   3   4
ATOM      4  N   UNL     1     -23.943  68.788  -0.689  1.00  0.00    -0.358 N 
ATOM      5  H   UNL     1     -24.859  68.367  -0.413  1.00  0.00     0.344 HD
ATOM      6  H   UNL     1     -24.133  69.648  -1.254  1.00  0.00     0.344 HD
ATOM      7  H   UNL     1     -23.401  68.114  -1.276  1.00  0.00     0.344 HD
ENDBRANCH   3   4
ENDBRANCH   2   3
ENDBRANCH   1   2
BRANCH   1   8
ATOM      8  C   UNL     1     -20.505  69.055   0.496  1.00  0.00     0.072 C 
BRANCH   8   9
ATOM      9  C   UNL     1     -19.555  68.622  -0.644  1.00  0.00     0.227 C 
BRANCH   9  10
ATOM     10  N   UNL     1     -19.096  69.771  -1.437  1.00  0.00    -0.350 N 
ATOM     11  H   UNL     1     -19.919  70.275  -1.843  1.00  0.00     0.345 HD
ATOM     12  H   UNL     1     -18.547  70.435  -0.845  1.00  0.00     0.345 HD
ATOM     13  H   UNL     1     -18.504  69.445  -2.233  1.00  0.00     0.345 HD
ENDBRANCH   9  10
BRANCH   9  14
ATOM     14  C   UNL     1     -20.250  67.623  -1.530  1.00  0.00     0.099 C 
ATOM     15  O   UNL     1     -19.773  66.467  -1.686  1.00  0.00    -0.544 OA
ATOM     16  O   UNL     1     -21.414  67.979  -2.199  1.00  0.00    -0.544 OA
ENDBRANCH   9  14
ENDBRANCH   8   9
ENDBRANCH   1   8
TORSDOF 7
ENDMDL
MODEL 5
REMARK VINA RESULT:    -4.933      3.238      5.103
REMARK INTER + INTRA:          -6.731
REMARK INTER:                  -6.697
REMARK INTRA:                  -0.035
REMARK UNBOUND:                -0.068
REMARK SMILES [NH3+]CCCC[C@H]([NH3+])C(=O)[O-]
REMARK SMILES IDX 4 1 3 2 2 3 1 4 5 8 6 9 7 10 8 14 9 15 10 16
REMARK H PARENT 1 5 1 6 1 7 7 11 7 12 7 13
REMARK Flexibility Score: inf
ROOT
ATOM      1  C   UNL     1     -20.963  68.814  -0.841  1.00  0.00     0.012 C 
ENDROOT
BRANCH   1   2
ATOM      2  C   UNL     1     -19.907  67.734  -1.118  1.00  0.00     0.061 C 
BRANCH   2   3
ATOM      3  C   UNL     1     -20.351  66.739  -2.202  1.00  0.00     0.258 C 
BRANCH   3   4
ATOM      4  N   UNL     1     -19.666  65.450  -2.083  1.00  0.00    -0.358 N 
ATOM      5  H   UNL     1     -20.071  64.896  -1.294  1.00  0.00     0.344 HD
ATOM      6  H   UNL     1     -19.803  64.910  -2.968  1.00  0.00     0.344 HD
ATOM      7  H   UNL     1     -18.641  65.593  -1.932  1.00  0.00     0.344 HD
ENDBRANCH   3   4
ENDBRANCH   2   3
ENDBRANCH   1   2
BRANCH   1   8
ATOM      8  C   UNL     1     -20.808  69.382   0.578  1.00  0.00     0.072 C 
BRANCH   8   9
ATOM      9  C   UNL     1     -22.049  70.178   1.041  1.00  0.00     0.227 C 
BRANCH   9  10
ATOM     10  N   UNL     1     -23.262  69.763   0.323  1.00  0.00    -0.350 N 
ATOM     11  H   UNL     1     -24.107  69.953   0.912  1.00  0.00     0.345 HD
ATOM     12  H   UNL     1     -23.354  70.279  -0.581  1.00  0.00     0.345 HD
ATOM     13  H   UNL     1     -23.235  68.736   0.135  1.00  0.00     0.345 HD
ENDBRANCH   9  10
BRANCH   9  14
ATOM     14  C   UNL     1     -21.808  71.651   0.845  1.00  0.00     0.099 C 
ATOM     15  O   UNL     1     -21.260  72.075  -0.209  1.00  0.00    -0.544 OA
ATOM     16  O   UNL     1     -22.169  72.553   1.839  1.00  0.00    -0.544 OA
ENDBRANCH   9  14
ENDBRANCH   8   9
ENDBRANCH   1   8
TORSDOF 7
ENDMDL
MODEL 6
REMARK VINA RESULT:    -4.907      1.814      1.888
REMARK INTER + INTRA:          -6.697
REMARK INTER:                  -6.248
REMARK INTRA:                  -0.449
REMARK UNBOUND:                -0.068
REMARK SMILES [NH3+]CCCC[C@H]([NH3+])C(=O)[O-]
REMARK SMILES IDX 4 1 3 2 2 3 1 4 5 8 6 9 7 10 8 14 9 15 10 16
REMARK H PARENT 1 5 1 6 1 7 7 11 7 12 7 13
REMARK Flexibility Score: inf
ROOT
ATOM      1  C   UNL     1     -22.588  70.136  -0.595  1.00  0.00     0.012 C 
ENDROOT
BRANCH   1   2
ATOM      2  C   UNL     1     -22.590  70.449   0.908  1.00  0.00     0.061 C 
BRANCH   2   3
ATOM      3  C   UNL     1     -21.925  71.798   1.231  1.00  0.00     0.258 C 
BRANCH   3   4
ATOM      4  N   UNL     1     -21.200  72.345   0.082  1.00  0.00    -0.358 N 
ATOM      5  H   UNL     1     -20.747  71.575  -0.461  1.00  0.00     0.344 HD
ATOM      6  H   UNL     1     -21.879  72.834  -0.545  1.00  0.00     0.344 HD
ATOM      7  H   UNL     1     -20.479  73.033   0.398  1.00  0.00     0.344 HD
ENDBRANCH   3   4
ENDBRANCH   2   3
ENDBRANCH   1   2
BRANCH   1   8
ATOM      8  C   UNL     1     -22.202  68.670  -0.849  1.00  0.00     0.072 C 
BRANCH   8   9
ATOM      9  C   UNL     1     -20.791  68.524  -1.463  1.00  0.00     0.227 C 
BRANCH   9  10
ATOM     10  N   UNL     1     -20.565  67.172  -1.993  1.00  0.00    -0.350 N 
ATOM     11  H   UNL     1     -21.389  66.871  -2.564  1.00  0.00     0.345 HD
ATOM     12  H   UNL     1     -19.708  67.146  -2.592  1.00  0.00     0.345 HD
ATOM     13  H   UNL     1     -20.461  66.491  -1.209  1.00  0.00     0.345 HD
ENDBRANCH   9  10
BRANCH   9  14
ATOM     14  C   UNL     1     -19.751  68.857  -0.427  1.00  0.00     0.099 C 
ATOM     15  O   UNL     1     -19.518  68.062   0.523  1.00  0.00    -0.544 OA
ATOM     16  O   UNL     1     -19.055  70.057  -0.502  1.00  0.00    -0.544 OA
ENDBRANCH   9  14
ENDBRANCH   8   9
ENDBRANCH   1   8
TORSDOF 7
ENDMDL
MODEL 7
REMARK VINA RESULT:    -4.865      2.164      4.058
REMARK INTER + INTRA:          -6.640
REMARK INTER:                  -6.263
REMARK INTRA:                  -0.377
REMARK UNBOUND:                -0.068
REMARK SMILES [NH3+]CCCC[C@H]([NH3+])C(=O)[O-]
REMARK SMILES IDX 4 1 3 2 2 3 1 4 5 8 6 9 7 10 8 14 9 15 10 16
REMARK H PARENT 1 5 1 6 1 7 7 11 7 12 7 13
REMARK Flexibility Score: inf
ROOT
ATOM      1  C   UNL     1     -20.108  69.870  -1.467  1.00  0.00     0.012 C 
ENDROOT
BRANCH   1   2
ATOM      2  C   UNL     1     -19.400  68.628  -0.906  1.00  0.00     0.061 C 
BRANCH   2   3
ATOM      3  C   UNL     1     -20.089  67.317  -1.323  1.00  0.00     0.258 C 
BRANCH   3   4
ATOM      4  N   UNL     1     -21.246  67.553  -2.189  1.00  0.00    -0.358 N 
ATOM      5  H   UNL     1     -22.089  67.780  -1.614  1.00  0.00     0.344 HD
ATOM      6  H   UNL     1     -21.043  68.369  -2.811  1.00  0.00     0.344 HD
ATOM      7  H   UNL     1     -21.434  66.714  -2.785  1.00  0.00     0.344 HD
ENDBRANCH   3   4
ENDBRANCH   2   3
ENDBRANCH   1   2
BRANCH   1   8
ATOM      8  C   UNL     1     -20.234  70.961  -0.392  1.00  0.00     0.072 C 
BRANCH   8   9
ATOM      9  C   UNL     1     -21.685  71.138   0.110  1.00  0.00     0.227 C 
BRANCH   9  10
ATOM     10  N   UNL     1     -21.803  72.262   1.050  1.00  0.00    -0.350 N 
ATOM     11  H   UNL     1     -21.239  72.068   1.910  1.00  0.00     0.345 HD
ATOM     12  H   UNL     1     -21.464  73.149   0.613  1.00  0.00     0.345 HD
ATOM     13  H   UNL     1     -22.797  72.380   1.347  1.00  0.00     0.345 HD
ENDBRANCH   9  10
BRANCH   9  14
ATOM     14  C   UNL     1     -22.154  69.865   0.761  1.00  0.00     0.099 C 
ATOM     15  O   UNL     1     -21.750  69.550   1.913  1.00  0.00    -0.544 OA
ATOM     16  O   UNL     1     -23.021  69.017   0.085  1.00  0.00    -0.544 OA
ENDBRANCH   9  14
ENDBRANCH   8   9
ENDBRANCH   1   8
TORSDOF 7
ENDMDL
MODEL 8
REMARK VINA RESULT:    -4.407      1.935      2.445
REMARK INTER + INTRA:          -6.021
REMARK INTER:                  -5.926
REMARK INTRA:                  -0.095
REMARK UNBOUND:                -0.068
REMARK SMILES [NH3+]CCCC[C@H]([NH3+])C(=O)[O-]
REMARK SMILES IDX 4 1 3 2 2 3 1 4 5 8 6 9 7 10 8 14 9 15 10 16
REMARK H PARENT 1 5 1 6 1 7 7 11 7 12 7 13
REMARK Flexibility Score: inf
ROOT
ATOM      1  C   UNL     1     -22.247  71.456   1.105  1.00  0.00     0.012 C 
ENDROOT
BRANCH   1   2
ATOM      2  C   UNL     1     -21.874  72.914   1.414  1.00  0.00     0.061 C 
BRANCH   2   3
ATOM      3  C   UNL     1     -22.711  73.508   2.558  1.00  0.00     0.258 C 
BRANCH   3   4
ATOM      4  N   UNL     1     -21.876  74.002   3.654  1.00  0.00    -0.358 N 
ATOM      5  H   UNL     1     -22.460  74.190   4.500  1.00  0.00     0.344 HD
ATOM      6  H   UNL     1     -21.169  73.271   3.899  1.00  0.00     0.344 HD
ATOM      7  H   UNL     1     -21.372  74.873   3.366  1.00  0.00     0.344 HD
ENDBRANCH   3   4
ENDBRANCH   2   3
ENDBRANCH   1   2
BRANCH   1   8
ATOM      8  C   UNL     1     -21.496  70.948  -0.135  1.00  0.00     0.072 C 
BRANCH   8   9
ATOM      9  C   UNL     1     -22.141  69.684  -0.747  1.00  0.00     0.227 C 
BRANCH   9  10
ATOM     10  N   UNL     1     -23.220  69.158   0.100  1.00  0.00    -0.350 N 
ATOM     11  H   UNL     1     -23.694  68.359  -0.382  1.00  0.00     0.345 HD
ATOM     12  H   UNL     1     -22.844  68.827   1.018  1.00  0.00     0.345 HD
ATOM     13  H   UNL     1     -23.941  69.896   0.266  1.00  0.00     0.345 HD
ENDBRANCH   9  10
BRANCH   9  14
ATOM     14  C   UNL     1     -21.088  68.631  -0.962  1.00  0.00     0.099 C 
ATOM     15  O   UNL     1     -21.135  67.876  -1.971  1.00  0.00    -0.544 OA
ATOM     16  O   UNL     1     -20.066  68.471  -0.035  1.00  0.00    -0.544 OA
ENDBRANCH   9  14
ENDBRANCH   8   9
ENDBRANCH   1   8
TORSDOF 7
ENDMDL
MODEL 9
REMARK VINA RESULT:    -4.254      1.780      2.155
REMARK INTER + INTRA:          -5.815
REMARK INTER:                  -5.417
REMARK INTRA:                  -0.398
REMARK UNBOUND:                -0.068
REMARK SMILES [NH3+]CCCC[C@H]([NH3+])C(=O)[O-]
REMARK SMILES IDX 4 1 3 2 2 3 1 4 5 8 6 9 7 10 8 14 9 15 10 16
REMARK H PARENT 1 5 1 6 1 7 7 11 7 12 7 13
REMARK Flexibility Score: inf
ROOT
ATOM      1  C   UNL     1     -20.658  69.332   1.527  1.00  0.00     0.012 C 
ENDROOT
BRANCH   1   2
ATOM      2  C   UNL     1     -22.157  69.457   1.216  1.00  0.00     0.061 C 
BRANCH   2   3
ATOM      3  C   UNL     1     -22.582  70.908   0.934  1.00  0.00     0.258 C 
BRANCH   3   4
ATOM      4  N   UNL     1     -21.532  71.668   0.253  1.00  0.00    -0.358 N 
ATOM      5  H   UNL     1     -21.943  72.248  -0.514  1.00  0.00     0.344 HD
ATOM      6  H   UNL     1     -21.077  72.310   0.942  1.00  0.00     0.344 HD
ATOM      7  H   UNL     1     -20.806  71.023  -0.135  1.00  0.00     0.344 HD
ENDBRANCH   3   4
ENDBRANCH   2   3
ENDBRANCH   1   2
BRANCH   1   8
ATOM      8  C   UNL     1     -20.043  68.132   0.790  1.00  0.00     0.072 C 
BRANCH   8   9
ATOM      9  C   UNL     1     -19.411  68.525  -0.565  1.00  0.00     0.227 C 
BRANCH   9  10
ATOM     10  N   UNL     1     -18.693  69.804  -0.481  1.00  0.00    -0.350 N 
ATOM     11  H   UNL     1     -17.662  69.630  -0.425  1.00  0.00     0.345 HD
ATOM     12  H   UNL     1     -18.893  70.399  -1.318  1.00  0.00     0.345 HD
ATOM     13  H   UNL     1     -18.972  70.318   0.384  1.00  0.00     0.345 HD
ENDBRANCH   9  10
BRANCH   9  14
ATOM     14  C   UNL     1     -20.482  68.598  -1.620  1.00  0.00     0.099 C 
ATOM     15  O   UNL     1     -20.976  69.709  -1.954  1.00  0.00    -0.544 OA
ATOM     16  O   UNL     1     -20.948  67.435  -2.219  1.00  0.00    -0.544 OA
ENDBRANCH   9  14
ENDBRANCH   8   9
ENDBRANCH   1   8
TORSDOF 7
ENDMDL
