MODEL 1
REMARK VINA RESULT:    -3.603      0.000      0.000
REMARK INTER + INTRA:          -5.000
REMARK INTER:                  -4.761
REMARK INTRA:                  -0.239
REMARK UNBOUND:                -0.239
REMARK SMILES CCCCCCCO
REMARK SMILES IDX 5 1 4 2 3 3 2 4 1 5 6 6 7 7 8 8
REMARK H PARENT 8 9
REMARK Flexibility Score: inf
ROOT
ATOM      1  C   UNL     1      -0.400  22.556  26.112  1.00  0.00     0.002 C 
ENDROOT
BRANCH   1   2
ATOM      2  C   UNL     1      -1.129  21.215  26.267  1.00  0.00     0.000 C 
BRANCH   2   3
ATOM      3  C   UNL     1      -1.987  21.200  27.540  1.00  0.00    -0.000 C 
BRANCH   3   4
ATOM      4  C   UNL     1      -3.454  21.567  27.270  1.00  0.00    -0.003 C 
ATOM      5  C   UNL     1      -3.846  22.917  27.870  1.00  0.00     0.004 C 
ENDBRANCH   3   4
ENDBRANCH   2   3
ENDBRANCH   1   2
BRANCH   1   6
ATOM      6  C   UNL     1      -0.844  23.279  24.834  1.00  0.00     0.028 C 
BRANCH   6   7
ATOM      7  C   UNL     1       0.115  23.012  23.668  1.00  0.00     0.156 C 
BRANCH   7   8
ATOM      8  O   UNL     1       1.450  23.080  24.091  1.00  0.00    -0.396 OA
ATOM      9  H   UNL     1       1.821  23.925  23.724  1.00  0.00     0.210 HD
ENDBRANCH   7   8
ENDBRANCH   6   7
ENDBRANCH   1   6
TORSDOF 6
ENDMDL
MODEL 2
REMARK VINA RESULT:    -3.521      4.786      7.083
REMARK INTER + INTRA:          -4.892
REMARK INTER:                  -4.747
REMARK INTRA:                  -0.145
REMARK UNBOUND:                -0.239
REMARK SMILES CCCCCCCO
REMARK SMILES IDX 5 1 4 2 3 3 2 4 1 5 6 6 7 7 8 8
REMARK H PARENT 8 9
REMARK Flexibility Score: inf
ROOT
ATOM      1  C   UNL     1       1.542  26.314  19.547  1.00  0.00     0.002 C 
ENDROOT
BRANCH   1   2
ATOM      2  C   UNL     1       0.277  25.743  20.202  1.00  0.00     0.000 C 
BRANCH   2   3
ATOM      3  C   UNL     1       0.552  24.366  20.821  1.00  0.00    -0.000 C 
BRANCH   3   4
ATOM      4  C   UNL     1       0.094  24.273  22.285  1.00  0.00    -0.003 C 
ATOM      5  C   UNL     1      -0.177  22.835  22.729  1.00  0.00     0.004 C 
ENDBRANCH   3   4
ENDBRANCH   2   3
ENDBRANCH   1   2
BRANCH   1   6
ATOM      6  C   UNL     1       2.679  25.284  19.558  1.00  0.00     0.028 C 
BRANCH   6   7
ATOM      7  C   UNL     1       3.727  25.583  18.479  1.00  0.00     0.156 C 
BRANCH   7   8
ATOM      8  O   UNL     1       4.978  25.063  18.837  1.00  0.00    -0.396 OA
ATOM      9  H   UNL     1       4.887  24.713  19.761  1.00  0.00     0.210 HD
ENDBRANCH   7   8
ENDBRANCH   6   7
ENDBRANCH   1   6
TORSDOF 6
ENDMDL
MODEL 3
REMARK VINA RESULT:    -3.366      1.579      2.135
REMARK INTER + INTRA:          -4.687
REMARK INTER:                  -4.564
REMARK INTRA:                  -0.123
REMARK UNBOUND:                -0.239
REMARK SMILES CCCCCCCO
REMARK SMILES IDX 5 1 4 2 3 3 2 4 1 5 6 6 7 7 8 8
REMARK H PARENT 8 9
REMARK Flexibility Score: inf
ROOT
ATOM      1  C   UNL     1      -1.809  22.601  25.968  1.00  0.00     0.002 C 
ENDROOT
BRANCH   1   2
ATOM      2  C   UNL     1      -2.118  21.889  27.292  1.00  0.00     0.000 C 
BRANCH   2   3
ATOM      3  C   UNL     1      -1.972  20.368  27.145  1.00  0.00    -0.000 C 
BRANCH   3   4
ATOM      4  C   UNL     1      -3.080  19.749  26.277  1.00  0.00    -0.003 C 
ATOM      5  C   UNL     1      -3.119  18.223  26.369  1.00  0.00     0.004 C 
ENDBRANCH   3   4
ENDBRANCH   2   3
ENDBRANCH   1   2
BRANCH   1   6
ATOM      6  C   UNL     1      -0.296  22.766  25.772  1.00  0.00     0.028 C 
BRANCH   6   7
ATOM      7  C   UNL     1       0.056  23.079  24.314  1.00  0.00     0.156 C 
BRANCH   7   8
ATOM      8  O   UNL     1       1.444  23.053  24.116  1.00  0.00    -0.396 OA
ATOM      9  H   UNL     1       1.860  23.107  25.016  1.00  0.00     0.210 HD
ENDBRANCH   7   8
ENDBRANCH   6   7
ENDBRANCH   1   6
TORSDOF 6
ENDMDL
MODEL 4
REMARK VINA RESULT:    -3.323      1.703      2.115
REMARK INTER + INTRA:          -4.631
REMARK INTER:                  -4.317
REMARK INTRA:                  -0.314
REMARK UNBOUND:                -0.239
REMARK SMILES CCCCCCCO
REMARK SMILES IDX 5 1 4 2 3 3 2 4 1 5 6 6 7 7 8 8
REMARK H PARENT 8 9
REMARK Flexibility Score: inf
ROOT
ATOM      1  C   UNL     1      -0.471  22.592  26.028  1.00  0.00     0.002 C 
ENDROOT
BRANCH   1   2
ATOM      2  C   UNL     1      -1.966  22.604  26.372  1.00  0.00     0.000 C 
BRANCH   2   3
ATOM      3  C   UNL     1      -2.272  21.643  27.529  1.00  0.00    -0.000 C 
BRANCH   3   4
ATOM      4  C   UNL     1      -1.941  20.182  27.187  1.00  0.00    -0.003 C 
ATOM      5  C   UNL     1      -2.973  19.544  26.256  1.00  0.00     0.004 C 
ENDBRANCH   3   4
ENDBRANCH   2   3
ENDBRANCH   1   2
BRANCH   1   6
ATOM      6  C   UNL     1      -0.251  22.815  24.526  1.00  0.00     0.028 C 
BRANCH   6   7
ATOM      7  C   UNL     1      -0.876  21.693  23.688  1.00  0.00     0.156 C 
BRANCH   7   8
ATOM      8  O   UNL     1      -0.422  20.437  24.114  1.00  0.00    -0.396 OA
ATOM      9  H   UNL     1      -0.551  19.815  23.350  1.00  0.00     0.210 HD
ENDBRANCH   7   8
ENDBRANCH   6   7
ENDBRANCH   1   6
TORSDOF 6
ENDMDL
MODEL 5
REMARK VINA RESULT:    -3.321      1.081      1.679
REMARK INTER + INTRA:          -4.628
REMARK INTER:                  -4.479
REMARK INTRA:                  -0.149
REMARK UNBOUND:                -0.239
REMARK SMILES CCCCCCCO
REMARK SMILES IDX 5 1 4 2 3 3 2 4 1 5 6 6 7 7 8 8
REMARK H PARENT 8 9
REMARK Flexibility Score: inf
ROOT
ATOM      1  C   UNL     1       0.422  22.983  24.823  1.00  0.00     0.002 C 
ENDROOT
BRANCH   1   2
ATOM      2  C   UNL     1      -0.458  22.651  26.036  1.00  0.00     0.000 C 
BRANCH   2   3
ATOM      3  C   UNL     1      -0.953  21.199  25.974  1.00  0.00    -0.000 C 
BRANCH   3   4
ATOM      4  C   UNL     1      -1.850  20.829  27.166  1.00  0.00    -0.003 C 
ATOM      5  C   UNL     1      -2.834  21.940  27.533  1.00  0.00     0.004 C 
ENDBRANCH   3   4
ENDBRANCH   2   3
ENDBRANCH   1   2
BRANCH   1   6
ATOM      6  C   UNL     1      -0.271  22.580  23.515  1.00  0.00     0.028 C 
BRANCH   6   7
ATOM      7  C   UNL     1      -0.160  23.680  22.452  1.00  0.00     0.156 C 
BRANCH   7   8
ATOM      8  O   UNL     1       1.129  24.233  22.435  1.00  0.00    -0.396 OA
ATOM      9  H   UNL     1       1.509  24.039  21.538  1.00  0.00     0.210 HD
ENDBRANCH   7   8
ENDBRANCH   6   7
ENDBRANCH   1   6
TORSDOF 6
ENDMDL
MODEL 6
REMARK VINA RESULT:    -3.272      2.722      4.436
REMARK INTER + INTRA:          -4.563
REMARK INTER:                  -4.327
REMARK INTRA:                  -0.236
REMARK UNBOUND:                -0.239
REMARK SMILES CCCCCCCO
REMARK SMILES IDX 5 1 4 2 3 3 2 4 1 5 6 6 7 7 8 8
REMARK H PARENT 8 9
REMARK Flexibility Score: inf
ROOT
ATOM      1  C   UNL     1      -2.345  21.775  27.298  1.00  0.00     0.002 C 
ENDROOT
BRANCH   1   2
ATOM      2  C   UNL     1      -1.862  22.659  26.141  1.00  0.00     0.000 C 
BRANCH   2   3
ATOM      3  C   UNL     1      -0.344  22.880  26.215  1.00  0.00    -0.000 C 
BRANCH   3   4
ATOM      4  C   UNL     1       0.331  22.810  24.836  1.00  0.00    -0.003 C 
ATOM      5  C   UNL     1      -0.584  22.226  23.758  1.00  0.00     0.004 C 
ENDBRANCH   3   4
ENDBRANCH   2   3
ENDBRANCH   1   2
BRANCH   1   6
ATOM      6  C   UNL     1      -1.814  20.342  27.153  1.00  0.00     0.028 C 
BRANCH   6   7
ATOM      7  C   UNL     1      -2.816  19.438  26.426  1.00  0.00     0.156 C 
BRANCH   7   8
ATOM      8  O   UNL     1      -2.573  18.087  26.714  1.00  0.00    -0.396 OA
ATOM      9  H   UNL     1      -2.630  17.598  25.851  1.00  0.00     0.210 HD
ENDBRANCH   7   8
ENDBRANCH   6   7
ENDBRANCH   1   6
TORSDOF 6
ENDMDL
MODEL 7
REMARK VINA RESULT:    -3.272      8.146     10.128
REMARK INTER + INTRA:          -4.563
REMARK INTER:                  -4.348
REMARK INTRA:                  -0.215
REMARK UNBOUND:                -0.239
REMARK SMILES CCCCCCCO
REMARK SMILES IDX 5 1 4 2 3 3 2 4 1 5 6 6 7 7 8 8
REMARK H PARENT 8 9
REMARK Flexibility Score: inf
ROOT
ATOM      1  C   UNL     1       2.986  27.204  16.328  1.00  0.00     0.002 C 
ENDROOT
BRANCH   1   2
ATOM      2  C   UNL     1       1.690  26.839  17.064  1.00  0.00     0.000 C 
BRANCH   2   3
ATOM      3  C   UNL     1       1.146  28.041  17.848  1.00  0.00    -0.000 C 
BRANCH   3   4
ATOM      4  C   UNL     1       1.060  27.772  19.359  1.00  0.00    -0.003 C 
ATOM      5  C   UNL     1       0.339  26.464  19.686  1.00  0.00     0.004 C 
ENDBRANCH   3   4
ENDBRANCH   2   3
ENDBRANCH   1   2
BRANCH   1   6
ATOM      6  C   UNL     1       4.133  26.270  16.738  1.00  0.00     0.028 C 
BRANCH   6   7
ATOM      7  C   UNL     1       3.906  25.671  18.131  1.00  0.00     0.156 C 
BRANCH   7   8
ATOM      8  O   UNL     1       5.099  25.150  18.653  1.00  0.00    -0.396 OA
ATOM      9  H   UNL     1       5.796  25.843  18.512  1.00  0.00     0.210 HD
ENDBRANCH   7   8
ENDBRANCH   6   7
ENDBRANCH   1   6
TORSDOF 6
ENDMDL
MODEL 8
REMARK VINA RESULT:    -3.205      1.334      1.962
REMARK INTER + INTRA:          -4.475
REMARK INTER:                  -4.230
REMARK INTRA:                  -0.245
REMARK UNBOUND:                -0.239
REMARK SMILES CCCCCCCO
REMARK SMILES IDX 5 1 4 2 3 3 2 4 1 5 6 6 7 7 8 8
REMARK H PARENT 8 9
REMARK Flexibility Score: inf
ROOT
ATOM      1  C   UNL     1      -2.149  22.488  24.106  1.00  0.00     0.002 C 
ENDROOT
BRANCH   1   2
ATOM      2  C   UNL     1      -2.602  22.726  25.552  1.00  0.00     0.000 C 
BRANCH   2   3
ATOM      3  C   UNL     1      -1.503  22.324  26.545  1.00  0.00    -0.000 C 
BRANCH   3   4
ATOM      4  C   UNL     1      -1.953  21.211  27.506  1.00  0.00    -0.003 C 
ATOM      5  C   UNL     1      -2.510  19.989  26.776  1.00  0.00     0.004 C 
ENDBRANCH   3   4
ENDBRANCH   2   3
ENDBRANCH   1   2
BRANCH   1   6
ATOM      6  C   UNL     1      -0.687  22.027  24.056  1.00  0.00     0.028 C 
BRANCH   6   7
ATOM      7  C   UNL     1       0.228  23.102  23.458  1.00  0.00     0.156 C 
BRANCH   7   8
ATOM      8  O   UNL     1       1.469  23.125  24.109  1.00  0.00    -0.396 OA
ATOM      9  H   UNL     1       2.121  23.504  23.464  1.00  0.00     0.210 HD
ENDBRANCH   7   8
ENDBRANCH   6   7
ENDBRANCH   1   6
TORSDOF 6
ENDMDL
MODEL 9
REMARK VINA RESULT:    -3.159      2.996      4.839
REMARK INTER + INTRA:          -4.414
REMARK INTER:                  -4.279
REMARK INTRA:                  -0.134
REMARK UNBOUND:                -0.239
REMARK SMILES CCCCCCCO
REMARK SMILES IDX 5 1 4 2 3 3 2 4 1 5 6 6 7 7 8 8
REMARK H PARENT 8 9
REMARK Flexibility Score: inf
ROOT
ATOM      1  C   UNL     1       0.125  24.503  21.714  1.00  0.00     0.002 C 
ENDROOT
BRANCH   1   2
ATOM      2  C   UNL     1      -0.229  23.015  21.596  1.00  0.00     0.000 C 
BRANCH   2   3
ATOM      3  C   UNL     1      -0.582  22.424  22.968  1.00  0.00    -0.000 C 
BRANCH   3   4
ATOM      4  C   UNL     1       0.284  22.999  24.100  1.00  0.00    -0.003 C 
ATOM      5  C   UNL     1      -0.171  22.537  25.485  1.00  0.00     0.004 C 
ENDBRANCH   3   4
ENDBRANCH   2   3
ENDBRANCH   1   2
BRANCH   1   6
ATOM      6  C   UNL     1       0.503  25.088  20.347  1.00  0.00     0.028 C 
BRANCH   6   7
ATOM      7  C   UNL     1       1.974  24.823  20.004  1.00  0.00     0.156 C 
BRANCH   7   8
ATOM      8  O   UNL     1       2.789  25.875  20.445  1.00  0.00    -0.396 OA
ATOM      9  H   UNL     1       3.129  25.615  21.341  1.00  0.00     0.210 HD
ENDBRANCH   7   8
ENDBRANCH   6   7
ENDBRANCH   1   6
TORSDOF 6
ENDMDL
