MODEL 1
REMARK VINA RESULT:    -6.153      0.000      0.000
REMARK INTER + INTRA:          -7.544
REMARK INTER:                  -7.412
REMARK INTRA:                  -0.132
REMARK UNBOUND:                -0.132
REMARK SMILES O=c1c(O)c(-c2ccc(O)c(O)c2)oc2cc(O)cc(O)c12
REMARK SMILES IDX 5 1 3 2 2 3 1 4 22 5 20 6 19 7 17 8 16 9 15 10 14 11 6 12
REMARK SMILES IDX 7 13 8 14 9 15 13 16 11 17 10 18 12 20 4 22 21 24 18 26
REMARK H PARENT 10 19 12 21 4 23 21 25 18 27
REMARK Flexibility Score: inf
ROOT
ATOM      1  C   UNL     1      -3.264  -7.455  37.764  1.00  0.00     0.180 A 
ATOM      2  C   UNL     1      -2.000  -7.760  38.299  1.00  0.00     0.208 A 
ATOM      3  C   UNL     1      -1.926  -8.485  39.499  1.00  0.00     0.238 A 
ATOM      4  O   UNL     1      -0.792  -8.819  39.932  1.00  0.00    -0.285 OA
ATOM      5  C   UNL     1      -3.114  -8.847  40.180  1.00  0.00     0.111 A 
ATOM      6  C   UNL     1      -3.156  -9.542  41.426  1.00  0.00     0.134 A 
ATOM      7  C   UNL     1      -4.390  -9.940  41.953  1.00  0.00     0.093 A 
ATOM      8  C   UNL     1      -5.586  -9.614  41.315  1.00  0.00     0.123 A 
ATOM      9  C   UNL     1      -5.558  -8.887  40.124  1.00  0.00     0.094 A 
ATOM     10  C   UNL     1      -4.341  -8.508  39.553  1.00  0.00     0.146 A 
ATOM     11  O   UNL     1      -4.360  -7.837  38.408  1.00  0.00    -0.452 OA
ENDROOT
BRANCH   1  12
ATOM     12  C   UNL     1      -3.424  -6.709  36.496  1.00  0.00     0.025 A 
ATOM     13  C   UNL     1      -2.918  -7.255  35.307  1.00  0.00     0.016 A 
ATOM     14  C   UNL     1      -3.039  -6.559  34.102  1.00  0.00     0.051 A 
ATOM     15  C   UNL     1      -3.651  -5.302  34.062  1.00  0.00     0.157 A 
ATOM     16  C   UNL     1      -4.018  -5.436  36.463  1.00  0.00     0.062 A 
ATOM     17  C   UNL     1      -4.142  -4.729  35.260  1.00  0.00     0.158 A 
BRANCH  15  18
ATOM     18  O   UNL     1      -3.748  -4.662  32.825  1.00  0.00    -0.504 OA
ATOM     19  H   UNL     1      -4.562  -4.150  32.517  1.00  0.00     0.293 HD
ENDBRANCH  15  18
BRANCH  17  20
ATOM     20  O   UNL     1      -4.746  -3.471  35.301  1.00  0.00    -0.504 OA
ATOM     21  H   UNL     1      -5.688  -3.288  34.990  1.00  0.00     0.293 HD
ENDBRANCH  17  20
ENDBRANCH   1  12
BRANCH   2  22
ATOM     22  O   UNL     1      -0.840  -7.328  37.651  1.00  0.00    -0.502 OA
ATOM     23  H   UNL     1       0.083  -7.657  37.910  1.00  0.00     0.293 HD
ENDBRANCH   2  22
BRANCH   6  24
ATOM     24  O   UNL     1      -2.026  -9.842  42.195  1.00  0.00    -0.507 OA
ATOM     25  H   UNL     1      -1.296  -9.187  42.429  1.00  0.00     0.293 HD
ENDBRANCH   6  24
BRANCH   8  26
ATOM     26  O   UNL     1      -6.796 -10.012  41.876  1.00  0.00    -0.508 OA
ATOM     27  H   UNL     1      -7.542  -9.348  42.054  1.00  0.00     0.293 HD
ENDBRANCH   8  26
TORSDOF 6
ENDMDL
MODEL 2
REMARK VINA RESULT:    -5.900      2.402      7.601
REMARK INTER + INTRA:          -7.239
REMARK INTER:                  -7.004
REMARK INTRA:                  -0.234
REMARK UNBOUND:                -0.132
REMARK SMILES O=c1c(O)c(-c2ccc(O)c(O)c2)oc2cc(O)cc(O)c12
REMARK SMILES IDX 5 1 3 2 2 3 1 4 22 5 20 6 19 7 17 8 16 9 15 10 14 11 6 12
REMARK SMILES IDX 7 13 8 14 9 15 13 16 11 17 10 18 12 20 4 22 21 24 18 26
REMARK H PARENT 10 19 12 21 4 23 21 25 18 27
REMARK Flexibility Score: inf
ROOT
ATOM      1  C   UNL     1      -3.159 -10.118  39.986  1.00  0.00     0.180 A 
ATOM      2  C   UNL     1      -4.349  -9.415  40.245  1.00  0.00     0.208 A 
ATOM      3  C   UNL     1      -4.722  -8.369  39.387  1.00  0.00     0.238 A 
ATOM      4  O   UNL     1      -5.825  -7.794  39.581  1.00  0.00    -0.285 OA
ATOM      5  C   UNL     1      -3.874  -7.999  38.314  1.00  0.00     0.111 A 
ATOM      6  C   UNL     1      -4.130  -6.925  37.409  1.00  0.00     0.134 A 
ATOM      7  C   UNL     1      -3.273  -6.720  36.321  1.00  0.00     0.093 A 
ATOM      8  C   UNL     1      -2.136  -7.506  36.140  1.00  0.00     0.123 A 
ATOM      9  C   UNL     1      -1.846  -8.524  37.050  1.00  0.00     0.094 A 
ATOM     10  C   UNL     1      -2.703  -8.778  38.124  1.00  0.00     0.146 A 
ATOM     11  O   UNL     1      -2.402  -9.770  38.953  1.00  0.00    -0.452 OA
ENDROOT
BRANCH   1  12
ATOM     12  C   UNL     1      -2.708 -11.242  40.836  1.00  0.00     0.025 A 
ATOM     13  C   UNL     1      -3.393 -12.465  40.782  1.00  0.00     0.016 A 
ATOM     14  C   UNL     1      -2.997 -13.533  41.590  1.00  0.00     0.051 A 
ATOM     15  C   UNL     1      -1.923 -13.398  42.476  1.00  0.00     0.157 A 
ATOM     16  C   UNL     1      -1.643 -11.096  41.742  1.00  0.00     0.062 A 
ATOM     17  C   UNL     1      -1.241 -12.161  42.559  1.00  0.00     0.158 A 
BRANCH  15  18
ATOM     18  O   UNL     1      -1.572 -14.506  43.250  1.00  0.00    -0.504 OA
ATOM     19  H   UNL     1      -0.665 -14.634  43.675  1.00  0.00     0.293 HD
ENDBRANCH  15  18
BRANCH  17  20
ATOM     20  O   UNL     1      -0.174 -11.945  43.433  1.00  0.00    -0.504 OA
ATOM     21  H   UNL     1       0.077 -11.041  43.805  1.00  0.00     0.293 HD
ENDBRANCH  17  20
ENDBRANCH   1  12
BRANCH   2  22
ATOM     22  O   UNL     1      -5.134  -9.745  41.353  1.00  0.00    -0.502 OA
ATOM     23  H   UNL     1      -5.689  -9.059  41.851  1.00  0.00     0.293 HD
ENDBRANCH   2  22
BRANCH   6  24
ATOM     24  O   UNL     1      -5.189  -6.021  37.545  1.00  0.00    -0.507 OA
ATOM     25  H   UNL     1      -5.168  -5.188  38.112  1.00  0.00     0.293 HD
ENDBRANCH   6  24
BRANCH   8  26
ATOM     26  O   UNL     1      -1.297  -7.263  35.056  1.00  0.00    -0.508 OA
ATOM     27  H   UNL     1      -0.818  -8.017  34.576  1.00  0.00     0.293 HD
ENDBRANCH   8  26
TORSDOF 6
ENDMDL
MODEL 3
REMARK VINA RESULT:    -5.841      2.621      7.496
REMARK INTER + INTRA:          -7.169
REMARK INTER:                  -6.856
REMARK INTRA:                  -0.312
REMARK UNBOUND:                -0.132
REMARK SMILES O=c1c(O)c(-c2ccc(O)c(O)c2)oc2cc(O)cc(O)c12
REMARK SMILES IDX 5 1 3 2 2 3 1 4 22 5 20 6 19 7 17 8 16 9 15 10 14 11 6 12
REMARK SMILES IDX 7 13 8 14 9 15 13 16 11 17 10 18 12 20 4 22 21 24 18 26
REMARK H PARENT 10 19 12 21 4 23 21 25 18 27
REMARK Flexibility Score: inf
ROOT
ATOM      1  C   UNL     1      -2.464  -7.676  36.483  1.00  0.00     0.180 A 
ATOM      2  C   UNL     1      -3.356  -6.638  36.803  1.00  0.00     0.208 A 
ATOM      3  C   UNL     1      -3.824  -5.801  35.778  1.00  0.00     0.238 A 
ATOM      4  O   UNL     1      -4.680  -4.922  36.060  1.00  0.00    -0.285 OA
ATOM      5  C   UNL     1      -3.350  -5.975  34.454  1.00  0.00     0.111 A 
ATOM      6  C   UNL     1      -3.721  -5.156  33.345  1.00  0.00     0.134 A 
ATOM      7  C   UNL     1      -3.273  -5.489  32.061  1.00  0.00     0.093 A 
ATOM      8  C   UNL     1      -2.416  -6.569  31.854  1.00  0.00     0.123 A 
ATOM      9  C   UNL     1      -2.003  -7.342  32.939  1.00  0.00     0.094 A 
ATOM     10  C   UNL     1      -2.464  -7.060  34.227  1.00  0.00     0.146 A 
ATOM     11  O   UNL     1      -2.064  -7.835  35.227  1.00  0.00    -0.452 OA
ENDROOT
BRANCH   1  12
ATOM     12  C   UNL     1      -1.940  -8.608  37.506  1.00  0.00     0.025 A 
ATOM     13  C   UNL     1      -0.822  -8.238  38.267  1.00  0.00     0.016 A 
ATOM     14  C   UNL     1      -0.298  -9.110  39.224  1.00  0.00     0.051 A 
ATOM     15  C   UNL     1      -0.868 -10.371  39.429  1.00  0.00     0.157 A 
ATOM     16  C   UNL     1      -2.501  -9.884  37.693  1.00  0.00     0.062 A 
ATOM     17  C   UNL     1      -1.981 -10.766  38.648  1.00  0.00     0.158 A 
BRANCH  15  18
ATOM     18  O   UNL     1      -0.303 -11.192  40.406  1.00  0.00    -0.504 OA
ATOM     19  H   UNL     1       0.129 -12.084  40.213  1.00  0.00     0.293 HD
ENDBRANCH  15  18
BRANCH  17  20
ATOM     20  O   UNL     1      -2.590 -12.016  38.781  1.00  0.00    -0.504 OA
ATOM     21  H   UNL     1      -3.280 -12.378  38.141  1.00  0.00     0.293 HD
ENDBRANCH  17  20
ENDBRANCH   1  12
BRANCH   2  22
ATOM     22  O   UNL     1      -3.752  -6.435  38.128  1.00  0.00    -0.502 OA
ATOM     23  H   UNL     1      -3.967  -5.516  38.498  1.00  0.00     0.293 HD
ENDBRANCH   2  22
BRANCH   6  24
ATOM     24  O   UNL     1      -4.502  -4.000  33.450  1.00  0.00    -0.507 OA
ATOM     25  H   UNL     1      -5.344  -3.821  32.925  1.00  0.00     0.293 HD
ENDBRANCH   6  24
BRANCH   8  26
ATOM     26  O   UNL     1      -1.976  -6.859  30.565  1.00  0.00    -0.508 OA
ATOM     27  H   UNL     1      -2.408  -7.588  30.008  1.00  0.00     0.293 HD
ENDBRANCH   8  26
TORSDOF 6
ENDMDL
MODEL 4
REMARK VINA RESULT:    -5.743      1.324      3.018
REMARK INTER + INTRA:          -7.050
REMARK INTER:                  -6.782
REMARK INTRA:                  -0.269
REMARK UNBOUND:                -0.132
REMARK SMILES O=c1c(O)c(-c2ccc(O)c(O)c2)oc2cc(O)cc(O)c12
REMARK SMILES IDX 5 1 3 2 2 3 1 4 22 5 20 6 19 7 17 8 16 9 15 10 14 11 6 12
REMARK SMILES IDX 7 13 8 14 9 15 13 16 11 17 10 18 12 20 4 22 21 24 18 26
REMARK H PARENT 10 19 12 21 4 23 21 25 18 27
REMARK Flexibility Score: inf
ROOT
ATOM      1  C   UNL     1      -4.753  -7.238  37.498  1.00  0.00     0.180 A 
ATOM      2  C   UNL     1      -6.076  -7.279  37.971  1.00  0.00     0.208 A 
ATOM      3  C   UNL     1      -6.336  -7.881  39.212  1.00  0.00     0.238 A 
ATOM      4  O   UNL     1      -7.511  -7.848  39.663  1.00  0.00    -0.285 OA
ATOM      5  C   UNL     1      -5.282  -8.486  39.938  1.00  0.00     0.111 A 
ATOM      6  C   UNL     1      -5.439  -9.165  41.184  1.00  0.00     0.134 A 
ATOM      7  C   UNL     1      -4.306  -9.632  41.863  1.00  0.00     0.093 A 
ATOM      8  C   UNL     1      -3.032  -9.503  41.314  1.00  0.00     0.123 A 
ATOM      9  C   UNL     1      -2.873  -8.890  40.070  1.00  0.00     0.094 A 
ATOM     10  C   UNL     1      -3.979  -8.379  39.386  1.00  0.00     0.146 A 
ATOM     11  O   UNL     1      -3.780  -7.783  38.217  1.00  0.00    -0.452 OA
ENDROOT
BRANCH   1  12
ATOM     12  C   UNL     1      -4.398  -6.606  36.207  1.00  0.00     0.025 A 
ATOM     13  C   UNL     1      -4.014  -7.414  35.127  1.00  0.00     0.016 A 
ATOM     14  C   UNL     1      -3.654  -6.839  33.907  1.00  0.00     0.051 A 
ATOM     15  C   UNL     1      -3.656  -5.449  33.744  1.00  0.00     0.157 A 
ATOM     16  C   UNL     1      -4.378  -5.209  36.055  1.00  0.00     0.062 A 
ATOM     17  C   UNL     1      -4.016  -4.623  34.835  1.00  0.00     0.158 A 
BRANCH  15  18
ATOM     18  O   UNL     1      -3.295  -4.938  32.497  1.00  0.00    -0.504 OA
ATOM     19  H   UNL     1      -2.490  -5.246  31.971  1.00  0.00     0.293 HD
ENDBRANCH  15  18
BRANCH  17  20
ATOM     20  O   UNL     1      -4.022  -3.229  34.754  1.00  0.00    -0.504 OA
ATOM     21  H   UNL     1      -3.530  -2.624  35.395  1.00  0.00     0.293 HD
ENDBRANCH  17  20
ENDBRANCH   1  12
BRANCH   2  22
ATOM     22  O   UNL     1      -7.115  -6.744  37.204  1.00  0.00    -0.502 OA
ATOM     23  H   UNL     1      -7.013  -5.888  36.671  1.00  0.00     0.293 HD
ENDBRANCH   2  22
BRANCH   6  24
ATOM     24  O   UNL     1      -6.675  -9.429  41.783  1.00  0.00    -0.507 OA
ATOM     25  H   UNL     1      -6.810  -9.638  42.761  1.00  0.00     0.293 HD
ENDBRANCH   6  24
BRANCH   8  26
ATOM     26  O   UNL     1      -1.930  -9.994  42.010  1.00  0.00    -0.508 OA
ATOM     27  H   UNL     1      -0.985  -9.714  41.773  1.00  0.00     0.293 HD
ENDBRANCH   8  26
TORSDOF 6
ENDMDL
MODEL 5
REMARK VINA RESULT:    -5.715      1.470      6.915
REMARK INTER + INTRA:          -7.017
REMARK INTER:                  -6.915
REMARK INTRA:                  -0.102
REMARK UNBOUND:                -0.132
REMARK SMILES O=c1c(O)c(-c2ccc(O)c(O)c2)oc2cc(O)cc(O)c12
REMARK SMILES IDX 5 1 3 2 2 3 1 4 22 5 20 6 19 7 17 8 16 9 15 10 14 11 6 12
REMARK SMILES IDX 7 13 8 14 9 15 13 16 11 17 10 18 12 20 4 22 21 24 18 26
REMARK H PARENT 10 19 12 21 4 23 21 25 18 27
REMARK Flexibility Score: inf
ROOT
ATOM      1  C   UNL     1      -3.416  -8.239  37.905  1.00  0.00     0.180 A 
ATOM      2  C   UNL     1      -2.710  -8.996  36.955  1.00  0.00     0.208 A 
ATOM      3  C   UNL     1      -2.458  -8.440  35.691  1.00  0.00     0.238 A 
ATOM      4  O   UNL     1      -1.761  -9.094  34.872  1.00  0.00    -0.285 OA
ATOM      5  C   UNL     1      -2.965  -7.157  35.371  1.00  0.00     0.111 A 
ATOM      6  C   UNL     1      -2.810  -6.514  34.106  1.00  0.00     0.134 A 
ATOM      7  C   UNL     1      -3.262  -5.200  33.939  1.00  0.00     0.093 A 
ATOM      8  C   UNL     1      -3.920  -4.527  34.968  1.00  0.00     0.123 A 
ATOM      9  C   UNL     1      -4.126  -5.166  36.191  1.00  0.00     0.094 A 
ATOM     10  C   UNL     1      -3.652  -6.463  36.401  1.00  0.00     0.146 A 
ATOM     11  O   UNL     1      -3.850  -7.025  37.588  1.00  0.00    -0.452 OA
ENDROOT
BRANCH   1  12
ATOM     12  C   UNL     1      -3.706  -8.751  39.263  1.00  0.00     0.025 A 
ATOM     13  C   UNL     1      -5.030  -8.769  39.725  1.00  0.00     0.016 A 
ATOM     14  C   UNL     1      -5.324  -9.228  41.011  1.00  0.00     0.051 A 
ATOM     15  C   UNL     1      -4.305  -9.664  41.864  1.00  0.00     0.157 A 
ATOM     16  C   UNL     1      -2.676  -9.165  40.126  1.00  0.00     0.062 A 
ATOM     17  C   UNL     1      -2.961  -9.625  41.419  1.00  0.00     0.158 A 
BRANCH  15  18
ATOM     18  O   UNL     1      -4.665 -10.118  43.133  1.00  0.00    -0.504 OA
ATOM     19  H   UNL     1      -4.436 -11.034  43.491  1.00  0.00     0.293 HD
ENDBRANCH  15  18
BRANCH  17  20
ATOM     20  O   UNL     1      -1.890 -10.023  42.220  1.00  0.00    -0.504 OA
ATOM     21  H   UNL     1      -1.561 -10.975  42.290  1.00  0.00     0.293 HD
ENDBRANCH  17  20
ENDBRANCH   1  12
BRANCH   2  22
ATOM     22  O   UNL     1      -2.284 -10.291  37.264  1.00  0.00    -0.502 OA
ATOM     23  H   UNL     1      -2.879 -10.962  37.736  1.00  0.00     0.293 HD
ENDBRANCH   2  22
BRANCH   6  24
ATOM     24  O   UNL     1      -2.247  -7.125  32.980  1.00  0.00    -0.507 OA
ATOM     25  H   UNL     1      -2.340  -8.101  32.745  1.00  0.00     0.293 HD
ENDBRANCH   6  24
BRANCH   8  26
ATOM     26  O   UNL     1      -4.372  -3.227  34.761  1.00  0.00    -0.508 OA
ATOM     27  H   UNL     1      -4.322  -2.525  35.491  1.00  0.00     0.293 HD
ENDBRANCH   8  26
TORSDOF 6
ENDMDL
MODEL 6
REMARK VINA RESULT:    -5.688      1.428      2.188
REMARK INTER + INTRA:          -6.984
REMARK INTER:                  -7.310
REMARK INTRA:                   0.326
REMARK UNBOUND:                -0.132
REMARK SMILES O=c1c(O)c(-c2ccc(O)c(O)c2)oc2cc(O)cc(O)c12
REMARK SMILES IDX 5 1 3 2 2 3 1 4 22 5 20 6 19 7 17 8 16 9 15 10 14 11 6 12
REMARK SMILES IDX 7 13 8 14 9 15 13 16 11 17 10 18 12 20 4 22 21 24 18 26
REMARK H PARENT 10 19 12 21 4 23 21 25 18 27
REMARK Flexibility Score: inf
ROOT
ATOM      1  C   UNL     1      -2.597  -7.601  37.231  1.00  0.00     0.180 A 
ATOM      2  C   UNL     1      -1.408  -8.304  36.969  1.00  0.00     0.208 A 
ATOM      3  C   UNL     1      -0.967  -9.262  37.895  1.00  0.00     0.238 A 
ATOM      4  O   UNL     1       0.057  -9.941  37.618  1.00  0.00    -0.285 OA
ATOM      5  C   UNL     1      -1.685  -9.466  39.098  1.00  0.00     0.111 A 
ATOM      6  C   UNL     1      -1.304 -10.378  40.128  1.00  0.00     0.134 A 
ATOM      7  C   UNL     1      -2.151 -10.572  41.226  1.00  0.00     0.093 A 
ATOM      8  C   UNL     1      -3.330  -9.843  41.365  1.00  0.00     0.123 A 
ATOM      9  C   UNL     1      -3.685  -8.908  40.392  1.00  0.00     0.094 A 
ATOM     10  C   UNL     1      -2.881  -8.720  39.265  1.00  0.00     0.146 A 
ATOM     11  O   UNL     1      -3.268  -7.837  38.352  1.00  0.00    -0.452 OA
ENDROOT
BRANCH   1  12
ATOM     12  C   UNL     1      -3.135  -6.587  36.296  1.00  0.00     0.025 A 
ATOM     13  C   UNL     1      -4.032  -5.620  36.771  1.00  0.00     0.016 A 
ATOM     14  C   UNL     1      -4.568  -4.667  35.902  1.00  0.00     0.051 A 
ATOM     15  C   UNL     1      -4.232  -4.668  34.544  1.00  0.00     0.157 A 
ATOM     16  C   UNL     1      -2.813  -6.607  34.928  1.00  0.00     0.062 A 
ATOM     17  C   UNL     1      -3.348  -5.657  34.049  1.00  0.00     0.158 A 
BRANCH  15  18
ATOM     18  O   UNL     1      -4.796  -3.684  33.731  1.00  0.00    -0.504 OA
ATOM     19  H   UNL     1      -5.317  -3.878  32.888  1.00  0.00     0.293 HD
ENDBRANCH  15  18
BRANCH  17  20
ATOM     20  O   UNL     1      -2.983  -5.735  32.703  1.00  0.00    -0.504 OA
ATOM     21  H   UNL     1      -2.029  -5.706  32.375  1.00  0.00     0.293 HD
ENDBRANCH  17  20
ENDBRANCH   1  12
BRANCH   2  22
ATOM     22  O   UNL     1      -0.672  -8.035  35.813  1.00  0.00    -0.502 OA
ATOM     23  H   UNL     1      -0.829  -7.208  35.247  1.00  0.00     0.293 HD
ENDBRANCH   2  22
BRANCH   6  24
ATOM     24  O   UNL     1      -0.102 -11.095  40.135  1.00  0.00    -0.507 OA
ATOM     25  H   UNL     1       0.374 -11.414  40.965  1.00  0.00     0.293 HD
ENDBRANCH   6  24
BRANCH   8  26
ATOM     26  O   UNL     1      -4.140 -10.050  42.479  1.00  0.00    -0.508 OA
ATOM     27  H   UNL     1      -3.775  -9.970  43.422  1.00  0.00     0.293 HD
ENDBRANCH   8  26
TORSDOF 6
ENDMDL
MODEL 7
REMARK VINA RESULT:    -5.599      2.541      7.199
REMARK INTER + INTRA:          -6.876
REMARK INTER:                  -6.632
REMARK INTRA:                  -0.244
REMARK UNBOUND:                -0.132
REMARK SMILES O=c1c(O)c(-c2ccc(O)c(O)c2)oc2cc(O)cc(O)c12
REMARK SMILES IDX 5 1 3 2 2 3 1 4 22 5 20 6 19 7 17 8 16 9 15 10 14 11 6 12
REMARK SMILES IDX 7 13 8 14 9 15 13 16 11 17 10 18 12 20 4 22 21 24 18 26
REMARK H PARENT 10 19 12 21 4 23 21 25 18 27
REMARK Flexibility Score: inf
ROOT
ATOM      1  C   UNL     1      -2.095 -10.269  39.095  1.00  0.00     0.180 A 
ATOM      2  C   UNL     1      -1.063 -10.262  38.140  1.00  0.00     0.208 A 
ATOM      3  C   UNL     1      -1.066  -9.275  37.142  1.00  0.00     0.238 A 
ATOM      4  O   UNL     1      -0.099  -9.230  36.337  1.00  0.00    -0.285 OA
ATOM      5  C   UNL     1      -2.128  -8.341  37.075  1.00  0.00     0.111 A 
ATOM      6  C   UNL     1      -2.256  -7.327  36.079  1.00  0.00     0.134 A 
ATOM      7  C   UNL     1      -3.294  -6.391  36.177  1.00  0.00     0.093 A 
ATOM      8  C   UNL     1      -4.244  -6.471  37.193  1.00  0.00     0.123 A 
ATOM      9  C   UNL     1      -4.160  -7.493  38.140  1.00  0.00     0.094 A 
ATOM     10  C   UNL     1      -3.114  -8.418  38.093  1.00  0.00     0.146 A 
ATOM     11  O   UNL     1      -3.060  -9.360  39.027  1.00  0.00    -0.452 OA
ENDROOT
BRANCH   1  12
ATOM     12  C   UNL     1      -2.153 -11.267  40.186  1.00  0.00     0.025 A 
ATOM     13  C   UNL     1      -3.176 -12.227  40.188  1.00  0.00     0.016 A 
ATOM     14  C   UNL     1      -3.262 -13.165  41.219  1.00  0.00     0.051 A 
ATOM     15  C   UNL     1      -2.340 -13.157  42.271  1.00  0.00     0.157 A 
ATOM     16  C   UNL     1      -1.239 -11.241  41.254  1.00  0.00     0.062 A 
ATOM     17  C   UNL     1      -1.319 -12.177  42.293  1.00  0.00     0.158 A 
BRANCH  15  18
ATOM     18  O   UNL     1      -2.476 -14.128  43.265  1.00  0.00    -0.504 OA
ATOM     19  H   UNL     1      -2.439 -13.931  44.255  1.00  0.00     0.293 HD
ENDBRANCH  15  18
BRANCH  17  20
ATOM     20  O   UNL     1      -0.377 -12.094  43.320  1.00  0.00    -0.504 OA
ATOM     21  H   UNL     1       0.231 -12.852  43.591  1.00  0.00     0.293 HD
ENDBRANCH  17  20
ENDBRANCH   1  12
BRANCH   2  22
ATOM     22  O   UNL     1      -0.065 -11.240  38.177  1.00  0.00    -0.502 OA
ATOM     23  H   UNL     1       0.237 -11.741  37.350  1.00  0.00     0.293 HD
ENDBRANCH   2  22
BRANCH   6  24
ATOM     24  O   UNL     1      -1.414  -7.207  34.969  1.00  0.00    -0.507 OA
ATOM     25  H   UNL     1      -1.089  -7.977  34.405  1.00  0.00     0.293 HD
ENDBRANCH   6  24
BRANCH   8  26
ATOM     26  O   UNL     1      -5.273  -5.535  37.248  1.00  0.00    -0.508 OA
ATOM     27  H   UNL     1      -5.084  -4.539  37.236  1.00  0.00     0.293 HD
ENDBRANCH   8  26
TORSDOF 6
ENDMDL
MODEL 8
REMARK VINA RESULT:    -5.519      3.544      6.261
REMARK INTER + INTRA:          -6.780
REMARK INTER:                  -6.466
REMARK INTRA:                  -0.314
REMARK UNBOUND:                -0.132
REMARK SMILES O=c1c(O)c(-c2ccc(O)c(O)c2)oc2cc(O)cc(O)c12
REMARK SMILES IDX 5 1 3 2 2 3 1 4 22 5 20 6 19 7 17 8 16 9 15 10 14 11 6 12
REMARK SMILES IDX 7 13 8 14 9 15 13 16 11 17 10 18 12 20 4 22 21 24 18 26
REMARK H PARENT 10 19 12 21 4 23 21 25 18 27
REMARK Flexibility Score: inf
ROOT
ATOM      1  C   UNL     1      -3.304 -11.409  41.203  1.00  0.00     0.180 A 
ATOM      2  C   UNL     1      -4.627 -11.348  41.676  1.00  0.00     0.208 A 
ATOM      3  C   UNL     1      -5.096 -12.366  42.520  1.00  0.00     0.238 A 
ATOM      4  O   UNL     1      -6.256 -12.265  43.000  1.00  0.00    -0.285 OA
ATOM      5  C   UNL     1      -4.258 -13.463  42.836  1.00  0.00     0.111 A 
ATOM      6  C   UNL     1      -4.644 -14.574  43.644  1.00  0.00     0.134 A 
ATOM      7  C   UNL     1      -3.696 -15.549  43.977  1.00  0.00     0.093 A 
ATOM      8  C   UNL     1      -2.395 -15.489  43.479  1.00  0.00     0.123 A 
ATOM      9  C   UNL     1      -2.022 -14.437  42.642  1.00  0.00     0.094 A 
ATOM     10  C   UNL     1      -2.935 -13.428  42.324  1.00  0.00     0.146 A 
ATOM     11  O   UNL     1      -2.531 -12.433  41.543  1.00  0.00    -0.452 OA
ENDROOT
BRANCH   1  12
ATOM     12  C   UNL     1      -2.734 -10.366  40.322  1.00  0.00     0.025 A 
ATOM     13  C   UNL     1      -2.206  -9.197  40.891  1.00  0.00     0.016 A 
ATOM     14  C   UNL     1      -1.681  -8.190  40.078  1.00  0.00     0.051 A 
ATOM     15  C   UNL     1      -1.684  -8.322  38.686  1.00  0.00     0.157 A 
ATOM     16  C   UNL     1      -2.760 -10.491  38.922  1.00  0.00     0.062 A 
ATOM     17  C   UNL     1      -2.238  -9.485  38.099  1.00  0.00     0.158 A 
BRANCH  15  18
ATOM     18  O   UNL     1      -1.137  -7.283  37.930  1.00  0.00    -0.504 OA
ATOM     19  H   UNL     1      -0.170  -6.999  37.979  1.00  0.00     0.293 HD
ENDBRANCH  15  18
BRANCH  17  20
ATOM     20  O   UNL     1      -2.295  -9.678  36.717  1.00  0.00    -0.504 OA
ATOM     21  H   UNL     1      -3.148  -9.647  36.178  1.00  0.00     0.293 HD
ENDBRANCH  17  20
ENDBRANCH   1  12
BRANCH   2  22
ATOM     22  O   UNL     1      -5.463 -10.296  41.291  1.00  0.00    -0.502 OA
ATOM     23  H   UNL     1      -6.176  -9.916  41.902  1.00  0.00     0.293 HD
ENDBRANCH   2  22
BRANCH   6  24
ATOM     24  O   UNL     1      -5.942 -14.782  44.124  1.00  0.00    -0.507 OA
ATOM     25  H   UNL     1      -6.202 -15.479  44.804  1.00  0.00     0.293 HD
ENDBRANCH   6  24
BRANCH   8  26
ATOM     26  O   UNL     1      -1.483 -16.486  43.816  1.00  0.00    -0.508 OA
ATOM     27  H   UNL     1      -1.785 -17.370  44.209  1.00  0.00     0.293 HD
ENDBRANCH   8  26
TORSDOF 6
ENDMDL
MODEL 9
REMARK VINA RESULT:    -5.480      5.194      9.770
REMARK INTER + INTRA:          -6.733
REMARK INTER:                  -6.402
REMARK INTRA:                  -0.331
REMARK UNBOUND:                -0.132
REMARK SMILES O=c1c(O)c(-c2ccc(O)c(O)c2)oc2cc(O)cc(O)c12
REMARK SMILES IDX 5 1 3 2 2 3 1 4 22 5 20 6 19 7 17 8 16 9 15 10 14 11 6 12
REMARK SMILES IDX 7 13 8 14 9 15 13 16 11 17 10 18 12 20 4 22 21 24 18 26
REMARK H PARENT 10 19 12 21 4 23 21 25 18 27
REMARK Flexibility Score: inf
ROOT
ATOM      1  C   UNL     1      -3.603 -14.046  42.478  1.00  0.00     0.180 A 
ATOM      2  C   UNL     1      -4.658 -13.551  43.265  1.00  0.00     0.208 A 
ATOM      3  C   UNL     1      -4.982 -12.188  43.189  1.00  0.00     0.238 A 
ATOM      4  O   UNL     1      -5.975 -11.767  43.840  1.00  0.00    -0.285 OA
ATOM      5  C   UNL     1      -4.215 -11.324  42.370  1.00  0.00     0.111 A 
ATOM      6  C   UNL     1      -4.426  -9.917  42.252  1.00  0.00     0.134 A 
ATOM      7  C   UNL     1      -3.672  -9.181  41.329  1.00  0.00     0.093 A 
ATOM      8  C   UNL     1      -2.672  -9.786  40.569  1.00  0.00     0.123 A 
ATOM      9  C   UNL     1      -2.420 -11.151  40.718  1.00  0.00     0.094 A 
ATOM     10  C   UNL     1      -3.181 -11.919  41.601  1.00  0.00     0.146 A 
ATOM     11  O   UNL     1      -2.923 -13.218  41.695  1.00  0.00    -0.452 OA
ENDROOT
BRANCH   1  12
ATOM     12  C   UNL     1      -3.212 -15.473  42.492  1.00  0.00     0.025 A 
ATOM     13  C   UNL     1      -2.209 -15.904  43.374  1.00  0.00     0.016 A 
ATOM     14  C   UNL     1      -1.810 -17.242  43.390  1.00  0.00     0.051 A 
ATOM     15  C   UNL     1      -2.390 -18.172  42.520  1.00  0.00     0.157 A 
ATOM     16  C   UNL     1      -3.781 -16.399  41.601  1.00  0.00     0.062 A 
ATOM     17  C   UNL     1      -3.384 -17.743  41.608  1.00  0.00     0.158 A 
BRANCH  15  18
ATOM     18  O   UNL     1      -1.952 -19.495  42.592  1.00  0.00    -0.504 OA
ATOM     19  H   UNL     1      -1.520 -19.989  41.825  1.00  0.00     0.293 HD
ENDBRANCH  15  18
BRANCH  17  20
ATOM     20  O   UNL     1      -3.993 -18.608  40.696  1.00  0.00    -0.504 OA
ATOM     21  H   UNL     1      -3.778 -19.590  40.620  1.00  0.00     0.293 HD
ENDBRANCH  17  20
ENDBRANCH   1  12
BRANCH   2  22
ATOM     22  O   UNL     1      -5.354 -14.405  44.125  1.00  0.00    -0.502 OA
ATOM     23  H   UNL     1      -6.356 -14.341  44.262  1.00  0.00     0.293 HD
ENDBRANCH   2  22
BRANCH   6  24
ATOM     24  O   UNL     1      -5.338  -9.193  43.027  1.00  0.00    -0.507 OA
ATOM     25  H   UNL     1      -5.204  -8.944  43.995  1.00  0.00     0.293 HD
ENDBRANCH   6  24
BRANCH   8  26
ATOM     26  O   UNL     1      -1.930  -9.020  39.674  1.00  0.00    -0.508 OA
ATOM     27  H   UNL     1      -1.181  -8.414  39.990  1.00  0.00     0.293 HD
ENDBRANCH   8  26
TORSDOF 6
ENDMDL
