MODEL 1
REMARK VINA RESULT:    -4.863      0.000      0.000
REMARK INTER + INTRA:          -9.913
REMARK INTER:                  -7.421
REMARK INTRA:                  -2.492
REMARK UNBOUND:                -2.492
REMARK SMILES CC(=O)CCC=C(C)CCC=C(C)CCC=C(C)C
REMARK SMILES IDX 10 1 11 2 12 3 13 4 14 5 15 6 16 7 18 8 17 9 19 10 9 11 7 12
REMARK SMILES IDX 6 13 8 14 5 15 4 16 2 17 3 18 1 19
REMARK H PARENT
REMARK Flexibility Score: inf
ROOT
ATOM      1  C   UNL     1       9.968 117.918  17.554  1.00  0.00     0.032 C 
ENDROOT
BRANCH   1   2
ATOM      2  C   UNL     1       8.823 117.702  18.513  1.00  0.00    -0.028 C 
ATOM      3  C   UNL     1       8.470 118.561  19.495  1.00  0.00    -0.077 C 
ATOM      4  C   UNL     1       9.166 119.889  19.683  1.00  0.00     0.039 C 
BRANCH   3   5
ATOM      5  C   UNL     1       7.333 118.191  20.422  1.00  0.00     0.034 C 
BRANCH   5   6
ATOM      6  C   UNL     1       7.763 118.316  21.888  1.00  0.00     0.032 C 
BRANCH   6   7
ATOM      7  C   UNL     1       8.325 117.011  22.394  1.00  0.00    -0.028 C 
ATOM      8  C   UNL     1      10.684 117.851  22.423  1.00  0.00     0.039 C 
ATOM      9  C   UNL     1       9.637 116.778  22.616  1.00  0.00    -0.080 C 
ATOM     10  C   UNL     1      10.056 115.409  23.085  1.00  0.00     0.039 C 
ENDBRANCH   6   7
ENDBRANCH   5   6
ENDBRANCH   3   5
ENDBRANCH   1   2
BRANCH   1  11
ATOM     11  C   UNL     1      10.946 116.733  17.552  1.00  0.00     0.034 C 
BRANCH  11  12
ATOM     12  C   UNL     1      11.731 116.647  18.849  1.00  0.00    -0.077 C 
ATOM     13  C   UNL     1      11.673 115.579  19.677  1.00  0.00    -0.028 C 
ATOM     14  C   UNL     1      12.589 117.817  19.256  1.00  0.00     0.039 C 
BRANCH  13  15
ATOM     15  C   UNL     1      10.924 114.299  19.387  1.00  0.00     0.035 C 
BRANCH  15  16
ATOM     16  C   UNL     1      11.880 113.107  19.241  1.00  0.00     0.079 C 
BRANCH  16  17
ATOM     17  C   UNL     1      12.316 112.919  17.810  1.00  0.00     0.130 C 
ATOM     18  O   UNL     1      13.409 113.332  17.454  1.00  0.00    -0.300 OA
ATOM     19  C   UNL     1      11.435 112.230  16.811  1.00  0.00     0.087 C 
ENDBRANCH  16  17
ENDBRANCH  15  16
ENDBRANCH  13  15
ENDBRANCH  11  12
ENDBRANCH   1  11
TORSDOF 9
ENDMDL
MODEL 2
REMARK VINA RESULT:    -4.814      3.095      7.149
REMARK INTER + INTRA:          -9.839
REMARK INTER:                  -8.729
REMARK INTRA:                  -1.111
REMARK UNBOUND:                -2.492
REMARK SMILES CC(=O)CCC=C(C)CCC=C(C)CCC=C(C)C
REMARK SMILES IDX 10 1 11 2 12 3 13 4 14 5 15 6 16 7 18 8 17 9 19 10 9 11 7 12
REMARK SMILES IDX 6 13 8 14 5 15 4 16 2 17 3 18 1 19
REMARK H PARENT
REMARK Flexibility Score: inf
ROOT
ATOM      1  C   UNL     1      11.042 115.512  18.500  1.00  0.00     0.032 C 
ENDROOT
BRANCH   1   2
ATOM      2  C   UNL     1      11.364 114.322  19.372  1.00  0.00    -0.028 C 
ATOM      3  C   UNL     1      11.608 113.075  18.910  1.00  0.00    -0.077 C 
ATOM      4  C   UNL     1      11.653 112.764  17.432  1.00  0.00     0.039 C 
BRANCH   3   5
ATOM      5  C   UNL     1      11.862 111.961  19.902  1.00  0.00     0.034 C 
BRANCH   5   6
ATOM      6  C   UNL     1      13.366 111.722  20.079  1.00  0.00     0.032 C 
BRANCH   6   7
ATOM      7  C   UNL     1      13.712 110.277  19.824  1.00  0.00    -0.028 C 
ATOM      8  C   UNL     1      14.827 110.763  17.634  1.00  0.00     0.039 C 
ATOM      9  C   UNL     1      14.345 109.827  18.718  1.00  0.00    -0.080 C 
ATOM     10  C   UNL     1      14.589 108.346  18.582  1.00  0.00     0.039 C 
ENDBRANCH   6   7
ENDBRANCH   5   6
ENDBRANCH   3   5
ENDBRANCH   1   2
BRANCH   1  11
ATOM     11  C   UNL     1      10.251 116.584  19.264  1.00  0.00     0.034 C 
BRANCH  11  12
ATOM     12  C   UNL     1       9.589 117.575  18.324  1.00  0.00    -0.077 C 
ATOM     13  C   UNL     1       8.343 118.062  18.524  1.00  0.00    -0.028 C 
ATOM     14  C   UNL     1      10.336 118.014  17.090  1.00  0.00     0.039 C 
BRANCH  13  15
ATOM     15  C   UNL     1       7.490 117.785  19.739  1.00  0.00     0.035 C 
BRANCH  15  16
ATOM     16  C   UNL     1       7.565 118.934  20.754  1.00  0.00     0.079 C 
BRANCH  16  17
ATOM     17  C   UNL     1       7.655 118.419  22.169  1.00  0.00     0.130 C 
ATOM     18  O   UNL     1       7.158 119.065  23.078  1.00  0.00    -0.300 OA
ATOM     19  C   UNL     1       8.342 117.123  22.483  1.00  0.00     0.087 C 
ENDBRANCH  16  17
ENDBRANCH  15  16
ENDBRANCH  13  15
ENDBRANCH  11  12
ENDBRANCH   1  11
TORSDOF 9
ENDMDL
MODEL 3
REMARK VINA RESULT:    -4.735      2.447      4.736
REMARK INTER + INTRA:          -9.719
REMARK INTER:                  -8.004
REMARK INTRA:                  -1.715
REMARK UNBOUND:                -2.492
REMARK SMILES CC(=O)CCC=C(C)CCC=C(C)CCC=C(C)C
REMARK SMILES IDX 10 1 11 2 12 3 13 4 14 5 15 6 16 7 18 8 17 9 19 10 9 11 7 12
REMARK SMILES IDX 6 13 8 14 5 15 4 16 2 17 3 18 1 19
REMARK H PARENT
REMARK Flexibility Score: inf
ROOT
ATOM      1  C   UNL     1      11.723 114.249  19.866  1.00  0.00     0.032 C 
ENDROOT
BRANCH   1   2
ATOM      2  C   UNL     1      11.086 115.364  19.073  1.00  0.00    -0.028 C 
ATOM      3  C   UNL     1      11.718 116.088  18.122  1.00  0.00    -0.077 C 
ATOM      4  C   UNL     1      13.139 115.792  17.704  1.00  0.00     0.039 C 
BRANCH   3   5
ATOM      5  C   UNL     1      10.974 117.217  17.443  1.00  0.00     0.034 C 
BRANCH   5   6
ATOM      6  C   UNL     1       9.606 117.440  18.100  1.00  0.00     0.032 C 
BRANCH   6   7
ATOM      7  C   UNL     1       9.512 118.830  18.678  1.00  0.00    -0.028 C 
ATOM      8  C   UNL     1       9.235 118.007  21.028  1.00  0.00     0.039 C 
ATOM      9  C   UNL     1       9.320 119.101  19.988  1.00  0.00    -0.080 C 
ATOM     10  C   UNL     1       9.205 120.541  20.416  1.00  0.00     0.039 C 
ENDBRANCH   6   7
ENDBRANCH   5   6
ENDBRANCH   3   5
ENDBRANCH   1   2
BRANCH   1  11
ATOM     11  C   UNL     1      11.177 112.872  19.458  1.00  0.00     0.034 C 
BRANCH  11  12
ATOM     12  C   UNL     1      12.052 112.205  18.412  1.00  0.00    -0.077 C 
ATOM     13  C   UNL     1      13.190 111.540  18.719  1.00  0.00    -0.028 C 
ATOM     14  C   UNL     1      11.661 112.314  16.961  1.00  0.00     0.039 C 
BRANCH  13  15
ATOM     15  C   UNL     1      13.687 111.275  20.120  1.00  0.00     0.035 C 
BRANCH  15  16
ATOM     16  C   UNL     1      13.252 109.890  20.620  1.00  0.00     0.079 C 
BRANCH  16  17
ATOM     17  C   UNL     1      12.248 109.996  21.740  1.00  0.00     0.130 C 
ATOM     18  O   UNL     1      11.433 109.100  21.906  1.00  0.00    -0.300 OA
ATOM     19  C   UNL     1      12.231 111.179  22.661  1.00  0.00     0.087 C 
ENDBRANCH  16  17
ENDBRANCH  15  16
ENDBRANCH  13  15
ENDBRANCH  11  12
ENDBRANCH   1  11
TORSDOF 9
ENDMDL
MODEL 4
REMARK VINA RESULT:    -4.735      2.393      4.737
REMARK INTER + INTRA:          -9.718
REMARK INTER:                  -8.355
REMARK INTRA:                  -1.363
REMARK UNBOUND:                -2.492
REMARK SMILES CC(=O)CCC=C(C)CCC=C(C)CCC=C(C)C
REMARK SMILES IDX 10 1 11 2 12 3 13 4 14 5 15 6 16 7 18 8 17 9 19 10 9 11 7 12
REMARK SMILES IDX 6 13 8 14 5 15 4 16 2 17 3 18 1 19
REMARK H PARENT
REMARK Flexibility Score: inf
ROOT
ATOM      1  C   UNL     1      11.023 113.415  19.241  1.00  0.00     0.032 C 
ENDROOT
BRANCH   1   2
ATOM      2  C   UNL     1      11.329 114.794  18.709  1.00  0.00    -0.028 C 
ATOM      3  C   UNL     1      11.217 115.937  19.424  1.00  0.00    -0.077 C 
ATOM      4  C   UNL     1      10.833 115.931  20.885  1.00  0.00     0.039 C 
BRANCH   3   5
ATOM      5  C   UNL     1      11.504 117.258  18.746  1.00  0.00     0.034 C 
BRANCH   5   6
ATOM      6  C   UNL     1      10.425 118.292  19.091  1.00  0.00     0.032 C 
BRANCH   6   7
ATOM      7  C   UNL     1       9.169 118.041  18.295  1.00  0.00    -0.028 C 
ATOM      8  C   UNL     1       7.708 117.946  20.327  1.00  0.00     0.039 C 
ATOM      9  C   UNL     1       7.945 117.859  18.837  1.00  0.00    -0.080 C 
ATOM     10  C   UNL     1       6.786 117.576  17.917  1.00  0.00     0.039 C 
ENDBRANCH   6   7
ENDBRANCH   5   6
ENDBRANCH   3   5
ENDBRANCH   1   2
BRANCH   1  11
ATOM     11  C   UNL     1      12.210 112.457  19.065  1.00  0.00     0.034 C 
BRANCH  11  12
ATOM     12  C   UNL     1      12.477 112.152  17.602  1.00  0.00    -0.077 C 
ATOM     13  C   UNL     1      13.723 112.010  17.093  1.00  0.00    -0.028 C 
ATOM     14  C   UNL     1      11.306 112.036  16.659  1.00  0.00     0.039 C 
BRANCH  13  15
ATOM     15  C   UNL     1      14.996 112.023  17.906  1.00  0.00     0.035 C 
BRANCH  15  16
ATOM     16  C   UNL     1      15.680 110.649  17.904  1.00  0.00     0.079 C 
BRANCH  16  17
ATOM     17  C   UNL     1      15.284 109.831  19.107  1.00  0.00     0.130 C 
ATOM     18  O   UNL     1      15.892 109.971  20.158  1.00  0.00    -0.300 OA
ATOM     19  C   UNL     1      14.153 108.848  19.043  1.00  0.00     0.087 C 
ENDBRANCH  16  17
ENDBRANCH  15  16
ENDBRANCH  13  15
ENDBRANCH  11  12
ENDBRANCH   1  11
TORSDOF 9
ENDMDL
MODEL 5
REMARK VINA RESULT:    -4.697      2.898      5.172
REMARK INTER + INTRA:          -9.661
REMARK INTER:                  -8.456
REMARK INTRA:                  -1.205
REMARK UNBOUND:                -2.492
REMARK SMILES CC(=O)CCC=C(C)CCC=C(C)CCC=C(C)C
REMARK SMILES IDX 10 1 11 2 12 3 13 4 14 5 15 6 16 7 18 8 17 9 19 10 9 11 7 12
REMARK SMILES IDX 6 13 8 14 5 15 4 16 2 17 3 18 1 19
REMARK H PARENT
REMARK Flexibility Score: inf
ROOT
ATOM      1  C   UNL     1      12.093 112.976  17.475  1.00  0.00     0.032 C 
ENDROOT
BRANCH   1   2
ATOM      2  C   UNL     1      11.278 113.839  18.408  1.00  0.00    -0.028 C 
ATOM      3  C   UNL     1      11.553 115.131  18.697  1.00  0.00    -0.077 C 
ATOM      4  C   UNL     1      12.693 115.872  18.039  1.00  0.00     0.039 C 
BRANCH   3   5
ATOM      5  C   UNL     1      10.682 115.862  19.695  1.00  0.00     0.034 C 
BRANCH   5   6
ATOM      6  C   UNL     1      10.456 117.314  19.260  1.00  0.00     0.032 C 
BRANCH   6   7
ATOM      7  C   UNL     1       9.181 117.442  18.465  1.00  0.00    -0.028 C 
ATOM      8  C   UNL     1       7.783 117.943  20.482  1.00  0.00     0.039 C 
ATOM      9  C   UNL     1       7.968 117.700  19.002  1.00  0.00    -0.080 C 
ATOM     10  C   UNL     1       6.773 117.759  18.086  1.00  0.00     0.039 C 
ENDBRANCH   6   7
ENDBRANCH   5   6
ENDBRANCH   3   5
ENDBRANCH   1   2
BRANCH   1  11
ATOM     11  C   UNL     1      12.502 111.650  18.134  1.00  0.00     0.034 C 
BRANCH  11  12
ATOM     12  C   UNL     1      14.011 111.514  18.240  1.00  0.00    -0.077 C 
ATOM     13  C   UNL     1      14.620 110.389  18.680  1.00  0.00    -0.028 C 
ATOM     14  C   UNL     1      14.873 112.694  17.873  1.00  0.00     0.039 C 
BRANCH  13  15
ATOM     15  C   UNL     1      13.914 109.097  19.017  1.00  0.00     0.035 C 
BRANCH  15  16
ATOM     16  C   UNL     1      14.267 108.613  20.430  1.00  0.00     0.079 C 
BRANCH  16  17
ATOM     17  C   UNL     1      13.615 109.468  21.487  1.00  0.00     0.130 C 
ATOM     18  O   UNL     1      14.301 110.228  22.155  1.00  0.00    -0.300 OA
ATOM     19  C   UNL     1      12.138 109.408  21.736  1.00  0.00     0.087 C 
ENDBRANCH  16  17
ENDBRANCH  15  16
ENDBRANCH  13  15
ENDBRANCH  11  12
ENDBRANCH   1  11
TORSDOF 9
ENDMDL
MODEL 6
REMARK VINA RESULT:    -4.682      2.805      6.475
REMARK INTER + INTRA:          -9.638
REMARK INTER:                  -8.105
REMARK INTRA:                  -1.533
REMARK UNBOUND:                -2.492
REMARK SMILES CC(=O)CCC=C(C)CCC=C(C)CCC=C(C)C
REMARK SMILES IDX 10 1 11 2 12 3 13 4 14 5 15 6 16 7 18 8 17 9 19 10 9 11 7 12
REMARK SMILES IDX 6 13 8 14 5 15 4 16 2 17 3 18 1 19
REMARK H PARENT
REMARK Flexibility Score: inf
ROOT
ATOM      1  C   UNL     1      10.503 116.323  19.910  1.00  0.00     0.032 C 
ENDROOT
BRANCH   1   2
ATOM      2  C   UNL     1      11.016 115.346  18.880  1.00  0.00    -0.028 C 
ATOM      3  C   UNL     1      12.323 115.091  18.646  1.00  0.00    -0.077 C 
ATOM      4  C   UNL     1      13.421 115.726  19.468  1.00  0.00     0.039 C 
BRANCH   3   5
ATOM      5  C   UNL     1      12.697 114.128  17.541  1.00  0.00     0.034 C 
BRANCH   5   6
ATOM      6  C   UNL     1      11.851 112.852  17.621  1.00  0.00     0.032 C 
BRANCH   6   7
ATOM      7  C   UNL     1      12.715 111.655  17.930  1.00  0.00    -0.028 C 
ATOM      8  C   UNL     1      12.281 111.775  20.394  1.00  0.00     0.039 C 
ATOM      9  C   UNL     1      12.938 111.174  19.173  1.00  0.00    -0.080 C 
ATOM     10  C   UNL     1      13.859 109.992  19.332  1.00  0.00     0.039 C 
ENDBRANCH   6   7
ENDBRANCH   5   6
ENDBRANCH   3   5
ENDBRANCH   1   2
BRANCH   1  11
ATOM     11  C   UNL     1      10.461 117.759  19.367  1.00  0.00     0.034 C 
BRANCH  11  12
ATOM     12  C   UNL     1       9.694 117.845  18.059  1.00  0.00    -0.077 C 
ATOM     13  C   UNL     1       8.347 117.750  17.987  1.00  0.00    -0.028 C 
ATOM     14  C   UNL     1      10.466 118.009  16.775  1.00  0.00     0.039 C 
BRANCH  13  15
ATOM     15  C   UNL     1       7.421 117.659  19.176  1.00  0.00     0.035 C 
BRANCH  15  16
ATOM     16  C   UNL     1       6.975 119.048  19.653  1.00  0.00     0.079 C 
BRANCH  16  17
ATOM     17  C   UNL     1       7.568 119.390  20.996  1.00  0.00     0.130 C 
ATOM     18  O   UNL     1       7.918 120.538  21.225  1.00  0.00    -0.300 OA
ATOM     19  C   UNL     1       7.736 118.348  22.062  1.00  0.00     0.087 C 
ENDBRANCH  16  17
ENDBRANCH  15  16
ENDBRANCH  13  15
ENDBRANCH  11  12
ENDBRANCH   1  11
TORSDOF 9
ENDMDL
MODEL 7
REMARK VINA RESULT:    -4.679      2.544      6.282
REMARK INTER + INTRA:          -9.633
REMARK INTER:                  -7.990
REMARK INTRA:                  -1.643
REMARK UNBOUND:                -2.492
REMARK SMILES CC(=O)CCC=C(C)CCC=C(C)CCC=C(C)C
REMARK SMILES IDX 10 1 11 2 12 3 13 4 14 5 15 6 16 7 18 8 17 9 19 10 9 11 7 12
REMARK SMILES IDX 6 13 8 14 5 15 4 16 2 17 3 18 1 19
REMARK H PARENT
REMARK Flexibility Score: inf
ROOT
ATOM      1  C   UNL     1      11.377 116.522  20.436  1.00  0.00     0.032 C 
ENDROOT
BRANCH   1   2
ATOM      2  C   UNL     1      11.040 115.339  19.560  1.00  0.00    -0.028 C 
ATOM      3  C   UNL     1      11.414 114.064  19.812  1.00  0.00    -0.077 C 
ATOM      4  C   UNL     1      12.164 113.685  21.068  1.00  0.00     0.039 C 
BRANCH   3   5
ATOM      5  C   UNL     1      11.055 112.983  18.817  1.00  0.00     0.034 C 
BRANCH   5   6
ATOM      6  C   UNL     1      11.797 113.195  17.492  1.00  0.00     0.032 C 
BRANCH   6   7
ATOM      7  C   UNL     1      12.845 112.129  17.290  1.00  0.00    -0.028 C 
ATOM      8  C   UNL     1      14.718 113.595  18.075  1.00  0.00     0.039 C 
ATOM      9  C   UNL     1      14.165 112.301  17.524  1.00  0.00    -0.080 C 
ATOM     10  C   UNL     1      15.101 111.156  17.238  1.00  0.00     0.039 C 
ENDBRANCH   6   7
ENDBRANCH   5   6
ENDBRANCH   3   5
ENDBRANCH   1   2
BRANCH   1  11
ATOM     11  C   UNL     1      12.073 117.640  19.646  1.00  0.00     0.034 C 
BRANCH  11  12
ATOM     12  C   UNL     1      11.879 117.479  18.149  1.00  0.00    -0.077 C 
ATOM     13  C   UNL     1      10.749 117.855  17.508  1.00  0.00    -0.028 C 
ATOM     14  C   UNL     1      12.977 116.838  17.340  1.00  0.00     0.039 C 
BRANCH  13  15
ATOM     15  C   UNL     1       9.587 118.575  18.151  1.00  0.00     0.035 C 
BRANCH  15  16
ATOM     16  C   UNL     1       8.363 117.660  18.290  1.00  0.00     0.079 C 
BRANCH  16  17
ATOM     17  C   UNL     1       7.445 118.127  19.392  1.00  0.00     0.130 C 
ATOM     18  O   UNL     1       6.399 118.689  19.105  1.00  0.00    -0.300 OA
ATOM     19  C   UNL     1       7.787 117.911  20.835  1.00  0.00     0.087 C 
ENDBRANCH  16  17
ENDBRANCH  15  16
ENDBRANCH  13  15
ENDBRANCH  11  12
ENDBRANCH   1  11
TORSDOF 9
ENDMDL
MODEL 8
REMARK VINA RESULT:    -4.651      2.719      6.566
REMARK INTER + INTRA:          -9.590
REMARK INTER:                  -7.947
REMARK INTRA:                  -1.643
REMARK UNBOUND:                -2.492
REMARK SMILES CC(=O)CCC=C(C)CCC=C(C)CCC=C(C)C
REMARK SMILES IDX 10 1 11 2 12 3 13 4 14 5 15 6 16 7 18 8 17 9 19 10 9 11 7 12
REMARK SMILES IDX 6 13 8 14 5 15 4 16 2 17 3 18 1 19
REMARK H PARENT
REMARK Flexibility Score: inf
ROOT
ATOM      1  C   UNL     1      10.091 117.330  18.189  1.00  0.00     0.032 C 
ENDROOT
BRANCH   1   2
ATOM      2  C   UNL     1      10.192 116.191  19.175  1.00  0.00    -0.028 C 
ATOM      3  C   UNL     1      11.250 115.970  19.988  1.00  0.00    -0.077 C 
ATOM      4  C   UNL     1      12.431 116.910  20.036  1.00  0.00     0.039 C 
BRANCH   3   5
ATOM      5  C   UNL     1      11.241 114.755  20.890  1.00  0.00     0.034 C 
BRANCH   5   6
ATOM      6  C   UNL     1      12.219 113.691  20.378  1.00  0.00     0.032 C 
BRANCH   6   7
ATOM      7  C   UNL     1      11.647 112.969  19.185  1.00  0.00    -0.028 C 
ATOM      8  C   UNL     1      13.316 113.945  17.592  1.00  0.00     0.039 C 
ATOM      9  C   UNL     1      12.113 113.091  17.922  1.00  0.00    -0.080 C 
ATOM     10  C   UNL     1      11.414 112.337  16.821  1.00  0.00     0.039 C 
ENDBRANCH   6   7
ENDBRANCH   5   6
ENDBRANCH   3   5
ENDBRANCH   1   2
BRANCH   1  11
ATOM     11  C   UNL     1       9.249 118.491  18.739  1.00  0.00     0.034 C 
BRANCH  11  12
ATOM     12  C   UNL     1       7.856 118.038  19.140  1.00  0.00    -0.077 C 
ATOM     13  C   UNL     1       7.452 117.952  20.428  1.00  0.00    -0.028 C 
ATOM     14  C   UNL     1       6.886 117.632  18.061  1.00  0.00     0.039 C 
BRANCH  13  15
ATOM     15  C   UNL     1       8.268 118.387  21.623  1.00  0.00     0.035 C 
BRANCH  15  16
ATOM     16  C   UNL     1       7.445 119.262  22.579  1.00  0.00     0.079 C 
BRANCH  16  17
ATOM     17  C   UNL     1       7.474 120.712  22.166  1.00  0.00     0.130 C 
ATOM     18  O   UNL     1       8.359 121.109  21.423  1.00  0.00    -0.300 OA
ATOM     19  C   UNL     1       6.433 121.679  22.646  1.00  0.00     0.087 C 
ENDBRANCH  16  17
ENDBRANCH  15  16
ENDBRANCH  13  15
ENDBRANCH  11  12
ENDBRANCH   1  11
TORSDOF 9
ENDMDL
MODEL 9
REMARK VINA RESULT:    -4.637      3.405      6.722
REMARK INTER + INTRA:          -9.569
REMARK INTER:                  -7.435
REMARK INTRA:                  -2.134
REMARK UNBOUND:                -2.492
REMARK SMILES CC(=O)CCC=C(C)CCC=C(C)CCC=C(C)C
REMARK SMILES IDX 10 1 11 2 12 3 13 4 14 5 15 6 16 7 18 8 17 9 19 10 9 11 7 12
REMARK SMILES IDX 6 13 8 14 5 15 4 16 2 17 3 18 1 19
REMARK H PARENT
REMARK Flexibility Score: inf
ROOT
ATOM      1  C   UNL     1      14.512 111.906  17.337  1.00  0.00     0.032 C 
ENDROOT
BRANCH   1   2
ATOM      2  C   UNL     1      13.479 112.225  18.391  1.00  0.00    -0.028 C 
ATOM      3  C   UNL     1      12.152 112.340  18.156  1.00  0.00    -0.077 C 
ATOM      4  C   UNL     1      11.557 112.082  16.791  1.00  0.00     0.039 C 
BRANCH   3   5
ATOM      5  C   UNL     1      11.235 112.719  19.297  1.00  0.00     0.034 C 
BRANCH   5   6
ATOM      6  C   UNL     1      11.606 114.096  19.860  1.00  0.00     0.032 C 
BRANCH   6   7
ATOM      7  C   UNL     1      10.885 115.191  19.114  1.00  0.00    -0.028 C 
ATOM      8  C   UNL     1      12.913 115.851  17.800  1.00  0.00     0.039 C 
ATOM      9  C   UNL     1      11.465 116.004  18.204  1.00  0.00    -0.080 C 
ATOM     10  C   UNL     1      10.627 117.082  17.566  1.00  0.00     0.039 C 
ENDBRANCH   6   7
ENDBRANCH   5   6
ENDBRANCH   3   5
ENDBRANCH   1   2
BRANCH   1  11
ATOM     11  C   UNL     1      15.711 111.145  17.923  1.00  0.00     0.034 C 
BRANCH  11  12
ATOM     12  C   UNL     1      15.589 109.647  17.707  1.00  0.00    -0.077 C 
ATOM     13  C   UNL     1      15.290 108.781  18.703  1.00  0.00    -0.028 C 
ATOM     14  C   UNL     1      15.847 109.089  16.331  1.00  0.00     0.039 C 
BRANCH  13  15
ATOM     15  C   UNL     1      14.932 109.176  20.116  1.00  0.00     0.035 C 
BRANCH  15  16
ATOM     16  C   UNL     1      13.419 109.089  20.360  1.00  0.00     0.079 C 
BRANCH  16  17
ATOM     17  C   UNL     1      12.991 109.974  21.503  1.00  0.00     0.130 C 
ATOM     18  O   UNL     1      11.971 109.707  22.122  1.00  0.00    -0.300 OA
ATOM     19  C   UNL     1      13.794 111.176  21.902  1.00  0.00     0.087 C 
ENDBRANCH  16  17
ENDBRANCH  15  16
ENDBRANCH  13  15
ENDBRANCH  11  12
ENDBRANCH   1  11
TORSDOF 9
ENDMDL
