MODEL 1
REMARK VINA RESULT:    -6.023      0.000      0.000
REMARK INTER + INTRA:          -6.468
REMARK INTER:                  -6.375
REMARK INTRA:                  -0.094
REMARK UNBOUND:                -0.094
REMARK SMILES C=C(C)[C@@H]1CC=C(C)C(=O)C1
REMARK SMILES IDX 8 1 7 2 6 3 5 4 4 5 11 6 9 7 10 8 2 9 1 10 3 11
REMARK H PARENT
REMARK Flexibility Score: inf
ROOT
ATOM      1  C   UNL     1      -2.995  11.169  21.860  1.00  0.00     0.048 C 
ATOM      2  C   UNL     1      -2.310  12.482  22.124  1.00  0.00    -0.012 C 
ATOM      3  C   UNL     1      -3.036  13.609  22.212  1.00  0.00    -0.019 C 
ATOM      4  C   UNL     1      -2.404  14.947  22.491  1.00  0.00     0.036 C 
ATOM      5  C   UNL     1      -0.990  15.029  21.887  1.00  0.00     0.025 C 
ATOM      6  C   UNL     1      -0.124  13.858  22.387  1.00  0.00     0.089 C 
ATOM      7  C   UNL     1      -0.827  12.548  22.163  1.00  0.00     0.158 C 
ATOM      8  O   UNL     1      -0.143  11.496  22.045  1.00  0.00    -0.295 OA
ENDROOT
BRANCH   5   9
ATOM      9  C   UNL     1      -0.335  16.373  22.166  1.00  0.00    -0.077 C 
ATOM     10  C   UNL     1      -0.653  17.470  21.457  1.00  0.00     0.008 C 
ATOM     11  C   UNL     1       0.694  16.459  23.262  1.00  0.00     0.039 C 
ENDBRANCH   5   9
TORSDOF 1
ENDMDL
MODEL 2
REMARK VINA RESULT:    -6.023      3.592      6.084
REMARK INTER + INTRA:          -6.468
REMARK INTER:                  -6.372
REMARK INTRA:                  -0.097
REMARK UNBOUND:                -0.094
REMARK SMILES C=C(C)[C@@H]1CC=C(C)C(=O)C1
REMARK SMILES IDX 8 1 7 2 6 3 5 4 4 5 11 6 9 7 10 8 2 9 1 10 3 11
REMARK H PARENT
REMARK Flexibility Score: inf
ROOT
ATOM      1  C   UNL     1       2.980  14.120  22.145  1.00  0.00     0.048 C 
ATOM      2  C   UNL     1       2.335  12.766  22.030  1.00  0.00    -0.012 C 
ATOM      3  C   UNL     1       0.998  12.652  22.104  1.00  0.00    -0.019 C 
ATOM      4  C   UNL     1       0.300  11.325  21.977  1.00  0.00     0.036 C 
ATOM      5  C   UNL     1       1.167  10.187  22.550  1.00  0.00     0.025 C 
ATOM      6  C   UNL     1       2.555  10.182  21.883  1.00  0.00     0.089 C 
ATOM      7  C   UNL     1       3.182  11.547  21.960  1.00  0.00     0.158 C 
ATOM      8  O   UNL     1       4.437  11.650  21.926  1.00  0.00    -0.295 OA
ENDROOT
BRANCH   5   9
ATOM      9  C   UNL     1       0.478   8.836  22.425  1.00  0.00    -0.077 C 
ATOM     10  C   UNL     1       0.848   7.944  21.490  1.00  0.00     0.008 C 
ATOM     11  C   UNL     1      -0.643   8.509  23.375  1.00  0.00     0.039 C 
ENDBRANCH   5   9
TORSDOF 1
ENDMDL
MODEL 3
REMARK VINA RESULT:    -6.000      1.406      2.058
REMARK INTER + INTRA:          -6.444
REMARK INTER:                  -6.348
REMARK INTRA:                  -0.096
REMARK UNBOUND:                -0.094
REMARK SMILES C=C(C)[C@@H]1CC=C(C)C(=O)C1
REMARK SMILES IDX 8 1 7 2 6 3 5 4 4 5 11 6 9 7 10 8 2 9 1 10 3 11
REMARK H PARENT
REMARK Flexibility Score: inf
ROOT
ATOM      1  C   UNL     1      -2.653  10.993  22.119  1.00  0.00     0.048 C 
ATOM      2  C   UNL     1      -2.064  12.373  22.008  1.00  0.00    -0.012 C 
ATOM      3  C   UNL     1      -0.730  12.533  21.989  1.00  0.00    -0.019 C 
ATOM      4  C   UNL     1      -0.089  13.889  21.862  1.00  0.00     0.036 C 
ATOM      5  C   UNL     1      -0.949  14.974  22.536  1.00  0.00     0.025 C 
ATOM      6  C   UNL     1      -2.382  14.950  21.972  1.00  0.00     0.089 C 
ATOM      7  C   UNL     1      -2.955  13.561  22.044  1.00  0.00     0.158 C 
ATOM      8  O   UNL     1      -4.205  13.414  22.097  1.00  0.00    -0.295 OA
ENDROOT
BRANCH   5   9
ATOM      9  C   UNL     1      -0.318  16.353  22.411  1.00  0.00    -0.077 C 
ATOM     10  C   UNL     1      -0.719  17.225  21.471  1.00  0.00     0.008 C 
ATOM     11  C   UNL     1       0.781  16.731  23.369  1.00  0.00     0.039 C 
ENDBRANCH   5   9
TORSDOF 1
ENDMDL
MODEL 4
REMARK VINA RESULT:    -5.974      3.381      6.145
REMARK INTER + INTRA:          -6.417
REMARK INTER:                  -6.324
REMARK INTRA:                  -0.094
REMARK UNBOUND:                -0.094
REMARK SMILES C=C(C)[C@@H]1CC=C(C)C(=O)C1
REMARK SMILES IDX 8 1 7 2 6 3 5 4 4 5 11 6 9 7 10 8 2 9 1 10 3 11
REMARK H PARENT
REMARK Flexibility Score: inf
ROOT
ATOM      1  C   UNL     1       3.056  13.981  21.836  1.00  0.00     0.048 C 
ATOM      2  C   UNL     1       2.376  12.667  22.106  1.00  0.00    -0.012 C 
ATOM      3  C   UNL     1       3.101  11.537  22.166  1.00  0.00    -0.019 C 
ATOM      4  C   UNL     1       2.474  10.199  22.450  1.00  0.00     0.036 C 
ATOM      5  C   UNL     1       1.044  10.124  21.880  1.00  0.00     0.025 C 
ATOM      6  C   UNL     1       0.194  11.293  22.413  1.00  0.00     0.089 C 
ATOM      7  C   UNL     1       0.894  12.603  22.182  1.00  0.00     0.158 C 
ATOM      8  O   UNL     1       0.210  13.658  22.090  1.00  0.00    -0.295 OA
ENDROOT
BRANCH   5   9
ATOM      9  C   UNL     1       0.394   8.779  22.164  1.00  0.00    -0.077 C 
ATOM     10  C   UNL     1       0.712   7.682  21.456  1.00  0.00     0.008 C 
ATOM     11  C   UNL     1      -0.631   8.693  23.265  1.00  0.00     0.039 C 
ENDBRANCH   5   9
TORSDOF 1
ENDMDL
MODEL 5
REMARK VINA RESULT:    -5.961      3.474      4.582
REMARK INTER + INTRA:          -6.403
REMARK INTER:                  -6.309
REMARK INTRA:                  -0.094
REMARK UNBOUND:                -0.094
REMARK SMILES C=C(C)[C@@H]1CC=C(C)C(=O)C1
REMARK SMILES IDX 8 1 7 2 6 3 5 4 4 5 11 6 9 7 10 8 2 9 1 10 3 11
REMARK H PARENT
REMARK Flexibility Score: inf
ROOT
ATOM      1  C   UNL     1      -0.654   8.520  23.255  1.00  0.00     0.048 C 
ATOM      2  C   UNL     1       0.301   9.526  22.671  1.00  0.00    -0.012 C 
ATOM      3  C   UNL     1       1.621   9.399  22.885  1.00  0.00    -0.019 C 
ATOM      4  C   UNL     1       2.621  10.367  22.311  1.00  0.00     0.036 C 
ATOM      5  C   UNL     1       2.026  11.784  22.211  1.00  0.00     0.025 C 
ATOM      6  C   UNL     1       0.711  11.759  21.409  1.00  0.00     0.089 C 
ATOM      7  C   UNL     1      -0.226  10.723  21.966  1.00  0.00     0.158 C 
ATOM      8  O   UNL     1      -1.467  10.861  21.795  1.00  0.00    -0.295 OA
ENDROOT
BRANCH   5   9
ATOM      9  C   UNL     1       3.022  12.774  21.626  1.00  0.00    -0.077 C 
ATOM     10  C   UNL     1       3.830  12.437  20.606  1.00  0.00     0.008 C 
ATOM     11  C   UNL     1       3.094  14.157  22.217  1.00  0.00     0.039 C 
ENDBRANCH   5   9
TORSDOF 1
ENDMDL
MODEL 6
REMARK VINA RESULT:    -5.955      1.422      4.150
REMARK INTER + INTRA:          -6.397
REMARK INTER:                  -6.302
REMARK INTRA:                  -0.094
REMARK UNBOUND:                -0.094
REMARK SMILES C=C(C)[C@@H]1CC=C(C)C(=O)C1
REMARK SMILES IDX 8 1 7 2 6 3 5 4 4 5 11 6 9 7 10 8 2 9 1 10 3 11
REMARK H PARENT
REMARK Flexibility Score: inf
ROOT
ATOM      1  C   UNL     1       0.750  16.520  23.268  1.00  0.00     0.048 C 
ATOM      2  C   UNL     1      -0.212  15.519  22.688  1.00  0.00    -0.012 C 
ATOM      3  C   UNL     1      -1.529  15.645  22.920  1.00  0.00    -0.019 C 
ATOM      4  C   UNL     1      -2.536  14.681  22.351  1.00  0.00     0.036 C 
ATOM      5  C   UNL     1      -1.943  13.265  22.233  1.00  0.00     0.025 C 
ATOM      6  C   UNL     1      -0.638  13.296  21.415  1.00  0.00     0.089 C 
ATOM      7  C   UNL     1       0.306  14.328  21.968  1.00  0.00     0.158 C 
ATOM      8  O   UNL     1       1.545  14.190  21.780  1.00  0.00    -0.295 OA
ENDROOT
BRANCH   5   9
ATOM      9  C   UNL     1      -2.947  12.280  21.653  1.00  0.00    -0.077 C 
ATOM     10  C   UNL     1      -3.766  12.624  20.645  1.00  0.00     0.008 C 
ATOM     11  C   UNL     1      -3.012  10.892  22.235  1.00  0.00     0.039 C 
ENDBRANCH   5   9
TORSDOF 1
ENDMDL
MODEL 7
REMARK VINA RESULT:    -5.759      2.212      3.664
REMARK INTER + INTRA:          -6.189
REMARK INTER:                  -6.095
REMARK INTRA:                  -0.094
REMARK UNBOUND:                -0.094
REMARK SMILES C=C(C)[C@@H]1CC=C(C)C(=O)C1
REMARK SMILES IDX 8 1 7 2 6 3 5 4 4 5 11 6 9 7 10 8 2 9 1 10 3 11
REMARK H PARENT
REMARK Flexibility Score: inf
ROOT
ATOM      1  C   UNL     1       3.753  12.093  21.669  1.00  0.00     0.048 C 
ATOM      2  C   UNL     1       2.651  13.114  21.753  1.00  0.00    -0.012 C 
ATOM      3  C   UNL     1       2.790  14.184  22.554  1.00  0.00    -0.019 C 
ATOM      4  C   UNL     1       1.727  15.244  22.663  1.00  0.00     0.036 C 
ATOM      5  C   UNL     1       0.322  14.641  22.481  1.00  0.00     0.025 C 
ATOM      6  C   UNL     1       0.239  13.865  21.153  1.00  0.00     0.089 C 
ATOM      7  C   UNL     1       1.365  12.874  21.050  1.00  0.00     0.158 C 
ATOM      8  O   UNL     1       1.221  11.852  20.326  1.00  0.00    -0.295 OA
ENDROOT
BRANCH   5   9
ATOM      9  C   UNL     1      -0.765  15.701  22.583  1.00  0.00    -0.077 C 
ATOM     10  C   UNL     1      -0.672  16.866  21.920  1.00  0.00     0.008 C 
ATOM     11  C   UNL     1      -1.963  15.423  23.452  1.00  0.00     0.039 C 
ENDBRANCH   5   9
TORSDOF 1
ENDMDL
MODEL 8
REMARK VINA RESULT:    -5.687      3.062      4.923
REMARK INTER + INTRA:          -6.113
REMARK INTER:                  -6.019
REMARK INTRA:                  -0.094
REMARK UNBOUND:                -0.094
REMARK SMILES C=C(C)[C@@H]1CC=C(C)C(=O)C1
REMARK SMILES IDX 8 1 7 2 6 3 5 4 4 5 11 6 9 7 10 8 2 9 1 10 3 11
REMARK H PARENT
REMARK Flexibility Score: inf
ROOT
ATOM      1  C   UNL     1      -3.492  13.070  21.683  1.00  0.00     0.048 C 
ATOM      2  C   UNL     1      -2.412  12.024  21.721  1.00  0.00    -0.012 C 
ATOM      3  C   UNL     1      -2.547  10.950  22.517  1.00  0.00    -0.019 C 
ATOM      4  C   UNL     1      -1.505   9.866  22.580  1.00  0.00     0.036 C 
ATOM      5  C   UNL     1      -0.093  10.440  22.355  1.00  0.00     0.025 C 
ATOM      6  C   UNL     1      -0.039  11.225  21.032  1.00  0.00     0.089 C 
ATOM      7  C   UNL     1      -1.146  12.242  20.975  1.00  0.00     0.158 C 
ATOM      8  O   UNL     1      -1.003  13.266  20.256  1.00  0.00    -0.295 OA
ENDROOT
BRANCH   5   9
ATOM      9  C   UNL     1       0.972   9.355  22.410  1.00  0.00    -0.077 C 
ATOM     10  C   UNL     1       0.797   8.169  21.804  1.00  0.00     0.008 C 
ATOM     11  C   UNL     1       2.243   9.632  23.169  1.00  0.00     0.039 C 
ENDBRANCH   5   9
TORSDOF 1
ENDMDL
MODEL 9
REMARK VINA RESULT:    -5.639      2.537      4.249
REMARK INTER + INTRA:          -6.062
REMARK INTER:                  -5.963
REMARK INTRA:                  -0.099
REMARK UNBOUND:                -0.094
REMARK SMILES C=C(C)[C@@H]1CC=C(C)C(=O)C1
REMARK SMILES IDX 8 1 7 2 6 3 5 4 4 5 11 6 9 7 10 8 2 9 1 10 3 11
REMARK H PARENT
REMARK Flexibility Score: inf
ROOT
ATOM      1  C   UNL     1      -3.184  13.366  21.845  1.00  0.00     0.048 C 
ATOM      2  C   UNL     1      -1.826  12.718  21.825  1.00  0.00    -0.012 C 
ATOM      3  C   UNL     1      -1.704  11.411  22.115  1.00  0.00    -0.019 C 
ATOM      4  C   UNL     1      -0.373  10.709  22.093  1.00  0.00     0.036 C 
ATOM      5  C   UNL     1       0.764  11.662  22.508  1.00  0.00     0.025 C 
ATOM      6  C   UNL     1       0.755  12.924  21.624  1.00  0.00     0.089 C 
ATOM      7  C   UNL     1      -0.614  13.548  21.609  1.00  0.00     0.158 C 
ATOM      8  O   UNL     1      -0.724  14.781  21.372  1.00  0.00    -0.295 OA
ENDROOT
BRANCH   5   9
ATOM      9  C   UNL     1       2.118  10.969  22.485  1.00  0.00    -0.077 C 
ATOM     10  C   UNL     1       3.174  11.513  21.856  1.00  0.00     0.008 C 
ATOM     11  C   UNL     1       2.259   9.644  23.186  1.00  0.00     0.039 C 
ENDBRANCH   5   9
TORSDOF 1
ENDMDL
