MODEL 1
REMARK VINA RESULT:     9.851      0.000      0.000
REMARK INTER + INTRA:          13.627
REMARK INTER:                  13.307
REMARK INTRA:                   0.320
REMARK UNBOUND:                 0.320
REMARK SMILES CC[C@H](CC[C@@H](C)[C@@H]1CC[C@@H]2[C@@H]3CC(=O)C4=CC(=O)CC[C@@]4(C)[C@@H]3CC[C@@]21C)C(C)C
REMARK SMILES IDX 4 1 3 2 2 3 1 4 29 5 30 6 31 7 5 8 6 9 7 10 8 11 9 12 27 13
REMARK SMILES IDX 10 14 11 15 26 16 28 17 12 18 25 19 24 20 13 21 22 22 14 23
REMARK SMILES IDX 16 24 21 25 23 26 15 27 17 28 20 29 18 30 19 31
REMARK H PARENT
REMARK Flexibility Score: inf
ROOT
ATOM      1  C   UNL     1      -0.769  26.190  29.965  1.00  0.00     0.004 C 
ENDROOT
BRANCH   1   2
ATOM      2  C   UNL     1      -0.306  26.488  28.499  1.00  0.00    -0.009 C 
BRANCH   2   3
ATOM      3  C   UNL     1       0.924  25.640  28.059  1.00  0.00     0.000 C 
ATOM      4  C   UNL     1       1.026  24.276  28.745  1.00  0.00     0.004 C 
ENDBRANCH   2   3
BRANCH   2   5
ATOM      5  C   UNL     1      -1.505  26.368  27.486  1.00  0.00    -0.014 C 
ATOM      6  C   UNL     1      -1.831  24.899  27.139  1.00  0.00     0.007 C 
ATOM      7  C   UNL     1      -1.241  27.125  26.170  1.00  0.00     0.007 C 
ENDBRANCH   2   5
ENDBRANCH   1   2
BRANCH   1   8
ATOM      8  C   UNL     1      -2.051  26.904  30.486  1.00  0.00     0.004 C 
BRANCH   8   9
ATOM      9  C   UNL     1      -3.167  27.179  29.437  1.00  0.00    -0.011 C 
ATOM     10  C   UNL     1      -3.988  25.901  29.186  1.00  0.00     0.008 C 
BRANCH   9  11
ATOM     11  C   UNL     1      -4.063  28.438  29.780  1.00  0.00    -0.002 C 
ATOM     12  C   UNL     1      -5.506  28.302  29.288  1.00  0.00     0.005 C 
ATOM     13  C   UNL     1      -3.619  29.863  29.261  1.00  0.00    -0.026 C 
ATOM     14  C   UNL     1      -6.107  29.682  29.451  1.00  0.00     0.005 C 
ATOM     15  C   UNL     1      -4.971  30.670  29.163  1.00  0.00    -0.001 C 
ATOM     16  C   UNL     1      -2.915  29.785  27.874  1.00  0.00     0.007 C 
ATOM     17  C   UNL     1      -2.666  30.553  30.284  1.00  0.00     0.012 C 
ATOM     18  C   UNL     1      -5.174  31.524  27.865  1.00  0.00     0.004 C 
ATOM     19  C   UNL     1      -2.779  31.129  27.117  1.00  0.00     0.005 C 
ATOM     20  C   UNL     1      -3.841  32.212  27.474  1.00  0.00     0.003 C 
ATOM     21  C   UNL     1      -5.800  30.780  26.646  1.00  0.00     0.085 C 
ATOM     22  C   UNL     1      -4.054  33.334  26.371  1.00  0.00    -0.000 C 
ATOM     23  C   UNL     1      -5.607  31.525  25.354  1.00  0.00     0.159 C 
ATOM     24  C   UNL     1      -5.137  32.923  25.374  1.00  0.00     0.005 C 
ATOM     25  C   UNL     1      -4.522  34.653  27.067  1.00  0.00     0.020 C 
ATOM     26  C   UNL     1      -2.740  33.633  25.590  1.00  0.00     0.017 C 
ATOM     27  O   UNL     1      -5.906  30.969  24.264  1.00  0.00    -0.295 OA
ATOM     28  C   UNL     1      -5.757  33.839  24.613  1.00  0.00     0.055 C 
ATOM     29  C   UNL     1      -4.833  35.781  26.066  1.00  0.00     0.081 C 
ATOM     30  C   UNL     1      -5.595  35.282  24.868  1.00  0.00     0.156 C 
ATOM     31  O   UNL     1      -6.110  36.107  24.066  1.00  0.00    -0.295 OA
ENDBRANCH   9  11
ENDBRANCH   8   9
ENDBRANCH   1   8
TORSDOF 6
ENDMDL
