MODEL 1
REMARK VINA RESULT:    -3.715      0.000      0.000
REMARK INTER + INTRA:          -4.801
REMARK INTER:                  -4.583
REMARK INTRA:                  -0.217
REMARK UNBOUND:                -0.217
REMARK SMILES [NH3+][C@@H](Cc1ccc(O)cc1)C(=O)[O-]
REMARK SMILES IDX 3 1 2 2 1 3 11 7 12 8 13 9 4 10 5 11 10 12 6 13 9 14 7 15
REMARK SMILES IDX 8 16
REMARK H PARENT 1 4 1 5 1 6 8 17
REMARK Flexibility Score: inf
ROOT
ATOM      1  C   UNL     1      -2.533   3.373   0.008  1.00  0.00     0.107 C 
ENDROOT
BRANCH   1   2
ATOM      2  C   UNL     1      -2.659   1.900   0.450  1.00  0.00     0.232 C 
BRANCH   2   3
ATOM      3  N   UNL     1      -2.007   1.694   1.748  1.00  0.00    -0.350 N 
ATOM      4  H   UNL     1      -2.225   2.493   2.386  1.00  0.00     0.345 HD
ATOM      5  H   UNL     1      -2.330   0.802   2.189  1.00  0.00     0.345 HD
ATOM      6  H   UNL     1      -0.969   1.654   1.619  1.00  0.00     0.345 HD
ENDBRANCH   2   3
BRANCH   2   7
ATOM      7  C   UNL     1      -2.071   0.973  -0.583  1.00  0.00     0.099 C 
ATOM      8  O   UNL     1      -2.122   1.265  -1.808  1.00  0.00    -0.544 OA
ATOM      9  O   UNL     1      -1.487  -0.224  -0.189  1.00  0.00    -0.544 OA
ENDBRANCH   2   7
ENDBRANCH   1   2
BRANCH   1  10
ATOM     10  C   UNL     1      -3.835   4.117   0.162  1.00  0.00    -0.041 A 
ATOM     11  C   UNL     1      -3.847   5.521   0.202  1.00  0.00     0.008 A 
ATOM     12  C   UNL     1      -5.043   3.414   0.311  1.00  0.00     0.008 A 
ATOM     13  C   UNL     1      -5.051   6.212   0.374  1.00  0.00     0.046 A 
ATOM     14  C   UNL     1      -6.245   4.107   0.483  1.00  0.00     0.046 A 
ATOM     15  C   UNL     1      -6.253   5.506   0.515  1.00  0.00     0.115 A 
BRANCH  15  16
ATOM     16  O   UNL     1      -7.458   6.183   0.687  1.00  0.00    -0.508 OA
ATOM     17  H   UNL     1      -8.034   6.039   1.507  1.00  0.00     0.293 HD
ENDBRANCH  15  16
ENDBRANCH   1  10
TORSDOF 5
ENDMDL
MODEL 2
REMARK VINA RESULT:    -3.691      0.083      1.618
REMARK INTER + INTRA:          -4.771
REMARK INTER:                  -4.564
REMARK INTRA:                  -0.208
REMARK UNBOUND:                -0.217
REMARK SMILES [NH3+][C@@H](Cc1ccc(O)cc1)C(=O)[O-]
REMARK SMILES IDX 3 1 2 2 1 3 11 7 12 8 13 9 4 10 5 11 10 12 6 13 9 14 7 15
REMARK SMILES IDX 8 16
REMARK H PARENT 1 4 1 5 1 6 8 17
REMARK Flexibility Score: inf
ROOT
ATOM      1  C   UNL     1      -2.528   3.303  -0.003  1.00  0.00     0.107 C 
ENDROOT
BRANCH   1   2
ATOM      2  C   UNL     1      -2.680   1.829   0.428  1.00  0.00     0.232 C 
BRANCH   2   3
ATOM      3  N   UNL     1      -2.077   1.614   1.748  1.00  0.00    -0.350 N 
ATOM      4  H   UNL     1      -1.095   1.269   1.639  1.00  0.00     0.345 HD
ATOM      5  H   UNL     1      -2.072   2.500   2.303  1.00  0.00     0.345 HD
ATOM      6  H   UNL     1      -2.621   0.888   2.271  1.00  0.00     0.345 HD
ENDBRANCH   2   3
BRANCH   2   7
ATOM      7  C   UNL     1      -2.061   0.902  -0.586  1.00  0.00     0.099 C 
ATOM      8  O   UNL     1      -1.540  -0.187  -0.224  1.00  0.00    -0.544 OA
ATOM      9  O   UNL     1      -2.042   1.257  -1.929  1.00  0.00    -0.544 OA
ENDBRANCH   2   7
ENDBRANCH   1   2
BRANCH   1  10
ATOM     10  C   UNL     1      -3.806   4.078   0.194  1.00  0.00    -0.041 A 
ATOM     11  C   UNL     1      -5.025   3.401   0.366  1.00  0.00     0.008 A 
ATOM     12  C   UNL     1      -3.799   5.483   0.162  1.00  0.00     0.008 A 
ATOM     13  C   UNL     1      -6.215   4.118   0.518  1.00  0.00     0.046 A 
ATOM     14  C   UNL     1      -4.991   6.198   0.315  1.00  0.00     0.046 A 
ATOM     15  C   UNL     1      -6.201   5.518   0.493  1.00  0.00     0.115 A 
BRANCH  15  16
ATOM     16  O   UNL     1      -7.381   6.244   0.645  1.00  0.00    -0.508 OA
ATOM     17  H   UNL     1      -7.448   7.015   1.298  1.00  0.00     0.293 HD
ENDBRANCH  15  16
ENDBRANCH   1  10
TORSDOF 5
ENDMDL
MODEL 3
REMARK VINA RESULT:    -3.455      2.976      5.999
REMARK INTER + INTRA:          -4.480
REMARK INTER:                  -4.263
REMARK INTRA:                  -0.217
REMARK UNBOUND:                -0.217
REMARK SMILES [NH3+][C@@H](Cc1ccc(O)cc1)C(=O)[O-]
REMARK SMILES IDX 3 1 2 2 1 3 11 7 12 8 13 9 4 10 5 11 10 12 6 13 9 14 7 15
REMARK SMILES IDX 8 16
REMARK H PARENT 1 4 1 5 1 6 8 17
REMARK Flexibility Score: inf
ROOT
ATOM      1  C   UNL     1      -7.160   5.907   0.423  1.00  0.00     0.107 C 
ENDROOT
BRANCH   1   2
ATOM      2  C   UNL     1      -7.978   5.293   1.580  1.00  0.00     0.232 C 
BRANCH   2   3
ATOM      3  N   UNL     1      -9.283   4.826   1.096  1.00  0.00    -0.350 N 
ATOM      4  H   UNL     1      -9.580   5.395   0.269  1.00  0.00     0.345 HD
ATOM      5  H   UNL     1      -9.238   3.818   0.824  1.00  0.00     0.345 HD
ATOM      6  H   UNL     1     -10.001   4.945   1.848  1.00  0.00     0.345 HD
ENDBRANCH   2   3
BRANCH   2   7
ATOM      7  C   UNL     1      -8.161   6.286   2.699  1.00  0.00     0.099 C 
ATOM      8  O   UNL     1      -9.295   6.784   2.934  1.00  0.00    -0.544 OA
ATOM      9  O   UNL     1      -7.071   6.675   3.466  1.00  0.00    -0.544 OA
ENDBRANCH   2   7
ENDBRANCH   1   2
BRANCH   1  10
ATOM     10  C   UNL     1      -5.778   5.311   0.338  1.00  0.00    -0.041 A 
ATOM     11  C   UNL     1      -4.657   6.143   0.188  1.00  0.00     0.008 A 
ATOM     12  C   UNL     1      -5.601   3.917   0.363  1.00  0.00     0.008 A 
ATOM     13  C   UNL     1      -3.377   5.590   0.080  1.00  0.00     0.046 A 
ATOM     14  C   UNL     1      -4.320   3.367   0.254  1.00  0.00     0.046 A 
ATOM     15  C   UNL     1      -3.206   4.201   0.113  1.00  0.00     0.115 A 
BRANCH  15  16
ATOM     16  O   UNL     1      -1.936   3.638   0.006  1.00  0.00    -0.508 OA
ATOM     17  H   UNL     1      -1.804   2.635  -0.051  1.00  0.00     0.293 HD
ENDBRANCH  15  16
ENDBRANCH   1  10
TORSDOF 5
ENDMDL
MODEL 4
REMARK VINA RESULT:    -3.401      1.904      5.559
REMARK INTER + INTRA:          -4.414
REMARK INTER:                  -4.280
REMARK INTRA:                  -0.134
REMARK UNBOUND:                -0.217
REMARK SMILES [NH3+][C@@H](Cc1ccc(O)cc1)C(=O)[O-]
REMARK SMILES IDX 3 1 2 2 1 3 11 7 12 8 13 9 4 10 5 11 10 12 6 13 9 14 7 15
REMARK SMILES IDX 8 16
REMARK H PARENT 1 4 1 5 1 6 8 17
REMARK Flexibility Score: inf
ROOT
ATOM      1  C   UNL     1      -2.986   4.144   0.050  1.00  0.00     0.107 C 
ENDROOT
BRANCH   1   2
ATOM      2  C   UNL     1      -4.462   4.427   0.404  1.00  0.00     0.232 C 
BRANCH   2   3
ATOM      3  N   UNL     1      -5.351   3.532  -0.345  1.00  0.00    -0.350 N 
ATOM      4  H   UNL     1      -5.982   4.093  -0.963  1.00  0.00     0.345 HD
ATOM      5  H   UNL     1      -4.799   2.864  -0.931  1.00  0.00     0.345 HD
ATOM      6  H   UNL     1      -5.948   2.988   0.321  1.00  0.00     0.345 HD
ENDBRANCH   2   3
BRANCH   2   7
ATOM      7  C   UNL     1      -4.817   5.866   0.129  1.00  0.00     0.099 C 
ATOM      8  O   UNL     1      -3.993   6.631  -0.440  1.00  0.00    -0.544 OA
ATOM      9  O   UNL     1      -6.052   6.363   0.524  1.00  0.00    -0.544 OA
ENDBRANCH   2   7
ENDBRANCH   1   2
BRANCH   1  10
ATOM     10  C   UNL     1      -2.635   2.690   0.239  1.00  0.00    -0.041 A 
ATOM     11  C   UNL     1      -2.570   2.141   1.531  1.00  0.00     0.008 A 
ATOM     12  C   UNL     1      -2.325   1.882  -0.868  1.00  0.00     0.008 A 
ATOM     13  C   UNL     1      -2.216   0.800   1.710  1.00  0.00     0.046 A 
ATOM     14  C   UNL     1      -1.971   0.542  -0.686  1.00  0.00     0.046 A 
ATOM     15  C   UNL     1      -1.915  -0.002   0.602  1.00  0.00     0.115 A 
BRANCH  15  16
ATOM     16  O   UNL     1      -1.561  -1.339   0.768  1.00  0.00    -0.508 OA
ATOM     17  H   UNL     1      -1.633  -1.798   1.669  1.00  0.00     0.293 HD
ENDBRANCH  15  16
ENDBRANCH   1  10
TORSDOF 5
ENDMDL
MODEL 5
REMARK VINA RESULT:    -3.353      2.286      3.030
REMARK INTER + INTRA:          -4.355
REMARK INTER:                  -4.202
REMARK INTRA:                  -0.153
REMARK UNBOUND:                -0.217
REMARK SMILES [NH3+][C@@H](Cc1ccc(O)cc1)C(=O)[O-]
REMARK SMILES IDX 3 1 2 2 1 3 11 7 12 8 13 9 4 10 5 11 10 12 6 13 9 14 7 15
REMARK SMILES IDX 8 16
REMARK H PARENT 1 4 1 5 1 6 8 17
REMARK Flexibility Score: inf
ROOT
ATOM      1  C   UNL     1      -4.321   5.316  -0.062  1.00  0.00     0.107 C 
ENDROOT
BRANCH   1   2
ATOM      2  C   UNL     1      -3.700   3.949   0.298  1.00  0.00     0.232 C 
BRANCH   2   3
ATOM      3  N   UNL     1      -2.287   3.907  -0.093  1.00  0.00    -0.350 N 
ATOM      4  H   UNL     1      -2.204   3.634  -1.099  1.00  0.00     0.345 HD
ATOM      5  H   UNL     1      -1.834   4.839   0.051  1.00  0.00     0.345 HD
ATOM      6  H   UNL     1      -1.782   3.192   0.481  1.00  0.00     0.345 HD
ENDBRANCH   2   3
BRANCH   2   7
ATOM      7  C   UNL     1      -4.457   2.822  -0.358  1.00  0.00     0.099 C 
ATOM      8  O   UNL     1      -4.066   1.630  -0.231  1.00  0.00    -0.544 OA
ATOM      9  O   UNL     1      -5.580   3.096  -1.127  1.00  0.00    -0.544 OA
ENDBRANCH   2   7
ENDBRANCH   1   2
BRANCH   1  10
ATOM     10  C   UNL     1      -5.313   5.770   0.978  1.00  0.00    -0.041 A 
ATOM     11  C   UNL     1      -4.866   6.237   2.226  1.00  0.00     0.008 A 
ATOM     12  C   UNL     1      -6.694   5.691   0.729  1.00  0.00     0.008 A 
ATOM     13  C   UNL     1      -5.786   6.631   3.203  1.00  0.00     0.046 A 
ATOM     14  C   UNL     1      -7.611   6.086   1.707  1.00  0.00     0.046 A 
ATOM     15  C   UNL     1      -7.161   6.557   2.945  1.00  0.00     0.115 A 
BRANCH  15  16
ATOM     16  O   UNL     1      -8.086   6.947   3.910  1.00  0.00    -0.508 OA
ATOM     17  H   UNL     1      -9.030   6.579   3.918  1.00  0.00     0.293 HD
ENDBRANCH  15  16
ENDBRANCH   1  10
TORSDOF 5
ENDMDL
MODEL 6
REMARK VINA RESULT:    -3.321      8.984     12.097
REMARK INTER + INTRA:          -4.315
REMARK INTER:                  -4.116
REMARK INTRA:                  -0.200
REMARK UNBOUND:                -0.217
REMARK SMILES [NH3+][C@@H](Cc1ccc(O)cc1)C(=O)[O-]
REMARK SMILES IDX 3 1 2 2 1 3 11 7 12 8 13 9 4 10 5 11 10 12 6 13 9 14 7 15
REMARK SMILES IDX 8 16
REMARK H PARENT 1 4 1 5 1 6 8 17
REMARK Flexibility Score: inf
ROOT
ATOM      1  C   UNL     1       4.895  -1.548  -0.651  1.00  0.00     0.107 C 
ENDROOT
BRANCH   1   2
ATOM      2  C   UNL     1       4.685  -1.069  -2.104  1.00  0.00     0.232 C 
BRANCH   2   3
ATOM      3  N   UNL     1       5.844  -0.296  -2.564  1.00  0.00    -0.350 N 
ATOM      4  H   UNL     1       5.986   0.535  -1.945  1.00  0.00     0.345 HD
ATOM      5  H   UNL     1       6.709  -0.885  -2.555  1.00  0.00     0.345 HD
ATOM      6  H   UNL     1       5.676   0.048  -3.538  1.00  0.00     0.345 HD
ENDBRANCH   2   3
BRANCH   2   7
ATOM      7  C   UNL     1       3.428  -0.245  -2.224  1.00  0.00     0.099 C 
ATOM      8  O   UNL     1       2.299  -0.770  -2.029  1.00  0.00    -0.544 OA
ATOM      9  O   UNL     1       3.509   1.096  -2.575  1.00  0.00    -0.544 OA
ENDBRANCH   2   7
ENDBRANCH   1   2
BRANCH   1  10
ATOM     10  C   UNL     1       5.248  -3.013  -0.592  1.00  0.00    -0.041 A 
ATOM     11  C   UNL     1       6.593  -3.414  -0.531  1.00  0.00     0.008 A 
ATOM     12  C   UNL     1       4.240  -3.990  -0.641  1.00  0.00     0.008 A 
ATOM     13  C   UNL     1       6.923  -4.773  -0.506  1.00  0.00     0.046 A 
ATOM     14  C   UNL     1       4.573  -5.348  -0.615  1.00  0.00     0.046 A 
ATOM     15  C   UNL     1       5.913  -5.743  -0.547  1.00  0.00     0.115 A 
BRANCH  15  16
ATOM     16  O   UNL     1       6.230  -7.099  -0.522  1.00  0.00    -0.508 OA
ATOM     17  H   UNL     1       6.787  -7.527  -1.252  1.00  0.00     0.293 HD
ENDBRANCH  15  16
ENDBRANCH   1  10
TORSDOF 5
ENDMDL
MODEL 7
REMARK VINA RESULT:    -3.290      2.082      5.534
REMARK INTER + INTRA:          -4.277
REMARK INTER:                  -4.103
REMARK INTRA:                  -0.174
REMARK UNBOUND:                -0.217
REMARK SMILES [NH3+][C@@H](Cc1ccc(O)cc1)C(=O)[O-]
REMARK SMILES IDX 3 1 2 2 1 3 11 7 12 8 13 9 4 10 5 11 10 12 6 13 9 14 7 15
REMARK SMILES IDX 8 16
REMARK H PARENT 1 4 1 5 1 6 8 17
REMARK Flexibility Score: inf
ROOT
ATOM      1  C   UNL     1      -4.108   4.470   0.842  1.00  0.00     0.107 C 
ENDROOT
BRANCH   1   2
ATOM      2  C   UNL     1      -4.946   5.528   0.092  1.00  0.00     0.232 C 
BRANCH   2   3
ATOM      3  N   UNL     1      -4.084   6.600  -0.418  1.00  0.00    -0.350 N 
ATOM      4  H   UNL     1      -4.233   7.473   0.140  1.00  0.00     0.345 HD
ATOM      5  H   UNL     1      -3.076   6.324  -0.363  1.00  0.00     0.345 HD
ATOM      6  H   UNL     1      -4.327   6.806  -1.414  1.00  0.00     0.345 HD
ENDBRANCH   2   3
BRANCH   2   7
ATOM      7  C   UNL     1      -6.018   6.100   0.984  1.00  0.00     0.099 C 
ATOM      8  O   UNL     1      -7.221   6.114   0.609  1.00  0.00    -0.544 OA
ATOM      9  O   UNL     1      -5.679   6.637   2.219  1.00  0.00    -0.544 OA
ENDBRANCH   2   7
ENDBRANCH   1   2
BRANCH   1  10
ATOM     10  C   UNL     1      -3.786   3.287  -0.035  1.00  0.00    -0.041 A 
ATOM     11  C   UNL     1      -4.814   2.600  -0.702  1.00  0.00     0.008 A 
ATOM     12  C   UNL     1      -2.462   2.833  -0.160  1.00  0.00     0.008 A 
ATOM     13  C   UNL     1      -4.520   1.485  -1.492  1.00  0.00     0.046 A 
ATOM     14  C   UNL     1      -2.171   1.717  -0.951  1.00  0.00     0.046 A 
ATOM     15  C   UNL     1      -3.198   1.041  -1.619  1.00  0.00     0.115 A 
BRANCH  15  16
ATOM     16  O   UNL     1      -2.893  -0.068  -2.404  1.00  0.00    -0.508 OA
ATOM     17  H   UNL     1      -3.616  -0.595  -2.881  1.00  0.00     0.293 HD
ENDBRANCH  15  16
ENDBRANCH   1  10
TORSDOF 5
ENDMDL
MODEL 8
REMARK VINA RESULT:    -3.214     11.015     12.973
REMARK INTER + INTRA:          -4.183
REMARK INTER:                  -3.993
REMARK INTRA:                  -0.190
REMARK UNBOUND:                -0.217
REMARK SMILES [NH3+][C@@H](Cc1ccc(O)cc1)C(=O)[O-]
REMARK SMILES IDX 3 1 2 2 1 3 11 7 12 8 13 9 4 10 5 11 10 12 6 13 9 14 7 15
REMARK SMILES IDX 8 16
REMARK H PARENT 1 4 1 5 1 6 8 17
REMARK Flexibility Score: inf
ROOT
ATOM      1  C   UNL     1       4.841  -2.851  -0.493  1.00  0.00     0.107 C 
ENDROOT
BRANCH   1   2
ATOM      2  C   UNL     1       6.171  -2.081  -0.636  1.00  0.00     0.232 C 
BRANCH   2   3
ATOM      3  N   UNL     1       6.629  -1.598   0.672  1.00  0.00    -0.350 N 
ATOM      4  H   UNL     1       5.939  -0.916   1.061  1.00  0.00     0.345 HD
ATOM      5  H   UNL     1       6.743  -2.394   1.342  1.00  0.00     0.345 HD
ATOM      6  H   UNL     1       7.547  -1.108   0.566  1.00  0.00     0.345 HD
ENDBRANCH   2   3
BRANCH   2   7
ATOM      7  C   UNL     1       6.027  -0.928  -1.596  1.00  0.00     0.099 C 
ATOM      8  O   UNL     1       4.921  -0.692  -2.152  1.00  0.00    -0.544 OA
ATOM      9  O   UNL     1       7.125  -0.131  -1.892  1.00  0.00    -0.544 OA
ENDBRANCH   2   7
ENDBRANCH   1   2
BRANCH   1  10
ATOM     10  C   UNL     1       4.996  -4.306  -0.855  1.00  0.00    -0.041 A 
ATOM     11  C   UNL     1       3.990  -4.966  -1.581  1.00  0.00     0.008 A 
ATOM     12  C   UNL     1       6.125  -5.029  -0.433  1.00  0.00     0.008 A 
ATOM     13  C   UNL     1       4.119  -6.323  -1.893  1.00  0.00     0.046 A 
ATOM     14  C   UNL     1       6.251  -6.386  -0.746  1.00  0.00     0.046 A 
ATOM     15  C   UNL     1       5.250  -7.036  -1.476  1.00  0.00     0.115 A 
BRANCH  15  16
ATOM     16  O   UNL     1       5.390  -8.388  -1.780  1.00  0.00    -0.508 OA
ATOM     17  H   UNL     1       4.974  -9.107  -1.200  1.00  0.00     0.293 HD
ENDBRANCH  15  16
ENDBRANCH   1  10
TORSDOF 5
ENDMDL
MODEL 9
REMARK VINA RESULT:    -3.189      1.949      2.364
REMARK INTER + INTRA:          -4.152
REMARK INTER:                  -4.026
REMARK INTRA:                  -0.126
REMARK UNBOUND:                -0.217
REMARK SMILES [NH3+][C@@H](Cc1ccc(O)cc1)C(=O)[O-]
REMARK SMILES IDX 3 1 2 2 1 3 11 7 12 8 13 9 4 10 5 11 10 12 6 13 9 14 7 15
REMARK SMILES IDX 8 16
REMARK H PARENT 1 4 1 5 1 6 8 17
REMARK Flexibility Score: inf
ROOT
ATOM      1  C   UNL     1      -3.943   2.679  -0.365  1.00  0.00     0.107 C 
ENDROOT
BRANCH   1   2
ATOM      2  C   UNL     1      -2.525   2.128  -0.100  1.00  0.00     0.232 C 
BRANCH   2   3
ATOM      3  N   UNL     1      -1.900   1.691  -1.353  1.00  0.00    -0.350 N 
ATOM      4  H   UNL     1      -1.227   0.913  -1.162  1.00  0.00     0.345 HD
ATOM      5  H   UNL     1      -2.624   1.362  -2.034  1.00  0.00     0.345 HD
ATOM      6  H   UNL     1      -1.368   2.485  -1.778  1.00  0.00     0.345 HD
ENDBRANCH   2   3
BRANCH   2   7
ATOM      7  C   UNL     1      -2.564   0.991   0.890  1.00  0.00     0.099 C 
ATOM      8  O   UNL     1      -3.280  -0.022   0.672  1.00  0.00    -0.544 OA
ATOM      9  O   UNL     1      -1.823   1.068   2.062  1.00  0.00    -0.544 OA
ENDBRANCH   2   7
ENDBRANCH   1   2
BRANCH   1  10
ATOM     10  C   UNL     1      -4.262   3.855   0.523  1.00  0.00    -0.041 A 
ATOM     11  C   UNL     1      -4.573   3.653   1.878  1.00  0.00     0.008 A 
ATOM     12  C   UNL     1      -4.293   5.157  -0.003  1.00  0.00     0.008 A 
ATOM     13  C   UNL     1      -4.898   4.740   2.697  1.00  0.00     0.046 A 
ATOM     14  C   UNL     1      -4.618   6.242   0.817  1.00  0.00     0.046 A 
ATOM     15  C   UNL     1      -4.921   6.036   2.168  1.00  0.00     0.115 A 
BRANCH  15  16
ATOM     16  O   UNL     1      -5.242   7.127   2.974  1.00  0.00    -0.508 OA
ATOM     17  H   UNL     1      -6.192   7.293   3.286  1.00  0.00     0.293 HD
ENDBRANCH  15  16
ENDBRANCH   1  10
TORSDOF 5
ENDMDL
