MODEL 1
REMARK VINA RESULT:    -6.452      0.000      0.000
REMARK INTER + INTRA:          -8.203
REMARK INTER:                  -7.772
REMARK INTRA:                  -0.431
REMARK UNBOUND:                -0.431
REMARK SMILES O=c1c(O)c(-c2ccc(O)cc2O)oc2cc(O)cc(O)c12
REMARK SMILES IDX 5 1 3 2 2 3 1 4 22 5 20 6 19 7 17 8 16 9 15 10 14 11 6 12
REMARK SMILES IDX 8 13 7 14 9 15 11 16 12 17 10 18 13 20 4 22 21 24 18 26
REMARK H PARENT 10 19 13 21 4 23 21 25 18 27
REMARK Flexibility Score: inf
ROOT
ATOM      1  C   UNL     1     150.073 146.242 151.584  1.00  0.00     0.184 A 
ATOM      2  C   UNL     1     149.858 146.586 152.930  1.00  0.00     0.208 A 
ATOM      3  C   UNL     1     150.956 146.955 153.722  1.00  0.00     0.238 A 
ATOM      4  O   UNL     1     150.750 147.316 154.910  1.00  0.00    -0.285 OA
ATOM      5  C   UNL     1     152.258 146.956 153.166  1.00  0.00     0.111 A 
ATOM      6  C   UNL     1     153.448 147.273 153.887  1.00  0.00     0.134 A 
ATOM      7  C   UNL     1     154.667 147.367 153.204  1.00  0.00     0.093 A 
ATOM      8  C   UNL     1     154.748 147.090 151.837  1.00  0.00     0.123 A 
ATOM      9  C   UNL     1     153.603 146.722 151.136  1.00  0.00     0.094 A 
ATOM     10  C   UNL     1     152.367 146.655 151.783  1.00  0.00     0.146 A 
ATOM     11  O   UNL     1     151.297 146.311 151.075  1.00  0.00    -0.451 OA
ENDROOT
BRANCH   1  12
ATOM     12  C   UNL     1     148.963 145.821 150.698  1.00  0.00     0.063 A 
ATOM     13  C   UNL     1     147.237 144.213 150.099  1.00  0.00     0.047 A 
ATOM     14  C   UNL     1     148.265 144.626 150.950  1.00  0.00     0.020 A 
ATOM     15  C   UNL     1     146.899 144.981 148.979  1.00  0.00     0.119 A 
ATOM     16  C   UNL     1     147.596 146.162 148.712  1.00  0.00     0.093 A 
ATOM     17  C   UNL     1     148.629 146.585 149.562  1.00  0.00     0.130 A 
BRANCH  15  18
ATOM     18  O   UNL     1     145.875 144.578 148.125  1.00  0.00    -0.508 OA
ATOM     19  H   UNL     1     144.997 145.081 148.075  1.00  0.00     0.293 HD
ENDBRANCH  15  18
BRANCH  17  20
ATOM     20  O   UNL     1     149.312 147.770 149.287  1.00  0.00    -0.507 OA
ATOM     21  H   UNL     1     149.925 147.857 148.484  1.00  0.00     0.293 HD
ENDBRANCH  17  20
ENDBRANCH   1  12
BRANCH   2  22
ATOM     22  O   UNL     1     148.563 146.590 153.453  1.00  0.00    -0.502 OA
ATOM     23  H   UNL     1     148.231 147.313 154.079  1.00  0.00     0.293 HD
ENDBRANCH   2  22
BRANCH   6  24
ATOM     24  O   UNL     1     153.492 147.478 155.270  1.00  0.00    -0.507 OA
ATOM     25  H   UNL     1     154.332 147.457 155.828  1.00  0.00     0.293 HD
ENDBRANCH   6  24
BRANCH   8  26
ATOM     26  O   UNL     1     155.968 147.170 151.167  1.00  0.00    -0.508 OA
ATOM     27  H   UNL     1     156.744 147.702 151.542  1.00  0.00     0.293 HD
ENDBRANCH   8  26
TORSDOF 6
ENDMDL
MODEL 2
REMARK VINA RESULT:    -6.194      2.034      4.025
REMARK INTER + INTRA:          -7.892
REMARK INTER:                  -7.728
REMARK INTRA:                  -0.165
REMARK UNBOUND:                -0.431
REMARK SMILES O=c1c(O)c(-c2ccc(O)cc2O)oc2cc(O)cc(O)c12
REMARK SMILES IDX 5 1 3 2 2 3 1 4 22 5 20 6 19 7 17 8 16 9 15 10 14 11 6 12
REMARK SMILES IDX 8 13 7 14 9 15 11 16 12 17 10 18 13 20 4 22 21 24 18 26
REMARK H PARENT 10 19 13 21 4 23 21 25 18 27
REMARK Flexibility Score: inf
ROOT
ATOM      1  C   UNL     1     152.030 146.859 152.655  1.00  0.00     0.184 A 
ATOM      2  C   UNL     1     153.410 146.727 152.423  1.00  0.00     0.208 A 
ATOM      3  C   UNL     1     154.310 147.144 153.416  1.00  0.00     0.238 A 
ATOM      4  O   UNL     1     155.542 146.971 153.226  1.00  0.00    -0.285 OA
ATOM      5  C   UNL     1     153.820 147.706 154.620  1.00  0.00     0.111 A 
ATOM      6  C   UNL     1     154.642 148.199 155.678  1.00  0.00     0.134 A 
ATOM      7  C   UNL     1     154.050 148.615 156.877  1.00  0.00     0.093 A 
ATOM      8  C   UNL     1     152.661 148.618 157.030  1.00  0.00     0.123 A 
ATOM      9  C   UNL     1     151.848 148.195 155.982  1.00  0.00     0.094 A 
ATOM     10  C   UNL     1     152.411 147.739 154.788  1.00  0.00     0.146 A 
ATOM     11  O   UNL     1     151.600 147.333 153.818  1.00  0.00    -0.451 OA
ENDROOT
BRANCH   1  12
ATOM     12  C   UNL     1     151.025 146.462 151.641  1.00  0.00     0.063 A 
ATOM     13  C   UNL     1     150.230 146.479 149.341  1.00  0.00     0.047 A 
ATOM     14  C   UNL     1     151.190 146.828 150.293  1.00  0.00     0.020 A 
ATOM     15  C   UNL     1     149.087 145.767 149.722  1.00  0.00     0.119 A 
ATOM     16  C   UNL     1     148.908 145.410 151.061  1.00  0.00     0.093 A 
ATOM     17  C   UNL     1     149.868 145.755 152.024  1.00  0.00     0.130 A 
BRANCH  15  18
ATOM     18  O   UNL     1     148.124 145.413 148.780  1.00  0.00    -0.508 OA
ATOM     19  H   UNL     1     148.355 145.313 147.799  1.00  0.00     0.293 HD
ENDBRANCH  15  18
BRANCH  17  20
ATOM     20  O   UNL     1     149.678 145.386 153.356  1.00  0.00    -0.507 OA
ATOM     21  H   UNL     1     149.082 145.922 153.977  1.00  0.00     0.293 HD
ENDBRANCH  17  20
ENDBRANCH   1  12
BRANCH   2  22
ATOM     22  O   UNL     1     153.869 146.158 151.233  1.00  0.00    -0.502 OA
ATOM     23  H   UNL     1     154.448 146.665 150.576  1.00  0.00     0.293 HD
ENDBRANCH   2  22
BRANCH   6  24
ATOM     24  O   UNL     1     156.032 148.324 155.593  1.00  0.00    -0.507 OA
ATOM     25  H   UNL     1     156.620 148.710 156.317  1.00  0.00     0.293 HD
ENDBRANCH   6  24
BRANCH   8  26
ATOM     26  O   UNL     1     152.078 149.049 158.221  1.00  0.00    -0.508 OA
ATOM     27  H   UNL     1     151.132 148.788 158.473  1.00  0.00     0.293 HD
ENDBRANCH   8  26
TORSDOF 6
ENDMDL
MODEL 3
REMARK VINA RESULT:    -6.182      5.468      8.350
REMARK INTER + INTRA:          -7.877
REMARK INTER:                  -7.423
REMARK INTRA:                  -0.454
REMARK UNBOUND:                -0.431
REMARK SMILES O=c1c(O)c(-c2ccc(O)cc2O)oc2cc(O)cc(O)c12
REMARK SMILES IDX 5 1 3 2 2 3 1 4 22 5 20 6 19 7 17 8 16 9 15 10 14 11 6 12
REMARK SMILES IDX 8 13 7 14 9 15 11 16 12 17 10 18 13 20 4 22 21 24 18 26
REMARK H PARENT 10 19 13 21 4 23 21 25 18 27
REMARK Flexibility Score: inf
ROOT
ATOM      1  C   UNL     1     156.956 149.015 150.610  1.00  0.00     0.184 A 
ATOM      2  C   UNL     1     155.557 148.898 150.653  1.00  0.00     0.208 A 
ATOM      3  C   UNL     1     154.960 148.260 151.751  1.00  0.00     0.238 A 
ATOM      4  O   UNL     1     153.704 148.208 151.812  1.00  0.00    -0.285 OA
ATOM      5  C   UNL     1     155.772 147.728 152.783  1.00  0.00     0.111 A 
ATOM      6  C   UNL     1     155.277 147.026 153.923  1.00  0.00     0.134 A 
ATOM      7  C   UNL     1     156.161 146.657 154.945  1.00  0.00     0.093 A 
ATOM      8  C   UNL     1     157.531 146.907 154.836  1.00  0.00     0.123 A 
ATOM      9  C   UNL     1     158.031 147.538 153.700  1.00  0.00     0.094 A 
ATOM     10  C   UNL     1     157.170 147.951 152.681  1.00  0.00     0.146 A 
ATOM     11  O   UNL     1     157.687 148.561 151.621  1.00  0.00    -0.451 OA
ENDROOT
BRANCH   1  12
ATOM     12  C   UNL     1     157.652 149.656 149.469  1.00  0.00     0.063 A 
ATOM     13  C   UNL     1     158.344 149.627 147.136  1.00  0.00     0.047 A 
ATOM     14  C   UNL     1     157.664 149.039 148.205  1.00  0.00     0.020 A 
ATOM     15  C   UNL     1     159.029 150.834 147.316  1.00  0.00     0.119 A 
ATOM     16  C   UNL     1     159.035 151.447 148.572  1.00  0.00     0.093 A 
ATOM     17  C   UNL     1     158.354 150.864 149.651  1.00  0.00     0.130 A 
BRANCH  15  18
ATOM     18  O   UNL     1     159.710 151.429 146.256  1.00  0.00    -0.508 OA
ATOM     19  H   UNL     1     159.929 152.418 146.256  1.00  0.00     0.293 HD
ENDBRANCH  15  18
BRANCH  17  20
ATOM     20  O   UNL     1     158.363 151.491 150.897  1.00  0.00    -0.507 OA
ATOM     21  H   UNL     1     159.024 151.229 151.620  1.00  0.00     0.293 HD
ENDBRANCH  17  20
ENDBRANCH   1  12
BRANCH   2  22
ATOM     22  O   UNL     1     154.777 149.442 149.630  1.00  0.00    -0.502 OA
ATOM     23  H   UNL     1     154.284 148.867 148.958  1.00  0.00     0.293 HD
ENDBRANCH   2  22
BRANCH   6  24
ATOM     24  O   UNL     1     153.941 146.646 154.088  1.00  0.00    -0.507 OA
ATOM     25  H   UNL     1     153.542 145.786 153.744  1.00  0.00     0.293 HD
ENDBRANCH   6  24
BRANCH   8  26
ATOM     26  O   UNL     1     158.407 146.522 155.850  1.00  0.00    -0.508 OA
ATOM     27  H   UNL     1     158.442 145.566 156.183  1.00  0.00     0.293 HD
ENDBRANCH   8  26
TORSDOF 6
ENDMDL
MODEL 4
REMARK VINA RESULT:    -6.070      3.866      6.735
REMARK INTER + INTRA:          -7.743
REMARK INTER:                  -7.406
REMARK INTRA:                  -0.337
REMARK UNBOUND:                -0.431
REMARK SMILES O=c1c(O)c(-c2ccc(O)cc2O)oc2cc(O)cc(O)c12
REMARK SMILES IDX 5 1 3 2 2 3 1 4 22 5 20 6 19 7 17 8 16 9 15 10 14 11 6 12
REMARK SMILES IDX 8 13 7 14 9 15 11 16 12 17 10 18 13 20 4 22 21 24 18 26
REMARK H PARENT 10 19 13 21 4 23 21 25 18 27
REMARK Flexibility Score: inf
ROOT
ATOM      1  C   UNL     1     155.405 148.272 151.851  1.00  0.00     0.184 A 
ATOM      2  C   UNL     1     155.420 148.794 150.547  1.00  0.00     0.208 A 
ATOM      3  C   UNL     1     156.655 149.032 149.922  1.00  0.00     0.238 A 
ATOM      4  O   UNL     1     156.661 149.446 148.734  1.00  0.00    -0.285 OA
ATOM      5  C   UNL     1     157.859 148.764 150.618  1.00  0.00     0.111 A 
ATOM      6  C   UNL     1     159.166 149.005 150.097  1.00  0.00     0.134 A 
ATOM      7  C   UNL     1     160.287 148.583 150.823  1.00  0.00     0.093 A 
ATOM      8  C   UNL     1     160.149 147.988 152.079  1.00  0.00     0.123 A 
ATOM      9  C   UNL     1     158.880 147.802 152.621  1.00  0.00     0.094 A 
ATOM     10  C   UNL     1     157.742 148.180 151.906  1.00  0.00     0.146 A 
ATOM     11  O   UNL     1     156.550 147.974 152.454  1.00  0.00    -0.451 OA
ENDROOT
BRANCH   1  12
ATOM     12  C   UNL     1     154.139 148.020 152.578  1.00  0.00     0.063 A 
ATOM     13  C   UNL     1     152.576 148.592 154.354  1.00  0.00     0.047 A 
ATOM     14  C   UNL     1     153.755 148.846 153.649  1.00  0.00     0.020 A 
ATOM     15  C   UNL     1     151.768 147.504 154.004  1.00  0.00     0.119 A 
ATOM     16  C   UNL     1     152.148 146.669 152.950  1.00  0.00     0.093 A 
ATOM     17  C   UNL     1     153.330 146.917 152.236  1.00  0.00     0.130 A 
BRANCH  15  18
ATOM     18  O   UNL     1     150.590 147.243 154.700  1.00  0.00    -0.508 OA
ATOM     19  H   UNL     1     150.149 146.331 154.671  1.00  0.00     0.293 HD
ENDBRANCH  15  18
BRANCH  17  20
ATOM     20  O   UNL     1     153.692 146.079 151.182  1.00  0.00    -0.507 OA
ATOM     21  H   UNL     1     154.319 146.387 150.448  1.00  0.00     0.293 HD
ENDBRANCH  17  20
ENDBRANCH   1  12
BRANCH   2  22
ATOM     22  O   UNL     1     154.219 149.038 149.876  1.00  0.00    -0.502 OA
ATOM     23  H   UNL     1     154.042 148.700 148.939  1.00  0.00     0.293 HD
ENDBRANCH   2  22
BRANCH   6  24
ATOM     24  O   UNL     1     159.417 149.674 148.896  1.00  0.00    -0.507 OA
ATOM     25  H   UNL     1     159.538 149.224 148.001  1.00  0.00     0.293 HD
ENDBRANCH   6  24
BRANCH   8  26
ATOM     26  O   UNL     1     161.271 147.585 152.802  1.00  0.00    -0.508 OA
ATOM     27  H   UNL     1     162.159 147.410 152.347  1.00  0.00     0.293 HD
ENDBRANCH   8  26
TORSDOF 6
ENDMDL
MODEL 5
REMARK VINA RESULT:    -6.043      2.466      7.041
REMARK INTER + INTRA:          -7.710
REMARK INTER:                  -7.525
REMARK INTRA:                  -0.185
REMARK UNBOUND:                -0.431
REMARK SMILES O=c1c(O)c(-c2ccc(O)cc2O)oc2cc(O)cc(O)c12
REMARK SMILES IDX 5 1 3 2 2 3 1 4 22 5 20 6 19 7 17 8 16 9 15 10 14 11 6 12
REMARK SMILES IDX 8 13 7 14 9 15 11 16 12 17 10 18 13 20 4 22 21 24 18 26
REMARK H PARENT 10 19 13 21 4 23 21 25 18 27
REMARK Flexibility Score: inf
ROOT
ATOM      1  C   UNL     1     154.984 147.583 151.626  1.00  0.00     0.184 A 
ATOM      2  C   UNL     1     155.010 147.452 153.024  1.00  0.00     0.208 A 
ATOM      3  C   UNL     1     153.840 147.062 153.694  1.00  0.00     0.238 A 
ATOM      4  O   UNL     1     153.884 146.891 154.940  1.00  0.00    -0.285 OA
ATOM      5  C   UNL     1     152.652 146.829 152.958  1.00  0.00     0.111 A 
ATOM      6  C   UNL     1     151.398 146.469 153.537  1.00  0.00     0.134 A 
ATOM      7  C   UNL     1     150.322 146.138 152.704  1.00  0.00     0.093 A 
ATOM      8  C   UNL     1     150.438 146.217 151.314  1.00  0.00     0.123 A 
ATOM      9  C   UNL     1     151.640 146.624 150.741  1.00  0.00     0.094 A 
ATOM     10  C   UNL     1     152.741 146.926 151.545  1.00  0.00     0.146 A 
ATOM     11  O   UNL     1     153.872 147.299 150.958  1.00  0.00    -0.451 OA
ENDROOT
BRANCH   1  12
ATOM     12  C   UNL     1     156.176 148.014 150.859  1.00  0.00     0.063 A 
ATOM     13  C   UNL     1     158.557 147.832 150.383  1.00  0.00     0.047 A 
ATOM     14  C   UNL     1     157.426 147.408 151.085  1.00  0.00     0.020 A 
ATOM     15  C   UNL     1     158.458 148.872 149.452  1.00  0.00     0.119 A 
ATOM     16  C   UNL     1     157.224 149.489 149.230  1.00  0.00     0.093 A 
ATOM     17  C   UNL     1     156.083 149.069 149.930  1.00  0.00     0.130 A 
BRANCH  15  18
ATOM     18  O   UNL     1     159.580 149.302 148.747  1.00  0.00    -0.508 OA
ATOM     19  H   UNL     1     159.724 150.280 148.526  1.00  0.00     0.293 HD
ENDBRANCH  15  18
BRANCH  17  20
ATOM     20  O   UNL     1     154.857 149.690 149.693  1.00  0.00    -0.507 OA
ATOM     21  H   UNL     1     154.525 150.453 150.272  1.00  0.00     0.293 HD
ENDBRANCH  17  20
ENDBRANCH   1  12
BRANCH   2  22
ATOM     22  O   UNL     1     156.197 147.675 153.727  1.00  0.00    -0.502 OA
ATOM     23  H   UNL     1     156.525 147.050 154.452  1.00  0.00     0.293 HD
ENDBRANCH   2  22
BRANCH   6  24
ATOM     24  O   UNL     1     151.150 146.448 154.913  1.00  0.00    -0.507 OA
ATOM     25  H   UNL     1     150.618 147.145 155.412  1.00  0.00     0.293 HD
ENDBRANCH   6  24
BRANCH   8  26
ATOM     26  O   UNL     1     149.357 145.901 150.491  1.00  0.00    -0.508 OA
ATOM     27  H   UNL     1     148.915 144.990 150.525  1.00  0.00     0.293 HD
ENDBRANCH   8  26
TORSDOF 6
ENDMDL
MODEL 6
REMARK VINA RESULT:    -6.026      1.775      7.175
REMARK INTER + INTRA:          -7.689
REMARK INTER:                  -7.212
REMARK INTRA:                  -0.477
REMARK UNBOUND:                -0.431
REMARK SMILES O=c1c(O)c(-c2ccc(O)cc2O)oc2cc(O)cc(O)c12
REMARK SMILES IDX 5 1 3 2 2 3 1 4 22 5 20 6 19 7 17 8 16 9 15 10 14 11 6 12
REMARK SMILES IDX 8 13 7 14 9 15 11 16 12 17 10 18 13 20 4 22 21 24 18 26
REMARK H PARENT 10 19 13 21 4 23 21 25 18 27
REMARK Flexibility Score: inf
ROOT
ATOM      1  C   UNL     1     149.371 145.775 150.179  1.00  0.00     0.184 A 
ATOM      2  C   UNL     1     148.589 146.676 149.437  1.00  0.00     0.208 A 
ATOM      3  C   UNL     1     147.648 146.171 148.526  1.00  0.00     0.238 A 
ATOM      4  O   UNL     1     146.912 146.982 147.906  1.00  0.00    -0.285 OA
ATOM      5  C   UNL     1     147.515 144.772 148.354  1.00  0.00     0.111 A 
ATOM      6  C   UNL     1     146.621 144.150 147.430  1.00  0.00     0.134 A 
ATOM      7  C   UNL     1     146.481 142.757 147.435  1.00  0.00     0.093 A 
ATOM      8  C   UNL     1     147.250 141.960 148.287  1.00  0.00     0.123 A 
ATOM      9  C   UNL     1     148.167 142.553 149.150  1.00  0.00     0.094 A 
ATOM     10  C   UNL     1     148.303 143.942 149.193  1.00  0.00     0.146 A 
ATOM     11  O   UNL     1     149.181 144.468 150.040  1.00  0.00    -0.451 OA
ENDROOT
BRANCH   1  12
ATOM     12  C   UNL     1     150.400 146.239 151.139  1.00  0.00     0.063 A 
ATOM     13  C   UNL     1     152.654 147.036 151.594  1.00  0.00     0.047 A 
ATOM     14  C   UNL     1     151.674 146.625 150.687  1.00  0.00     0.020 A 
ATOM     15  C   UNL     1     152.378 147.058 152.966  1.00  0.00     0.119 A 
ATOM     16  C   UNL     1     151.120 146.663 153.426  1.00  0.00     0.093 A 
ATOM     17  C   UNL     1     150.129 146.250 152.522  1.00  0.00     0.130 A 
BRANCH  15  18
ATOM     18  O   UNL     1     153.349 147.466 153.878  1.00  0.00    -0.508 OA
ATOM     19  H   UNL     1     154.076 146.836 154.195  1.00  0.00     0.293 HD
ENDBRANCH  15  18
BRANCH  17  20
ATOM     20  O   UNL     1     148.875 145.865 152.996  1.00  0.00    -0.507 OA
ATOM     21  H   UNL     1     148.518 146.194 153.887  1.00  0.00     0.293 HD
ENDBRANCH  17  20
ENDBRANCH   1  12
BRANCH   2  22
ATOM     22  O   UNL     1     148.730 148.052 149.633  1.00  0.00    -0.502 OA
ATOM     23  H   UNL     1     148.598 148.488 150.537  1.00  0.00     0.293 HD
ENDBRANCH   2  22
BRANCH   6  24
ATOM     24  O   UNL     1     145.875 144.848 146.475  1.00  0.00    -0.507 OA
ATOM     25  H   UNL     1     146.267 145.335 145.684  1.00  0.00     0.293 HD
ENDBRANCH   6  24
BRANCH   8  26
ATOM     26  O   UNL     1     147.115 140.572 148.275  1.00  0.00    -0.508 OA
ATOM     27  H   UNL     1     146.232 140.128 148.056  1.00  0.00     0.293 HD
ENDBRANCH   8  26
TORSDOF 6
ENDMDL
MODEL 7
REMARK VINA RESULT:    -5.972      1.421      2.895
REMARK INTER + INTRA:          -7.625
REMARK INTER:                  -7.364
REMARK INTRA:                  -0.261
REMARK UNBOUND:                -0.431
REMARK SMILES O=c1c(O)c(-c2ccc(O)cc2O)oc2cc(O)cc(O)c12
REMARK SMILES IDX 5 1 3 2 2 3 1 4 22 5 20 6 19 7 17 8 16 9 15 10 14 11 6 12
REMARK SMILES IDX 8 13 7 14 9 15 11 16 12 17 10 18 13 20 4 22 21 24 18 26
REMARK H PARENT 10 19 13 21 4 23 21 25 18 27
REMARK Flexibility Score: inf
ROOT
ATOM      1  C   UNL     1     150.363 146.418 150.580  1.00  0.00     0.184 A 
ATOM      2  C   UNL     1     151.506 146.983 149.988  1.00  0.00     0.208 A 
ATOM      3  C   UNL     1     152.584 147.354 150.806  1.00  0.00     0.238 A 
ATOM      4  O   UNL     1     153.626 147.806 150.265  1.00  0.00    -0.285 OA
ATOM      5  C   UNL     1     152.499 147.174 152.208  1.00  0.00     0.111 A 
ATOM      6  C   UNL     1     153.516 147.550 153.137  1.00  0.00     0.134 A 
ATOM      7  C   UNL     1     153.379 147.208 154.488  1.00  0.00     0.093 A 
ATOM      8  C   UNL     1     152.231 146.560 154.954  1.00  0.00     0.123 A 
ATOM      9  C   UNL     1     151.208 146.242 154.065  1.00  0.00     0.094 A 
ATOM     10  C   UNL     1     151.332 146.538 152.706  1.00  0.00     0.146 A 
ATOM     11  O   UNL     1     150.337 146.206 151.891  1.00  0.00    -0.451 OA
ENDROOT
BRANCH   1  12
ATOM     12  C   UNL     1     149.180 146.027 149.779  1.00  0.00     0.063 A 
ATOM     13  C   UNL     1     147.741 144.297 148.850  1.00  0.00     0.047 A 
ATOM     14  C   UNL     1     148.839 144.670 149.628  1.00  0.00     0.020 A 
ATOM     15  C   UNL     1     146.973 145.273 148.204  1.00  0.00     0.119 A 
ATOM     16  C   UNL     1     147.311 146.622 148.337  1.00  0.00     0.093 A 
ATOM     17  C   UNL     1     148.412 147.005 149.117  1.00  0.00     0.130 A 
BRANCH  15  18
ATOM     18  O   UNL     1     145.875 144.912 147.426  1.00  0.00    -0.508 OA
ATOM     19  H   UNL     1     145.361 144.057 147.601  1.00  0.00     0.293 HD
ENDBRANCH  15  18
BRANCH  17  20
ATOM     20  O   UNL     1     148.734 148.356 149.246  1.00  0.00    -0.507 OA
ATOM     21  H   UNL     1     149.427 148.798 148.652  1.00  0.00     0.293 HD
ENDBRANCH  17  20
ENDBRANCH   1  12
BRANCH   2  22
ATOM     22  O   UNL     1     151.571 147.139 148.602  1.00  0.00    -0.502 OA
ATOM     23  H   UNL     1     151.497 146.357 147.963  1.00  0.00     0.293 HD
ENDBRANCH   2  22
BRANCH   6  24
ATOM     24  O   UNL     1     154.658 148.279 152.792  1.00  0.00    -0.507 OA
ATOM     25  H   UNL     1     155.040 148.341 151.861  1.00  0.00     0.293 HD
ENDBRANCH   6  24
BRANCH   8  26
ATOM     26  O   UNL     1     152.095 146.237 156.303  1.00  0.00    -0.508 OA
ATOM     27  H   UNL     1     152.401 145.342 156.666  1.00  0.00     0.293 HD
ENDBRANCH   8  26
TORSDOF 6
ENDMDL
MODEL 8
REMARK VINA RESULT:    -5.886      3.810      6.655
REMARK INTER + INTRA:          -7.521
REMARK INTER:                  -7.098
REMARK INTRA:                  -0.423
REMARK UNBOUND:                -0.431
REMARK SMILES O=c1c(O)c(-c2ccc(O)cc2O)oc2cc(O)cc(O)c12
REMARK SMILES IDX 5 1 3 2 2 3 1 4 22 5 20 6 19 7 17 8 16 9 15 10 14 11 6 12
REMARK SMILES IDX 8 13 7 14 9 15 11 16 12 17 10 18 13 20 4 22 21 24 18 26
REMARK H PARENT 10 19 13 21 4 23 21 25 18 27
REMARK Flexibility Score: inf
ROOT
ATOM      1  C   UNL     1     155.478 148.206 152.202  1.00  0.00     0.184 A 
ATOM      2  C   UNL     1     156.654 147.782 152.845  1.00  0.00     0.208 A 
ATOM      3  C   UNL     1     157.892 148.028 152.232  1.00  0.00     0.238 A 
ATOM      4  O   UNL     1     158.944 147.697 152.839  1.00  0.00    -0.285 OA
ATOM      5  C   UNL     1     157.938 148.675 150.973  1.00  0.00     0.111 A 
ATOM      6  C   UNL     1     159.135 148.939 150.241  1.00  0.00     0.134 A 
ATOM      7  C   UNL     1     159.073 149.699 149.066  1.00  0.00     0.093 A 
ATOM      8  C   UNL     1     157.850 150.149 148.564  1.00  0.00     0.123 A 
ATOM      9  C   UNL     1     156.671 149.846 149.240  1.00  0.00     0.094 A 
ATOM     10  C   UNL     1     156.704 149.121 150.433  1.00  0.00     0.146 A 
ATOM     11  O   UNL     1     155.557 148.864 151.052  1.00  0.00    -0.451 OA
ENDROOT
BRANCH   1  12
ATOM     12  C   UNL     1     154.137 147.958 152.782  1.00  0.00     0.063 A 
ATOM     13  C   UNL     1     152.411 148.501 154.409  1.00  0.00     0.047 A 
ATOM     14  C   UNL     1     153.663 148.750 153.842  1.00  0.00     0.020 A 
ATOM     15  C   UNL     1     151.619 147.450 153.931  1.00  0.00     0.119 A 
ATOM     16  C   UNL     1     152.087 146.649 152.886  1.00  0.00     0.093 A 
ATOM     17  C   UNL     1     153.343 146.894 152.311  1.00  0.00     0.130 A 
BRANCH  15  18
ATOM     18  O   UNL     1     150.368 147.193 154.489  1.00  0.00    -0.508 OA
ATOM     19  H   UNL     1     149.548 147.056 153.910  1.00  0.00     0.293 HD
ENDBRANCH  15  18
BRANCH  17  20
ATOM     20  O   UNL     1     153.795 146.089 151.264  1.00  0.00    -0.507 OA
ATOM     21  H   UNL     1     154.379 145.278 151.430  1.00  0.00     0.293 HD
ENDBRANCH  17  20
ENDBRANCH   1  12
BRANCH   2  22
ATOM     22  O   UNL     1     156.583 147.158 154.093  1.00  0.00    -0.502 OA
ATOM     23  H   UNL     1     156.502 147.678 154.957  1.00  0.00     0.293 HD
ENDBRANCH   2  22
BRANCH   6  24
ATOM     24  O   UNL     1     160.396 148.458 150.606  1.00  0.00    -0.507 OA
ATOM     25  H   UNL     1     160.770 147.561 150.336  1.00  0.00     0.293 HD
ENDBRANCH   6  24
BRANCH   8  26
ATOM     26  O   UNL     1     157.795 150.892 147.386  1.00  0.00    -0.508 OA
ATOM     27  H   UNL     1     158.635 151.250 146.946  1.00  0.00     0.293 HD
ENDBRANCH   8  26
TORSDOF 6
ENDMDL
MODEL 9
REMARK VINA RESULT:    -5.866      2.149      7.300
REMARK INTER + INTRA:          -7.497
REMARK INTER:                  -7.378
REMARK INTRA:                  -0.119
REMARK UNBOUND:                -0.431
REMARK SMILES O=c1c(O)c(-c2ccc(O)cc2O)oc2cc(O)cc(O)c12
REMARK SMILES IDX 5 1 3 2 2 3 1 4 22 5 20 6 19 7 17 8 16 9 15 10 14 11 6 12
REMARK SMILES IDX 8 13 7 14 9 15 11 16 12 17 10 18 13 20 4 22 21 24 18 26
REMARK H PARENT 10 19 13 21 4 23 21 25 18 27
REMARK Flexibility Score: inf
ROOT
ATOM      1  C   UNL     1     154.433 147.559 152.931  1.00  0.00     0.184 A 
ATOM      2  C   UNL     1     153.774 147.061 154.067  1.00  0.00     0.208 A 
ATOM      3  C   UNL     1     152.465 146.571 153.936  1.00  0.00     0.238 A 
ATOM      4  O   UNL     1     151.901 146.074 154.946  1.00  0.00    -0.285 OA
ATOM      5  C   UNL     1     151.824 146.604 152.674  1.00  0.00     0.111 A 
ATOM      6  C   UNL     1     150.486 146.171 152.432  1.00  0.00     0.134 A 
ATOM      7  C   UNL     1     149.998 146.129 151.120  1.00  0.00     0.093 A 
ATOM      8  C   UNL     1     150.780 146.567 150.048  1.00  0.00     0.123 A 
ATOM      9  C   UNL     1     152.066 147.046 150.280  1.00  0.00     0.094 A 
ATOM     10  C   UNL     1     152.593 147.066 151.574  1.00  0.00     0.146 A 
ATOM     11  O   UNL     1     153.828 147.521 151.749  1.00  0.00    -0.451 OA
ENDROOT
BRANCH   1  12
ATOM     12  C   UNL     1     155.805 148.113 153.003  1.00  0.00     0.063 A 
ATOM     13  C   UNL     1     157.461 149.507 154.116  1.00  0.00     0.047 A 
ATOM     14  C   UNL     1     156.176 148.961 154.061  1.00  0.00     0.020 A 
ATOM     15  C   UNL     1     158.390 149.221 153.109  1.00  0.00     0.119 A 
ATOM     16  C   UNL     1     158.027 148.391 152.046  1.00  0.00     0.093 A 
ATOM     17  C   UNL     1     156.739 147.837 151.984  1.00  0.00     0.130 A 
BRANCH  15  18
ATOM     18  O   UNL     1     159.674 149.760 153.154  1.00  0.00    -0.508 OA
ATOM     19  H   UNL     1     160.316 149.537 153.905  1.00  0.00     0.293 HD
ENDBRANCH  15  18
BRANCH  17  20
ATOM     20  O   UNL     1     156.393 147.004 150.920  1.00  0.00    -0.507 OA
ATOM     21  H   UNL     1     156.942 146.972 150.068  1.00  0.00     0.293 HD
ENDBRANCH  17  20
ENDBRANCH   1  12
BRANCH   2  22
ATOM     22  O   UNL     1     154.431 147.027 155.299  1.00  0.00    -0.502 OA
ATOM     23  H   UNL     1     154.817 147.856 155.733  1.00  0.00     0.293 HD
ENDBRANCH   2  22
BRANCH   6  24
ATOM     24  O   UNL     1     149.591 145.800 153.441  1.00  0.00    -0.507 OA
ATOM     25  H   UNL     1     148.723 145.309 153.288  1.00  0.00     0.293 HD
ENDBRANCH   6  24
BRANCH   8  26
ATOM     26  O   UNL     1     150.282 146.537 148.746  1.00  0.00    -0.508 OA
ATOM     27  H   UNL     1     150.111 145.662 148.265  1.00  0.00     0.293 HD
ENDBRANCH   8  26
TORSDOF 6
ENDMDL
