MODEL 1
REMARK VINA RESULT:    -3.506      0.000      0.000
REMARK INTER + INTRA:          -4.219
REMARK INTER:                  -4.121
REMARK INTRA:                  -0.098
REMARK UNBOUND:                -0.098
REMARK SMILES O=C([O-])CCC(=O)[O-]
REMARK SMILES IDX 4 1 2 2 1 3 3 4 5 5 6 6 7 7 8 8
REMARK H PARENT
REMARK Flexibility Score: inf
ROOT
ATOM      1  C   UNL     1       4.896 -35.079  20.381  1.00  0.00     0.059 C 
ENDROOT
BRANCH   1   2
ATOM      2  C   UNL     1       4.834 -36.420  19.715  1.00  0.00     0.042 C 
ATOM      3  O   UNL     1       5.580 -37.356  20.105  1.00  0.00    -0.550 OA
ATOM      4  O   UNL     1       3.983 -36.622  18.635  1.00  0.00    -0.550 OA
ENDBRANCH   1   2
BRANCH   1   5
ATOM      5  C   UNL     1       6.122 -34.958  21.293  1.00  0.00     0.059 C 
BRANCH   5   6
ATOM      6  C   UNL     1       5.740 -35.000  22.740  1.00  0.00     0.042 C 
ATOM      7  O   UNL     1       6.107 -35.962  23.466  1.00  0.00    -0.550 OA
ATOM      8  O   UNL     1       5.010 -33.957  23.298  1.00  0.00    -0.550 OA
ENDBRANCH   5   6
ENDBRANCH   1   5
TORSDOF 3
ENDMDL
MODEL 2
REMARK VINA RESULT:    -3.495      0.069      3.895
REMARK INTER + INTRA:          -4.206
REMARK INTER:                  -4.100
REMARK INTRA:                  -0.106
REMARK UNBOUND:                -0.098
REMARK SMILES O=C([O-])CCC(=O)[O-]
REMARK SMILES IDX 4 1 2 2 1 3 3 4 5 5 6 6 7 7 8 8
REMARK H PARENT
REMARK Flexibility Score: inf
ROOT
ATOM      1  C   UNL     1       6.088 -34.940  21.269  1.00  0.00     0.059 C 
ENDROOT
BRANCH   1   2
ATOM      2  C   UNL     1       5.740 -34.984  22.725  1.00  0.00     0.042 C 
ATOM      3  O   UNL     1       6.075 -35.973  23.427  1.00  0.00    -0.550 OA
ATOM      4  O   UNL     1       5.008 -33.950  23.298  1.00  0.00    -0.550 OA
ENDBRANCH   1   2
BRANCH   1   5
ATOM      5  C   UNL     1       4.845 -35.089  20.386  1.00  0.00     0.059 C 
BRANCH   5   6
ATOM      6  C   UNL     1       4.800 -36.429  19.719  1.00  0.00     0.042 C 
ATOM      7  O   UNL     1       4.050 -36.619  18.726  1.00  0.00    -0.550 OA
ATOM      8  O   UNL     1       5.617 -37.459  20.171  1.00  0.00    -0.550 OA
ENDBRANCH   5   6
ENDBRANCH   1   5
TORSDOF 3
ENDMDL
MODEL 3
REMARK VINA RESULT:    -3.435      1.517      4.091
REMARK INTER + INTRA:          -4.136
REMARK INTER:                  -4.016
REMARK INTRA:                  -0.119
REMARK UNBOUND:                -0.098
REMARK SMILES O=C([O-])CCC(=O)[O-]
REMARK SMILES IDX 4 1 2 2 1 3 3 4 5 5 6 6 7 7 8 8
REMARK H PARENT
REMARK Flexibility Score: inf
ROOT
ATOM      1  C   UNL     1       5.640 -35.420  20.091  1.00  0.00     0.059 C 
ENDROOT
BRANCH   1   2
ATOM      2  C   UNL     1       5.247 -35.046  21.487  1.00  0.00     0.042 C 
ATOM      3  O   UNL     1       4.138 -34.491  21.706  1.00  0.00    -0.550 OA
ATOM      4  O   UNL     1       6.124 -35.272  22.542  1.00  0.00    -0.550 OA
ENDBRANCH   1   2
BRANCH   1   5
ATOM      5  C   UNL     1       5.114 -36.808  19.709  1.00  0.00     0.059 C 
BRANCH   5   6
ATOM      6  C   UNL     1       3.793 -36.723  19.008  1.00  0.00     0.042 C 
ATOM      7  O   UNL     1       3.743 -36.483  17.773  1.00  0.00    -0.550 OA
ATOM      8  O   UNL     1       2.616 -36.948  19.713  1.00  0.00    -0.550 OA
ENDBRANCH   5   6
ENDBRANCH   1   5
TORSDOF 3
ENDMDL
MODEL 4
REMARK VINA RESULT:    -3.331      1.931      2.817
REMARK INTER + INTRA:          -4.014
REMARK INTER:                  -3.964
REMARK INTRA:                  -0.050
REMARK UNBOUND:                -0.098
REMARK SMILES O=C([O-])CCC(=O)[O-]
REMARK SMILES IDX 4 1 2 2 1 3 3 4 5 5 6 6 7 7 8 8
REMARK H PARENT
REMARK Flexibility Score: inf
ROOT
ATOM      1  C   UNL     1       4.386 -36.843  19.110  1.00  0.00     0.059 C 
ENDROOT
BRANCH   1   2
ATOM      2  C   UNL     1       3.163 -36.863  18.244  1.00  0.00     0.042 C 
ATOM      3  O   UNL     1       3.234 -36.500  17.041  1.00  0.00    -0.550 OA
ATOM      4  O   UNL     1       1.937 -37.241  18.779  1.00  0.00    -0.550 OA
ENDBRANCH   1   2
BRANCH   1   5
ATOM      5  C   UNL     1       4.259 -35.819  20.244  1.00  0.00     0.059 C 
BRANCH   5   6
ATOM      6  C   UNL     1       5.499 -34.990  20.378  1.00  0.00     0.042 C 
ATOM      7  O   UNL     1       6.125 -34.955  21.470  1.00  0.00    -0.550 OA
ATOM      8  O   UNL     1       5.986 -34.285  19.283  1.00  0.00    -0.550 OA
ENDBRANCH   5   6
ENDBRANCH   1   5
TORSDOF 3
ENDMDL
MODEL 5
REMARK VINA RESULT:    -3.311      2.664      5.499
REMARK INTER + INTRA:          -3.990
REMARK INTER:                  -3.964
REMARK INTRA:                  -0.026
REMARK UNBOUND:                -0.098
REMARK SMILES O=C([O-])CCC(=O)[O-]
REMARK SMILES IDX 4 1 2 2 1 3 3 4 5 5 6 6 7 7 8 8
REMARK H PARENT
REMARK Flexibility Score: inf
ROOT
ATOM      1  C   UNL     1       3.694 -36.663  18.465  1.00  0.00     0.059 C 
ENDROOT
BRANCH   1   2
ATOM      2  C   UNL     1       4.739 -36.380  19.501  1.00  0.00     0.042 C 
ATOM      3  O   UNL     1       5.469 -37.310  19.934  1.00  0.00    -0.550 OA
ATOM      4  O   UNL     1       4.878 -35.097  20.017  1.00  0.00    -0.550 OA
ENDBRANCH   1   2
BRANCH   1   5
ATOM      5  C   UNL     1       3.850 -35.753  17.242  1.00  0.00     0.059 C 
BRANCH   5   6
ATOM      6  C   UNL     1       3.133 -36.306  16.048  1.00  0.00     0.042 C 
ATOM      7  O   UNL     1       1.948 -35.959  15.802  1.00  0.00    -0.550 OA
ATOM      8  O   UNL     1       3.788 -37.177  15.185  1.00  0.00    -0.550 OA
ENDBRANCH   5   6
ENDBRANCH   1   5
TORSDOF 3
ENDMDL
MODEL 6
REMARK VINA RESULT:    -3.302      2.673      4.051
REMARK INTER + INTRA:          -3.979
REMARK INTER:                  -3.953
REMARK INTRA:                  -0.026
REMARK UNBOUND:                -0.098
REMARK SMILES O=C([O-])CCC(=O)[O-]
REMARK SMILES IDX 4 1 2 2 1 3 3 4 5 5 6 6 7 7 8 8
REMARK H PARENT
REMARK Flexibility Score: inf
ROOT
ATOM      1  C   UNL     1       3.863 -35.767  17.226  1.00  0.00     0.059 C 
ENDROOT
BRANCH   1   2
ATOM      2  C   UNL     1       3.148 -36.295  16.019  1.00  0.00     0.042 C 
ATOM      3  O   UNL     1       1.959 -35.953  15.787  1.00  0.00    -0.550 OA
ATOM      4  O   UNL     1       3.782 -37.198  15.174  1.00  0.00    -0.550 OA
ENDBRANCH   1   2
BRANCH   1   5
ATOM      5  C   UNL     1       3.678 -36.685  18.439  1.00  0.00     0.059 C 
BRANCH   5   6
ATOM      6  C   UNL     1       4.673 -36.382  19.516  1.00  0.00     0.042 C 
ATOM      7  O   UNL     1       5.475 -37.270  19.909  1.00  0.00    -0.550 OA
ATOM      8  O   UNL     1       4.742 -35.104  20.060  1.00  0.00    -0.550 OA
ENDBRANCH   5   6
ENDBRANCH   1   5
TORSDOF 3
ENDMDL
MODEL 7
REMARK VINA RESULT:    -3.300      1.887      4.380
REMARK INTER + INTRA:          -3.977
REMARK INTER:                  -3.931
REMARK INTRA:                  -0.046
REMARK UNBOUND:                -0.098
REMARK SMILES O=C([O-])CCC(=O)[O-]
REMARK SMILES IDX 4 1 2 2 1 3 3 4 5 5 6 6 7 7 8 8
REMARK H PARENT
REMARK Flexibility Score: inf
ROOT
ATOM      1  C   UNL     1       4.430 -36.010  20.268  1.00  0.00     0.059 C 
ENDROOT
BRANCH   1   2
ATOM      2  C   UNL     1       5.583 -35.080  20.496  1.00  0.00     0.042 C 
ATOM      3  O   UNL     1       6.046 -34.918  21.656  1.00  0.00    -0.550 OA
ATOM      4  O   UNL     1       6.119 -34.361  19.434  1.00  0.00    -0.550 OA
ENDBRANCH   1   2
BRANCH   1   5
ATOM      5  C   UNL     1       4.537 -36.720  18.914  1.00  0.00     0.059 C 
BRANCH   5   6
ATOM      6  C   UNL     1       3.212 -36.779  18.217  1.00  0.00     0.042 C 
ATOM      7  O   UNL     1       3.128 -36.513  16.989  1.00  0.00    -0.550 OA
ATOM      8  O   UNL     1       2.075 -37.167  18.917  1.00  0.00    -0.550 OA
ENDBRANCH   5   6
ENDBRANCH   1   5
TORSDOF 3
ENDMDL
MODEL 8
REMARK VINA RESULT:    -3.227      3.265      6.104
REMARK INTER + INTRA:          -3.891
REMARK INTER:                  -3.861
REMARK INTRA:                  -0.029
REMARK UNBOUND:                -0.098
REMARK SMILES O=C([O-])CCC(=O)[O-]
REMARK SMILES IDX 4 1 2 2 1 3 3 4 5 5 6 6 7 7 8 8
REMARK H PARENT
REMARK Flexibility Score: inf
ROOT
ATOM      1  C   UNL     1       3.873 -35.903  17.583  1.00  0.00     0.059 C 
ENDROOT
BRANCH   1   2
ATOM      2  C   UNL     1       3.884 -36.634  18.890  1.00  0.00     0.042 C 
ATOM      3  O   UNL     1       2.800 -36.958  19.443  1.00  0.00    -0.550 OA
ATOM      4  O   UNL     1       5.090 -36.920  19.519  1.00  0.00    -0.550 OA
ENDBRANCH   1   2
BRANCH   1   5
ATOM      5  C   UNL     1       2.936 -36.570  16.570  1.00  0.00     0.059 C 
BRANCH   5   6
ATOM      6  C   UNL     1       3.488 -36.500  15.179  1.00  0.00     0.042 C 
ATOM      7  O   UNL     1       3.388 -35.439  14.509  1.00  0.00    -0.550 OA
ATOM      8  O   UNL     1       4.148 -37.597  14.636  1.00  0.00    -0.550 OA
ENDBRANCH   5   6
ENDBRANCH   1   5
TORSDOF 3
ENDMDL
MODEL 9
REMARK VINA RESULT:    -2.820      2.656      4.644
REMARK INTER + INTRA:          -3.412
REMARK INTER:                  -3.296
REMARK INTRA:                  -0.116
REMARK UNBOUND:                -0.098
REMARK SMILES O=C([O-])CCC(=O)[O-]
REMARK SMILES IDX 4 1 2 2 1 3 3 4 5 5 6 6 7 7 8 8
REMARK H PARENT
REMARK Flexibility Score: inf
ROOT
ATOM      1  C   UNL     1       5.099 -35.844  25.525  1.00  0.00     0.059 C 
ENDROOT
BRANCH   1   2
ATOM      2  C   UNL     1       5.472 -37.284  25.705  1.00  0.00     0.042 C 
ATOM      3  O   UNL     1       5.955 -37.682  26.798  1.00  0.00    -0.550 OA
ATOM      4  O   UNL     1       5.325 -38.178  24.651  1.00  0.00    -0.550 OA
ENDBRANCH   1   2
BRANCH   1   5
ATOM      5  C   UNL     1       6.125 -35.098  24.666  1.00  0.00     0.059 C 
BRANCH   5   6
ATOM      6  C   UNL     1       5.606 -34.844  23.284  1.00  0.00     0.042 C 
ATOM      7  O   UNL     1       4.865 -33.852  23.056  1.00  0.00    -0.550 OA
ATOM      8  O   UNL     1       5.974 -35.682  22.238  1.00  0.00    -0.550 OA
ENDBRANCH   5   6
ENDBRANCH   1   5
TORSDOF 3
ENDMDL
