MODEL 1
REMARK VINA RESULT:    -5.447      0.000      0.000
REMARK INTER + INTRA:         -10.711
REMARK INTER:                  -9.904
REMARK INTRA:                  -0.807
REMARK UNBOUND:                -0.807
REMARK SMILES CCCCCCCCCCCCCCCC(=O)[O-]
REMARK SMILES IDX 9 1 10 2 11 3 12 4 13 5 14 6 15 7 16 8 17 9 18 10 8 11 7 12
REMARK SMILES IDX 6 13 5 14 4 15 3 16 2 17 1 18
REMARK H PARENT
REMARK Flexibility Score: inf
ROOT
ATOM      1  C   UNL     1     -17.349  -6.426  40.061  1.00  0.00     0.000 C 
ENDROOT
BRANCH   1   2
ATOM      2  C   UNL     1     -16.339  -6.245  41.206  1.00  0.00     0.000 C 
BRANCH   2   3
ATOM      3  C   UNL     1     -16.852  -6.815  42.540  1.00  0.00     0.000 C 
BRANCH   3   4
ATOM      4  C   UNL     1     -17.898  -7.929  42.350  1.00  0.00     0.000 C 
BRANCH   4   5
ATOM      5  C   UNL     1     -17.725  -9.154  43.271  1.00  0.00     0.000 C 
BRANCH   5   6
ATOM      6  C   UNL     1     -16.760  -8.952  44.456  1.00  0.00     0.006 C 
BRANCH   6   7
ATOM      7  C   UNL     1     -17.237  -9.576  45.777  1.00  0.00     0.053 C 
BRANCH   7   8
ATOM      8  C   UNL     1     -16.191 -10.457  46.388  1.00  0.00     0.041 C 
ATOM      9  O   UNL     1     -15.342 -11.034  45.659  1.00  0.00    -0.550 OA
ATOM     10  O   UNL     1     -16.176 -10.669  47.761  1.00  0.00    -0.550 OA
ENDBRANCH   7   8
ENDBRANCH   6   7
ENDBRANCH   5   6
ENDBRANCH   4   5
ENDBRANCH   3   4
ENDBRANCH   2   3
ENDBRANCH   1   2
BRANCH   1  11
ATOM     11  C   UNL     1     -16.806  -5.923  38.712  1.00  0.00     0.000 C 
BRANCH  11  12
ATOM     12  C   UNL     1     -15.359  -5.407  38.808  1.00  0.00    -0.000 C 
BRANCH  12  13
ATOM     13  C   UNL     1     -14.286  -6.345  38.214  1.00  0.00    -0.000 C 
BRANCH  13  14
ATOM     14  C   UNL     1     -13.135  -6.714  39.168  1.00  0.00    -0.000 C 
BRANCH  14  15
ATOM     15  C   UNL     1     -12.158  -7.733  38.558  1.00  0.00    -0.000 C 
BRANCH  15  16
ATOM     16  C   UNL     1     -11.284  -8.420  39.620  1.00  0.00    -0.000 C 
BRANCH  16  17
ATOM     17  C   UNL     1     -10.534  -9.641  39.072  1.00  0.00    -0.003 C 
ATOM     18  C   UNL     1     -10.782  -9.811  37.575  1.00  0.00     0.004 C 
ENDBRANCH  16  17
ENDBRANCH  15  16
ENDBRANCH  14  15
ENDBRANCH  13  14
ENDBRANCH  12  13
ENDBRANCH  11  12
ENDBRANCH   1  11
TORSDOF 14
ENDMDL
MODEL 2
REMARK VINA RESULT:    -5.428      3.011      6.966
REMARK INTER + INTRA:         -10.678
REMARK INTER:                  -9.677
REMARK INTRA:                  -1.001
REMARK UNBOUND:                -0.807
REMARK SMILES CCCCCCCCCCCCCCCC(=O)[O-]
REMARK SMILES IDX 9 1 10 2 11 3 12 4 13 5 14 6 15 7 16 8 17 9 18 10 8 11 7 12
REMARK SMILES IDX 6 13 5 14 4 15 3 16 2 17 1 18
REMARK H PARENT
REMARK Flexibility Score: inf
ROOT
ATOM      1  C   UNL     1     -15.937  -6.110  41.030  1.00  0.00     0.000 C 
ENDROOT
BRANCH   1   2
ATOM      2  C   UNL     1     -17.080  -6.171  40.002  1.00  0.00     0.000 C 
BRANCH   2   3
ATOM      3  C   UNL     1     -16.571  -6.135  38.551  1.00  0.00     0.000 C 
BRANCH   3   4
ATOM      4  C   UNL     1     -15.090  -5.728  38.448  1.00  0.00     0.000 C 
BRANCH   4   5
ATOM      5  C   UNL     1     -14.387  -6.135  37.137  1.00  0.00     0.000 C 
BRANCH   5   6
ATOM      6  C   UNL     1     -13.268  -7.184  37.292  1.00  0.00     0.006 C 
BRANCH   6   7
ATOM      7  C   UNL     1     -12.635  -7.235  38.690  1.00  0.00     0.053 C 
BRANCH   7   8
ATOM      8  C   UNL     1     -11.655  -8.361  38.819  1.00  0.00     0.041 C 
ATOM      9  O   UNL     1     -11.342  -9.049  37.812  1.00  0.00    -0.550 OA
ATOM     10  O   UNL     1     -11.113  -8.673  40.060  1.00  0.00    -0.550 OA
ENDBRANCH   7   8
ENDBRANCH   6   7
ENDBRANCH   5   6
ENDBRANCH   4   5
ENDBRANCH   3   4
ENDBRANCH   2   3
ENDBRANCH   1   2
BRANCH   1  11
ATOM     11  C   UNL     1     -16.387  -6.539  42.437  1.00  0.00     0.000 C 
BRANCH  11  12
ATOM     12  C   UNL     1     -17.745  -7.263  42.433  1.00  0.00    -0.000 C 
BRANCH  12  13
ATOM     13  C   UNL     1     -17.735  -8.683  43.039  1.00  0.00    -0.000 C 
BRANCH  13  14
ATOM     14  C   UNL     1     -16.873  -8.852  44.303  1.00  0.00    -0.000 C 
BRANCH  14  15
ATOM     15  C   UNL     1     -16.720 -10.323  44.728  1.00  0.00    -0.000 C 
BRANCH  15  16
ATOM     16  C   UNL     1     -15.285 -10.665  45.160  1.00  0.00    -0.000 C 
BRANCH  16  17
ATOM     17  C   UNL     1     -14.351  -9.447  45.130  1.00  0.00    -0.003 C 
ATOM     18  C   UNL     1     -13.208  -9.608  46.130  1.00  0.00     0.004 C 
ENDBRANCH  16  17
ENDBRANCH  15  16
ENDBRANCH  14  15
ENDBRANCH  13  14
ENDBRANCH  12  13
ENDBRANCH  11  12
ENDBRANCH   1  11
TORSDOF 14
ENDMDL
MODEL 3
REMARK VINA RESULT:    -5.425      1.998      3.625
REMARK INTER + INTRA:         -10.673
REMARK INTER:                  -9.760
REMARK INTRA:                  -0.913
REMARK UNBOUND:                -0.807
REMARK SMILES CCCCCCCCCCCCCCCC(=O)[O-]
REMARK SMILES IDX 9 1 10 2 11 3 12 4 13 5 14 6 15 7 16 8 17 9 18 10 8 11 7 12
REMARK SMILES IDX 6 13 5 14 4 15 3 16 2 17 1 18
REMARK H PARENT
REMARK Flexibility Score: inf
ROOT
ATOM      1  C   UNL     1     -17.745  -7.240  43.554  1.00  0.00     0.000 C 
ENDROOT
BRANCH   1   2
ATOM      2  C   UNL     1     -17.724  -8.511  44.419  1.00  0.00     0.000 C 
BRANCH   2   3
ATOM      3  C   UNL     1     -17.000  -9.681  43.729  1.00  0.00     0.000 C 
BRANCH   3   4
ATOM      4  C   UNL     1     -16.508 -10.748  44.724  1.00  0.00     0.000 C 
BRANCH   4   5
ATOM      5  C   UNL     1     -15.051 -10.578  45.200  1.00  0.00     0.000 C 
BRANCH   5   6
ATOM      6  C   UNL     1     -14.814 -10.862  46.697  1.00  0.00     0.006 C 
BRANCH   6   7
ATOM      7  C   UNL     1     -16.078 -10.786  47.566  1.00  0.00     0.053 C 
BRANCH   7   8
ATOM      8  C   UNL     1     -16.171  -9.486  48.305  1.00  0.00     0.041 C 
ATOM      9  O   UNL     1     -16.562  -8.446  47.714  1.00  0.00    -0.550 OA
ATOM     10  O   UNL     1     -15.791  -9.417  49.640  1.00  0.00    -0.550 OA
ENDBRANCH   7   8
ENDBRANCH   6   7
ENDBRANCH   5   6
ENDBRANCH   4   5
ENDBRANCH   3   4
ENDBRANCH   2   3
ENDBRANCH   1   2
BRANCH   1  11
ATOM     11  C   UNL     1     -18.125  -7.528  42.092  1.00  0.00     0.000 C 
BRANCH  11  12
ATOM     12  C   UNL     1     -17.364  -6.640  41.092  1.00  0.00    -0.000 C 
BRANCH  12  13
ATOM     13  C   UNL     1     -17.692  -6.893  39.605  1.00  0.00    -0.000 C 
BRANCH  13  14
ATOM     14  C   UNL     1     -16.875  -6.061  38.600  1.00  0.00    -0.000 C 
BRANCH  14  15
ATOM     15  C   UNL     1     -15.660  -5.372  39.245  1.00  0.00    -0.000 C 
BRANCH  15  16
ATOM     16  C   UNL     1     -14.331  -6.043  38.862  1.00  0.00    -0.000 C 
BRANCH  16  17
ATOM     17  C   UNL     1     -14.292  -6.487  37.393  1.00  0.00    -0.003 C 
ATOM     18  C   UNL     1     -13.043  -7.316  37.103  1.00  0.00     0.004 C 
ENDBRANCH  16  17
ENDBRANCH  15  16
ENDBRANCH  14  15
ENDBRANCH  13  14
ENDBRANCH  12  13
ENDBRANCH  11  12
ENDBRANCH   1  11
TORSDOF 14
ENDMDL
MODEL 4
REMARK VINA RESULT:    -5.386      1.339      2.339
REMARK INTER + INTRA:         -10.602
REMARK INTER:                  -9.900
REMARK INTRA:                  -0.702
REMARK UNBOUND:                -0.807
REMARK SMILES CCCCCCCCCCCCCCCC(=O)[O-]
REMARK SMILES IDX 9 1 10 2 11 3 12 4 13 5 14 6 15 7 16 8 17 9 18 10 8 11 7 12
REMARK SMILES IDX 6 13 5 14 4 15 3 16 2 17 1 18
REMARK H PARENT
REMARK Flexibility Score: inf
ROOT
ATOM      1  C   UNL     1     -18.016  -6.631  41.307  1.00  0.00     0.000 C 
ENDROOT
BRANCH   1   2
ATOM      2  C   UNL     1     -17.326  -7.295  42.511  1.00  0.00     0.000 C 
BRANCH   2   3
ATOM      3  C   UNL     1     -18.107  -8.511  43.040  1.00  0.00     0.000 C 
BRANCH   3   4
ATOM      4  C   UNL     1     -17.203  -9.544  43.737  1.00  0.00     0.000 C 
BRANCH   4   5
ATOM      5  C   UNL     1     -16.470  -9.031  44.994  1.00  0.00     0.000 C 
BRANCH   5   6
ATOM      6  C   UNL     1     -15.254  -9.872  45.432  1.00  0.00     0.006 C 
BRANCH   6   7
ATOM      7  C   UNL     1     -15.586 -11.001  46.420  1.00  0.00     0.053 C 
BRANCH   7   8
ATOM      8  C   UNL     1     -15.508 -10.538  47.843  1.00  0.00     0.041 C 
ATOM      9  O   UNL     1     -16.494  -9.967  48.380  1.00  0.00    -0.550 OA
ATOM     10  O   UNL     1     -14.333 -10.706  48.565  1.00  0.00    -0.550 OA
ENDBRANCH   7   8
ENDBRANCH   6   7
ENDBRANCH   5   6
ENDBRANCH   4   5
ENDBRANCH   3   4
ENDBRANCH   2   3
ENDBRANCH   1   2
BRANCH   1  11
ATOM     11  C   UNL     1     -18.066  -7.550  40.076  1.00  0.00     0.000 C 
BRANCH  11  12
ATOM     12  C   UNL     1     -17.351  -6.947  38.853  1.00  0.00    -0.000 C 
BRANCH  12  13
ATOM     13  C   UNL     1     -16.258  -5.907  39.177  1.00  0.00    -0.000 C 
BRANCH  13  14
ATOM     14  C   UNL     1     -15.171  -5.738  38.100  1.00  0.00    -0.000 C 
BRANCH  14  15
ATOM     15  C   UNL     1     -13.861  -6.463  38.456  1.00  0.00    -0.000 C 
BRANCH  15  16
ATOM     16  C   UNL     1     -13.283  -7.251  37.269  1.00  0.00    -0.000 C 
BRANCH  16  17
ATOM     17  C   UNL     1     -11.981  -7.983  37.621  1.00  0.00    -0.003 C 
ATOM     18  C   UNL     1     -11.750  -7.998  39.130  1.00  0.00     0.004 C 
ENDBRANCH  16  17
ENDBRANCH  15  16
ENDBRANCH  14  15
ENDBRANCH  13  14
ENDBRANCH  12  13
ENDBRANCH  11  12
ENDBRANCH   1  11
TORSDOF 14
ENDMDL
MODEL 5
REMARK VINA RESULT:    -5.377      1.382      2.257
REMARK INTER + INTRA:         -10.584
REMARK INTER:                  -9.509
REMARK INTRA:                  -1.075
REMARK UNBOUND:                -0.807
REMARK SMILES CCCCCCCCCCCCCCCC(=O)[O-]
REMARK SMILES IDX 9 1 10 2 11 3 12 4 13 5 14 6 15 7 16 8 17 9 18 10 8 11 7 12
REMARK SMILES IDX 6 13 5 14 4 15 3 16 2 17 1 18
REMARK H PARENT
REMARK Flexibility Score: inf
ROOT
ATOM      1  C   UNL     1     -15.588  -6.150  42.056  1.00  0.00     0.000 C 
ENDROOT
BRANCH   1   2
ATOM      2  C   UNL     1     -16.974  -6.817  42.088  1.00  0.00     0.000 C 
BRANCH   2   3
ATOM      3  C   UNL     1     -17.200  -7.645  43.365  1.00  0.00     0.000 C 
BRANCH   3   4
ATOM      4  C   UNL     1     -17.238  -6.780  44.638  1.00  0.00     0.000 C 
BRANCH   4   5
ATOM      5  C   UNL     1     -16.653  -7.446  45.900  1.00  0.00     0.000 C 
BRANCH   5   6
ATOM      6  C   UNL     1     -17.422  -8.685  46.404  1.00  0.00     0.006 C 
BRANCH   6   7
ATOM      7  C   UNL     1     -16.536  -9.903  46.703  1.00  0.00     0.053 C 
BRANCH   7   8
ATOM      8  C   UNL     1     -15.827 -10.394  45.478  1.00  0.00     0.041 C 
ATOM      9  O   UNL     1     -14.581 -10.254  45.367  1.00  0.00    -0.550 OA
ATOM     10  O   UNL     1     -16.548 -10.975  44.443  1.00  0.00    -0.550 OA
ENDBRANCH   7   8
ENDBRANCH   6   7
ENDBRANCH   5   6
ENDBRANCH   4   5
ENDBRANCH   3   4
ENDBRANCH   2   3
ENDBRANCH   1   2
BRANCH   1  11
ATOM     11  C   UNL     1     -15.144  -5.783  40.630  1.00  0.00     0.000 C 
BRANCH  11  12
ATOM     12  C   UNL     1     -16.301  -5.825  39.616  1.00  0.00    -0.000 C 
BRANCH  12  13
ATOM     13  C   UNL     1     -15.897  -6.193  38.172  1.00  0.00    -0.000 C 
BRANCH  13  14
ATOM     14  C   UNL     1     -14.442  -5.862  37.793  1.00  0.00    -0.000 C 
BRANCH  14  15
ATOM     15  C   UNL     1     -13.870  -6.819  36.733  1.00  0.00    -0.000 C 
BRANCH  15  16
ATOM     16  C   UNL     1     -12.645  -7.597  37.241  1.00  0.00    -0.000 C 
BRANCH  16  17
ATOM     17  C   UNL     1     -12.441  -7.458  38.756  1.00  0.00    -0.003 C 
ATOM     18  C   UNL     1     -11.180  -8.190  39.210  1.00  0.00     0.004 C 
ENDBRANCH  16  17
ENDBRANCH  15  16
ENDBRANCH  14  15
ENDBRANCH  13  14
ENDBRANCH  12  13
ENDBRANCH  11  12
ENDBRANCH   1  11
TORSDOF 14
ENDMDL
MODEL 6
REMARK VINA RESULT:    -5.329      2.322      3.672
REMARK INTER + INTRA:         -10.498
REMARK INTER:                  -9.013
REMARK INTRA:                  -1.485
REMARK UNBOUND:                -0.807
REMARK SMILES CCCCCCCCCCCCCCCC(=O)[O-]
REMARK SMILES IDX 9 1 10 2 11 3 12 4 13 5 14 6 15 7 16 8 17 9 18 10 8 11 7 12
REMARK SMILES IDX 6 13 5 14 4 15 3 16 2 17 1 18
REMARK H PARENT
REMARK Flexibility Score: inf
ROOT
ATOM      1  C   UNL     1     -16.436  -6.528  43.887  1.00  0.00     0.000 C 
ENDROOT
BRANCH   1   2
ATOM      2  C   UNL     1     -17.343  -6.853  42.689  1.00  0.00     0.000 C 
BRANCH   2   3
ATOM      3  C   UNL     1     -17.825  -8.314  42.693  1.00  0.00     0.000 C 
BRANCH   3   4
ATOM      4  C   UNL     1     -17.695  -8.981  44.074  1.00  0.00     0.000 C 
BRANCH   4   5
ATOM      5  C   UNL     1     -16.707 -10.163  44.140  1.00  0.00     0.000 C 
BRANCH   5   6
ATOM      6  C   UNL     1     -15.554  -9.998  45.151  1.00  0.00     0.006 C 
BRANCH   6   7
ATOM      7  C   UNL     1     -15.488 -11.095  46.224  1.00  0.00     0.053 C 
BRANCH   7   8
ATOM      8  C   UNL     1     -15.997 -10.613  47.548  1.00  0.00     0.041 C 
ATOM      9  O   UNL     1     -17.102 -10.012  47.623  1.00  0.00    -0.550 OA
ATOM     10  O   UNL     1     -15.236 -10.796  48.695  1.00  0.00    -0.550 OA
ENDBRANCH   7   8
ENDBRANCH   6   7
ENDBRANCH   5   6
ENDBRANCH   4   5
ENDBRANCH   3   4
ENDBRANCH   2   3
ENDBRANCH   1   2
BRANCH   1  11
ATOM     11  C   UNL     1     -14.994  -6.203  43.462  1.00  0.00     0.000 C 
BRANCH  11  12
ATOM     12  C   UNL     1     -14.839  -6.062  41.938  1.00  0.00    -0.000 C 
BRANCH  12  13
ATOM     13  C   UNL     1     -13.982  -4.866  41.471  1.00  0.00    -0.000 C 
BRANCH  13  14
ATOM     14  C   UNL     1     -13.822  -4.727  39.946  1.00  0.00    -0.000 C 
BRANCH  14  15
ATOM     15  C   UNL     1     -14.067  -6.049  39.198  1.00  0.00    -0.000 C 
BRANCH  15  16
ATOM     16  C   UNL     1     -15.123  -5.912  38.090  1.00  0.00    -0.000 C 
BRANCH  16  17
ATOM     17  C   UNL     1     -16.469  -6.545  38.471  1.00  0.00    -0.003 C 
ATOM     18  C   UNL     1     -17.343  -5.556  39.237  1.00  0.00     0.004 C 
ENDBRANCH  16  17
ENDBRANCH  15  16
ENDBRANCH  14  15
ENDBRANCH  13  14
ENDBRANCH  12  13
ENDBRANCH  11  12
ENDBRANCH   1  11
TORSDOF 14
ENDMDL
MODEL 7
REMARK VINA RESULT:    -5.305      3.262      7.308
REMARK INTER + INTRA:         -10.454
REMARK INTER:                  -9.773
REMARK INTRA:                  -0.682
REMARK UNBOUND:                -0.807
REMARK SMILES CCCCCCCCCCCCCCCC(=O)[O-]
REMARK SMILES IDX 9 1 10 2 11 3 12 4 13 5 14 6 15 7 16 8 17 9 18 10 8 11 7 12
REMARK SMILES IDX 6 13 5 14 4 15 3 16 2 17 1 18
REMARK H PARENT
REMARK Flexibility Score: inf
ROOT
ATOM      1  C   UNL     1     -16.891  -5.854  39.237  1.00  0.00     0.000 C 
ENDROOT
BRANCH   1   2
ATOM      2  C   UNL     1     -15.873  -5.941  38.087  1.00  0.00     0.000 C 
BRANCH   2   3
ATOM      3  C   UNL     1     -14.440  -5.610  38.543  1.00  0.00     0.000 C 
BRANCH   3   4
ATOM      4  C   UNL     1     -13.523  -6.846  38.570  1.00  0.00     0.000 C 
BRANCH   4   5
ATOM      5  C   UNL     1     -13.042  -7.336  37.188  1.00  0.00     0.000 C 
BRANCH   5   6
ATOM      6  C   UNL     1     -11.758  -8.189  37.206  1.00  0.00     0.006 C 
BRANCH   6   7
ATOM      7  C   UNL     1     -11.394  -8.759  38.585  1.00  0.00     0.053 C 
BRANCH   7   8
ATOM      8  C   UNL     1     -10.235  -9.706  38.509  1.00  0.00     0.041 C 
ATOM      9  O   UNL     1      -9.795 -10.255  39.554  1.00  0.00    -0.550 OA
ATOM     10  O   UNL     1      -9.619  -9.956  37.290  1.00  0.00    -0.550 OA
ENDBRANCH   7   8
ENDBRANCH   6   7
ENDBRANCH   5   6
ENDBRANCH   4   5
ENDBRANCH   3   4
ENDBRANCH   2   3
ENDBRANCH   1   2
BRANCH   1  11
ATOM     11  C   UNL     1     -17.749  -7.125  39.361  1.00  0.00     0.000 C 
BRANCH  11  12
ATOM     12  C   UNL     1     -18.122  -7.452  40.817  1.00  0.00    -0.000 C 
BRANCH  12  13
ATOM     13  C   UNL     1     -17.299  -6.707  41.891  1.00  0.00    -0.000 C 
BRANCH  13  14
ATOM     14  C   UNL     1     -17.494  -7.208  43.333  1.00  0.00    -0.000 C 
BRANCH  14  15
ATOM     15  C   UNL     1     -17.495  -8.743  43.437  1.00  0.00    -0.000 C 
BRANCH  15  16
ATOM     16  C   UNL     1     -17.148  -9.238  44.850  1.00  0.00    -0.000 C 
BRANCH  16  17
ATOM     17  C   UNL     1     -15.671  -9.631  44.994  1.00  0.00    -0.003 C 
ATOM     18  C   UNL     1     -15.525 -10.957  45.735  1.00  0.00     0.004 C 
ENDBRANCH  16  17
ENDBRANCH  15  16
ENDBRANCH  14  15
ENDBRANCH  13  14
ENDBRANCH  12  13
ENDBRANCH  11  12
ENDBRANCH   1  11
TORSDOF 14
ENDMDL
MODEL 8
REMARK VINA RESULT:    -5.229      2.884      4.958
REMARK INTER + INTRA:         -10.316
REMARK INTER:                  -9.155
REMARK INTRA:                  -1.161
REMARK UNBOUND:                -0.807
REMARK SMILES CCCCCCCCCCCCCCCC(=O)[O-]
REMARK SMILES IDX 9 1 10 2 11 3 12 4 13 5 14 6 15 7 16 8 17 9 18 10 8 11 7 12
REMARK SMILES IDX 6 13 5 14 4 15 3 16 2 17 1 18
REMARK H PARENT
REMARK Flexibility Score: inf
ROOT
ATOM      1  C   UNL     1     -17.297  -9.202  43.493  1.00  0.00     0.000 C 
ENDROOT
BRANCH   1   2
ATOM      2  C   UNL     1     -16.900 -10.285  44.510  1.00  0.00     0.000 C 
BRANCH   2   3
ATOM      3  C   UNL     1     -15.406 -10.232  44.874  1.00  0.00     0.000 C 
BRANCH   3   4
ATOM      4  C   UNL     1     -15.142 -10.545  46.358  1.00  0.00     0.000 C 
BRANCH   4   5
ATOM      5  C   UNL     1     -16.397 -10.574  47.255  1.00  0.00     0.000 C 
BRANCH   5   6
ATOM      6  C   UNL     1     -16.516  -9.404  48.253  1.00  0.00     0.006 C 
BRANCH   6   7
ATOM      7  C   UNL     1     -16.611  -8.018  47.597  1.00  0.00     0.053 C 
BRANCH   7   8
ATOM      8  C   UNL     1     -15.485  -7.124  48.016  1.00  0.00     0.041 C 
ATOM      9  O   UNL     1     -15.566  -5.879  47.844  1.00  0.00    -0.550 OA
ATOM     10  O   UNL     1     -14.331  -7.668  48.564  1.00  0.00    -0.550 OA
ENDBRANCH   7   8
ENDBRANCH   6   7
ENDBRANCH   5   6
ENDBRANCH   4   5
ENDBRANCH   3   4
ENDBRANCH   2   3
ENDBRANCH   1   2
BRANCH   1  11
ATOM     11  C   UNL     1     -17.581  -7.845  44.159  1.00  0.00     0.000 C 
BRANCH  11  12
ATOM     12  C   UNL     1     -17.800  -6.714  43.138  1.00  0.00    -0.000 C 
BRANCH  12  13
ATOM     13  C   UNL     1     -17.083  -6.903  41.784  1.00  0.00    -0.000 C 
BRANCH  13  14
ATOM     14  C   UNL     1     -18.001  -7.236  40.594  1.00  0.00    -0.000 C 
BRANCH  14  15
ATOM     15  C   UNL     1     -17.364  -6.895  39.236  1.00  0.00    -0.000 C 
BRANCH  15  16
ATOM     16  C   UNL     1     -16.813  -5.460  39.187  1.00  0.00    -0.000 C 
BRANCH  16  17
ATOM     17  C   UNL     1     -15.317  -5.411  38.847  1.00  0.00    -0.003 C 
ATOM     18  C   UNL     1     -15.012  -6.226  37.593  1.00  0.00     0.004 C 
ENDBRANCH  16  17
ENDBRANCH  15  16
ENDBRANCH  14  15
ENDBRANCH  13  14
ENDBRANCH  12  13
ENDBRANCH  11  12
ENDBRANCH   1  11
TORSDOF 14
ENDMDL
MODEL 9
REMARK VINA RESULT:    -5.213      4.737      8.042
REMARK INTER + INTRA:         -10.286
REMARK INTER:                  -7.809
REMARK INTRA:                  -2.476
REMARK UNBOUND:                -0.807
REMARK SMILES CCCCCCCCCCCCCCCC(=O)[O-]
REMARK SMILES IDX 9 1 10 2 11 3 12 4 13 5 14 6 15 7 16 8 17 9 18 10 8 11 7 12
REMARK SMILES IDX 6 13 5 14 4 15 3 16 2 17 1 18
REMARK H PARENT
REMARK Flexibility Score: inf
ROOT
ATOM      1  C   UNL     1     -15.073 -11.334  47.642  1.00  0.00     0.000 C 
ENDROOT
BRANCH   1   2
ATOM      2  C   UNL     1     -14.011 -10.885  46.624  1.00  0.00     0.000 C 
BRANCH   2   3
ATOM      3  C   UNL     1     -14.631 -10.239  45.372  1.00  0.00     0.000 C 
BRANCH   3   4
ATOM      4  C   UNL     1     -15.881 -10.986  44.873  1.00  0.00     0.000 C 
BRANCH   4   5
ATOM      5  C   UNL     1     -16.947 -10.100  44.196  1.00  0.00     0.000 C 
BRANCH   5   6
ATOM      6  C   UNL     1     -16.603  -8.599  44.126  1.00  0.00     0.006 C 
BRANCH   6   7
ATOM      7  C   UNL     1     -17.727  -7.715  43.565  1.00  0.00     0.053 C 
BRANCH   7   8
ATOM      8  C   UNL     1     -17.327  -7.048  42.285  1.00  0.00     0.041 C 
ATOM      9  O   UNL     1     -18.076  -7.114  41.274  1.00  0.00    -0.550 OA
ATOM     10  O   UNL     1     -16.112  -6.382  42.197  1.00  0.00    -0.550 OA
ENDBRANCH   7   8
ENDBRANCH   6   7
ENDBRANCH   5   6
ENDBRANCH   4   5
ENDBRANCH   3   4
ENDBRANCH   2   3
ENDBRANCH   1   2
BRANCH   1  11
ATOM     11  C   UNL     1     -14.926 -10.626  48.999  1.00  0.00     0.000 C 
BRANCH  11  12
ATOM     12  C   UNL     1     -16.014  -9.564  49.237  1.00  0.00    -0.000 C 
BRANCH  12  13
ATOM     13  C   UNL     1     -16.870  -9.210  48.002  1.00  0.00    -0.000 C 
BRANCH  13  14
ATOM     14  C   UNL     1     -16.698  -7.775  47.472  1.00  0.00    -0.000 C 
BRANCH  14  15
ATOM     15  C   UNL     1     -15.466  -7.065  48.061  1.00  0.00    -0.000 C 
BRANCH  15  16
ATOM     16  C   UNL     1     -14.306  -6.969  47.057  1.00  0.00    -0.000 C 
BRANCH  16  17
ATOM     17  C   UNL     1     -13.021  -7.634  47.571  1.00  0.00    -0.003 C 
ATOM     18  C   UNL     1     -12.872  -7.449  49.079  1.00  0.00     0.004 C 
ENDBRANCH  16  17
ENDBRANCH  15  16
ENDBRANCH  14  15
ENDBRANCH  13  14
ENDBRANCH  12  13
ENDBRANCH  11  12
ENDBRANCH   1  11
TORSDOF 14
ENDMDL
