MODEL 1
REMARK VINA RESULT:    -3.436      0.000      0.000
REMARK INTER + INTRA:          -6.717
REMARK INTER:                  -5.243
REMARK INTRA:                  -1.473
REMARK UNBOUND:                -1.473
REMARK SMILES CCCCCCCCCC=CC(=O)[O-]
REMARK SMILES IDX 7 1 8 2 9 3 10 4 11 5 12 6 13 7 14 8 6 9 5 10 4 11 3 12 2 13
REMARK SMILES IDX 1 14
REMARK H PARENT
REMARK Flexibility Score: inf
ROOT
ATOM      1  C   UNL     1       5.829 -16.532  15.090  1.00  0.00     0.000 C 
ENDROOT
BRANCH   1   2
ATOM      2  C   UNL     1       6.517 -15.224  14.664  1.00  0.00     0.004 C 
BRANCH   2   3
ATOM      3  C   UNL     1       6.314 -14.088  15.677  1.00  0.00     0.027 C 
BRANCH   3   4
ATOM      4  C   UNL     1       6.390 -12.746  15.007  1.00  0.00    -0.025 C 
ATOM      5  C   UNL     1       5.671 -12.470  13.914  1.00  0.00     0.020 C 
BRANCH   5   6
ATOM      6  C   UNL     1       5.725 -11.157  13.255  1.00  0.00     0.064 C 
ATOM      7  O   UNL     1       4.825 -10.309  13.487  1.00  0.00    -0.545 OA
ATOM      8  O   UNL     1       6.755 -10.838  12.377  1.00  0.00    -0.545 OA
ENDBRANCH   5   6
ENDBRANCH   3   4
ENDBRANCH   2   3
ENDBRANCH   1   2
BRANCH   1   9
ATOM      9  C   UNL     1       4.486 -16.818  14.388  1.00  0.00     0.000 C 
BRANCH   9  10
ATOM     10  C   UNL     1       3.247 -16.200  15.068  1.00  0.00     0.000 C 
BRANCH  10  11
ATOM     11  C   UNL     1       2.643 -14.989  14.333  1.00  0.00    -0.000 C 
BRANCH  11  12
ATOM     12  C   UNL     1       2.451 -13.772  15.253  1.00  0.00    -0.000 C 
BRANCH  12  13
ATOM     13  C   UNL     1       2.723 -14.101  16.729  1.00  0.00    -0.003 C 
ATOM     14  C   UNL     1       3.301 -12.914  17.500  1.00  0.00     0.004 C 
ENDBRANCH  12  13
ENDBRANCH  11  12
ENDBRANCH  10  11
ENDBRANCH   9  10
ENDBRANCH   1   9
TORSDOF 9
ENDMDL
MODEL 2
REMARK VINA RESULT:    -3.361      1.576      2.197
REMARK INTER + INTRA:          -6.602
REMARK INTER:                  -5.294
REMARK INTRA:                  -1.308
REMARK UNBOUND:                -1.473
REMARK SMILES CCCCCCCCCC=CC(=O)[O-]
REMARK SMILES IDX 7 1 8 2 9 3 10 4 11 5 12 6 13 7 14 8 6 9 5 10 4 11 3 12 2 13
REMARK SMILES IDX 1 14
REMARK H PARENT
REMARK Flexibility Score: inf
ROOT
ATOM      1  C   UNL     1       7.357 -17.133  14.352  1.00  0.00     0.000 C 
ENDROOT
BRANCH   1   2
ATOM      2  C   UNL     1       6.996 -15.646  14.184  1.00  0.00     0.004 C 
BRANCH   2   3
ATOM      3  C   UNL     1       7.096 -14.857  15.497  1.00  0.00     0.027 C 
BRANCH   3   4
ATOM      4  C   UNL     1       6.308 -13.581  15.421  1.00  0.00    -0.025 C 
ATOM      5  C   UNL     1       5.625 -13.247  14.321  1.00  0.00     0.020 C 
BRANCH   5   6
ATOM      6  C   UNL     1       4.839 -12.006  14.237  1.00  0.00     0.064 C 
ATOM      7  O   UNL     1       3.940 -11.783  15.088  1.00  0.00    -0.545 OA
ATOM      8  O   UNL     1       5.074 -11.077  13.230  1.00  0.00    -0.545 OA
ENDBRANCH   5   6
ENDBRANCH   3   4
ENDBRANCH   2   3
ENDBRANCH   1   2
BRANCH   1   9
ATOM      9  C   UNL     1       6.265 -18.122  13.897  1.00  0.00     0.000 C 
BRANCH   9  10
ATOM     10  C   UNL     1       4.817 -17.613  14.045  1.00  0.00     0.000 C 
BRANCH  10  11
ATOM     11  C   UNL     1       4.281 -17.594  15.487  1.00  0.00    -0.000 C 
BRANCH  11  12
ATOM     12  C   UNL     1       3.595 -16.266  15.850  1.00  0.00    -0.000 C 
BRANCH  12  13
ATOM     13  C   UNL     1       2.996 -15.560  14.623  1.00  0.00    -0.003 C 
ATOM     14  C   UNL     1       1.653 -14.896  14.924  1.00  0.00     0.004 C 
ENDBRANCH  12  13
ENDBRANCH  11  12
ENDBRANCH  10  11
ENDBRANCH   9  10
ENDBRANCH   1   9
TORSDOF 9
ENDMDL
MODEL 3
REMARK VINA RESULT:    -3.321      2.820      4.710
REMARK INTER + INTRA:          -6.542
REMARK INTER:                  -5.077
REMARK INTRA:                  -1.465
REMARK UNBOUND:                -1.473
REMARK SMILES CCCCCCCCCC=CC(=O)[O-]
REMARK SMILES IDX 7 1 8 2 9 3 10 4 11 5 12 6 13 7 14 8 6 9 5 10 4 11 3 12 2 13
REMARK SMILES IDX 1 14
REMARK H PARENT
REMARK Flexibility Score: inf
ROOT
ATOM      1  C   UNL     1       5.994 -18.703  16.618  1.00  0.00     0.000 C 
ENDROOT
BRANCH   1   2
ATOM      2  C   UNL     1       4.494 -18.361  16.594  1.00  0.00     0.004 C 
BRANCH   2   3
ATOM      3  C   UNL     1       4.160 -17.096  17.397  1.00  0.00     0.027 C 
BRANCH   3   4
ATOM      4  C   UNL     1       3.927 -15.923  16.487  1.00  0.00    -0.025 C 
ATOM      5  C   UNL     1       3.162 -16.030  15.396  1.00  0.00     0.020 C 
BRANCH   5   6
ATOM      6  C   UNL     1       2.913 -14.888  14.502  1.00  0.00     0.064 C 
ATOM      7  O   UNL     1       3.845 -14.079  14.256  1.00  0.00    -0.545 OA
ATOM      8  O   UNL     1       1.664 -14.688  13.927  1.00  0.00    -0.545 OA
ENDBRANCH   5   6
ENDBRANCH   3   4
ENDBRANCH   2   3
ENDBRANCH   1   2
BRANCH   1   9
ATOM      9  C   UNL     1       6.540 -19.325  15.317  1.00  0.00     0.000 C 
BRANCH   9  10
ATOM     10  C   UNL     1       5.738 -18.989  14.043  1.00  0.00     0.000 C 
BRANCH  10  11
ATOM     11  C   UNL     1       6.468 -18.078  13.041  1.00  0.00    -0.000 C 
BRANCH  11  12
ATOM     12  C   UNL     1       7.528 -17.187  13.709  1.00  0.00    -0.000 C 
BRANCH  12  13
ATOM     13  C   UNL     1       6.943 -15.864  14.227  1.00  0.00    -0.003 C 
ATOM     14  C   UNL     1       7.541 -15.440  15.569  1.00  0.00     0.004 C 
ENDBRANCH  12  13
ENDBRANCH  11  12
ENDBRANCH  10  11
ENDBRANCH   9  10
ENDBRANCH   1   9
TORSDOF 9
ENDMDL
MODEL 4
REMARK VINA RESULT:    -3.315      5.821      7.422
REMARK INTER + INTRA:          -6.533
REMARK INTER:                  -5.723
REMARK INTRA:                  -0.809
REMARK UNBOUND:                -1.473
REMARK SMILES CCCCCCCCCC=CC(=O)[O-]
REMARK SMILES IDX 7 1 8 2 9 3 10 4 11 5 12 6 13 7 14 8 6 9 5 10 4 11 3 12 2 13
REMARK SMILES IDX 1 14
REMARK H PARENT
REMARK Flexibility Score: inf
ROOT
ATOM      1  C   UNL     1       4.043 -17.388  17.197  1.00  0.00     0.000 C 
ENDROOT
BRANCH   1   2
ATOM      2  C   UNL     1       5.030 -18.009  18.202  1.00  0.00     0.004 C 
BRANCH   2   3
ATOM      3  C   UNL     1       4.598 -19.405  18.674  1.00  0.00     0.027 C 
BRANCH   3   4
ATOM      4  C   UNL     1       3.149 -19.418  19.068  1.00  0.00    -0.025 C 
ATOM      5  C   UNL     1       2.375 -20.486  18.844  1.00  0.00     0.020 C 
BRANCH   5   6
ATOM      6  C   UNL     1       0.958 -20.519  19.236  1.00  0.00     0.064 C 
ATOM      7  O   UNL     1       0.128 -21.123  18.510  1.00  0.00    -0.545 OA
ATOM      8  O   UNL     1       0.522 -19.891  20.397  1.00  0.00    -0.545 OA
ENDBRANCH   5   6
ENDBRANCH   3   4
ENDBRANCH   2   3
ENDBRANCH   1   2
BRANCH   1   9
ATOM      9  C   UNL     1       4.149 -17.935  15.760  1.00  0.00     0.000 C 
BRANCH   9  10
ATOM     10  C   UNL     1       4.527 -16.892  14.688  1.00  0.00     0.000 C 
BRANCH  10  11
ATOM     11  C   UNL     1       4.941 -15.517  15.240  1.00  0.00    -0.000 C 
BRANCH  11  12
ATOM     12  C   UNL     1       4.016 -14.383  14.767  1.00  0.00    -0.000 C 
BRANCH  12  13
ATOM     13  C   UNL     1       2.685 -14.906  14.202  1.00  0.00    -0.003 C 
ATOM     14  C   UNL     1       1.509 -14.669  15.150  1.00  0.00     0.004 C 
ENDBRANCH  12  13
ENDBRANCH  11  12
ENDBRANCH  10  11
ENDBRANCH   9  10
ENDBRANCH   1   9
TORSDOF 9
ENDMDL
MODEL 5
REMARK VINA RESULT:    -3.309      1.493      3.865
REMARK INTER + INTRA:          -6.523
REMARK INTER:                  -5.305
REMARK INTRA:                  -1.218
REMARK UNBOUND:                -1.473
REMARK SMILES CCCCCCCCCC=CC(=O)[O-]
REMARK SMILES IDX 7 1 8 2 9 3 10 4 11 5 12 6 13 7 14 8 6 9 5 10 4 11 3 12 2 13
REMARK SMILES IDX 1 14
REMARK H PARENT
REMARK Flexibility Score: inf
ROOT
ATOM      1  C   UNL     1       3.483 -16.259  14.798  1.00  0.00     0.000 C 
ENDROOT
BRANCH   1   2
ATOM      2  C   UNL     1       2.341 -15.231  14.875  1.00  0.00     0.004 C 
BRANCH   2   3
ATOM      3  C   UNL     1       2.800 -13.871  15.420  1.00  0.00     0.027 C 
BRANCH   3   4
ATOM      4  C   UNL     1       3.705 -13.175  14.444  1.00  0.00    -0.025 C 
ATOM      5  C   UNL     1       4.665 -12.340  14.857  1.00  0.00     0.020 C 
BRANCH   5   6
ATOM      6  C   UNL     1       5.568 -11.662  13.915  1.00  0.00     0.064 C 
ATOM      7  O   UNL     1       5.086 -10.938  13.006  1.00  0.00    -0.545 OA
ATOM      8  O   UNL     1       6.946 -11.809  14.014  1.00  0.00    -0.545 OA
ENDBRANCH   5   6
ENDBRANCH   3   4
ENDBRANCH   2   3
ENDBRANCH   1   2
BRANCH   1   9
ATOM      9  C   UNL     1       4.270 -16.455  16.109  1.00  0.00     0.000 C 
BRANCH   9  10
ATOM     10  C   UNL     1       5.771 -16.108  16.031  1.00  0.00     0.000 C 
BRANCH  10  11
ATOM     11  C   UNL     1       6.300 -15.839  14.611  1.00  0.00    -0.000 C 
BRANCH  11  12
ATOM     12  C   UNL     1       7.154 -16.995  14.065  1.00  0.00    -0.000 C 
BRANCH  12  13
ATOM     13  C   UNL     1       6.334 -17.987  13.226  1.00  0.00    -0.003 C 
ATOM     14  C   UNL     1       5.991 -19.265  13.992  1.00  0.00     0.004 C 
ENDBRANCH  12  13
ENDBRANCH  11  12
ENDBRANCH  10  11
ENDBRANCH   9  10
ENDBRANCH   1   9
TORSDOF 9
ENDMDL
MODEL 6
REMARK VINA RESULT:    -3.282      3.752      5.140
REMARK INTER + INTRA:          -6.482
REMARK INTER:                  -5.046
REMARK INTRA:                  -1.435
REMARK UNBOUND:                -1.473
REMARK SMILES CCCCCCCCCC=CC(=O)[O-]
REMARK SMILES IDX 7 1 8 2 9 3 10 4 11 5 12 6 13 7 14 8 6 9 5 10 4 11 3 12 2 13
REMARK SMILES IDX 1 14
REMARK H PARENT
REMARK Flexibility Score: inf
ROOT
ATOM      1  C   UNL     1       6.377 -13.535  15.788  1.00  0.00     0.000 C 
ENDROOT
BRANCH   1   2
ATOM      2  C   UNL     1       7.018 -14.926  15.641  1.00  0.00     0.004 C 
BRANCH   2   3
ATOM      3  C   UNL     1       6.905 -15.487  14.217  1.00  0.00     0.027 C 
BRANCH   3   4
ATOM      4  C   UNL     1       7.077 -16.979  14.207  1.00  0.00    -0.025 C 
ATOM      5  C   UNL     1       6.336 -17.760  13.415  1.00  0.00     0.020 C 
BRANCH   5   6
ATOM      6  C   UNL     1       6.502 -19.222  13.385  1.00  0.00     0.064 C 
ATOM      7  O   UNL     1       7.331 -19.736  12.591  1.00  0.00    -0.545 OA
ATOM      8  O   UNL     1       5.754 -20.044  14.220  1.00  0.00    -0.545 OA
ENDBRANCH   5   6
ENDBRANCH   3   4
ENDBRANCH   2   3
ENDBRANCH   1   2
BRANCH   1   9
ATOM      9  C   UNL     1       5.901 -12.897  14.468  1.00  0.00     0.000 C 
BRANCH   9  10
ATOM     10  C   UNL     1       4.379 -12.669  14.361  1.00  0.00     0.000 C 
BRANCH  10  11
ATOM     11  C   UNL     1       3.519 -13.644  15.184  1.00  0.00    -0.000 C 
BRANCH  11  12
ATOM     12  C   UNL     1       3.007 -14.832  14.352  1.00  0.00    -0.000 C 
BRANCH  12  13
ATOM     13  C   UNL     1       3.307 -16.186  15.015  1.00  0.00    -0.003 C 
ATOM     14  C   UNL     1       3.723 -16.046  16.479  1.00  0.00     0.004 C 
ENDBRANCH  12  13
ENDBRANCH  11  12
ENDBRANCH  10  11
ENDBRANCH   9  10
ENDBRANCH   1   9
TORSDOF 9
ENDMDL
MODEL 7
REMARK VINA RESULT:    -3.242      2.804      4.970
REMARK INTER + INTRA:          -6.421
REMARK INTER:                  -4.877
REMARK INTRA:                  -1.544
REMARK UNBOUND:                -1.473
REMARK SMILES CCCCCCCCCC=CC(=O)[O-]
REMARK SMILES IDX 7 1 8 2 9 3 10 4 11 5 12 6 13 7 14 8 6 9 5 10 4 11 3 12 2 13
REMARK SMILES IDX 1 14
REMARK H PARENT
REMARK Flexibility Score: inf
ROOT
ATOM      1  C   UNL     1       6.604 -15.847  16.783  1.00  0.00     0.000 C 
ENDROOT
BRANCH   1   2
ATOM      2  C   UNL     1       5.955 -17.200  17.120  1.00  0.00     0.004 C 
BRANCH   2   3
ATOM      3  C   UNL     1       4.424 -17.166  17.027  1.00  0.00     0.027 C 
BRANCH   3   4
ATOM      4  C   UNL     1       3.953 -15.940  16.298  1.00  0.00    -0.025 C 
ATOM      5  C   UNL     1       3.408 -16.020  15.080  1.00  0.00     0.020 C 
BRANCH   5   6
ATOM      6  C   UNL     1       2.931 -14.830  14.358  1.00  0.00     0.064 C 
ATOM      7  O   UNL     1       1.769 -14.821  13.877  1.00  0.00    -0.545 OA
ATOM      8  O   UNL     1       3.746 -13.716  14.199  1.00  0.00    -0.545 OA
ENDBRANCH   5   6
ENDBRANCH   3   4
ENDBRANCH   2   3
ENDBRANCH   1   2
BRANCH   1   9
ATOM      9  C   UNL     1       7.664 -15.894  15.665  1.00  0.00     0.000 C 
BRANCH   9  10
ATOM     10  C   UNL     1       7.101 -15.963  14.231  1.00  0.00     0.000 C 
BRANCH  10  11
ATOM     11  C   UNL     1       7.288 -17.319  13.527  1.00  0.00    -0.000 C 
BRANCH  11  12
ATOM     12  C   UNL     1       5.981 -18.124  13.431  1.00  0.00    -0.000 C 
BRANCH  12  13
ATOM     13  C   UNL     1       6.071 -19.480  14.149  1.00  0.00    -0.003 C 
ATOM     14  C   UNL     1       7.402 -19.675  14.875  1.00  0.00     0.004 C 
ENDBRANCH  12  13
ENDBRANCH  11  12
ENDBRANCH  10  11
ENDBRANCH   9  10
ENDBRANCH   1   9
TORSDOF 9
ENDMDL
MODEL 8
REMARK VINA RESULT:    -3.178      1.132      3.033
REMARK INTER + INTRA:          -6.323
REMARK INTER:                  -4.822
REMARK INTRA:                  -1.501
REMARK UNBOUND:                -1.473
REMARK SMILES CCCCCCCCCC=CC(=O)[O-]
REMARK SMILES IDX 7 1 8 2 9 3 10 4 11 5 12 6 13 7 14 8 6 9 5 10 4 11 3 12 2 13
REMARK SMILES IDX 1 14
REMARK H PARENT
REMARK Flexibility Score: inf
ROOT
ATOM      1  C   UNL     1       2.576 -14.196  16.727  1.00  0.00     0.000 C 
ENDROOT
BRANCH   1   2
ATOM      2  C   UNL     1       3.300 -12.859  16.963  1.00  0.00     0.004 C 
BRANCH   2   3
ATOM      3  C   UNL     1       3.156 -11.888  15.783  1.00  0.00     0.027 C 
BRANCH   3   4
ATOM      4  C   UNL     1       4.496 -11.376  15.337  1.00  0.00    -0.025 C 
ATOM      5  C   UNL     1       4.914 -11.523  14.076  1.00  0.00     0.020 C 
BRANCH   5   6
ATOM      6  C   UNL     1       6.217 -11.016  13.621  1.00  0.00     0.064 C 
ATOM      7  O   UNL     1       6.979 -10.440  14.439  1.00  0.00    -0.545 OA
ATOM      8  O   UNL     1       6.620 -11.162  12.298  1.00  0.00    -0.545 OA
ENDBRANCH   5   6
ENDBRANCH   3   4
ENDBRANCH   2   3
ENDBRANCH   1   2
BRANCH   1   9
ATOM      9  C   UNL     1       2.057 -14.409  15.291  1.00  0.00     0.000 C 
BRANCH   9  10
ATOM     10  C   UNL     1       2.951 -15.289  14.394  1.00  0.00     0.000 C 
BRANCH  10  11
ATOM     11  C   UNL     1       3.709 -16.406  15.133  1.00  0.00    -0.000 C 
BRANCH  11  12
ATOM     12  C   UNL     1       5.220 -16.392  14.842  1.00  0.00    -0.000 C 
BRANCH  12  13
ATOM     13  C   UNL     1       5.801 -14.969  14.823  1.00  0.00    -0.003 C 
ATOM     14  C   UNL     1       6.460 -14.584  16.147  1.00  0.00     0.004 C 
ENDBRANCH  12  13
ENDBRANCH  11  12
ENDBRANCH  10  11
ENDBRANCH   9  10
ENDBRANCH   1   9
TORSDOF 9
ENDMDL
MODEL 9
REMARK VINA RESULT:    -3.167      1.662      2.669
REMARK INTER + INTRA:          -6.306
REMARK INTER:                  -4.838
REMARK INTRA:                  -1.468
REMARK UNBOUND:                -1.473
REMARK SMILES CCCCCCCCCC=CC(=O)[O-]
REMARK SMILES IDX 7 1 8 2 9 3 10 4 11 5 12 6 13 7 14 8 6 9 5 10 4 11 3 12 2 13
REMARK SMILES IDX 1 14
REMARK H PARENT
REMARK Flexibility Score: inf
ROOT
ATOM      1  C   UNL     1       3.809 -16.298  14.717  1.00  0.00     0.000 C 
ENDROOT
BRANCH   1   2
ATOM      2  C   UNL     1       2.477 -15.541  14.854  1.00  0.00     0.004 C 
BRANCH   2   3
ATOM      3  C   UNL     1       2.670 -14.050  15.166  1.00  0.00     0.027 C 
BRANCH   3   4
ATOM      4  C   UNL     1       3.782 -13.465  14.343  1.00  0.00    -0.025 C 
ATOM      5  C   UNL     1       4.396 -12.334  14.706  1.00  0.00     0.020 C 
BRANCH   5   6
ATOM      6  C   UNL     1       5.496 -11.756  13.918  1.00  0.00     0.064 C 
ATOM      7  O   UNL     1       5.233 -11.008  12.941  1.00  0.00    -0.545 OA
ATOM      8  O   UNL     1       6.822 -12.024  14.236  1.00  0.00    -0.545 OA
ENDBRANCH   5   6
ENDBRANCH   3   4
ENDBRANCH   2   3
ENDBRANCH   1   2
BRANCH   1   9
ATOM      9  C   UNL     1       4.047 -17.392  15.776  1.00  0.00     0.000 C 
BRANCH   9  10
ATOM     10  C   UNL     1       4.952 -16.979  16.955  1.00  0.00     0.000 C 
BRANCH  10  11
ATOM     11  C   UNL     1       5.616 -15.598  16.807  1.00  0.00    -0.000 C 
BRANCH  11  12
ATOM     12  C   UNL     1       5.149 -14.597  17.877  1.00  0.00    -0.000 C 
BRANCH  12  13
ATOM     13  C   UNL     1       3.904 -15.084  18.636  1.00  0.00    -0.003 C 
ATOM     14  C   UNL     1       2.844 -13.994  18.789  1.00  0.00     0.004 C 
ENDBRANCH  12  13
ENDBRANCH  11  12
ENDBRANCH  10  11
ENDBRANCH   9  10
ENDBRANCH   1   9
TORSDOF 9
ENDMDL
