MODEL 1
REMARK VINA RESULT:    -3.373      0.000      0.000
REMARK INTER + INTRA:          -4.261
REMARK INTER:                  -4.162
REMARK INTRA:                  -0.099
REMARK UNBOUND:                -0.099
REMARK SMILES CCCCCC(=O)[O-]
REMARK SMILES IDX 4 1 5 2 6 3 7 4 8 5 3 6 2 7 1 8
REMARK H PARENT
REMARK Flexibility Score: inf
ROOT
ATOM      1  C   UNL     1       0.386   4.949   6.931  1.00  0.00     0.006 C 
ENDROOT
BRANCH   1   2
ATOM      2  C   UNL     1      -0.726   5.916   6.505  1.00  0.00     0.053 C 
BRANCH   2   3
ATOM      3  C   UNL     1      -0.674   6.151   5.028  1.00  0.00     0.041 C 
ATOM      4  O   UNL     1      -1.244   7.155   4.526  1.00  0.00    -0.550 OA
ATOM      5  O   UNL     1      -0.036   5.236   4.200  1.00  0.00    -0.550 OA
ENDBRANCH   2   3
ENDBRANCH   1   2
BRANCH   1   6
ATOM      6  C   UNL     1       0.095   4.271   8.280  1.00  0.00     0.000 C 
BRANCH   6   7
ATOM      7  C   UNL     1       0.735   2.879   8.392  1.00  0.00    -0.003 C 
ATOM      8  C   UNL     1       1.437   2.492   7.093  1.00  0.00     0.004 C 
ENDBRANCH   6   7
ENDBRANCH   1   6
TORSDOF 4
ENDMDL
MODEL 2
REMARK VINA RESULT:    -3.073      1.435      2.158
REMARK INTER + INTRA:          -3.890
REMARK INTER:                  -3.803
REMARK INTRA:                  -0.087
REMARK UNBOUND:                -0.099
REMARK SMILES CCCCCC(=O)[O-]
REMARK SMILES IDX 4 1 5 2 6 3 7 4 8 5 3 6 2 7 1 8
REMARK H PARENT
REMARK Flexibility Score: inf
ROOT
ATOM      1  C   UNL     1       0.745   4.267   6.745  1.00  0.00     0.006 C 
ENDROOT
BRANCH   1   2
ATOM      2  C   UNL     1       1.457   4.095   5.397  1.00  0.00     0.053 C 
BRANCH   2   3
ATOM      3  C   UNL     1       0.888   5.037   4.383  1.00  0.00     0.041 C 
ATOM      4  O   UNL     1      -0.321   5.380   4.446  1.00  0.00    -0.550 OA
ATOM      5  O   UNL     1       1.681   5.497   3.339  1.00  0.00    -0.550 OA
ENDBRANCH   2   3
ENDBRANCH   1   2
BRANCH   1   6
ATOM      6  C   UNL     1       0.989   3.085   7.697  1.00  0.00     0.000 C 
BRANCH   6   7
ATOM      7  C   UNL     1       0.254   3.245   9.037  1.00  0.00    -0.003 C 
ATOM      8  C   UNL     1      -0.384   4.627   9.152  1.00  0.00     0.004 C 
ENDBRANCH   6   7
ENDBRANCH   1   6
TORSDOF 4
ENDMDL
MODEL 3
REMARK VINA RESULT:    -3.065      6.877      7.760
REMARK INTER + INTRA:          -3.880
REMARK INTER:                  -3.774
REMARK INTRA:                  -0.106
REMARK UNBOUND:                -0.099
REMARK SMILES CCCCCC(=O)[O-]
REMARK SMILES IDX 4 1 5 2 6 3 7 4 8 5 3 6 2 7 1 8
REMARK H PARENT
REMARK Flexibility Score: inf
ROOT
ATOM      1  C   UNL     1      -0.047  -2.546   6.045  1.00  0.00     0.006 C 
ENDROOT
BRANCH   1   2
ATOM      2  C   UNL     1       0.646  -1.387   5.317  1.00  0.00     0.053 C 
BRANCH   2   3
ATOM      3  C   UNL     1       2.131  -1.488   5.470  1.00  0.00     0.041 C 
ATOM      4  O   UNL     1       2.717  -0.852   6.384  1.00  0.00    -0.550 OA
ATOM      5  O   UNL     1       2.873  -2.246   4.573  1.00  0.00    -0.550 OA
ENDBRANCH   2   3
ENDBRANCH   1   2
BRANCH   1   6
ATOM      6  C   UNL     1      -1.553  -2.615   5.748  1.00  0.00     0.000 C 
BRANCH   6   7
ATOM      7  C   UNL     1      -1.878  -2.347   4.271  1.00  0.00    -0.003 C 
ATOM      8  C   UNL     1      -3.156  -1.525   4.130  1.00  0.00     0.004 C 
ENDBRANCH   6   7
ENDBRANCH   1   6
TORSDOF 4
ENDMDL
MODEL 4
REMARK VINA RESULT:    -3.063      7.047      7.605
REMARK INTER + INTRA:          -3.878
REMARK INTER:                  -3.812
REMARK INTRA:                  -0.066
REMARK UNBOUND:                -0.099
REMARK SMILES CCCCCC(=O)[O-]
REMARK SMILES IDX 4 1 5 2 6 3 7 4 8 5 3 6 2 7 1 8
REMARK H PARENT
REMARK Flexibility Score: inf
ROOT
ATOM      1  C   UNL     1      -0.357  -2.349   5.717  1.00  0.00     0.006 C 
ENDROOT
BRANCH   1   2
ATOM      2  C   UNL     1      -1.285  -2.719   4.553  1.00  0.00     0.053 C 
BRANCH   2   3
ATOM      3  C   UNL     1      -2.603  -2.025   4.697  1.00  0.00     0.041 C 
ATOM      4  O   UNL     1      -3.271  -2.148   5.757  1.00  0.00    -0.550 OA
ATOM      5  O   UNL     1      -3.116  -1.280   3.642  1.00  0.00    -0.550 OA
ENDBRANCH   2   3
ENDBRANCH   1   2
BRANCH   1   6
ATOM      6  C   UNL     1       0.940  -1.671   5.247  1.00  0.00     0.000 C 
BRANCH   6   7
ATOM      7  C   UNL     1       2.195  -2.301   5.869  1.00  0.00    -0.003 C 
ATOM      8  C   UNL     1       3.304  -2.454   4.831  1.00  0.00     0.004 C 
ENDBRANCH   6   7
ENDBRANCH   1   6
TORSDOF 4
ENDMDL
MODEL 5
REMARK VINA RESULT:    -2.948      7.648      8.273
REMARK INTER + INTRA:          -3.736
REMARK INTER:                  -3.644
REMARK INTRA:                  -0.093
REMARK UNBOUND:                -0.099
REMARK SMILES CCCCCC(=O)[O-]
REMARK SMILES IDX 4 1 5 2 6 3 7 4 8 5 3 6 2 7 1 8
REMARK H PARENT
REMARK Flexibility Score: inf
ROOT
ATOM      1  C   UNL     1      -4.907  -1.774   6.117  1.00  0.00     0.006 C 
ENDROOT
BRANCH   1   2
ATOM      2  C   UNL     1      -4.522  -0.899   4.918  1.00  0.00     0.053 C 
BRANCH   2   3
ATOM      3  C   UNL     1      -3.663  -1.671   3.965  1.00  0.00     0.041 C 
ATOM      4  O   UNL     1      -4.138  -2.655   3.340  1.00  0.00    -0.550 OA
ATOM      5  O   UNL     1      -2.325  -1.333   3.804  1.00  0.00    -0.550 OA
ENDBRANCH   2   3
ENDBRANCH   1   2
BRANCH   1   6
ATOM      6  C   UNL     1      -5.533  -0.962   7.264  1.00  0.00     0.000 C 
BRANCH   6   7
ATOM      7  C   UNL     1      -6.043   0.412   6.805  1.00  0.00    -0.003 C 
ATOM      8  C   UNL     1      -6.761   1.138   7.939  1.00  0.00     0.004 C 
ENDBRANCH   6   7
ENDBRANCH   1   6
TORSDOF 4
ENDMDL
MODEL 6
REMARK VINA RESULT:    -2.854      8.385      8.949
REMARK INTER + INTRA:          -3.621
REMARK INTER:                  -3.502
REMARK INTRA:                  -0.119
REMARK UNBOUND:                -0.099
REMARK SMILES CCCCCC(=O)[O-]
REMARK SMILES IDX 4 1 5 2 6 3 7 4 8 5 3 6 2 7 1 8
REMARK H PARENT
REMARK Flexibility Score: inf
ROOT
ATOM      1  C   UNL     1      -3.246  -1.689   3.711  1.00  0.00     0.006 C 
ENDROOT
BRANCH   1   2
ATOM      2  C   UNL     1      -2.236  -2.167   4.761  1.00  0.00     0.053 C 
BRANCH   2   3
ATOM      3  C   UNL     1      -2.086  -3.655   4.700  1.00  0.00     0.041 C 
ATOM      4  O   UNL     1      -2.393  -4.280   3.652  1.00  0.00    -0.550 OA
ATOM      5  O   UNL     1      -1.652  -4.357   5.819  1.00  0.00    -0.550 OA
ENDBRANCH   2   3
ENDBRANCH   1   2
BRANCH   1   6
ATOM      6  C   UNL     1      -4.424  -0.919   4.331  1.00  0.00     0.000 C 
BRANCH   6   7
ATOM      7  C   UNL     1      -4.682  -1.313   5.793  1.00  0.00    -0.003 C 
ATOM      8  C   UNL     1      -5.579  -0.290   6.487  1.00  0.00     0.004 C 
ENDBRANCH   6   7
ENDBRANCH   1   6
TORSDOF 4
ENDMDL
MODEL 7
REMARK VINA RESULT:    -2.819      8.382      9.012
REMARK INTER + INTRA:          -3.577
REMARK INTER:                  -3.338
REMARK INTRA:                  -0.240
REMARK UNBOUND:                -0.099
REMARK SMILES CCCCCC(=O)[O-]
REMARK SMILES IDX 4 1 5 2 6 3 7 4 8 5 3 6 2 7 1 8
REMARK H PARENT
REMARK Flexibility Score: inf
ROOT
ATOM      1  C   UNL     1      -4.028  -1.228   3.953  1.00  0.00     0.006 C 
ENDROOT
BRANCH   1   2
ATOM      2  C   UNL     1      -4.702  -0.953   5.303  1.00  0.00     0.053 C 
BRANCH   2   3
ATOM      3  C   UNL     1      -5.666  -2.047   5.637  1.00  0.00     0.041 C 
ATOM      4  O   UNL     1      -6.906  -1.844   5.564  1.00  0.00    -0.550 OA
ATOM      5  O   UNL     1      -5.195  -3.279   6.076  1.00  0.00    -0.550 OA
ENDBRANCH   2   3
ENDBRANCH   1   2
BRANCH   1   6
ATOM      6  C   UNL     1      -2.568  -1.686   4.103  1.00  0.00     0.000 C 
BRANCH   6   7
ATOM      7  C   UNL     1      -2.318  -3.072   3.489  1.00  0.00    -0.003 C 
ATOM      8  C   UNL     1      -3.593  -3.635   2.867  1.00  0.00     0.004 C 
ENDBRANCH   6   7
ENDBRANCH   1   6
TORSDOF 4
ENDMDL
MODEL 8
REMARK VINA RESULT:    -2.751      7.295      8.435
REMARK INTER + INTRA:          -3.493
REMARK INTER:                  -3.403
REMARK INTRA:                  -0.090
REMARK UNBOUND:                -0.099
REMARK SMILES CCCCCC(=O)[O-]
REMARK SMILES IDX 4 1 5 2 6 3 7 4 8 5 3 6 2 7 1 8
REMARK H PARENT
REMARK Flexibility Score: inf
ROOT
ATOM      1  C   UNL     1      -1.615  -2.887   4.748  1.00  0.00     0.006 C 
ENDROOT
BRANCH   1   2
ATOM      2  C   UNL     1      -0.647  -1.712   4.931  1.00  0.00     0.053 C 
BRANCH   2   3
ATOM      3  C   UNL     1       0.646  -2.188   5.514  1.00  0.00     0.041 C 
ATOM      4  O   UNL     1       0.660  -2.790   6.619  1.00  0.00    -0.550 OA
ATOM      5  O   UNL     1       1.843  -1.923   4.859  1.00  0.00    -0.550 OA
ENDBRANCH   2   3
ENDBRANCH   1   2
BRANCH   1   6
ATOM      6  C   UNL     1      -2.454  -2.768   3.465  1.00  0.00     0.000 C 
BRANCH   6   7
ATOM      7  C   UNL     1      -3.941  -2.510   3.754  1.00  0.00    -0.003 C 
ATOM      8  C   UNL     1      -4.187  -1.044   4.097  1.00  0.00     0.004 C 
ENDBRANCH   6   7
ENDBRANCH   1   6
TORSDOF 4
ENDMDL
MODEL 9
REMARK VINA RESULT:    -2.734     11.892     12.693
REMARK INTER + INTRA:          -3.472
REMARK INTER:                  -3.393
REMARK INTRA:                  -0.079
REMARK UNBOUND:                -0.099
REMARK SMILES CCCCCC(=O)[O-]
REMARK SMILES IDX 4 1 5 2 6 3 7 4 8 5 3 6 2 7 1 8
REMARK H PARENT
REMARK Flexibility Score: inf
ROOT
ATOM      1  C   UNL     1      -0.849  -3.429  -2.456  1.00  0.00     0.006 C 
ENDROOT
BRANCH   1   2
ATOM      2  C   UNL     1      -0.959  -3.476  -3.985  1.00  0.00     0.053 C 
BRANCH   2   3
ATOM      3  C   UNL     1      -1.189  -2.104  -4.534  1.00  0.00     0.041 C 
ATOM      4  O   UNL     1      -1.023  -1.093  -3.802  1.00  0.00    -0.550 OA
ATOM      5  O   UNL     1      -1.634  -1.942  -5.840  1.00  0.00    -0.550 OA
ENDBRANCH   2   3
ENDBRANCH   1   2
BRANCH   1   6
ATOM      6  C   UNL     1      -0.517  -4.800  -1.844  1.00  0.00     0.000 C 
BRANCH   6   7
ATOM      7  C   UNL     1      -1.768  -5.550  -1.361  1.00  0.00    -0.003 C 
ATOM      8  C   UNL     1      -2.358  -4.890  -0.118  1.00  0.00     0.004 C 
ENDBRANCH   6   7
ENDBRANCH   1   6
TORSDOF 4
ENDMDL
