MODEL 1
REMARK VINA RESULT:    -5.266      0.000      0.000
REMARK INTER + INTRA:          -8.157
REMARK INTER:                  -8.036
REMARK INTRA:                  -0.120
REMARK UNBOUND:                -0.120
REMARK SMILES CC1=CCC[C@@H](C)C(=O)C[C@@H](C(C)C)C(=O)C1
REMARK SMILES IDX 8 1 9 2 6 3 7 4 5 5 4 6 3 7 2 8 1 9 10 11 11 12 15 13 16 14
REMARK SMILES IDX 17 15 12 17 13 18 14 19
REMARK H PARENT
REMARK Flexibility Score: 70.00
ROOT
ATOM      1  C   UNL     1      -7.693  32.946  22.508  1.00  0.00     0.136 C 
ATOM      2  O   UNL     1      -7.702  32.550  21.351  1.00  0.00    -0.299 OA
ENDROOT
BRANCH   1   3
ATOM      3  C   UNL     1      -7.923  34.434  22.753  1.00  0.00     0.053 C 
ATOM      4  C   UNL     1      -7.261  35.373  21.733  1.00  0.00     0.016 C 
BRANCH   3   5
ATOM      5  C   UNL     1      -7.583  34.847  24.209  1.00  0.00     0.015 C 
BRANCH   5   6
ATOM      6  C   UNL     1      -8.768  34.804  25.192  1.00  0.00     0.028 C 
BRANCH   6   7
ATOM      7  C   UNL     1      -8.357  34.195  26.515  1.00  0.00    -0.028 C 
ATOM      8  C   UNL     1      -8.685  32.957  26.947  1.00  0.00    -0.070 CG0
ATOM      9  C   UNL     1      -8.179  32.513  28.292  1.00  0.00     0.039 C 
ATOM     10  G   UNL     1      -9.553  32.009  26.140  1.00  0.00     0.000 G0
ENDBRANCH   6   7
ENDBRANCH   5   6
ENDBRANCH   3   5
ENDBRANCH   1   3
BRANCH   1  11
ATOM     11  C   UNL     1      -7.347  31.940  23.591  1.00  0.00     0.087 C 
BRANCH  11  12
ATOM     12  C   UNL     1      -8.523  30.980  23.918  1.00  0.00     0.066 C 
BRANCH  12  13
ATOM     13  C   UNL     1      -8.730  30.946  25.427  1.00  0.00     0.140 C 
ATOM     14  O   UNL     1      -8.304  29.995  26.064  1.00  0.00    -0.299 OA
BRANCH  13  15
ATOM     15  C   UNL     1      -9.543  31.997  26.150  1.00  0.00     0.106 CG0
ATOM     16  G   UNL     1      -8.686  32.950  26.962  1.00  0.00     0.000 G0
ENDBRANCH  13  15
ENDBRANCH  12  13
BRANCH  12  17
ATOM     17  C   UNL     1      -8.272  29.542  23.351  1.00  0.00    -0.006 C 
ATOM     18  C   UNL     1      -9.001  29.304  22.014  1.00  0.00     0.008 C 
ATOM     19  C   UNL     1      -6.772  29.261  23.139  1.00  0.00     0.008 C 
ENDBRANCH  12  17
ENDBRANCH  11  12
ENDBRANCH   1  11
TORSDOF 1
ENDMDL
MODEL 2
REMARK VINA RESULT:    -5.114      1.902      4.040
REMARK INTER + INTRA:          -7.925
REMARK INTER:                  -7.682
REMARK INTRA:                  -0.243
REMARK UNBOUND:                -0.120
REMARK SMILES CC1=CCC[C@@H](C)C(=O)C[C@@H](C(C)C)C(=O)C1
REMARK SMILES IDX 8 1 9 2 6 3 7 4 5 5 4 6 3 7 2 8 1 9 10 11 11 12 15 13 16 14
REMARK SMILES IDX 17 15 12 17 13 18 14 19
REMARK H PARENT
REMARK Flexibility Score: 70.00
ROOT
ATOM      1  C   UNL     1      -7.364  29.917  23.571  1.00  0.00     0.136 C 
ATOM      2  O   UNL     1      -6.378  30.026  22.856  1.00  0.00    -0.299 OA
ENDROOT
BRANCH   1   3
ATOM      3  C   UNL     1      -8.708  29.667  22.894  1.00  0.00     0.053 C 
ATOM      4  C   UNL     1      -8.961  28.214  22.462  1.00  0.00     0.016 C 
BRANCH   3   5
ATOM      5  C   UNL     1      -8.972  30.659  21.732  1.00  0.00     0.015 C 
BRANCH   5   6
ATOM      6  C   UNL     1      -9.650  31.980  22.144  1.00  0.00     0.028 C 
BRANCH   6   7
ATOM      7  C   UNL     1      -8.623  33.055  22.427  1.00  0.00    -0.028 C 
ATOM      8  C   UNL     1      -8.356  33.586  23.641  1.00  0.00    -0.070 CG0
ATOM      9  C   UNL     1      -7.292  34.645  23.738  1.00  0.00     0.039 C 
ATOM     10  G   UNL     1      -9.096  33.173  24.900  1.00  0.00     0.000 G0
ENDBRANCH   6   7
ENDBRANCH   5   6
ENDBRANCH   3   5
ENDBRANCH   1   3
BRANCH   1  11
ATOM     11  C   UNL     1      -7.181  30.147  25.060  1.00  0.00     0.087 C 
BRANCH  11  12
ATOM     12  C   UNL     1      -8.446  30.739  25.738  1.00  0.00     0.066 C 
BRANCH  12  13
ATOM     13  C   UNL     1      -8.304  32.254  25.814  1.00  0.00     0.140 C 
ATOM     14  O   UNL     1      -7.597  32.742  26.682  1.00  0.00    -0.299 OA
BRANCH  13  15
ATOM     15  C   UNL     1      -9.098  33.181  24.920  1.00  0.00     0.106 CG0
ATOM     16  G   UNL     1      -8.350  33.563  23.656  1.00  0.00     0.000 G0
ENDBRANCH  13  15
ENDBRANCH  12  13
BRANCH  12  17
ATOM     17  C   UNL     1      -8.685  30.124  27.157  1.00  0.00    -0.006 C 
ATOM     18  C   UNL     1      -9.724  30.917  27.973  1.00  0.00     0.008 C 
ATOM     19  C   UNL     1      -9.152  28.657  27.077  1.00  0.00     0.008 C 
ENDBRANCH  12  17
ENDBRANCH  11  12
ENDBRANCH   1  11
TORSDOF 1
ENDMDL
MODEL 3
REMARK VINA RESULT:    -5.112      2.127      4.169
REMARK INTER + INTRA:          -7.922
REMARK INTER:                  -8.164
REMARK INTRA:                   0.242
REMARK UNBOUND:                -0.120
REMARK SMILES CC1=CCC[C@@H](C)C(=O)C[C@@H](C(C)C)C(=O)C1
REMARK SMILES IDX 8 1 9 2 6 3 7 4 5 5 4 6 3 7 2 8 1 9 10 11 11 12 15 13 16 14
REMARK SMILES IDX 17 15 12 17 13 18 14 19
REMARK H PARENT
REMARK Flexibility Score: 70.00
ROOT
ATOM      1  C   UNL     1      -8.217  33.178  26.063  1.00  0.00     0.136 C 
ATOM      2  O   UNL     1      -8.069  32.759  27.203  1.00  0.00    -0.299 OA
ENDROOT
BRANCH   1   3
ATOM      3  C   UNL     1      -7.842  34.630  25.785  1.00  0.00     0.053 C 
ATOM      4  C   UNL     1      -8.958  35.654  26.047  1.00  0.00     0.016 C 
BRANCH   3   5
ATOM      5  C   UNL     1      -7.222  34.815  24.376  1.00  0.00     0.015 C 
BRANCH   5   6
ATOM      6  C   UNL     1      -8.239  35.050  23.242  1.00  0.00     0.028 C 
BRANCH   6   7
ATOM      7  C   UNL     1      -7.730  34.494  21.930  1.00  0.00    -0.028 C 
ATOM      8  C   UNL     1      -8.010  33.268  21.435  1.00  0.00    -0.070 CG0
ATOM      9  C   UNL     1      -7.422  32.884  20.104  1.00  0.00     0.039 C 
ATOM     10  G   UNL     1      -8.873  32.261  22.172  1.00  0.00     0.000 G0
ENDBRANCH   6   7
ENDBRANCH   5   6
ENDBRANCH   3   5
ENDBRANCH   1   3
BRANCH   1  11
ATOM     11  C   UNL     1      -8.862  32.248  25.051  1.00  0.00     0.087 C 
BRANCH  11  12
ATOM     12  C   UNL     1      -7.855  31.240  24.434  1.00  0.00     0.066 C 
BRANCH  12  13
ATOM     13  C   UNL     1      -8.060  31.195  22.926  1.00  0.00     0.140 C 
ATOM     14  O   UNL     1      -7.475  30.345  22.271  1.00  0.00    -0.299 OA
BRANCH  13  15
ATOM     15  C   UNL     1      -8.877  32.237  22.194  1.00  0.00     0.106 CG0
ATOM     16  G   UNL     1      -8.019  33.233  21.435  1.00  0.00     0.000 G0
ENDBRANCH  13  15
ENDBRANCH  12  13
BRANCH  12  17
ATOM     17  C   UNL     1      -8.001  29.815  25.065  1.00  0.00    -0.006 C 
ATOM     18  C   UNL     1      -7.487  29.761  26.517  1.00  0.00     0.008 C 
ATOM     19  C   UNL     1      -9.463  29.328  25.053  1.00  0.00     0.008 C 
ENDBRANCH  12  17
ENDBRANCH  11  12
ENDBRANCH   1  11
TORSDOF 1
ENDMDL
MODEL 4
REMARK VINA RESULT:    -4.966      1.714      4.080
REMARK INTER + INTRA:          -7.699
REMARK INTER:                  -7.397
REMARK INTRA:                  -0.301
REMARK UNBOUND:                -0.120
REMARK SMILES CC1=CCC[C@@H](C)C(=O)C[C@@H](C(C)C)C(=O)C1
REMARK SMILES IDX 8 1 9 2 6 3 7 4 5 5 4 6 3 7 2 8 1 9 10 11 11 12 15 13 16 14
REMARK SMILES IDX 17 15 12 17 13 18 14 19
REMARK H PARENT
REMARK Flexibility Score: 70.00
ROOT
ATOM      1  C   UNL     1      -8.313  33.319  22.303  1.00  0.00     0.136 C 
ATOM      2  O   UNL     1      -7.500  34.176  21.983  1.00  0.00    -0.299 OA
ENDROOT
BRANCH   1   3
ATOM      3  C   UNL     1      -8.432  32.085  21.416  1.00  0.00     0.053 C 
ATOM      4  C   UNL     1      -9.868  31.611  21.146  1.00  0.00     0.016 C 
BRANCH   3   5
ATOM      5  C   UNL     1      -7.533  30.921  21.910  1.00  0.00     0.015 C 
BRANCH   5   6
ATOM      6  C   UNL     1      -8.286  29.761  22.590  1.00  0.00     0.028 C 
BRANCH   6   7
ATOM      7  C   UNL     1      -7.789  29.543  24.003  1.00  0.00    -0.028 C 
ATOM      8  C   UNL     1      -8.349  30.057  25.121  1.00  0.00    -0.070 CG0
ATOM      9  C   UNL     1      -7.724  29.727  26.448  1.00  0.00     0.039 C 
ATOM     10  G   UNL     1      -9.566  30.962  25.088  1.00  0.00     0.000 G0
ENDBRANCH   6   7
ENDBRANCH   5   6
ENDBRANCH   3   5
ENDBRANCH   1   3
BRANCH   1  11
ATOM     11  C   UNL     1      -9.207  33.611  23.495  1.00  0.00     0.087 C 
BRANCH  11  12
ATOM     12  C   UNL     1      -8.487  33.395  24.854  1.00  0.00     0.066 C 
BRANCH  12  13
ATOM     13  C   UNL     1      -9.251  32.352  25.659  1.00  0.00     0.140 C 
ATOM     14  O   UNL     1      -9.546  32.596  26.819  1.00  0.00    -0.299 OA
BRANCH  13  15
ATOM     15  C   UNL     1      -9.560  30.978  25.106  1.00  0.00     0.106 CG0
ATOM     16  G   UNL     1      -8.357  30.053  25.122  1.00  0.00     0.000 G0
ENDBRANCH  13  15
ENDBRANCH  12  13
BRANCH  12  17
ATOM     17  C   UNL     1      -8.348  34.734  25.654  1.00  0.00    -0.006 C 
ATOM     18  C   UNL     1      -6.891  35.233  25.712  1.00  0.00     0.008 C 
ATOM     19  C   UNL     1      -9.219  35.856  25.055  1.00  0.00     0.008 C 
ENDBRANCH  12  17
ENDBRANCH  11  12
ENDBRANCH   1  11
TORSDOF 1
ENDMDL
MODEL 5
REMARK VINA RESULT:    -4.933      1.652      2.730
REMARK INTER + INTRA:          -7.649
REMARK INTER:                  -7.606
REMARK INTRA:                  -0.043
REMARK UNBOUND:                -0.120
REMARK SMILES CC1=CCC[C@@H](C)C(=O)C[C@@H](C(C)C)C(=O)C1
REMARK SMILES IDX 8 1 9 2 6 3 7 4 5 5 4 6 3 7 2 8 1 9 10 11 11 12 15 13 16 14
REMARK SMILES IDX 17 15 12 17 13 18 14 19
REMARK H PARENT
REMARK Flexibility Score: 70.00
ROOT
ATOM      1  C   UNL     1      -7.997  31.124  22.795  1.00  0.00     0.136 C 
ATOM      2  O   UNL     1      -7.216  30.584  22.023  1.00  0.00    -0.299 OA
ENDROOT
BRANCH   1   3
ATOM      3  C   UNL     1      -9.087  32.009  22.200  1.00  0.00     0.053 C 
ATOM      4  C   UNL     1      -9.732  31.472  20.912  1.00  0.00     0.016 C 
BRANCH   3   5
ATOM      5  C   UNL     1      -8.621  33.479  22.031  1.00  0.00     0.015 C 
BRANCH   5   6
ATOM      6  C   UNL     1      -7.501  33.921  22.992  1.00  0.00     0.028 C 
BRANCH   6   7
ATOM      7  C   UNL     1      -8.029  34.868  24.047  1.00  0.00    -0.028 C 
ATOM      8  C   UNL     1      -8.139  34.592  25.366  1.00  0.00    -0.070 CG0
ATOM      9  C   UNL     1      -8.681  35.660  26.276  1.00  0.00     0.039 C 
ATOM     10  G   UNL     1      -7.755  33.249  25.959  1.00  0.00     0.000 G0
ENDBRANCH   6   7
ENDBRANCH   5   6
ENDBRANCH   3   5
ENDBRANCH   1   3
BRANCH   1  11
ATOM     11  C   UNL     1      -7.746  30.952  24.282  1.00  0.00     0.087 C 
BRANCH  11  12
ATOM     12  C   UNL     1      -9.040  31.083  25.130  1.00  0.00     0.066 C 
BRANCH  12  13
ATOM     13  C   UNL     1      -8.894  32.268  26.077  1.00  0.00     0.140 C 
ATOM     14  O   UNL     1      -9.773  32.484  26.897  1.00  0.00    -0.299 OA
BRANCH  13  15
ATOM     15  C   UNL     1      -7.751  33.252  25.962  1.00  0.00     0.106 CG0
ATOM     16  G   UNL     1      -8.177  34.583  25.370  1.00  0.00     0.000 G0
ENDBRANCH  13  15
ENDBRANCH  12  13
BRANCH  12  17
ATOM     17  C   UNL     1      -9.353  29.767  25.918  1.00  0.00    -0.006 C 
ATOM     18  C   UNL     1      -9.697  28.591  24.983  1.00  0.00     0.008 C 
ATOM     19  C   UNL     1      -8.175  29.341  26.816  1.00  0.00     0.008 C 
ENDBRANCH  12  17
ENDBRANCH  11  12
ENDBRANCH   1  11
TORSDOF 1
ENDMDL
MODEL 6
REMARK VINA RESULT:    -4.855      1.773      2.623
REMARK INTER + INTRA:          -7.529
REMARK INTER:                  -7.707
REMARK INTRA:                   0.178
REMARK UNBOUND:                -0.120
REMARK SMILES CC1=CCC[C@@H](C)C(=O)C[C@@H](C(C)C)C(=O)C1
REMARK SMILES IDX 8 1 9 2 6 3 7 4 5 5 4 6 3 7 2 8 1 9 10 11 11 12 15 13 16 14
REMARK SMILES IDX 17 15 12 17 13 18 14 19
REMARK H PARENT
REMARK Flexibility Score: 70.00
ROOT
ATOM      1  C   UNL     1      -7.701  34.109  24.089  1.00  0.00     0.136 C 
ATOM      2  O   UNL     1      -7.120  34.925  23.385  1.00  0.00    -0.299 OA
ENDROOT
BRANCH   1   3
ATOM      3  C   UNL     1      -8.502  34.636  25.275  1.00  0.00     0.053 C 
ATOM      4  C   UNL     1      -8.621  36.166  25.354  1.00  0.00     0.016 C 
BRANCH   3   5
ATOM      5  C   UNL     1      -8.021  34.034  26.620  1.00  0.00     0.015 C 
BRANCH   5   6
ATOM      6  C   UNL     1      -8.989  33.025  27.267  1.00  0.00     0.028 C 
BRANCH   6   7
ATOM      7  C   UNL     1      -8.392  31.635  27.292  1.00  0.00    -0.028 C 
ATOM      8  C   UNL     1      -8.689  30.636  26.431  1.00  0.00    -0.070 CG0
ATOM      9  C   UNL     1      -7.989  29.316  26.601  1.00  0.00     0.039 C 
ATOM     10  G   UNL     1      -9.708  30.788  25.317  1.00  0.00     0.000 G0
ENDBRANCH   6   7
ENDBRANCH   5   6
ENDBRANCH   3   5
ENDBRANCH   1   3
BRANCH   1  11
ATOM     11  C   UNL     1      -7.484  32.638  23.783  1.00  0.00     0.087 C 
BRANCH  11  12
ATOM     12  C   UNL     1      -8.726  31.969  23.134  1.00  0.00     0.066 C 
BRANCH  12  13
ATOM     13  C   UNL     1      -9.082  30.716  23.922  1.00  0.00     0.140 C 
ATOM     14  O   UNL     1      -8.940  29.623  23.396  1.00  0.00    -0.299 OA
BRANCH  13  15
ATOM     15  C   UNL     1      -9.713  30.783  25.295  1.00  0.00     0.106 CG0
ATOM     16  G   UNL     1      -8.701  30.636  26.416  1.00  0.00     0.000 G0
ENDBRANCH  13  15
ENDBRANCH  12  13
BRANCH  12  17
ATOM     17  C   UNL     1      -8.480  31.635  21.624  1.00  0.00    -0.006 C 
ATOM     18  C   UNL     1      -9.779  31.245  20.892  1.00  0.00     0.008 C 
ATOM     19  C   UNL     1      -7.838  32.815  20.870  1.00  0.00     0.008 C 
ENDBRANCH  12  17
ENDBRANCH  11  12
ENDBRANCH   1  11
TORSDOF 1
ENDMDL
MODEL 7
REMARK VINA RESULT:    -4.841      1.749      3.753
REMARK INTER + INTRA:          -7.508
REMARK INTER:                  -7.958
REMARK INTRA:                   0.450
REMARK UNBOUND:                -0.120
REMARK SMILES CC1=CCC[C@@H](C)C(=O)C[C@@H](C(C)C)C(=O)C1
REMARK SMILES IDX 8 1 9 2 6 3 7 4 5 5 4 6 3 7 2 8 1 9 10 11 11 12 15 13 16 14
REMARK SMILES IDX 17 15 12 17 13 18 14 19
REMARK H PARENT
REMARK Flexibility Score: 70.00
ROOT
ATOM      1  C   UNL     1      -7.557  30.346  24.142  1.00  0.00     0.136 C 
ATOM      2  O   UNL     1      -6.431  30.234  23.677  1.00  0.00    -0.299 OA
ENDROOT
BRANCH   1   3
ATOM      3  C   UNL     1      -7.851  29.648  25.466  1.00  0.00     0.053 C 
ATOM      4  C   UNL     1      -9.257  29.039  25.584  1.00  0.00     0.016 C 
BRANCH   3   5
ATOM      5  C   UNL     1      -7.517  30.544  26.687  1.00  0.00     0.015 C 
BRANCH   5   6
ATOM      6  C   UNL     1      -8.707  31.341  27.256  1.00  0.00     0.028 C 
BRANCH   6   7
ATOM      7  C   UNL     1      -8.414  32.826  27.265  1.00  0.00    -0.028 C 
ATOM      8  C   UNL     1      -8.712  33.692  26.271  1.00  0.00    -0.070 CG0
ATOM      9  C   UNL     1      -8.354  35.141  26.456  1.00  0.00     0.039 C 
ATOM     10  G   UNL     1      -9.375  33.259  24.976  1.00  0.00     0.000 G0
ENDBRANCH   6   7
ENDBRANCH   5   6
ENDBRANCH   3   5
ENDBRANCH   1   3
BRANCH   1  11
ATOM     11  C   UNL     1      -8.592  31.080  23.308  1.00  0.00     0.087 C 
BRANCH  11  12
ATOM     12  C   UNL     1      -8.079  32.448  22.782  1.00  0.00     0.066 C 
BRANCH  12  13
ATOM     13  C   UNL     1      -8.522  33.546  23.740  1.00  0.00     0.140 C 
ATOM     14  O   UNL     1      -8.109  34.683  23.572  1.00  0.00    -0.299 OA
BRANCH  13  15
ATOM     15  C   UNL     1      -9.370  33.255  24.959  1.00  0.00     0.106 CG0
ATOM     16  G   UNL     1      -8.716  33.705  26.252  1.00  0.00     0.000 G0
ENDBRANCH  13  15
ENDBRANCH  12  13
BRANCH  12  17
ATOM     17  C   UNL     1      -8.581  32.733  21.326  1.00  0.00    -0.006 C 
ATOM     18  C   UNL     1      -7.427  32.783  20.307  1.00  0.00     0.008 C 
ATOM     19  C   UNL     1      -9.599  31.678  20.852  1.00  0.00     0.008 C 
ENDBRANCH  12  17
ENDBRANCH  11  12
ENDBRANCH   1  11
TORSDOF 1
ENDMDL
MODEL 8
REMARK VINA RESULT:    -4.775      1.531      3.994
REMARK INTER + INTRA:          -7.408
REMARK INTER:                  -7.508
REMARK INTRA:                   0.099
REMARK UNBOUND:                -0.120
REMARK SMILES CC1=CCC[C@@H](C)C(=O)C[C@@H](C(C)C)C(=O)C1
REMARK SMILES IDX 8 1 9 2 6 3 7 4 5 5 4 6 3 7 2 8 1 9 10 11 11 12 15 13 16 14
REMARK SMILES IDX 17 15 12 17 13 18 14 19
REMARK H PARENT
REMARK Flexibility Score: 70.00
ROOT
ATOM      1  C   UNL     1      -8.486  31.450  22.994  1.00  0.00     0.136 C 
ATOM      2  O   UNL     1      -8.663  31.357  21.787  1.00  0.00    -0.299 OA
ENDROOT
BRANCH   1   3
ATOM      3  C   UNL     1      -7.886  30.250  23.719  1.00  0.00     0.053 C 
ATOM      4  C   UNL     1      -6.565  29.728  23.134  1.00  0.00     0.016 C 
BRANCH   3   5
ATOM      5  C   UNL     1      -8.916  29.105  23.906  1.00  0.00     0.015 C 
BRANCH   5   6
ATOM      6  C   UNL     1     -10.046  29.403  24.910  1.00  0.00     0.028 C 
BRANCH   6   7
ATOM      7  C   UNL     1      -9.500  29.574  26.311  1.00  0.00    -0.028 C 
ATOM      8  C   UNL     1      -9.383  30.748  26.970  1.00  0.00    -0.070 CG0
ATOM      9  C   UNL     1      -8.823  30.730  28.366  1.00  0.00     0.039 C 
ATOM     10  G   UNL     1      -9.774  32.079  26.354  1.00  0.00     0.000 G0
ENDBRANCH   6   7
ENDBRANCH   5   6
ENDBRANCH   3   5
ENDBRANCH   1   3
BRANCH   1  11
ATOM     11  C   UNL     1      -8.977  32.712  23.680  1.00  0.00     0.087 C 
BRANCH  11  12
ATOM     12  C   UNL     1      -7.999  33.223  24.772  1.00  0.00     0.066 C 
BRANCH  12  13
ATOM     13  C   UNL     1      -8.642  33.038  26.140  1.00  0.00     0.140 C 
ATOM     14  O   UNL     1      -8.152  33.599  27.108  1.00  0.00    -0.299 OA
BRANCH  13  15
ATOM     15  C   UNL     1      -9.803  32.093  26.361  1.00  0.00     0.106 CG0
ATOM     16  G   UNL     1      -9.375  30.764  26.955  1.00  0.00     0.000 G0
ENDBRANCH  13  15
ENDBRANCH  12  13
BRANCH  12  17
ATOM     17  C   UNL     1      -7.596  34.718  24.536  1.00  0.00    -0.006 C 
ATOM     18  C   UNL     1      -7.146  34.982  23.086  1.00  0.00     0.008 C 
ATOM     19  C   UNL     1      -8.751  35.683  24.866  1.00  0.00     0.008 C 
ENDBRANCH  12  17
ENDBRANCH  11  12
ENDBRANCH   1  11
TORSDOF 1
ENDMDL
MODEL 9
REMARK VINA RESULT:    -4.558      1.822      3.953
REMARK INTER + INTRA:          -7.077
REMARK INTER:                  -6.688
REMARK INTRA:                  -0.389
REMARK UNBOUND:                -0.120
REMARK SMILES CC1=CCC[C@@H](C)C(=O)C[C@@H](C(C)C)C(=O)C1
REMARK SMILES IDX 8 1 9 2 6 3 7 4 5 5 4 6 3 7 2 8 1 9 10 11 11 12 15 13 16 14
REMARK SMILES IDX 17 15 12 17 13 18 14 19
REMARK H PARENT
REMARK Flexibility Score: 70.00
ROOT
ATOM      1  C   UNL     1      -9.422  31.818  26.091  1.00  0.00     0.136 C 
ATOM      2  O   UNL     1     -10.125  31.762  27.091  1.00  0.00    -0.299 OA
ENDROOT
BRANCH   1   3
ATOM      3  C   UNL     1      -8.133  32.628  26.173  1.00  0.00     0.053 C 
ATOM      4  C   UNL     1      -7.099  32.108  27.184  1.00  0.00     0.016 C 
BRANCH   3   5
ATOM      5  C   UNL     1      -8.404  34.143  26.368  1.00  0.00     0.015 C 
BRANCH   5   6
ATOM      6  C   UNL     1      -9.049  34.849  25.160  1.00  0.00     0.028 C 
BRANCH   6   7
ATOM      7  C   UNL     1      -8.135  34.815  23.955  1.00  0.00    -0.028 C 
ATOM      8  C   UNL     1      -8.400  34.192  22.785  1.00  0.00    -0.070 CG0
ATOM      9  C   UNL     1      -7.375  34.268  21.687  1.00  0.00     0.039 C 
ATOM     10  G   UNL     1      -9.676  33.407  22.543  1.00  0.00     0.000 G0
ENDBRANCH   6   7
ENDBRANCH   5   6
ENDBRANCH   3   5
ENDBRANCH   1   3
BRANCH   1  11
ATOM     11  C   UNL     1      -9.950  31.167  24.825  1.00  0.00     0.087 C 
BRANCH  11  12
ATOM     12  C   UNL     1      -8.898  31.135  23.683  1.00  0.00     0.066 C 
BRANCH  12  13
ATOM     13  C   UNL     1      -9.441  31.908  22.488  1.00  0.00     0.140 C 
ATOM     14  O   UNL     1      -9.615  31.321  21.430  1.00  0.00    -0.299 OA
BRANCH  13  15
ATOM     15  C   UNL     1      -9.667  33.403  22.533  1.00  0.00     0.106 CG0
ATOM     16  G   UNL     1      -8.389  34.185  22.778  1.00  0.00     0.000 G0
ENDBRANCH  13  15
ENDBRANCH  12  13
BRANCH  12  17
ATOM     17  C   UNL     1      -8.523  29.669  23.282  1.00  0.00    -0.006 C 
ATOM     18  C   UNL     1      -6.999  29.455  23.201  1.00  0.00     0.008 C 
ATOM     19  C   UNL     1      -9.102  28.637  24.269  1.00  0.00     0.008 C 
ENDBRANCH  12  17
ENDBRANCH  11  12
ENDBRANCH   1  11
TORSDOF 1
ENDMDL
