MODEL 1
REMARK VINA RESULT:    -3.512      0.000      0.000
REMARK INTER + INTRA:          -4.158
REMARK INTER:                  -4.128
REMARK INTRA:                  -0.030
REMARK UNBOUND:                -0.030
REMARK SMILES CCCCC(=O)[O-]
REMARK SMILES IDX 4 1 5 2 6 3 7 4 3 5 2 6 1 7
REMARK H PARENT
REMARK Flexibility Score: inf
ROOT
ATOM      1  C   UNL     1      25.146   3.764  13.386  1.00  0.00     0.053 C 
ENDROOT
BRANCH   1   2
ATOM      2  C   UNL     1      25.990   2.597  12.975  1.00  0.00     0.041 C 
ATOM      3  O   UNL     1      26.804   2.086  13.788  1.00  0.00    -0.550 OA
ATOM      4  O   UNL     1      25.901   2.096  11.682  1.00  0.00    -0.550 OA
ENDBRANCH   1   2
BRANCH   1   5
ATOM      5  C   UNL     1      24.341   3.465  14.658  1.00  0.00     0.006 C 
BRANCH   5   6
ATOM      6  C   UNL     1      23.578   4.695  15.166  1.00  0.00    -0.003 C 
ATOM      7  C   UNL     1      23.218   5.633  14.017  1.00  0.00     0.004 C 
ENDBRANCH   5   6
ENDBRANCH   1   5
TORSDOF 3
ENDMDL
MODEL 2
REMARK VINA RESULT:    -3.162      6.143      6.679
REMARK INTER + INTRA:          -3.746
REMARK INTER:                  -3.727
REMARK INTRA:                  -0.019
REMARK UNBOUND:                -0.030
REMARK SMILES CCCCC(=O)[O-]
REMARK SMILES IDX 4 1 5 2 6 3 7 4 3 5 2 6 1 7
REMARK H PARENT
REMARK Flexibility Score: inf
ROOT
ATOM      1  C   UNL     1      25.666   4.112   6.588  1.00  0.00     0.053 C 
ENDROOT
BRANCH   1   2
ATOM      2  C   UNL     1      26.056   3.139   7.657  1.00  0.00     0.041 C 
ATOM      3  O   UNL     1      26.679   3.535   8.677  1.00  0.00    -0.550 OA
ATOM      4  O   UNL     1      25.760   1.789   7.512  1.00  0.00    -0.550 OA
ENDBRANCH   1   2
BRANCH   1   5
ATOM      5  C   UNL     1      24.142   4.239   6.461  1.00  0.00     0.006 C 
BRANCH   5   6
ATOM      6  C   UNL     1      23.685   5.702   6.383  1.00  0.00    -0.003 C 
ATOM      7  C   UNL     1      22.514   5.964   7.326  1.00  0.00     0.004 C 
ENDBRANCH   5   6
ENDBRANCH   1   5
TORSDOF 3
ENDMDL
MODEL 3
REMARK VINA RESULT:    -3.161      3.658      4.602
REMARK INTER + INTRA:          -3.745
REMARK INTER:                  -3.690
REMARK INTRA:                  -0.055
REMARK UNBOUND:                -0.030
REMARK SMILES CCCCC(=O)[O-]
REMARK SMILES IDX 4 1 5 2 6 3 7 4 3 5 2 6 1 7
REMARK H PARENT
REMARK Flexibility Score: inf
ROOT
ATOM      1  C   UNL     1      23.134   5.751  14.135  1.00  0.00     0.053 C 
ENDROOT
BRANCH   1   2
ATOM      2  C   UNL     1      23.405   7.160  14.565  1.00  0.00     0.041 C 
ATOM      3  O   UNL     1      23.943   7.973  13.769  1.00  0.00    -0.550 OA
ATOM      4  O   UNL     1      23.093   7.566  15.857  1.00  0.00    -0.550 OA
ENDBRANCH   1   2
BRANCH   1   5
ATOM      5  C   UNL     1      23.393   4.750  15.269  1.00  0.00     0.006 C 
BRANCH   5   6
ATOM      6  C   UNL     1      24.196   3.531  14.795  1.00  0.00    -0.003 C 
ATOM      7  C   UNL     1      25.127   3.899  13.642  1.00  0.00     0.004 C 
ENDBRANCH   5   6
ENDBRANCH   1   5
TORSDOF 3
ENDMDL
MODEL 4
REMARK VINA RESULT:    -3.151      2.167      3.042
REMARK INTER + INTRA:          -3.734
REMARK INTER:                  -3.632
REMARK INTRA:                  -0.102
REMARK UNBOUND:                -0.030
REMARK SMILES CCCCC(=O)[O-]
REMARK SMILES IDX 4 1 5 2 6 3 7 4 3 5 2 6 1 7
REMARK H PARENT
REMARK Flexibility Score: inf
ROOT
ATOM      1  C   UNL     1      23.231   5.242  14.832  1.00  0.00     0.053 C 
ENDROOT
BRANCH   1   2
ATOM      2  C   UNL     1      24.397   4.352  14.524  1.00  0.00     0.041 C 
ATOM      3  O   UNL     1      24.310   3.109  14.704  1.00  0.00    -0.550 OA
ATOM      4  O   UNL     1      25.590   4.901  14.070  1.00  0.00    -0.550 OA
ENDBRANCH   1   2
BRANCH   1   5
ATOM      5  C   UNL     1      22.776   6.032  13.598  1.00  0.00     0.006 C 
BRANCH   5   6
ATOM      6  C   UNL     1      23.175   7.512  13.676  1.00  0.00    -0.003 C 
ATOM      7  C   UNL     1      23.431   7.938  15.119  1.00  0.00     0.004 C 
ENDBRANCH   5   6
ENDBRANCH   1   5
TORSDOF 3
ENDMDL
MODEL 5
REMARK VINA RESULT:    -3.114      7.341      8.182
REMARK INTER + INTRA:          -3.691
REMARK INTER:                  -3.669
REMARK INTRA:                  -0.022
REMARK UNBOUND:                -0.030
REMARK SMILES CCCCC(=O)[O-]
REMARK SMILES IDX 4 1 5 2 6 3 7 4 3 5 2 6 1 7
REMARK H PARENT
REMARK Flexibility Score: inf
ROOT
ATOM      1  C   UNL     1      23.213   6.074   6.853  1.00  0.00     0.053 C 
ENDROOT
BRANCH   1   2
ATOM      2  C   UNL     1      21.833   5.933   7.418  1.00  0.00     0.041 C 
ATOM      3  O   UNL     1      21.052   5.052   6.972  1.00  0.00    -0.550 OA
ATOM      4  O   UNL     1      21.398   6.798   8.415  1.00  0.00    -0.550 OA
ENDBRANCH   1   2
BRANCH   1   5
ATOM      5  C   UNL     1      23.688   4.778   6.182  1.00  0.00     0.006 C 
BRANCH   5   6
ATOM      6  C   UNL     1      25.218   4.680   6.126  1.00  0.00    -0.003 C 
ATOM      7  C   UNL     1      25.741   3.651   7.125  1.00  0.00     0.004 C 
ENDBRANCH   5   6
ENDBRANCH   1   5
TORSDOF 3
ENDMDL
MODEL 6
REMARK VINA RESULT:    -3.070      8.375      9.097
REMARK INTER + INTRA:          -3.639
REMARK INTER:                  -3.593
REMARK INTRA:                  -0.046
REMARK UNBOUND:                -0.030
REMARK SMILES CCCCC(=O)[O-]
REMARK SMILES IDX 4 1 5 2 6 3 7 4 3 5 2 6 1 7
REMARK H PARENT
REMARK Flexibility Score: inf
ROOT
ATOM      1  C   UNL     1      22.020   5.011   6.571  1.00  0.00     0.053 C 
ENDROOT
BRANCH   1   2
ATOM      2  C   UNL     1      20.953   5.573   5.683  1.00  0.00     0.041 C 
ATOM      3  O   UNL     1      19.798   5.783   6.136  1.00  0.00    -0.550 OA
ATOM      4  O   UNL     1      21.227   5.836   4.346  1.00  0.00    -0.550 OA
ENDBRANCH   1   2
BRANCH   1   5
ATOM      5  C   UNL     1      23.283   5.882   6.565  1.00  0.00     0.006 C 
BRANCH   5   6
ATOM      6  C   UNL     1      24.419   5.255   5.746  1.00  0.00    -0.003 C 
ATOM      7  C   UNL     1      25.240   4.287   6.593  1.00  0.00     0.004 C 
ENDBRANCH   5   6
ENDBRANCH   1   5
TORSDOF 3
ENDMDL
MODEL 7
REMARK VINA RESULT:    -3.037     11.197     11.893
REMARK INTER + INTRA:          -3.600
REMARK INTER:                  -3.493
REMARK INTRA:                  -0.107
REMARK UNBOUND:                -0.030
REMARK SMILES CCCCC(=O)[O-]
REMARK SMILES IDX 4 1 5 2 6 3 7 4 3 5 2 6 1 7
REMARK H PARENT
REMARK Flexibility Score: inf
ROOT
ATOM      1  C   UNL     1      16.667   9.697   9.957  1.00  0.00     0.053 C 
ENDROOT
BRANCH   1   2
ATOM      2  C   UNL     1      15.738  10.759   9.456  1.00  0.00     0.041 C 
ATOM      3  O   UNL     1      15.410  11.719  10.203  1.00  0.00    -0.550 OA
ATOM      4  O   UNL     1      15.207  10.671   8.175  1.00  0.00    -0.550 OA
ENDBRANCH   1   2
BRANCH   1   5
ATOM      5  C   UNL     1      18.138  10.091   9.767  1.00  0.00     0.006 C 
BRANCH   5   6
ATOM      6  C   UNL     1      18.753  10.676  11.046  1.00  0.00    -0.003 C 
ATOM      7  C   UNL     1      19.128  12.143  10.856  1.00  0.00     0.004 C 
ENDBRANCH   5   6
ENDBRANCH   1   5
TORSDOF 3
ENDMDL
MODEL 8
REMARK VINA RESULT:    -3.028     10.084     11.001
REMARK INTER + INTRA:          -3.590
REMARK INTER:                  -3.537
REMARK INTRA:                  -0.053
REMARK UNBOUND:                -0.030
REMARK SMILES CCCCC(=O)[O-]
REMARK SMILES IDX 4 1 5 2 6 3 7 4 3 5 2 6 1 7
REMARK H PARENT
REMARK Flexibility Score: inf
ROOT
ATOM      1  C   UNL     1      18.610  10.671  10.960  1.00  0.00     0.053 C 
ENDROOT
BRANCH   1   2
ATOM      2  C   UNL     1      18.002   9.867   9.851  1.00  0.00     0.041 C 
ATOM      3  O   UNL     1      16.804   9.490   9.926  1.00  0.00    -0.550 OA
ATOM      4  O   UNL     1      18.770   9.508   8.750  1.00  0.00    -0.550 OA
ENDBRANCH   1   2
BRANCH   1   5
ATOM      5  C   UNL     1      19.090  12.044  10.471  1.00  0.00     0.006 C 
BRANCH   5   6
ATOM      6  C   UNL     1      18.555  13.190  11.340  1.00  0.00    -0.003 C 
ATOM      7  C   UNL     1      17.136  13.576  10.930  1.00  0.00     0.004 C 
ENDBRANCH   5   6
ENDBRANCH   1   5
TORSDOF 3
ENDMDL
MODEL 9
REMARK VINA RESULT:    -3.011     10.979     11.772
REMARK INTER + INTRA:          -3.569
REMARK INTER:                  -3.470
REMARK INTRA:                  -0.099
REMARK UNBOUND:                -0.030
REMARK SMILES CCCCC(=O)[O-]
REMARK SMILES IDX 4 1 5 2 6 3 7 4 3 5 2 6 1 7
REMARK H PARENT
REMARK Flexibility Score: inf
ROOT
ATOM      1  C   UNL     1      19.096  12.179  10.635  1.00  0.00     0.053 C 
ENDROOT
BRANCH   1   2
ATOM      2  C   UNL     1      18.181  13.178  11.274  1.00  0.00     0.041 C 
ATOM      3  O   UNL     1      18.441  13.634  12.418  1.00  0.00    -0.550 OA
ATOM      4  O   UNL     1      17.023  13.580  10.618  1.00  0.00    -0.550 OA
ENDBRANCH   1   2
BRANCH   1   5
ATOM      5  C   UNL     1      18.718  10.740  11.010  1.00  0.00     0.006 C 
BRANCH   5   6
ATOM      6  C   UNL     1      18.121   9.968   9.825  1.00  0.00    -0.003 C 
ATOM      7  C   UNL     1      16.603   9.866   9.944  1.00  0.00     0.004 C 
ENDBRANCH   5   6
ENDBRANCH   1   5
TORSDOF 3
ENDMDL
