MODEL 1
REMARK VINA RESULT:    -6.181      0.000      0.000
REMARK INTER + INTRA:          -6.362
REMARK INTER:                  -6.362
REMARK INTRA:                   0.000
REMARK UNBOUND:                 0.000
REMARK SMILES O=c1ccc2cc(O)ccc2o1
REMARK SMILES IDX 9 1 10 2 11 3 5 4 4 5 3 6 2 7 1 8 12 9 6 10 7 11 8 12
REMARK H PARENT 8 13
REMARK Flexibility Score: inf
ROOT
ATOM      1  C   UNL     1     -30.144  -2.630 -19.565  1.00  0.00     0.050 A 
ATOM      2  C   UNL     1     -30.547  -3.121 -18.319  1.00  0.00     0.052 A 
ATOM      3  C   UNL     1     -31.905  -3.330 -18.053  1.00  0.00     0.138 A 
ATOM      4  C   UNL     1     -32.866  -3.044 -19.049  1.00  0.00     0.021 A 
ATOM      5  C   UNL     1     -34.215  -3.264 -18.754  1.00  0.00     0.019 A 
ATOM      6  C   UNL     1     -34.571  -3.754 -17.498  1.00  0.00     0.094 A 
ATOM      7  C   UNL     1     -33.564  -4.014 -16.562  1.00  0.00     0.336 A 
ATOM      8  O   UNL     1     -33.865  -4.455 -15.423  1.00  0.00    -0.246 OA
ATOM      9  O   UNL     1     -32.287  -3.796 -16.868  1.00  0.00    -0.423 OA
ATOM     10  C   UNL     1     -32.456  -2.553 -20.297  1.00  0.00     0.058 A 
ATOM     11  C   UNL     1     -31.093  -2.346 -20.555  1.00  0.00     0.116 A 
ENDROOT
BRANCH  11  12
ATOM     12  O   UNL     1     -30.671  -1.859 -21.790  1.00  0.00    -0.508 OA
ATOM     13  H   UNL     1     -29.722  -1.528 -21.931  1.00  0.00     0.293 HD
ENDBRANCH  11  12
TORSDOF 1
ENDMDL
MODEL 2
REMARK VINA RESULT:    -5.981      6.782      9.551
REMARK INTER + INTRA:          -6.156
REMARK INTER:                  -6.156
REMARK INTRA:                   0.000
REMARK UNBOUND:                 0.000
REMARK SMILES O=c1ccc2cc(O)ccc2o1
REMARK SMILES IDX 9 1 10 2 11 3 5 4 4 5 3 6 2 7 1 8 12 9 6 10 7 11 8 12
REMARK H PARENT 8 13
REMARK Flexibility Score: inf
ROOT
ATOM      1  C   UNL     1     -40.395  -7.742 -12.998  1.00  0.00     0.050 A 
ATOM      2  C   UNL     1     -39.801  -6.476 -12.987  1.00  0.00     0.052 A 
ATOM      3  C   UNL     1     -38.454  -6.330 -13.336  1.00  0.00     0.138 A 
ATOM      4  C   UNL     1     -37.697  -7.466 -13.701  1.00  0.00     0.021 A 
ATOM      5  C   UNL     1     -36.354  -7.288 -14.045  1.00  0.00     0.019 A 
ATOM      6  C   UNL     1     -35.804  -6.007 -14.020  1.00  0.00     0.094 A 
ATOM      7  C   UNL     1     -36.614  -4.929 -13.649  1.00  0.00     0.336 A 
ATOM      8  O   UNL     1     -36.136  -3.765 -13.619  1.00  0.00    -0.246 OA
ATOM      9  O   UNL     1     -37.890  -5.125 -13.325  1.00  0.00    -0.423 OA
ATOM     10  C   UNL     1     -38.298  -8.734 -13.710  1.00  0.00     0.058 A 
ATOM     11  C   UNL     1     -39.649  -8.871 -13.359  1.00  0.00     0.116 A 
ENDROOT
BRANCH  11  12
ATOM     12  O   UNL     1     -40.259 -10.123 -13.364  1.00  0.00    -0.508 OA
ATOM     13  H   UNL     1     -40.064 -10.810 -12.643  1.00  0.00     0.293 HD
ENDBRANCH  11  12
TORSDOF 1
ENDMDL
MODEL 3
REMARK VINA RESULT:    -5.868      6.905      8.810
REMARK INTER + INTRA:          -6.039
REMARK INTER:                  -6.039
REMARK INTRA:                   0.000
REMARK UNBOUND:                 0.000
REMARK SMILES O=c1ccc2cc(O)ccc2o1
REMARK SMILES IDX 9 1 10 2 11 3 5 4 4 5 3 6 2 7 1 8 12 9 6 10 7 11 8 12
REMARK H PARENT 8 13
REMARK Flexibility Score: inf
ROOT
ATOM      1  C   UNL     1     -37.278  -4.431 -13.368  1.00  0.00     0.050 A 
ATOM      2  C   UNL     1     -38.493  -5.124 -13.379  1.00  0.00     0.052 A 
ATOM      3  C   UNL     1     -38.503  -6.522 -13.411  1.00  0.00     0.138 A 
ATOM      4  C   UNL     1     -37.281  -7.232 -13.431  1.00  0.00     0.021 A 
ATOM      5  C   UNL     1     -37.323  -8.629 -13.462  1.00  0.00     0.019 A 
ATOM      6  C   UNL     1     -38.558  -9.277 -13.472  1.00  0.00     0.094 A 
ATOM      7  C   UNL     1     -39.726  -8.509 -13.451  1.00  0.00     0.336 A 
ATOM      8  O   UNL     1     -40.850  -9.075 -13.461  1.00  0.00    -0.246 OA
ATOM      9  O   UNL     1     -39.659  -7.180 -13.422  1.00  0.00    -0.423 OA
ATOM     10  C   UNL     1     -36.065  -6.532 -13.419  1.00  0.00     0.058 A 
ATOM     11  C   UNL     1     -36.064  -5.130 -13.387  1.00  0.00     0.116 A 
ENDROOT
BRANCH  11  12
ATOM     12  O   UNL     1     -34.865  -4.421 -13.375  1.00  0.00    -0.508 OA
ATOM     13  H   UNL     1     -34.850  -3.408 -13.340  1.00  0.00     0.293 HD
ENDBRANCH  11  12
TORSDOF 1
ENDMDL
MODEL 4
REMARK VINA RESULT:    -5.804      7.581      9.103
REMARK INTER + INTRA:          -5.973
REMARK INTER:                  -5.973
REMARK INTRA:                   0.000
REMARK UNBOUND:                 0.000
REMARK SMILES O=c1ccc2cc(O)ccc2o1
REMARK SMILES IDX 9 1 10 2 11 3 5 4 4 5 3 6 2 7 1 8 12 9 6 10 7 11 8 12
REMARK H PARENT 8 13
REMARK Flexibility Score: inf
ROOT
ATOM      1  C   UNL     1     -36.252  -7.088 -14.399  1.00  0.00     0.050 A 
ATOM      2  C   UNL     1     -36.855  -6.050 -13.681  1.00  0.00     0.052 A 
ATOM      3  C   UNL     1     -38.164  -6.193 -13.208  1.00  0.00     0.138 A 
ATOM      4  C   UNL     1     -38.873  -7.390 -13.458  1.00  0.00     0.021 A 
ATOM      5  C   UNL     1     -40.179  -7.503 -12.972  1.00  0.00     0.019 A 
ATOM      6  C   UNL     1     -40.740  -6.442 -12.261  1.00  0.00     0.094 A 
ATOM      7  C   UNL     1     -39.978  -5.288 -12.052  1.00  0.00     0.336 A 
ATOM      8  O   UNL     1     -40.467  -4.320 -11.414  1.00  0.00    -0.246 OA
ATOM      9  O   UNL     1     -38.737  -5.205 -12.526  1.00  0.00    -0.423 OA
ATOM     10  C   UNL     1     -38.263  -8.428 -14.178  1.00  0.00     0.058 A 
ATOM     11  C   UNL     1     -36.950  -8.276 -14.648  1.00  0.00     0.116 A 
ENDROOT
BRANCH  11  12
ATOM     12  O   UNL     1     -36.331  -9.298 -15.365  1.00  0.00    -0.508 OA
ATOM     13  H   UNL     1     -36.229  -9.250 -16.373  1.00  0.00     0.293 HD
ENDBRANCH  11  12
TORSDOF 1
ENDMDL
MODEL 5
REMARK VINA RESULT:    -5.735      8.157      9.696
REMARK INTER + INTRA:          -5.903
REMARK INTER:                  -5.903
REMARK INTRA:                   0.000
REMARK UNBOUND:                 0.000
REMARK SMILES O=c1ccc2cc(O)ccc2o1
REMARK SMILES IDX 9 1 10 2 11 3 5 4 4 5 3 6 2 7 1 8 12 9 6 10 7 11 8 12
REMARK H PARENT 8 13
REMARK Flexibility Score: inf
ROOT
ATOM      1  C   UNL     1     -38.092  -8.875 -13.748  1.00  0.00     0.050 A 
ATOM      2  C   UNL     1     -37.388  -7.666 -13.735  1.00  0.00     0.052 A 
ATOM      3  C   UNL     1     -38.034  -6.483 -13.364  1.00  0.00     0.138 A 
ATOM      4  C   UNL     1     -39.400  -6.513 -13.001  1.00  0.00     0.021 A 
ATOM      5  C   UNL     1     -40.018  -5.314 -12.634  1.00  0.00     0.019 A 
ATOM      6  C   UNL     1     -39.277  -4.133 -12.637  1.00  0.00     0.094 A 
ATOM      7  C   UNL     1     -37.929  -4.179 -13.007  1.00  0.00     0.336 A 
ATOM      8  O   UNL     1     -37.244  -3.123 -13.016  1.00  0.00    -0.246 OA
ATOM      9  O   UNL     1     -37.364  -5.333 -13.353  1.00  0.00    -0.423 OA
ATOM     10  C   UNL     1     -40.101  -7.728 -13.016  1.00  0.00     0.058 A 
ATOM     11  C   UNL     1     -39.445  -8.911 -13.389  1.00  0.00     0.116 A 
ENDROOT
BRANCH  11  12
ATOM     12  O   UNL     1     -40.127 -10.125 -13.408  1.00  0.00    -0.508 OA
ATOM     13  H   UNL     1     -40.171 -10.694 -14.246  1.00  0.00     0.293 HD
ENDBRANCH  11  12
TORSDOF 1
ENDMDL
MODEL 6
REMARK VINA RESULT:    -5.584      5.403      8.511
REMARK INTER + INTRA:          -5.747
REMARK INTER:                  -5.747
REMARK INTRA:                   0.000
REMARK UNBOUND:                 0.000
REMARK SMILES O=c1ccc2cc(O)ccc2o1
REMARK SMILES IDX 9 1 10 2 11 3 5 4 4 5 3 6 2 7 1 8 12 9 6 10 7 11 8 12
REMARK H PARENT 8 13
REMARK Flexibility Score: inf
ROOT
ATOM      1  C   UNL     1     -38.766  -8.702 -15.033  1.00  0.00     0.050 A 
ATOM      2  C   UNL     1     -38.300  -7.604 -15.765  1.00  0.00     0.052 A 
ATOM      3  C   UNL     1     -37.314  -6.770 -15.227  1.00  0.00     0.138 A 
ATOM      4  C   UNL     1     -36.791  -7.041 -13.943  1.00  0.00     0.021 A 
ATOM      5  C   UNL     1     -35.806  -6.190 -13.432  1.00  0.00     0.019 A 
ATOM      6  C   UNL     1     -35.373  -5.107 -14.198  1.00  0.00     0.094 A 
ATOM      7  C   UNL     1     -35.937  -4.901 -15.461  1.00  0.00     0.336 A 
ATOM      8  O   UNL     1     -35.559  -3.929 -16.166  1.00  0.00    -0.246 OA
ATOM      9  O   UNL     1     -36.873  -5.726 -15.924  1.00  0.00    -0.423 OA
ATOM     10  C   UNL     1     -37.261  -8.143 -13.213  1.00  0.00     0.058 A 
ATOM     11  C   UNL     1     -38.249  -8.974 -13.761  1.00  0.00     0.116 A 
ENDROOT
BRANCH  11  12
ATOM     12  O   UNL     1     -38.726 -10.073 -13.049  1.00  0.00    -0.508 OA
ATOM     13  H   UNL     1     -38.436 -11.017 -13.276  1.00  0.00     0.293 HD
ENDBRANCH  11  12
TORSDOF 1
ENDMDL
MODEL 7
REMARK VINA RESULT:    -5.531      2.379      3.480
REMARK INTER + INTRA:          -5.692
REMARK INTER:                  -5.692
REMARK INTRA:                   0.000
REMARK UNBOUND:                 0.000
REMARK SMILES O=c1ccc2cc(O)ccc2o1
REMARK SMILES IDX 9 1 10 2 11 3 5 4 4 5 3 6 2 7 1 8 12 9 6 10 7 11 8 12
REMARK H PARENT 8 13
REMARK Flexibility Score: inf
ROOT
ATOM      1  C   UNL     1     -30.617  -3.729 -17.391  1.00  0.00     0.050 A 
ATOM      2  C   UNL     1     -31.709  -3.033 -17.920  1.00  0.00     0.052 A 
ATOM      3  C   UNL     1     -32.986  -3.603 -17.889  1.00  0.00     0.138 A 
ATOM      4  C   UNL     1     -33.169  -4.884 -17.321  1.00  0.00     0.021 A 
ATOM      5  C   UNL     1     -34.457  -5.428 -17.304  1.00  0.00     0.019 A 
ATOM      6  C   UNL     1     -35.515  -4.697 -17.844  1.00  0.00     0.094 A 
ATOM      7  C   UNL     1     -35.259  -3.435 -18.390  1.00  0.00     0.336 A 
ATOM      8  O   UNL     1     -36.202  -2.761 -18.882  1.00  0.00    -0.246 OA
ATOM      9  O   UNL     1     -34.024  -2.940 -18.393  1.00  0.00    -0.423 OA
ATOM     10  C   UNL     1     -32.070  -5.578 -16.792  1.00  0.00     0.058 A 
ATOM     11  C   UNL     1     -30.794  -4.998 -16.826  1.00  0.00     0.116 A 
ENDROOT
BRANCH  11  12
ATOM     12  O   UNL     1     -29.693  -5.674 -16.304  1.00  0.00    -0.508 OA
ATOM     13  H   UNL     1     -28.779  -5.237 -16.253  1.00  0.00     0.293 HD
ENDBRANCH  11  12
TORSDOF 1
ENDMDL
MODEL 8
REMARK VINA RESULT:    -5.512      4.892      6.900
REMARK INTER + INTRA:          -5.673
REMARK INTER:                  -5.673
REMARK INTRA:                   0.000
REMARK UNBOUND:                 0.000
REMARK SMILES O=c1ccc2cc(O)ccc2o1
REMARK SMILES IDX 9 1 10 2 11 3 5 4 4 5 3 6 2 7 1 8 12 9 6 10 7 11 8 12
REMARK H PARENT 8 13
REMARK Flexibility Score: inf
ROOT
ATOM      1  C   UNL     1     -35.277  -4.260 -13.765  1.00  0.00     0.050 A 
ATOM      2  C   UNL     1     -36.231  -5.093 -13.172  1.00  0.00     0.052 A 
ATOM      3  C   UNL     1     -36.616  -6.281 -13.803  1.00  0.00     0.138 A 
ATOM      4  C   UNL     1     -36.036  -6.635 -15.042  1.00  0.00     0.021 A 
ATOM      5  C   UNL     1     -36.440  -7.829 -15.649  1.00  0.00     0.019 A 
ATOM      6  C   UNL     1     -37.395  -8.627 -15.020  1.00  0.00     0.094 A 
ATOM      7  C   UNL     1     -37.926  -8.212 -13.795  1.00  0.00     0.336 A 
ATOM      8  O   UNL     1     -38.789  -8.919 -13.212  1.00  0.00    -0.246 OA
ATOM      9  O   UNL     1     -37.524  -7.072 -13.238  1.00  0.00    -0.423 OA
ATOM     10  C   UNL     1     -35.079  -5.797 -15.633  1.00  0.00     0.058 A 
ATOM     11  C   UNL     1     -34.699  -4.608 -14.992  1.00  0.00     0.116 A 
ENDROOT
BRANCH  11  12
ATOM     12  O   UNL     1     -33.750  -3.765 -15.566  1.00  0.00    -0.508 OA
ATOM     13  H   UNL     1     -34.023  -2.963 -16.123  1.00  0.00     0.293 HD
ENDBRANCH  11  12
TORSDOF 1
ENDMDL
MODEL 9
REMARK VINA RESULT:    -5.485      4.748      7.804
REMARK INTER + INTRA:          -5.645
REMARK INTER:                  -5.645
REMARK INTRA:                   0.000
REMARK UNBOUND:                 0.000
REMARK SMILES O=c1ccc2cc(O)ccc2o1
REMARK SMILES IDX 9 1 10 2 11 3 5 4 4 5 3 6 2 7 1 8 12 9 6 10 7 11 8 12
REMARK H PARENT 8 13
REMARK Flexibility Score: inf
ROOT
ATOM      1  C   UNL     1     -37.904  -8.225 -13.480  1.00  0.00     0.050 A 
ATOM      2  C   UNL     1     -36.755  -7.432 -13.398  1.00  0.00     0.052 A 
ATOM      3  C   UNL     1     -36.349  -6.669 -14.498  1.00  0.00     0.138 A 
ATOM      4  C   UNL     1     -37.104  -6.703 -15.692  1.00  0.00     0.021 A 
ATOM      5  C   UNL     1     -36.674  -5.930 -16.774  1.00  0.00     0.019 A 
ATOM      6  C   UNL     1     -35.522  -5.155 -16.647  1.00  0.00     0.094 A 
ATOM      7  C   UNL     1     -34.825  -5.171 -15.434  1.00  0.00     0.336 A 
ATOM      8  O   UNL     1     -33.782  -4.478 -15.300  1.00  0.00    -0.246 OA
ATOM      9  O   UNL     1     -35.255  -5.915 -14.419  1.00  0.00    -0.423 OA
ATOM     10  C   UNL     1     -38.256  -7.500 -15.769  1.00  0.00     0.058 A 
ATOM     11  C   UNL     1     -38.656  -8.261 -14.661  1.00  0.00     0.116 A 
ENDROOT
BRANCH  11  12
ATOM     12  O   UNL     1     -39.798  -9.058 -14.721  1.00  0.00    -0.508 OA
ATOM     13  H   UNL     1     -40.570  -8.925 -14.078  1.00  0.00     0.293 HD
ENDBRANCH  11  12
TORSDOF 1
ENDMDL
