MODEL 1
REMARK VINA RESULT:    -4.250      0.000      0.000
REMARK INTER + INTRA:          -5.340
REMARK INTER:                  -5.244
REMARK INTRA:                  -0.095
REMARK UNBOUND:                -0.095
REMARK SMILES CCCCCC(=O)[O-]
REMARK SMILES IDX 4 1 5 2 6 3 7 4 8 5 3 6 2 7 1 8
REMARK H PARENT
REMARK Flexibility Score: inf
ROOT
ATOM      1  C   UNL     1      10.342 -17.464 -26.568  1.00  0.00     0.006 C 
ENDROOT
BRANCH   1   2
ATOM      2  C   UNL     1       9.079 -17.749 -27.393  1.00  0.00     0.053 C 
BRANCH   2   3
ATOM      3  C   UNL     1       9.418 -17.846 -28.847  1.00  0.00     0.041 C 
ATOM      4  O   UNL     1       8.503 -17.848 -29.711  1.00  0.00    -0.550 OA
ATOM      5  O   UNL     1      10.747 -17.884 -29.251  1.00  0.00    -0.550 OA
ENDBRANCH   2   3
ENDBRANCH   1   2
BRANCH   1   6
ATOM      6  C   UNL     1      10.805 -18.683 -25.756  1.00  0.00     0.000 C 
BRANCH   6   7
ATOM      7  C   UNL     1      12.333 -18.754 -25.615  1.00  0.00    -0.003 C 
ATOM      8  C   UNL     1      12.775 -18.338 -24.214  1.00  0.00     0.004 C 
ENDBRANCH   6   7
ENDBRANCH   1   6
TORSDOF 4
ENDMDL
MODEL 2
REMARK VINA RESULT:    -4.250      1.683      1.914
REMARK INTER + INTRA:          -5.339
REMARK INTER:                  -5.131
REMARK INTRA:                  -0.208
REMARK UNBOUND:                -0.095
REMARK SMILES CCCCCC(=O)[O-]
REMARK SMILES IDX 4 1 5 2 6 3 7 4 8 5 3 6 2 7 1 8
REMARK H PARENT
REMARK Flexibility Score: inf
ROOT
ATOM      1  C   UNL     1      11.798 -19.830 -27.832  1.00  0.00     0.006 C 
ENDROOT
BRANCH   1   2
ATOM      2  C   UNL     1      11.654 -18.383 -28.320  1.00  0.00     0.053 C 
BRANCH   2   3
ATOM      3  C   UNL     1      10.226 -17.945 -28.237  1.00  0.00     0.041 C 
ATOM      4  O   UNL     1       9.440 -18.166 -29.196  1.00  0.00    -0.550 OA
ATOM      5  O   UNL     1       9.750 -17.338 -27.082  1.00  0.00    -0.550 OA
ENDBRANCH   2   3
ENDBRANCH   1   2
BRANCH   1   6
ATOM      6  C   UNL     1      12.020 -19.922 -26.313  1.00  0.00     0.000 C 
BRANCH   6   7
ATOM      7  C   UNL     1      12.917 -18.796 -25.778  1.00  0.00    -0.003 C 
ATOM      8  C   UNL     1      12.461 -18.342 -24.393  1.00  0.00     0.004 C 
ENDBRANCH   6   7
ENDBRANCH   1   6
TORSDOF 4
ENDMDL
MODEL 3
REMARK VINA RESULT:    -4.174      2.358      2.915
REMARK INTER + INTRA:          -5.245
REMARK INTER:                  -5.105
REMARK INTRA:                  -0.140
REMARK UNBOUND:                -0.095
REMARK SMILES CCCCCC(=O)[O-]
REMARK SMILES IDX 4 1 5 2 6 3 7 4 8 5 3 6 2 7 1 8
REMARK H PARENT
REMARK Flexibility Score: inf
ROOT
ATOM      1  C   UNL     1      12.578 -18.908 -26.494  1.00  0.00     0.006 C 
ENDROOT
BRANCH   1   2
ATOM      2  C   UNL     1      12.200 -18.319 -27.859  1.00  0.00     0.053 C 
BRANCH   2   3
ATOM      3  C   UNL     1      10.721 -18.110 -27.944  1.00  0.00     0.041 C 
ATOM      4  O   UNL     1      10.066 -18.603 -28.900  1.00  0.00    -0.550 OA
ATOM      5  O   UNL     1      10.058 -17.414 -26.942  1.00  0.00    -0.550 OA
ENDBRANCH   2   3
ENDBRANCH   1   2
BRANCH   1   6
ATOM      6  C   UNL     1      11.876 -20.247 -26.213  1.00  0.00     0.000 C 
BRANCH   6   7
ATOM      7  C   UNL     1      12.403 -21.387 -27.096  1.00  0.00    -0.003 C 
ATOM      8  C   UNL     1      12.013 -22.748 -26.527  1.00  0.00     0.004 C 
ENDBRANCH   6   7
ENDBRANCH   1   6
TORSDOF 4
ENDMDL
MODEL 4
REMARK VINA RESULT:    -4.141      2.312      2.953
REMARK INTER + INTRA:          -5.205
REMARK INTER:                  -5.156
REMARK INTRA:                  -0.049
REMARK UNBOUND:                -0.095
REMARK SMILES CCCCCC(=O)[O-]
REMARK SMILES IDX 4 1 5 2 6 3 7 4 8 5 3 6 2 7 1 8
REMARK H PARENT
REMARK Flexibility Score: inf
ROOT
ATOM      1  C   UNL     1      12.533 -19.471 -26.486  1.00  0.00     0.006 C 
ENDROOT
BRANCH   1   2
ATOM      2  C   UNL     1      12.177 -20.823 -27.117  1.00  0.00     0.053 C 
BRANCH   2   3
ATOM      3  C   UNL     1      11.779 -20.641 -28.548  1.00  0.00     0.041 C 
ATOM      4  O   UNL     1      11.310 -21.609 -29.203  1.00  0.00    -0.550 OA
ATOM      5  O   UNL     1      11.879 -19.391 -29.145  1.00  0.00    -0.550 OA
ENDBRANCH   2   3
ENDBRANCH   1   2
BRANCH   1   6
ATOM      6  C   UNL     1      11.299 -18.727 -25.948  1.00  0.00     0.000 C 
BRANCH   6   7
ATOM      7  C   UNL     1      11.578 -18.004 -24.622  1.00  0.00    -0.003 C 
ATOM      8  C   UNL     1      12.991 -18.296 -24.123  1.00  0.00     0.004 C 
ENDBRANCH   6   7
ENDBRANCH   1   6
TORSDOF 4
ENDMDL
MODEL 5
REMARK VINA RESULT:    -4.027      3.582      4.784
REMARK INTER + INTRA:          -5.064
REMARK INTER:                  -4.970
REMARK INTRA:                  -0.094
REMARK UNBOUND:                -0.095
REMARK SMILES CCCCCC(=O)[O-]
REMARK SMILES IDX 4 1 5 2 6 3 7 4 8 5 3 6 2 7 1 8
REMARK H PARENT
REMARK Flexibility Score: inf
ROOT
ATOM      1  C   UNL     1      11.945 -20.161 -26.589  1.00  0.00     0.006 C 
ENDROOT
BRANCH   1   2
ATOM      2  C   UNL     1      12.954 -19.126 -26.075  1.00  0.00     0.053 C 
BRANCH   2   3
ATOM      3  C   UNL     1      12.398 -18.399 -24.892  1.00  0.00     0.041 C 
ATOM      4  O   UNL     1      13.144 -18.105 -23.921  1.00  0.00    -0.550 OA
ATOM      5  O   UNL     1      11.066 -18.003 -24.881  1.00  0.00    -0.550 OA
ENDBRANCH   2   3
ENDBRANCH   1   2
BRANCH   1   6
ATOM      6  C   UNL     1      12.482 -20.968 -27.782  1.00  0.00     0.000 C 
BRANCH   6   7
ATOM      7  C   UNL     1      13.003 -22.353 -27.371  1.00  0.00    -0.003 C 
ATOM      8  C   UNL     1      12.079 -23.007 -26.347  1.00  0.00     0.004 C 
ENDBRANCH   6   7
ENDBRANCH   1   6
TORSDOF 4
ENDMDL
MODEL 6
REMARK VINA RESULT:    -3.968      4.148      4.865
REMARK INTER + INTRA:          -4.992
REMARK INTER:                  -4.937
REMARK INTRA:                  -0.055
REMARK UNBOUND:                -0.095
REMARK SMILES CCCCCC(=O)[O-]
REMARK SMILES IDX 4 1 5 2 6 3 7 4 8 5 3 6 2 7 1 8
REMARK H PARENT
REMARK Flexibility Score: inf
ROOT
ATOM      1  C   UNL     1      12.354 -21.336 -27.098  1.00  0.00     0.006 C 
ENDROOT
BRANCH   1   2
ATOM      2  C   UNL     1      11.911 -22.715 -26.592  1.00  0.00     0.053 C 
BRANCH   2   3
ATOM      3  C   UNL     1      11.524 -23.592 -27.741  1.00  0.00     0.041 C 
ATOM      4  O   UNL     1      12.412 -24.151 -28.437  1.00  0.00    -0.550 OA
ATOM      5  O   UNL     1      10.183 -23.831 -28.013  1.00  0.00    -0.550 OA
ENDBRANCH   2   3
ENDBRANCH   1   2
BRANCH   1   6
ATOM      6  C   UNL     1      11.798 -20.186 -26.243  1.00  0.00     0.000 C 
BRANCH   6   7
ATOM      7  C   UNL     1      12.808 -19.044 -26.059  1.00  0.00    -0.003 C 
ATOM      8  C   UNL     1      12.692 -18.427 -24.668  1.00  0.00     0.004 C 
ENDBRANCH   6   7
ENDBRANCH   1   6
TORSDOF 4
ENDMDL
MODEL 7
REMARK VINA RESULT:    -3.903      1.813      2.658
REMARK INTER + INTRA:          -4.911
REMARK INTER:                  -4.716
REMARK INTRA:                  -0.195
REMARK UNBOUND:                -0.095
REMARK SMILES CCCCCC(=O)[O-]
REMARK SMILES IDX 4 1 5 2 6 3 7 4 8 5 3 6 2 7 1 8
REMARK H PARENT
REMARK Flexibility Score: inf
ROOT
ATOM      1  C   UNL     1       8.614 -17.711 -27.593  1.00  0.00     0.006 C 
ENDROOT
BRANCH   1   2
ATOM      2  C   UNL     1       8.119 -16.426 -28.269  1.00  0.00     0.053 C 
BRANCH   2   3
ATOM      3  C   UNL     1       8.060 -16.607 -29.752  1.00  0.00     0.041 C 
ATOM      4  O   UNL     1       8.605 -17.607 -30.290  1.00  0.00    -0.550 OA
ATOM      5  O   UNL     1       7.360 -15.699 -30.537  1.00  0.00    -0.550 OA
ENDBRANCH   2   3
ENDBRANCH   1   2
BRANCH   1   6
ATOM      6  C   UNL     1       9.894 -17.491 -26.771  1.00  0.00     0.000 C 
BRANCH   6   7
ATOM      7  C   UNL     1      10.986 -18.523 -27.091  1.00  0.00    -0.003 C 
ATOM      8  C   UNL     1      11.640 -18.230 -28.439  1.00  0.00     0.004 C 
ENDBRANCH   6   7
ENDBRANCH   1   6
TORSDOF 4
ENDMDL
MODEL 8
REMARK VINA RESULT:    -3.898      2.775      3.880
REMARK INTER + INTRA:          -4.905
REMARK INTER:                  -4.776
REMARK INTRA:                  -0.128
REMARK UNBOUND:                -0.095
REMARK SMILES CCCCCC(=O)[O-]
REMARK SMILES IDX 4 1 5 2 6 3 7 4 8 5 3 6 2 7 1 8
REMARK H PARENT
REMARK Flexibility Score: inf
ROOT
ATOM      1  C   UNL     1       9.455 -17.440 -28.457  1.00  0.00     0.006 C 
ENDROOT
BRANCH   1   2
ATOM      2  C   UNL     1       8.282 -17.441 -29.445  1.00  0.00     0.053 C 
BRANCH   2   3
ATOM      3  C   UNL     1       8.669 -16.748 -30.713  1.00  0.00     0.041 C 
ATOM      4  O   UNL     1       9.862 -16.778 -31.113  1.00  0.00    -0.550 OA
ATOM      5  O   UNL     1       7.701 -16.111 -31.481  1.00  0.00    -0.550 OA
ENDBRANCH   2   3
ENDBRANCH   1   2
BRANCH   1   6
ATOM      6  C   UNL     1       9.052 -16.936 -27.061  1.00  0.00     0.000 C 
BRANCH   6   7
ATOM      7  C   UNL     1       7.583 -16.493 -26.995  1.00  0.00    -0.003 C 
ATOM      8  C   UNL     1       7.474 -14.980 -26.820  1.00  0.00     0.004 C 
ENDBRANCH   6   7
ENDBRANCH   1   6
TORSDOF 4
ENDMDL
MODEL 9
REMARK VINA RESULT:    -3.883      2.669      3.259
REMARK INTER + INTRA:          -4.886
REMARK INTER:                  -4.769
REMARK INTRA:                  -0.117
REMARK UNBOUND:                -0.095
REMARK SMILES CCCCCC(=O)[O-]
REMARK SMILES IDX 4 1 5 2 6 3 7 4 8 5 3 6 2 7 1 8
REMARK H PARENT
REMARK Flexibility Score: inf
ROOT
ATOM      1  C   UNL     1      12.418 -19.755 -26.610  1.00  0.00     0.006 C 
ENDROOT
BRANCH   1   2
ATOM      2  C   UNL     1      11.228 -18.820 -26.861  1.00  0.00     0.053 C 
BRANCH   2   3
ATOM      3  C   UNL     1      11.120 -18.493 -28.317  1.00  0.00     0.041 C 
ATOM      4  O   UNL     1      10.016 -18.609 -28.913  1.00  0.00    -0.550 OA
ATOM      5  O   UNL     1      12.227 -18.014 -29.007  1.00  0.00    -0.550 OA
ENDBRANCH   2   3
ENDBRANCH   1   2
BRANCH   1   6
ATOM      6  C   UNL     1      12.273 -21.102 -27.336  1.00  0.00     0.000 C 
BRANCH   6   7
ATOM      7  C   UNL     1      12.019 -22.270 -26.371  1.00  0.00    -0.003 C 
ATOM      8  C   UNL     1      11.408 -23.463 -27.101  1.00  0.00     0.004 C 
ENDBRANCH   6   7
ENDBRANCH   1   6
TORSDOF 4
ENDMDL
