MODEL 1
REMARK VINA RESULT:    -2.584      0.000      0.000
REMARK INTER + INTRA:          -2.895
REMARK INTER:                  -2.886
REMARK INTRA:                  -0.009
REMARK UNBOUND:                -0.009
REMARK SMILES CCCC(=O)[O-]
REMARK SMILES IDX 3 1 4 2 5 3 6 4 2 5 1 6
REMARK H PARENT
REMARK Flexibility Score: inf
ROOT
ATOM      1  C   UNL     1       6.253  12.971   7.631  1.00  0.00     0.052 C 
ENDROOT
BRANCH   1   2
ATOM      2  C   UNL     1       7.681  13.196   8.020  1.00  0.00     0.041 C 
ATOM      3  O   UNL     1       8.096  12.829   9.151  1.00  0.00    -0.550 OA
ATOM      4  O   UNL     1       8.565  13.780   7.119  1.00  0.00    -0.550 OA
ENDBRANCH   1   2
BRANCH   1   5
ATOM      5  C   UNL     1       5.856  11.495   7.750  1.00  0.00     0.003 C 
ATOM      6  C   UNL     1       4.343  11.290   7.667  1.00  0.00     0.004 C 
ENDBRANCH   1   5
TORSDOF 2
ENDMDL
MODEL 2
REMARK VINA RESULT:    -2.577      3.241      3.622
REMARK INTER + INTRA:          -2.887
REMARK INTER:                  -2.877
REMARK INTRA:                  -0.010
REMARK UNBOUND:                -0.009
REMARK SMILES CCCC(=O)[O-]
REMARK SMILES IDX 3 1 4 2 5 3 6 4 2 5 1 6
REMARK H PARENT
REMARK Flexibility Score: inf
ROOT
ATOM      1  C   UNL     1       8.700  10.307   7.031  1.00  0.00     0.052 C 
ENDROOT
BRANCH   1   2
ATOM      2  C   UNL     1       9.063  11.584   7.724  1.00  0.00     0.041 C 
ATOM      3  O   UNL     1       9.088  11.638   8.981  1.00  0.00    -0.550 OA
ATOM      4  O   UNL     1       9.407  12.706   6.979  1.00  0.00    -0.550 OA
ENDBRANCH   1   2
BRANCH   1   5
ATOM      5  C   UNL     1       9.708   9.949   5.932  1.00  0.00     0.003 C 
ATOM      6  C   UNL     1       9.123   8.992   4.893  1.00  0.00     0.004 C 
ENDBRANCH   1   5
TORSDOF 2
ENDMDL
MODEL 3
REMARK VINA RESULT:    -2.575      3.296      3.902
REMARK INTER + INTRA:          -2.885
REMARK INTER:                  -2.874
REMARK INTRA:                  -0.011
REMARK UNBOUND:                -0.009
REMARK SMILES CCCC(=O)[O-]
REMARK SMILES IDX 3 1 4 2 5 3 6 4 2 5 1 6
REMARK H PARENT
REMARK Flexibility Score: inf
ROOT
ATOM      1  C   UNL     1       8.766  10.290   6.996  1.00  0.00     0.052 C 
ENDROOT
BRANCH   1   2
ATOM      2  C   UNL     1       9.146  11.568   7.678  1.00  0.00     0.041 C 
ATOM      3  O   UNL     1       9.435  12.587   6.998  1.00  0.00    -0.550 OA
ATOM      4  O   UNL     1       9.146  11.643   9.066  1.00  0.00    -0.550 OA
ENDBRANCH   1   2
BRANCH   1   5
ATOM      5  C   UNL     1       9.722   9.952   5.845  1.00  0.00     0.003 C 
ATOM      6  C   UNL     1       9.141   8.907   4.893  1.00  0.00     0.004 C 
ENDBRANCH   1   5
TORSDOF 2
ENDMDL
MODEL 4
REMARK VINA RESULT:    -2.455      1.361      1.817
REMARK INTER + INTRA:          -2.751
REMARK INTER:                  -2.701
REMARK INTRA:                  -0.050
REMARK UNBOUND:                -0.009
REMARK SMILES CCCC(=O)[O-]
REMARK SMILES IDX 3 1 4 2 5 3 6 4 2 5 1 6
REMARK H PARENT
REMARK Flexibility Score: inf
ROOT
ATOM      1  C   UNL     1       7.460  10.974   7.502  1.00  0.00     0.052 C 
ENDROOT
BRANCH   1   2
ATOM      2  C   UNL     1       8.669  11.727   7.965  1.00  0.00     0.041 C 
ATOM      3  O   UNL     1       9.025  11.674   9.171  1.00  0.00    -0.550 OA
ATOM      4  O   UNL     1       9.422  12.460   7.056  1.00  0.00    -0.550 OA
ENDBRANCH   1   2
BRANCH   1   5
ATOM      5  C   UNL     1       6.160  11.625   7.990  1.00  0.00     0.003 C 
ATOM      6  C   UNL     1       6.086  13.111   7.638  1.00  0.00     0.004 C 
ENDBRANCH   1   5
TORSDOF 2
ENDMDL
MODEL 5
REMARK VINA RESULT:    -2.448      1.795      2.450
REMARK INTER + INTRA:          -2.743
REMARK INTER:                  -2.675
REMARK INTRA:                  -0.068
REMARK UNBOUND:                -0.009
REMARK SMILES CCCC(=O)[O-]
REMARK SMILES IDX 3 1 4 2 5 3 6 4 2 5 1 6
REMARK H PARENT
REMARK Flexibility Score: inf
ROOT
ATOM      1  C   UNL     1       8.188  10.452   7.148  1.00  0.00     0.052 C 
ENDROOT
BRANCH   1   2
ATOM      2  C   UNL     1       9.010  11.539   7.769  1.00  0.00     0.041 C 
ATOM      3  O   UNL     1       9.403  12.512   7.073  1.00  0.00    -0.550 OA
ATOM      4  O   UNL     1       9.312  11.496   9.125  1.00  0.00    -0.550 OA
ENDBRANCH   1   2
BRANCH   1   5
ATOM      5  C   UNL     1       6.805  10.340   7.801  1.00  0.00     0.003 C 
ATOM      6  C   UNL     1       6.027  11.655   7.745  1.00  0.00     0.004 C 
ENDBRANCH   1   5
TORSDOF 2
ENDMDL
MODEL 6
REMARK VINA RESULT:    -2.348      1.405      2.297
REMARK INTER + INTRA:          -2.632
REMARK INTER:                  -2.569
REMARK INTRA:                  -0.063
REMARK UNBOUND:                -0.009
REMARK SMILES CCCC(=O)[O-]
REMARK SMILES IDX 3 1 4 2 5 3 6 4 2 5 1 6
REMARK H PARENT
REMARK Flexibility Score: inf
ROOT
ATOM      1  C   UNL     1       6.597  11.929   7.748  1.00  0.00     0.052 C 
ENDROOT
BRANCH   1   2
ATOM      2  C   UNL     1       7.721  12.802   8.214  1.00  0.00     0.041 C 
ATOM      3  O   UNL     1       8.239  13.640   7.431  1.00  0.00    -0.550 OA
ATOM      4  O   UNL     1       8.172  12.715   9.526  1.00  0.00    -0.550 OA
ENDBRANCH   1   2
BRANCH   1   5
ATOM      5  C   UNL     1       6.977  10.443   7.786  1.00  0.00     0.003 C 
ATOM      6  C   UNL     1       8.281  10.157   7.042  1.00  0.00     0.004 C 
ENDBRANCH   1   5
TORSDOF 2
ENDMDL
MODEL 7
REMARK VINA RESULT:    -2.261     11.356     12.179
REMARK INTER + INTRA:          -2.534
REMARK INTER:                  -2.523
REMARK INTRA:                  -0.011
REMARK UNBOUND:                -0.009
REMARK SMILES CCCC(=O)[O-]
REMARK SMILES IDX 3 1 4 2 5 3 6 4 2 5 1 6
REMARK H PARENT
REMARK Flexibility Score: inf
ROOT
ATOM      1  C   UNL     1      13.781  13.887  -1.883  1.00  0.00     0.052 C 
ENDROOT
BRANCH   1   2
ATOM      2  C   UNL     1      12.377  13.384  -2.018  1.00  0.00     0.041 C 
ATOM      3  O   UNL     1      12.031  12.313  -1.455  1.00  0.00    -0.550 OA
ATOM      4  O   UNL     1      11.441  14.117  -2.737  1.00  0.00    -0.550 OA
ENDBRANCH   1   2
BRANCH   1   5
ATOM      5  C   UNL     1      14.746  12.777  -1.450  1.00  0.00     0.003 C 
ATOM      6  C   UNL     1      16.134  13.314  -1.103  1.00  0.00     0.004 C 
ENDBRANCH   1   5
TORSDOF 2
ENDMDL
MODEL 8
REMARK VINA RESULT:    -2.168     10.636     11.240
REMARK INTER + INTRA:          -2.430
REMARK INTER:                  -2.360
REMARK INTRA:                  -0.071
REMARK UNBOUND:                -0.009
REMARK SMILES CCCC(=O)[O-]
REMARK SMILES IDX 3 1 4 2 5 3 6 4 2 5 1 6
REMARK H PARENT
REMARK Flexibility Score: inf
ROOT
ATOM      1  C   UNL     1      15.070   8.108  11.916  1.00  0.00     0.052 C 
ENDROOT
BRANCH   1   2
ATOM      2  C   UNL     1      15.304   7.438  13.235  1.00  0.00     0.041 C 
ATOM      3  O   UNL     1      16.374   7.639  13.867  1.00  0.00    -0.550 OA
ATOM      4  O   UNL     1      14.324   6.619  13.783  1.00  0.00    -0.550 OA
ENDBRANCH   1   2
BRANCH   1   5
ATOM      5  C   UNL     1      14.685   7.101  10.825  1.00  0.00     0.003 C 
ATOM      6  C   UNL     1      15.791   6.079  10.561  1.00  0.00     0.004 C 
ENDBRANCH   1   5
TORSDOF 2
ENDMDL
MODEL 9
REMARK VINA RESULT:    -2.146     12.268     12.665
REMARK INTER + INTRA:          -2.405
REMARK INTER:                  -2.400
REMARK INTRA:                  -0.005
REMARK UNBOUND:                -0.009
REMARK SMILES CCCC(=O)[O-]
REMARK SMILES IDX 3 1 4 2 5 3 6 4 2 5 1 6
REMARK H PARENT
REMARK Flexibility Score: inf
ROOT
ATOM      1  C   UNL     1      12.324  15.287  -3.400  1.00  0.00     0.052 C 
ENDROOT
BRANCH   1   2
ATOM      2  C   UNL     1      11.164  14.340  -3.427  1.00  0.00     0.041 C 
ATOM      3  O   UNL     1      11.360  13.097  -3.381  1.00  0.00    -0.550 OA
ATOM      4  O   UNL     1       9.865  14.830  -3.467  1.00  0.00    -0.550 OA
ENDBRANCH   1   2
BRANCH   1   5
ATOM      5  C   UNL     1      13.104  15.195  -2.084  1.00  0.00     0.003 C 
ATOM      6  C   UNL     1      13.938  16.447  -1.812  1.00  0.00     0.004 C 
ENDBRANCH   1   5
TORSDOF 2
ENDMDL
