MODEL 1
REMARK VINA RESULT:    18.567      0.000      0.000
REMARK INTER + INTRA:          28.613
REMARK INTER:                  27.251
REMARK INTRA:                   1.362
REMARK UNBOUND:                 1.362
REMARK SMILES CC(C)(O)CC[C@@H](O)[C@@](C)(O)[C@H]1CC[C@]2(O)C3=CC(=O)[C@H]4C[C@H](O)[C@H](O)C[C@@]4(C)[C@H]3CC[C@]12C
REMARK SMILES IDX 6 1 7 2 9 3 10 4 12 5 34 6 33 7 32 8 15 9 31 10 17 11 14 12
REMARK SMILES IDX 13 13 30 14 18 15 28 16 19 17 21 18 27 19 29 20 20 21 22 22
REMARK SMILES IDX 25 23 23 24 16 25 26 27 24 29 11 31 8 33 5 35 2 36 1 37 3 38
REMARK SMILES IDX 4 39
REMARK H PARENT 16 26 26 28 24 30 11 32 8 34 4 40
REMARK Flexibility Score: inf
ROOT
ATOM      1  C   UNL     1      15.918 -32.228  14.347  1.00  0.00     0.038 C 
ENDROOT
BRANCH   1   2
ATOM      2  C   UNL     1      15.075 -31.158  15.101  1.00  0.00     0.146 C 
BRANCH   2   3
ATOM      3  C   UNL     1      14.392 -30.033  14.231  1.00  0.00     0.091 C 
ATOM      4  C   UNL     1      14.757 -28.630  14.812  1.00  0.00     0.045 C 
BRANCH   3   5
ATOM      5  C   UNL     1      12.813 -30.203  14.270  1.00  0.00     0.032 C 
ATOM      6  C   UNL     1      13.079 -32.492  15.590  1.00  0.00     0.015 C 
ATOM      7  C   UNL     1      12.110 -31.357  15.128  1.00  0.00     0.006 C 
ATOM      8  C   UNL     1      11.458 -30.703  16.383  1.00  0.00     0.011 C 
ATOM      9  C   UNL     1      10.991 -31.954  14.176  1.00  0.00     0.092 C 
ATOM     10  C   UNL     1      10.494 -31.628  17.113  1.00  0.00     0.009 C 
ATOM     11  C   UNL     1       9.620 -32.270  14.806  1.00  0.00    -0.031 C 
ATOM     12  C   UNL     1      10.808 -30.878  13.106  1.00  0.00     0.041 C 
ATOM     13  C   UNL     1      12.190 -30.321  12.875  1.00  0.00     0.010 C 
ATOM     14  C   UNL     1       9.256 -31.935  16.249  1.00  0.00     0.025 C 
ATOM     15  C   UNL     1       8.665 -32.788  14.013  1.00  0.00     0.050 C 
ATOM     16  C   UNL     1       8.292 -33.015  16.883  1.00  0.00    -0.013 C 
ATOM     17  C   UNL     1       7.323 -33.113  14.508  1.00  0.00     0.159 C 
ATOM     18  C   UNL     1       7.000 -33.100  15.989  1.00  0.00     0.070 C 
ATOM     19  C   UNL     1       9.004 -34.411  16.965  1.00  0.00     0.042 C 
ATOM     20  C   UNL     1       7.886 -32.543  18.308  1.00  0.00     0.013 C 
ATOM     21  O   UNL     1       6.415 -33.354  13.668  1.00  0.00    -0.295 OA
ATOM     22  C   UNL     1       6.101 -34.309  16.352  1.00  0.00     0.047 C 
ATOM     23  C   UNL     1       8.073 -35.601  17.265  1.00  0.00     0.143 C 
ATOM     24  C   UNL     1       6.881 -35.631  16.295  1.00  0.00     0.143 C 
BRANCH   9  25
ATOM     25  O   UNL     1      11.468 -33.106  13.507  1.00  0.00    -0.385 OA
ATOM     26  H   UNL     1      12.206 -32.834  12.898  1.00  0.00     0.211 HD
ENDBRANCH   9  25
BRANCH  23  27
ATOM     27  O   UNL     1       7.638 -35.551  18.600  1.00  0.00    -0.390 OA
ATOM     28  H   UNL     1       8.390 -35.864  19.165  1.00  0.00     0.211 HD
ENDBRANCH  23  27
BRANCH  24  29
ATOM     29  O   UNL     1       6.033 -36.703  16.620  1.00  0.00    -0.390 OA
ATOM     30  H   UNL     1       5.808 -37.158  15.766  1.00  0.00     0.211 HD
ENDBRANCH  24  29
ENDBRANCH   3   5
BRANCH   3  31
ATOM     31  O   UNL     1      14.820 -30.096  12.890  1.00  0.00    -0.387 OA
ATOM     32  H   UNL     1      14.915 -29.177  12.535  1.00  0.00     0.211 HD
ENDBRANCH   3  31
ENDBRANCH   2   3
BRANCH   2  33
ATOM     33  O   UNL     1      15.793 -30.599  16.171  1.00  0.00    -0.390 OA
ATOM     34  H   UNL     1      16.726 -30.449  15.859  1.00  0.00     0.211 HD
ENDBRANCH   2  33
ENDBRANCH   1   2
BRANCH   1  35
ATOM     35  C   UNL     1      17.043 -31.772  13.381  1.00  0.00     0.037 C 
BRANCH  35  36
ATOM     36  C   UNL     1      18.504 -31.759  13.921  1.00  0.00     0.059 C 
ATOM     37  C   UNL     1      18.965 -30.323  14.264  1.00  0.00     0.042 C 
ATOM     38  C   UNL     1      18.558 -32.621  15.199  1.00  0.00     0.042 C 
BRANCH  36  39
ATOM     39  O   UNL     1      19.361 -32.332  12.963  1.00  0.00    -0.390 OA
ATOM     40  H   UNL     1      20.246 -32.485  13.390  1.00  0.00     0.211 HD
ENDBRANCH  36  39
ENDBRANCH  35  36
ENDBRANCH   1  35
TORSDOF 11
ENDMDL
MODEL 2
REMARK VINA RESULT:    20.909      4.051      8.120
REMARK INTER + INTRA:          32.050
REMARK INTER:                  28.790
REMARK INTRA:                   3.260
REMARK UNBOUND:                 1.362
REMARK SMILES CC(C)(O)CC[C@@H](O)[C@@](C)(O)[C@H]1CC[C@]2(O)C3=CC(=O)[C@H]4C[C@H](O)[C@H](O)C[C@@]4(C)[C@H]3CC[C@]12C
REMARK SMILES IDX 6 1 7 2 9 3 10 4 12 5 34 6 33 7 32 8 15 9 31 10 17 11 14 12
REMARK SMILES IDX 13 13 30 14 18 15 28 16 19 17 21 18 27 19 29 20 20 21 22 22
REMARK SMILES IDX 25 23 23 24 16 25 26 27 24 29 11 31 8 33 5 35 2 36 1 37 3 38
REMARK SMILES IDX 4 39
REMARK H PARENT 16 26 26 28 24 30 11 32 8 34 4 40
REMARK Flexibility Score: inf
ROOT
ATOM      1  C   UNL     1       7.224 -37.209  16.323  1.00  0.00     0.038 C 
ENDROOT
BRANCH   1   2
ATOM      2  C   UNL     1       7.190 -37.835  14.898  1.00  0.00     0.146 C 
BRANCH   2   3
ATOM      3  C   UNL     1       7.974 -37.077  13.758  1.00  0.00     0.091 C 
ATOM      4  C   UNL     1       8.836 -38.097  12.949  1.00  0.00     0.045 C 
BRANCH   3   5
ATOM      5  C   UNL     1       8.941 -35.991  14.398  1.00  0.00     0.032 C 
ATOM      6  C   UNL     1       6.842 -34.602  15.246  1.00  0.00     0.015 C 
ATOM      7  C   UNL     1       8.387 -34.814  15.330  1.00  0.00     0.006 C 
ATOM      8  C   UNL     1       8.777 -35.137  16.804  1.00  0.00     0.011 C 
ATOM      9  C   UNL     1       9.142 -33.508  14.837  1.00  0.00     0.092 C 
ATOM     10  C   UNL     1       8.593 -33.957  17.749  1.00  0.00     0.009 C 
ATOM     11  C   UNL     1       9.654 -32.537  15.919  1.00  0.00    -0.031 C 
ATOM     12  C   UNL     1      10.336 -34.050  14.051  1.00  0.00     0.041 C 
ATOM     13  C   UNL     1       9.816 -35.283  13.358  1.00  0.00     0.010 C 
ATOM     14  C   UNL     1       9.576 -32.819  17.415  1.00  0.00     0.025 C 
ATOM     15  C   UNL     1      10.285 -31.419  15.514  1.00  0.00     0.050 C 
ATOM     16  C   UNL     1       9.332 -31.502  18.255  1.00  0.00    -0.013 C 
ATOM     17  C   UNL     1      10.823 -30.435  16.459  1.00  0.00     0.159 C 
ATOM     18  C   UNL     1      10.501 -30.499  17.939  1.00  0.00     0.070 C 
ATOM     19  C   UNL     1       7.942 -30.868  17.896  1.00  0.00     0.042 C 
ATOM     20  C   UNL     1       9.374 -31.864  19.767  1.00  0.00     0.013 C 
ATOM     21  O   UNL     1      11.611 -29.552  16.025  1.00  0.00    -0.295 OA
ATOM     22  C   UNL     1      10.233 -29.077  18.492  1.00  0.00     0.047 C 
ATOM     23  C   UNL     1       7.731 -29.430  18.406  1.00  0.00     0.143 C 
ATOM     24  C   UNL     1       8.895 -28.517  17.987  1.00  0.00     0.143 C 
BRANCH   9  25
ATOM     25  O   UNL     1       8.345 -32.793  13.912  1.00  0.00    -0.385 OA
ATOM     26  H   UNL     1       7.814 -32.116  14.411  1.00  0.00     0.211 HD
ENDBRANCH   9  25
BRANCH  23  27
ATOM     27  O   UNL     1       7.565 -29.430  19.801  1.00  0.00    -0.390 OA
ATOM     28  H   UNL     1       8.314 -29.956  20.185  1.00  0.00     0.211 HD
ENDBRANCH  23  27
BRANCH  24  29
ATOM     29  O   UNL     1       8.691 -27.224  18.501  1.00  0.00    -0.390 OA
ATOM     30  H   UNL     1       7.710 -27.113  18.612  1.00  0.00     0.211 HD
ENDBRANCH  24  29
ENDBRANCH   3   5
BRANCH   3  31
ATOM     31  O   UNL     1       7.088 -36.429  12.875  1.00  0.00    -0.387 OA
ATOM     32  H   UNL     1       7.288 -36.711  11.947  1.00  0.00     0.211 HD
ENDBRANCH   3  31
ENDBRANCH   2   3
BRANCH   2  33
ATOM     33  O   UNL     1       5.875 -38.125  14.496  1.00  0.00    -0.390 OA
ATOM     34  H   UNL     1       5.896 -38.993  14.010  1.00  0.00     0.211 HD
ENDBRANCH   2  33
ENDBRANCH   1   2
BRANCH   1  35
ATOM     35  C   UNL     1       7.037 -38.122  17.563  1.00  0.00     0.037 C 
BRANCH  35  36
ATOM     36  C   UNL     1       7.361 -37.521  18.963  1.00  0.00     0.059 C 
ATOM     37  C   UNL     1       8.837 -37.764  19.353  1.00  0.00     0.042 C 
ATOM     38  C   UNL     1       7.100 -36.002  18.912  1.00  0.00     0.042 C 
BRANCH  36  39
ATOM     39  O   UNL     1       6.502 -38.087  19.924  1.00  0.00    -0.390 OA
ATOM     40  H   UNL     1       5.570 -38.029  19.581  1.00  0.00     0.211 HD
ENDBRANCH  36  39
ENDBRANCH  35  36
ENDBRANCH   1  35
TORSDOF 11
ENDMDL
