MODEL 1
REMARK VINA RESULT:     4.593      0.000      0.000
REMARK INTER + INTRA:           9.454
REMARK INTER:                   7.547
REMARK INTRA:                   1.907
REMARK UNBOUND:                 1.907
REMARK SMILES COc1ccc([C@H]2CC(=O)c3c(O)cc(O[C@H]4O[C@H](CO[C@@H]5O[C@@H](C)[C@@H](O)[C@H](O)[C@H]5O)[C@@H](O)[C@H](O)[C@@H]4O)cc3O2)cc1O
REMARK SMILES IDX 19 1 32 2 34 3 36 4 17 5 18 6 20 7 21 8 22 9 25 10 24 11
REMARK SMILES IDX 26 12 23 13 28 14 30 15 27 16 29 18 31 20 33 22 35 24 16 26
REMARK SMILES IDX 15 27 14 28 38 29 12 30 39 31 11 32 40 33 9 34 7 35 10 36
REMARK SMILES IDX 8 37 13 38 6 40 41 41 5 42 42 43 4 44 3 45 43 46 2 48 1 49
REMARK SMILES IDX 37 50
REMARK H PARENT 27 17 29 19 31 21 33 23 35 25 13 39 43 47 37 51
REMARK Flexibility Score: inf
ROOT
ATOM      1  C   UNL     1       9.828  -0.790  12.205  1.00  0.00     0.180 C 
ATOM      2  C   UNL     1      10.131  -1.975  11.171  1.00  0.00     0.177 C 
ATOM      3  C   UNL     1      11.144  -2.948  11.807  1.00  0.00     0.180 C 
ATOM      4  C   UNL     1      10.451  -3.458  13.156  1.00  0.00     0.214 C 
ATOM      5  C   UNL     1       9.326  -2.567  13.714  1.00  0.00     0.339 C 
ATOM      6  O   UNL     1       9.614  -1.208  13.542  1.00  0.00    -0.332 OA
ENDROOT
BRANCH   1   7
ATOM      7  C   UNL     1       8.666   0.108  11.628  1.00  0.00     0.198 C 
BRANCH   7   8
ATOM      8  O   UNL     1       8.647   1.450  12.149  1.00  0.00    -0.347 OA
BRANCH   8   9
ATOM      9  C   UNL     1       9.322   2.384  11.265  1.00  0.00     0.281 C 
ATOM     10  C   UNL     1       8.975   5.694  11.045  1.00  0.00     0.041 C 
ATOM     11  C   UNL     1       8.401   4.590  11.872  1.00  0.00     0.150 C 
ATOM     12  C   UNL     1       7.035   3.916  11.471  1.00  0.00     0.174 C 
ATOM     13  O   UNL     1       9.474   3.684  11.894  1.00  0.00    -0.344 OA
ATOM     14  C   UNL     1       7.211   3.059  10.207  1.00  0.00     0.179 C 
ATOM     15  C   UNL     1       8.495   2.342  10.036  1.00  0.00     0.202 C 
BRANCH  12  16
ATOM     16  O   UNL     1       5.907   4.814  11.448  1.00  0.00    -0.388 OA
ATOM     17  H   UNL     1       6.105   5.533  12.146  1.00  0.00     0.211 HD
ENDBRANCH  12  16
BRANCH  14  18
ATOM     18  O   UNL     1       6.100   2.388   9.612  1.00  0.00    -0.387 OA
ATOM     19  H   UNL     1       5.602   2.854   8.855  1.00  0.00     0.211 HD
ENDBRANCH  14  18
BRANCH  15  20
ATOM     20  O   UNL     1       9.119   2.800   8.800  1.00  0.00    -0.385 OA
ATOM     21  H   UNL     1       9.886   3.348   9.099  1.00  0.00     0.211 HD
ENDBRANCH  15  20
ENDBRANCH   8   9
ENDBRANCH   7   8
ENDBRANCH   1   7
BRANCH   2  22
ATOM     22  O   UNL     1      10.552  -1.498   9.939  1.00  0.00    -0.387 OA
ATOM     23  H   UNL     1       9.770  -1.275   9.389  1.00  0.00     0.211 HD
ENDBRANCH   2  22
BRANCH   3  24
ATOM     24  O   UNL     1      11.489  -3.988  10.935  1.00  0.00    -0.387 OA
ATOM     25  H   UNL     1      12.068  -3.617  10.196  1.00  0.00     0.211 HD
ENDBRANCH   3  24
BRANCH   5  26
ATOM     26  O   UNL     1       9.323  -2.861  15.157  1.00  0.00    -0.462 OA
BRANCH  26  27
ATOM     27  C   UNL     1      10.411  -2.384  15.990  1.00  0.00     0.130 A 
ATOM     28  C   UNL     1      10.865  -3.139  17.166  1.00  0.00     0.093 A 
ATOM     29  C   UNL     1      10.627  -0.969  15.940  1.00  0.00     0.094 A 
ATOM     30  C   UNL     1      10.626  -2.456  18.323  1.00  0.00     0.133 A 
ATOM     31  C   UNL     1      11.072  -0.390  17.224  1.00  0.00     0.138 A 
ATOM     32  C   UNL     1      11.194  -1.237  18.356  1.00  0.00     0.102 A 
ATOM     33  O   UNL     1      11.234   0.968  17.570  1.00  0.00    -0.484 OA
ATOM     34  C   UNL     1      12.196  -0.901  19.355  1.00  0.00     0.174 C 
ATOM     35  C   UNL     1      11.629   1.401  18.913  1.00  0.00     0.211 C 
ATOM     36  O   UNL     1      12.755  -1.760  20.125  1.00  0.00    -0.294 OA
ATOM     37  C   UNL     1      12.742   0.488  19.305  1.00  0.00     0.131 C 
BRANCH  30  38
ATOM     38  O   UNL     1       9.557  -2.773  19.103  1.00  0.00    -0.507 OA
ATOM     39  H   UNL     1       8.670  -2.346  18.812  1.00  0.00     0.293 HD
ENDBRANCH  30  38
BRANCH  35  40
ATOM     40  C   UNL     1      10.607   1.381  20.107  1.00  0.00    -0.003 A 
ATOM     41  C   UNL     1       9.704   0.262  20.112  1.00  0.00     0.057 A 
ATOM     42  C   UNL     1       9.833   2.595  20.125  1.00  0.00     0.011 A 
ATOM     43  C   UNL     1       8.394   0.354  19.623  1.00  0.00     0.158 A 
ATOM     44  C   UNL     1       8.894   2.685  19.070  1.00  0.00     0.051 A 
ATOM     45  C   UNL     1       8.204   1.467  18.743  1.00  0.00     0.160 A 
BRANCH  43  46
ATOM     46  O   UNL     1       7.326  -0.348  20.125  1.00  0.00    -0.504 OA
ATOM     47  H   UNL     1       6.840  -0.985  19.528  1.00  0.00     0.293 HD
ENDBRANCH  43  46
BRANCH  45  48
ATOM     48  O   UNL     1       7.261   1.396  17.734  1.00  0.00    -0.493 OA
ATOM     49  C   UNL     1       6.002   0.699  18.152  1.00  0.00     0.278 C 
ENDBRANCH  45  48
ENDBRANCH  35  40
ENDBRANCH  26  27
ENDBRANCH   5  26
BRANCH   4  50
ATOM     50  O   UNL     1       9.777  -4.677  13.004  1.00  0.00    -0.384 OA
ATOM     51  H   UNL     1      10.014  -5.273  13.773  1.00  0.00     0.211 HD
ENDBRANCH   4  50
TORSDOF 15
ENDMDL
MODEL 2
REMARK VINA RESULT:     6.065      1.300      1.805
REMARK INTER + INTRA:          11.872
REMARK INTER:                   8.742
REMARK INTRA:                   3.130
REMARK UNBOUND:                 1.907
REMARK SMILES COc1ccc([C@H]2CC(=O)c3c(O)cc(O[C@H]4O[C@H](CO[C@@H]5O[C@@H](C)[C@@H](O)[C@H](O)[C@H]5O)[C@@H](O)[C@H](O)[C@@H]4O)cc3O2)cc1O
REMARK SMILES IDX 19 1 32 2 34 3 36 4 17 5 18 6 20 7 21 8 22 9 25 10 24 11
REMARK SMILES IDX 26 12 23 13 28 14 30 15 27 16 29 18 31 20 33 22 35 24 16 26
REMARK SMILES IDX 15 27 14 28 38 29 12 30 39 31 11 32 40 33 9 34 7 35 10 36
REMARK SMILES IDX 8 37 13 38 6 40 41 41 5 42 42 43 4 44 3 45 43 46 2 48 1 49
REMARK SMILES IDX 37 50
REMARK H PARENT 27 17 29 19 31 21 33 23 35 25 13 39 43 47 37 51
REMARK Flexibility Score: inf
ROOT
ATOM      1  C   UNL     1       9.855   0.037  12.039  1.00  0.00     0.180 C 
ATOM      2  C   UNL     1      10.141  -1.176  11.034  1.00  0.00     0.177 C 
ATOM      3  C   UNL     1      10.912  -2.280  11.786  1.00  0.00     0.180 C 
ATOM      4  C   UNL     1       9.971  -2.693  13.012  1.00  0.00     0.214 C 
ATOM      5  C   UNL     1       8.907  -1.658  13.424  1.00  0.00     0.339 C 
ATOM      6  O   UNL     1       9.397  -0.351  13.323  1.00  0.00    -0.332 OA
ENDROOT
BRANCH   1   7
ATOM      7  C   UNL     1       8.919   1.085  11.322  1.00  0.00     0.198 C 
BRANCH   7   8
ATOM      8  O   UNL     1       8.006   1.760  12.209  1.00  0.00    -0.347 OA
BRANCH   8   9
ATOM      9  C   UNL     1       8.246   3.192  12.243  1.00  0.00     0.281 C 
ATOM     10  C   UNL     1       6.536   5.644  10.761  1.00  0.00     0.041 C 
ATOM     11  C   UNL     1       6.445   4.156  10.858  1.00  0.00     0.150 C 
ATOM     12  C   UNL     1       7.078   3.241   9.742  1.00  0.00     0.174 C 
ATOM     13  O   UNL     1       7.002   3.934  12.129  1.00  0.00    -0.344 OA
ATOM     14  C   UNL     1       8.613   3.288   9.816  1.00  0.00     0.179 C 
ATOM     15  C   UNL     1       9.233   3.395  11.156  1.00  0.00     0.202 C 
BRANCH  12  16
ATOM     16  O   UNL     1       6.524   3.433   8.424  1.00  0.00    -0.388 OA
ATOM     17  H   UNL     1       6.773   4.385   8.150  1.00  0.00     0.211 HD
ENDBRANCH  12  16
BRANCH  14  18
ATOM     18  O   UNL     1       9.417   2.581   8.871  1.00  0.00    -0.387 OA
ATOM     19  H   UNL     1       9.486   2.950   7.923  1.00  0.00     0.211 HD
ENDBRANCH  14  18
BRANCH  15  20
ATOM     20  O   UNL     1      10.027   4.617  11.200  1.00  0.00    -0.385 OA
ATOM     21  H   UNL     1       9.616   5.204  10.518  1.00  0.00     0.211 HD
ENDBRANCH  15  20
ENDBRANCH   8   9
ENDBRANCH   7   8
ENDBRANCH   1   7
BRANCH   2  22
ATOM     22  O   UNL     1      10.795  -0.759   9.885  1.00  0.00    -0.387 OA
ATOM     23  H   UNL     1      11.762  -0.886   9.992  1.00  0.00     0.211 HD
ENDBRANCH   2  22
BRANCH   3  24
ATOM     24  O   UNL     1      11.237  -3.355  10.950  1.00  0.00    -0.387 OA
ATOM     25  H   UNL     1      10.751  -4.179  11.271  1.00  0.00     0.211 HD
ENDBRANCH   3  24
BRANCH   5  26
ATOM     26  O   UNL     1       8.658  -1.952  14.845  1.00  0.00    -0.462 OA
BRANCH  26  27
ATOM     27  C   UNL     1       9.764  -2.325  15.707  1.00  0.00     0.130 A 
ATOM     28  C   UNL     1       9.586  -3.270  16.818  1.00  0.00     0.093 A 
ATOM     29  C   UNL     1      10.826  -1.367  15.766  1.00  0.00     0.094 A 
ATOM     30  C   UNL     1       9.780  -2.666  18.026  1.00  0.00     0.133 A 
ATOM     31  C   UNL     1      11.479  -1.284  17.089  1.00  0.00     0.138 A 
ATOM     32  C   UNL     1      10.987  -2.086  18.150  1.00  0.00     0.102 A 
ATOM     33  O   UNL     1      12.445  -0.360  17.538  1.00  0.00    -0.484 OA
ATOM     34  C   UNL     1      11.930  -2.524  19.167  1.00  0.00     0.174 C 
ATOM     35  C   UNL     1      12.964  -0.361  18.908  1.00  0.00     0.211 C 
ATOM     36  O   UNL     1      11.786  -3.590  19.865  1.00  0.00    -0.294 OA
ATOM     37  C   UNL     1      13.232  -1.794  19.222  1.00  0.00     0.131 C 
BRANCH  30  38
ATOM     38  O   UNL     1       8.716  -2.283  18.784  1.00  0.00    -0.507 OA
ATOM     39  H   UNL     1       8.097  -3.048  19.074  1.00  0.00     0.293 HD
ENDBRANCH  30  38
BRANCH  35  40
ATOM     40  C   UNL     1      12.106   0.195  20.102  1.00  0.00    -0.003 A 
ATOM     41  C   UNL     1      10.730  -0.222  20.105  1.00  0.00     0.057 A 
ATOM     42  C   UNL     1      12.149   1.634  20.124  1.00  0.00     0.011 A 
ATOM     43  C   UNL     1       9.699   0.592  19.616  1.00  0.00     0.158 A 
ATOM     44  C   UNL     1      11.425   2.238  19.070  1.00  0.00     0.051 A 
ATOM     45  C   UNL     1      10.170   1.621  18.740  1.00  0.00     0.160 A 
BRANCH  43  46
ATOM     46  O   UNL     1       8.421   0.610  20.116  1.00  0.00    -0.504 OA
ATOM     47  H   UNL     1       7.687   0.185  19.589  1.00  0.00     0.293 HD
ENDBRANCH  43  46
BRANCH  45  48
ATOM     48  O   UNL     1       9.351   2.095  17.731  1.00  0.00    -0.493 OA
ATOM     49  C   UNL     1       8.368   3.121  18.203  1.00  0.00     0.278 C 
ENDBRANCH  45  48
ENDBRANCH  35  40
ENDBRANCH  26  27
ENDBRANCH   5  26
BRANCH   4  50
ATOM     50  O   UNL     1       9.169  -3.809  12.739  1.00  0.00    -0.384 OA
ATOM     51  H   UNL     1       9.711  -4.638  12.891  1.00  0.00     0.211 HD
ENDBRANCH   4  50
TORSDOF 15
ENDMDL
MODEL 3
REMARK VINA RESULT:     6.904      2.191      8.514
REMARK INTER + INTRA:          13.250
REMARK INTER:                  10.674
REMARK INTRA:                   2.575
REMARK UNBOUND:                 1.907
REMARK SMILES COc1ccc([C@H]2CC(=O)c3c(O)cc(O[C@H]4O[C@H](CO[C@@H]5O[C@@H](C)[C@@H](O)[C@H](O)[C@H]5O)[C@@H](O)[C@H](O)[C@@H]4O)cc3O2)cc1O
REMARK SMILES IDX 19 1 32 2 34 3 36 4 17 5 18 6 20 7 21 8 22 9 25 10 24 11
REMARK SMILES IDX 26 12 23 13 28 14 30 15 27 16 29 18 31 20 33 22 35 24 16 26
REMARK SMILES IDX 15 27 14 28 38 29 12 30 39 31 11 32 40 33 9 34 7 35 10 36
REMARK SMILES IDX 8 37 13 38 6 40 41 41 5 42 42 43 4 44 3 45 43 46 2 48 1 49
REMARK SMILES IDX 37 50
REMARK H PARENT 27 17 29 19 31 21 33 23 35 25 13 39 43 47 37 51
REMARK Flexibility Score: inf
ROOT
ATOM      1  C   UNL     1       8.881  -1.921  18.360  1.00  0.00     0.180 C 
ATOM      2  C   UNL     1       7.743  -2.973  17.959  1.00  0.00     0.177 C 
ATOM      3  C   UNL     1       7.103  -2.535  16.625  1.00  0.00     0.180 C 
ATOM      4  C   UNL     1       8.308  -2.487  15.574  1.00  0.00     0.214 C 
ATOM      5  C   UNL     1       9.722  -2.370  16.174  1.00  0.00     0.339 C 
ATOM      6  O   UNL     1       9.735  -1.535  17.298  1.00  0.00    -0.332 OA
ENDROOT
BRANCH   1   7
ATOM      7  C   UNL     1       9.651  -2.460  19.628  1.00  0.00     0.198 C 
BRANCH   7   8
ATOM      8  O   UNL     1      10.796  -1.670  20.000  1.00  0.00    -0.347 OA
BRANCH   8   9
ATOM      9  C   UNL     1      11.995  -2.090  19.297  1.00  0.00     0.281 C 
ATOM     10  C   UNL     1      15.087  -0.854  19.493  1.00  0.00     0.041 C 
ATOM     11  C   UNL     1      13.761  -0.579  20.124  1.00  0.00     0.150 C 
ATOM     12  C   UNL     1      12.812   0.535  19.542  1.00  0.00     0.174 C 
ATOM     13  O   UNL     1      13.182  -1.859  20.102  1.00  0.00    -0.344 OA
ATOM     14  C   UNL     1      12.228   0.090  18.191  1.00  0.00     0.179 C 
ATOM     15  C   UNL     1      11.914  -1.347  18.018  1.00  0.00     0.202 C 
BRANCH  12  16
ATOM     16  O   UNL     1      13.369   1.866  19.558  1.00  0.00    -0.388 OA
ATOM     17  H   UNL     1      14.039   1.899  18.788  1.00  0.00     0.211 HD
ENDBRANCH  12  16
BRANCH  14  18
ATOM     18  O   UNL     1      11.379   0.954  17.435  1.00  0.00    -0.387 OA
ATOM     19  H   UNL     1      10.433   0.640  17.224  1.00  0.00     0.211 HD
ENDBRANCH  14  18
BRANCH  15  20
ATOM     20  O   UNL     1      12.699  -1.859  16.901  1.00  0.00    -0.385 OA
ATOM     21  H   UNL     1      12.029  -2.063  16.202  1.00  0.00     0.211 HD
ENDBRANCH  15  20
ENDBRANCH   8   9
ENDBRANCH   7   8
ENDBRANCH   1   7
BRANCH   2  22
ATOM     22  O   UNL     1       6.807  -3.141  18.968  1.00  0.00    -0.387 OA
ATOM     23  H   UNL     1       7.239  -3.546  19.751  1.00  0.00     0.211 HD
ENDBRANCH   2  22
BRANCH   3  24
ATOM     24  O   UNL     1       6.063  -3.389  16.238  1.00  0.00    -0.387 OA
ATOM     25  H   UNL     1       5.225  -2.845  16.104  1.00  0.00     0.211 HD
ENDBRANCH   3  24
BRANCH   5  26
ATOM     26  O   UNL     1      10.507  -1.725  15.108  1.00  0.00    -0.462 OA
BRANCH  26  27
ATOM     27  C   UNL     1       9.942  -1.593  13.778  1.00  0.00     0.130 A 
ATOM     28  C   UNL     1      10.773  -1.735  12.575  1.00  0.00     0.093 A 
ATOM     29  C   UNL     1       8.741  -0.816  13.714  1.00  0.00     0.094 A 
ATOM     30  C   UNL     1      10.855  -0.562  11.882  1.00  0.00     0.133 A 
ATOM     31  C   UNL     1       8.610  -0.027  12.471  1.00  0.00     0.138 A 
ATOM     32  C   UNL     1       9.660  -0.067  11.517  1.00  0.00     0.102 A 
ATOM     33  O   UNL     1       7.644   0.947  12.143  1.00  0.00    -0.484 OA
ATOM     34  C   UNL     1       9.313   0.108  10.115  1.00  0.00     0.174 C 
ATOM     35  C   UNL     1       7.673   1.698  10.886  1.00  0.00     0.211 C 
ATOM     36  O   UNL     1      10.001  -0.370   9.144  1.00  0.00    -0.294 OA
ATOM     37  C   UNL     1       7.965   0.684   9.832  1.00  0.00     0.131 C 
BRANCH  30  38
ATOM     38  O   UNL     1      11.959   0.228  11.992  1.00  0.00    -0.507 OA
ATOM     39  H   UNL     1      12.220   0.470  12.954  1.00  0.00     0.293 HD
ENDBRANCH  30  38
BRANCH  35  40
ATOM     40  C   UNL     1       8.699   2.868  10.662  1.00  0.00    -0.003 A 
ATOM     41  C   UNL     1       8.702   3.875  11.687  1.00  0.00     0.057 A 
ATOM     42  C   UNL     1       8.464   3.506   9.393  1.00  0.00     0.011 A 
ATOM     43  C   UNL     1       8.019   5.091  11.546  1.00  0.00     0.158 A 
ATOM     44  C   UNL     1       7.280   4.280   9.359  1.00  0.00     0.051 A 
ATOM     45  C   UNL     1       6.999   5.044  10.543  1.00  0.00     0.160 A 
BRANCH  43  46
ATOM     46  O   UNL     1       8.438   6.283  12.082  1.00  0.00    -0.504 OA
ATOM     47  H   UNL     1       9.362   6.351  12.454  1.00  0.00     0.293 HD
ENDBRANCH  43  46
BRANCH  45  48
ATOM     48  O   UNL     1       5.878   5.845  10.662  1.00  0.00    -0.493 OA
ATOM     49  C   UNL     1       6.045   7.190  10.025  1.00  0.00     0.278 C 
ENDBRANCH  45  48
ENDBRANCH  35  40
ENDBRANCH  26  27
ENDBRANCH   5  26
BRANCH   4  50
ATOM     50  O   UNL     1       8.432  -3.663  14.823  1.00  0.00    -0.384 OA
ATOM     51  H   UNL     1       7.541  -4.120  14.794  1.00  0.00     0.211 HD
ENDBRANCH   4  50
TORSDOF 15
ENDMDL
