MODEL 1
REMARK VINA RESULT:    -3.922      0.000      0.000
REMARK INTER + INTRA:          -3.922
REMARK INTER:                  -3.922
REMARK INTRA:                   0.000
REMARK UNBOUND:                 0.000
REMARK SMILES CC1=CC(=O)[C@@H]2C[C@H]1C2(C)C
REMARK SMILES IDX 1 1 2 2 3 3 4 4 5 5 6 6 7 7 8 8 9 9 10 10 11 11
REMARK H PARENT
REMARK Flexibility Score: inf
ROOT
ATOM      1  C   UNL     1     166.540 199.624 305.267  1.00  0.00     0.040 C 
ATOM      2  C   UNL     1     165.786 200.458 304.281  1.00  0.00    -0.066 C 
ATOM      3  C   UNL     1     164.671 201.151 304.646  1.00  0.00     0.047 C 
ATOM      4  C   UNL     1     164.022 201.974 303.575  1.00  0.00     0.159 C 
ATOM      5  O   UNL     1     163.010 202.689 303.797  1.00  0.00    -0.295 OA
ATOM      6  C   UNL     1     164.676 201.887 302.195  1.00  0.00     0.067 C 
ATOM      7  C   UNL     1     164.919 200.376 301.988  1.00  0.00     0.021 C 
ATOM      8  C   UNL     1     166.219 200.562 302.803  1.00  0.00     0.022 C 
ATOM      9  C   UNL     1     166.213 202.056 302.365  1.00  0.00    -0.019 C 
ATOM     10  C   UNL     1     166.935 202.276 301.012  1.00  0.00     0.012 C 
ATOM     11  C   UNL     1     166.733 203.119 303.374  1.00  0.00     0.012 C 
ENDROOT
TORSDOF 0
ENDMDL
MODEL 2
REMARK VINA RESULT:    -3.717      2.146      3.631
REMARK INTER + INTRA:          -3.717
REMARK INTER:                  -3.717
REMARK INTRA:                   0.000
REMARK UNBOUND:                 0.000
REMARK SMILES CC1=CC(=O)[C@@H]2C[C@H]1C2(C)C
REMARK SMILES IDX 1 1 2 2 3 3 4 4 5 5 6 6 7 7 8 8 9 9 10 10 11 11
REMARK H PARENT
REMARK Flexibility Score: inf
ROOT
ATOM      1  C   UNL     1     163.122 202.369 301.510  1.00  0.00     0.040 C 
ATOM      2  C   UNL     1     164.377 201.569 301.665  1.00  0.00    -0.066 C 
ATOM      3  C   UNL     1     165.383 201.646 300.750  1.00  0.00     0.047 C 
ATOM      4  C   UNL     1     166.601 200.820 301.035  1.00  0.00     0.159 C 
ATOM      5  O   UNL     1     167.613 200.836 300.286  1.00  0.00    -0.295 OA
ATOM      6  C   UNL     1     166.529 199.960 302.297  1.00  0.00     0.067 C 
ATOM      7  C   UNL     1     165.133 199.305 302.229  1.00  0.00     0.021 C 
ATOM      8  C   UNL     1     164.586 200.608 302.855  1.00  0.00     0.022 C 
ATOM      9  C   UNL     1     166.000 200.840 303.465  1.00  0.00    -0.019 C 
ATOM     10  C   UNL     1     166.166 200.152 304.843  1.00  0.00     0.012 C 
ATOM     11  C   UNL     1     166.517 202.302 303.584  1.00  0.00     0.012 C 
ENDROOT
TORSDOF 0
ENDMDL
MODEL 3
REMARK VINA RESULT:    -3.381      1.146      3.271
REMARK INTER + INTRA:          -3.381
REMARK INTER:                  -3.381
REMARK INTRA:                   0.000
REMARK UNBOUND:                 0.000
REMARK SMILES CC1=CC(=O)[C@@H]2C[C@H]1C2(C)C
REMARK SMILES IDX 1 1 2 2 3 3 4 4 5 5 6 6 7 7 8 8 9 9 10 10 11 11
REMARK H PARENT
REMARK Flexibility Score: inf
ROOT
ATOM      1  C   UNL     1     167.396 202.486 300.601  1.00  0.00     0.040 C 
ATOM      2  C   UNL     1     166.183 202.312 301.460  1.00  0.00    -0.066 C 
ATOM      3  C   UNL     1     164.930 202.506 300.963  1.00  0.00     0.047 C 
ATOM      4  C   UNL     1     163.797 202.270 301.915  1.00  0.00     0.159 C 
ATOM      5  O   UNL     1     162.592 202.377 301.566  1.00  0.00    -0.295 OA
ATOM      6  C   UNL     1     164.205 201.887 303.339  1.00  0.00     0.067 C 
ATOM      7  C   UNL     1     165.332 202.884 303.688  1.00  0.00     0.021 C 
ATOM      8  C   UNL     1     166.292 201.923 302.950  1.00  0.00     0.022 C 
ATOM      9  C   UNL     1     165.288 200.774 303.259  1.00  0.00    -0.019 C 
ATOM     10  C   UNL     1     165.556 200.113 304.635  1.00  0.00     0.012 C 
ATOM     11  C   UNL     1     165.114 199.646 302.203  1.00  0.00     0.012 C 
ENDROOT
TORSDOF 0
ENDMDL
MODEL 4
REMARK VINA RESULT:    -3.364      1.768      2.965
REMARK INTER + INTRA:          -3.364
REMARK INTER:                  -3.364
REMARK INTRA:                   0.000
REMARK UNBOUND:                 0.000
REMARK SMILES CC1=CC(=O)[C@@H]2C[C@H]1C2(C)C
REMARK SMILES IDX 1 1 2 2 3 3 4 4 5 5 6 6 7 7 8 8 9 9 10 10 11 11
REMARK H PARENT
REMARK Flexibility Score: inf
ROOT
ATOM      1  C   UNL     1     163.093 202.747 304.986  1.00  0.00     0.040 C 
ATOM      2  C   UNL     1     164.294 202.260 304.239  1.00  0.00    -0.066 C 
ATOM      3  C   UNL     1     164.834 201.035 304.488  1.00  0.00     0.047 C 
ATOM      4  C   UNL     1     166.017 200.650 303.652  1.00  0.00     0.159 C 
ATOM      5  O   UNL     1     166.580 199.529 303.759  1.00  0.00    -0.295 OA
ATOM      6  C   UNL     1     166.491 201.712 302.659  1.00  0.00     0.067 C 
ATOM      7  C   UNL     1     166.499 203.020 303.480  1.00  0.00     0.021 C 
ATOM      8  C   UNL     1     164.990 203.125 303.166  1.00  0.00     0.022 C 
ATOM      9  C   UNL     1     165.252 202.263 301.896  1.00  0.00    -0.019 C 
ATOM     10  C   UNL     1     165.649 203.125 300.672  1.00  0.00     0.012 C 
ATOM     11  C   UNL     1     164.151 201.259 301.450  1.00  0.00     0.012 C 
ENDROOT
TORSDOF 0
ENDMDL
MODEL 5
REMARK VINA RESULT:    -3.345      2.262      3.322
REMARK INTER + INTRA:          -3.345
REMARK INTER:                  -3.345
REMARK INTRA:                   0.000
REMARK UNBOUND:                 0.000
REMARK SMILES CC1=CC(=O)[C@@H]2C[C@H]1C2(C)C
REMARK SMILES IDX 1 1 2 2 3 3 4 4 5 5 6 6 7 7 8 8 9 9 10 10 11 11
REMARK H PARENT
REMARK Flexibility Score: inf
ROOT
ATOM      1  C   UNL     1     167.755 199.337 300.389  1.00  0.00     0.040 C 
ATOM      2  C   UNL     1     166.937 199.435 301.638  1.00  0.00    -0.066 C 
ATOM      3  C   UNL     1     167.407 198.972 302.830  1.00  0.00     0.047 C 
ATOM      4  C   UNL     1     166.506 199.155 304.013  1.00  0.00     0.159 C 
ATOM      5  O   UNL     1     166.843 198.805 305.175  1.00  0.00    -0.295 OA
ATOM      6  C   UNL     1     165.152 199.799 303.712  1.00  0.00     0.067 C 
ATOM      7  C   UNL     1     164.654 199.058 302.452  1.00  0.00     0.021 C 
ATOM      8  C   UNL     1     165.519 200.045 301.636  1.00  0.00     0.022 C 
ATOM      9  C   UNL     1     165.387 201.050 302.818  1.00  0.00    -0.019 C 
ATOM     10  C   UNL     1     164.121 201.934 302.699  1.00  0.00     0.012 C 
ATOM     11  C   UNL     1     166.597 201.971 303.139  1.00  0.00     0.012 C 
ENDROOT
TORSDOF 0
ENDMDL
MODEL 6
REMARK VINA RESULT:    -3.271      1.518      3.041
REMARK INTER + INTRA:          -3.271
REMARK INTER:                  -3.271
REMARK INTRA:                   0.000
REMARK UNBOUND:                 0.000
REMARK SMILES CC1=CC(=O)[C@@H]2C[C@H]1C2(C)C
REMARK SMILES IDX 1 1 2 2 3 3 4 4 5 5 6 6 7 7 8 8 9 9 10 10 11 11
REMARK H PARENT
REMARK Flexibility Score: inf
ROOT
ATOM      1  C   UNL     1     162.886 203.060 302.188  1.00  0.00     0.040 C 
ATOM      2  C   UNL     1     164.064 202.349 302.777  1.00  0.00    -0.066 C 
ATOM      3  C   UNL     1     163.998 201.770 304.008  1.00  0.00     0.047 C 
ATOM      4  C   UNL     1     165.234 201.061 304.473  1.00  0.00     0.159 C 
ATOM      5  O   UNL     1     165.286 200.453 305.574  1.00  0.00    -0.295 OA
ATOM      6  C   UNL     1     166.426 201.126 303.516  1.00  0.00     0.067 C 
ATOM      7  C   UNL     1     166.483 202.608 303.085  1.00  0.00     0.021 C 
ATOM      8  C   UNL     1     165.411 202.252 302.030  1.00  0.00     0.022 C 
ATOM      9  C   UNL     1     165.928 200.784 302.083  1.00  0.00    -0.019 C 
ATOM     10  C   UNL     1     167.097 200.536 301.097  1.00  0.00     0.012 C 
ATOM     11  C   UNL     1     164.894 199.635 301.913  1.00  0.00     0.012 C 
ENDROOT
TORSDOF 0
ENDMDL
MODEL 7
REMARK VINA RESULT:    -3.248      2.096      3.297
REMARK INTER + INTRA:          -3.248
REMARK INTER:                  -3.248
REMARK INTRA:                   0.000
REMARK UNBOUND:                 0.000
REMARK SMILES CC1=CC(=O)[C@@H]2C[C@H]1C2(C)C
REMARK SMILES IDX 1 1 2 2 3 3 4 4 5 5 6 6 7 7 8 8 9 9 10 10 11 11
REMARK H PARENT
REMARK Flexibility Score: inf
ROOT
ATOM      1  C   UNL     1     166.258 198.993 303.019  1.00  0.00     0.040 C 
ATOM      2  C   UNL     1     166.184 200.410 302.544  1.00  0.00    -0.066 C 
ATOM      3  C   UNL     1     166.872 200.824 301.443  1.00  0.00     0.047 C 
ATOM      4  C   UNL     1     166.690 202.260 301.051  1.00  0.00     0.159 C 
ATOM      5  O   UNL     1     167.240 202.752 300.032  1.00  0.00    -0.295 OA
ATOM      6  C   UNL     1     165.788 203.082 301.973  1.00  0.00     0.067 C 
ATOM      7  C   UNL     1     166.262 202.708 303.395  1.00  0.00     0.021 C 
ATOM      8  C   UNL     1     165.342 201.472 303.283  1.00  0.00     0.022 C 
ATOM      9  C   UNL     1     164.492 202.268 302.251  1.00  0.00    -0.019 C 
ATOM     10  C   UNL     1     163.393 203.125 302.929  1.00  0.00     0.012 C 
ATOM     11  C   UNL     1     163.843 201.487 301.073  1.00  0.00     0.012 C 
ENDROOT
TORSDOF 0
ENDMDL
MODEL 8
REMARK VINA RESULT:    -3.190      2.125      3.580
REMARK INTER + INTRA:          -3.190
REMARK INTER:                  -3.190
REMARK INTRA:                   0.000
REMARK UNBOUND:                 0.000
REMARK SMILES CC1=CC(=O)[C@@H]2C[C@H]1C2(C)C
REMARK SMILES IDX 1 1 2 2 3 3 4 4 5 5 6 6 7 7 8 8 9 9 10 10 11 11
REMARK H PARENT
REMARK Flexibility Score: inf
ROOT
ATOM      1  C   UNL     1     166.926 202.471 299.436  1.00  0.00     0.040 C 
ATOM      2  C   UNL     1     166.368 201.739 300.616  1.00  0.00    -0.066 C 
ATOM      3  C   UNL     1     166.986 200.636 301.121  1.00  0.00     0.047 C 
ATOM      4  C   UNL     1     166.346 200.011 302.324  1.00  0.00     0.159 C 
ATOM      5  O   UNL     1     166.843 199.011 302.906  1.00  0.00    -0.295 OA
ATOM      6  C   UNL     1     165.050 200.673 302.794  1.00  0.00     0.067 C 
ATOM      7  C   UNL     1     164.243 200.887 301.495  1.00  0.00     0.021 C 
ATOM      8  C   UNL     1     165.061 202.185 301.305  1.00  0.00     0.022 C 
ATOM      9  C   UNL     1     165.272 202.211 302.847  1.00  0.00    -0.019 C 
ATOM     10  C   UNL     1     164.125 202.946 303.586  1.00  0.00     0.012 C 
ATOM     11  C   UNL     1     166.626 202.745 303.395  1.00  0.00     0.012 C 
ENDROOT
TORSDOF 0
ENDMDL
MODEL 9
REMARK VINA RESULT:    -3.088      1.756      2.508
REMARK INTER + INTRA:          -3.088
REMARK INTER:                  -3.088
REMARK INTRA:                   0.000
REMARK UNBOUND:                 0.000
REMARK SMILES CC1=CC(=O)[C@@H]2C[C@H]1C2(C)C
REMARK SMILES IDX 1 1 2 2 3 3 4 4 5 5 6 6 7 7 8 8 9 9 10 10 11 11
REMARK H PARENT
REMARK Flexibility Score: inf
ROOT
ATOM      1  C   UNL     1     165.011 198.798 302.915  1.00  0.00     0.040 C 
ATOM      2  C   UNL     1     165.292 200.248 302.678  1.00  0.00    -0.066 C 
ATOM      3  C   UNL     1     166.136 200.947 303.487  1.00  0.00     0.047 C 
ATOM      4  C   UNL     1     166.360 202.385 303.127  1.00  0.00     0.159 C 
ATOM      5  O   UNL     1     167.147 203.125 303.773  1.00  0.00    -0.295 OA
ATOM      6  C   UNL     1     165.567 202.889 301.920  1.00  0.00     0.067 C 
ATOM      7  C   UNL     1     164.139 202.349 302.154  1.00  0.00     0.021 C 
ATOM      8  C   UNL     1     164.629 201.027 301.522  1.00  0.00     0.022 C 
ATOM      9  C   UNL     1     165.711 201.854 300.767  1.00  0.00    -0.019 C 
ATOM     10  C   UNL     1     165.195 202.404 299.415  1.00  0.00     0.012 C 
ATOM     11  C   UNL     1     167.102 201.201 300.529  1.00  0.00     0.012 C 
ENDROOT
TORSDOF 0
ENDMDL
