MODEL 1
REMARK VINA RESULT:    -8.089      0.000      0.000
REMARK INTER + INTRA:          -8.602
REMARK INTER:                  -8.562
REMARK INTRA:                  -0.040
REMARK UNBOUND:                -0.040
REMARK SMILES COc1ccc2ccc(=O)oc2c1
REMARK SMILES IDX 3 1 13 2 12 3 6 4 5 5 4 6 7 7 8 8 9 9 10 10 11 11 2 12 1 13
REMARK H PARENT
REMARK Flexibility Score: inf
ROOT
ATOM      1  C   UNL     1      33.673  27.257  20.328  1.00  0.00     0.122 A 
ATOM      2  C   UNL     1      33.224  27.754  19.088  1.00  0.00     0.094 A 
ATOM      3  C   UNL     1      33.347  26.977  17.932  1.00  0.00     0.142 A 
ATOM      4  C   UNL     1      33.923  25.690  18.007  1.00  0.00     0.018 A 
ATOM      5  C   UNL     1      34.369  25.196  19.239  1.00  0.00     0.016 A 
ATOM      6  C   UNL     1      34.244  25.979  20.391  1.00  0.00     0.047 A 
ATOM      7  C   UNL     1      34.032  24.938  16.833  1.00  0.00     0.019 A 
ATOM      8  C   UNL     1      33.573  25.475  15.630  1.00  0.00     0.094 A 
ATOM      9  C   UNL     1      33.012  26.757  15.632  1.00  0.00     0.336 A 
ATOM     10  O   UNL     1      32.592  27.259  14.557  1.00  0.00    -0.246 OA
ATOM     11  O   UNL     1      32.920  27.452  16.763  1.00  0.00    -0.423 OA
ENDROOT
BRANCH   1  12
ATOM     12  O   UNL     1      33.572  27.998  21.516  1.00  0.00    -0.497 OA
ATOM     13  C   UNL     1      33.997  27.532  22.793  1.00  0.00     0.278 C 
ENDBRANCH   1  12
TORSDOF 1
ENDMDL
MODEL 2
REMARK VINA RESULT:    -7.572      1.585      2.125
REMARK INTER + INTRA:          -8.055
REMARK INTER:                  -8.018
REMARK INTRA:                  -0.038
REMARK UNBOUND:                -0.040
REMARK SMILES COc1ccc2ccc(=O)oc2c1
REMARK SMILES IDX 3 1 13 2 12 3 6 4 5 5 4 6 7 7 8 8 9 9 10 10 11 11 2 12 1 13
REMARK H PARENT
REMARK Flexibility Score: inf
ROOT
ATOM      1  C   UNL     1      34.164  25.434  19.441  1.00  0.00     0.122 A 
ATOM      2  C   UNL     1      33.738  26.737  19.113  1.00  0.00     0.094 A 
ATOM      3  C   UNL     1      33.362  27.047  17.803  1.00  0.00     0.142 A 
ATOM      4  C   UNL     1      33.410  26.050  16.803  1.00  0.00     0.018 A 
ATOM      5  C   UNL     1      33.835  24.756  17.128  1.00  0.00     0.016 A 
ATOM      6  C   UNL     1      34.209  24.454  18.441  1.00  0.00     0.047 A 
ATOM      7  C   UNL     1      33.029  26.391  15.502  1.00  0.00     0.019 A 
ATOM      8  C   UNL     1      32.614  27.694  15.229  1.00  0.00     0.094 A 
ATOM      9  C   UNL     1      32.590  28.630  16.270  1.00  0.00     0.336 A 
ATOM     10  O   UNL     1      32.219  29.810  16.044  1.00  0.00    -0.246 OA
ATOM     11  O   UNL     1      32.959  28.279  17.500  1.00  0.00    -0.423 OA
ENDROOT
BRANCH   1  12
ATOM     12  O   UNL     1      34.552  25.074  20.741  1.00  0.00    -0.497 OA
ATOM     13  C   UNL     1      35.131  25.971  21.684  1.00  0.00     0.278 C 
ENDBRANCH   1  12
TORSDOF 1
ENDMDL
MODEL 3
REMARK VINA RESULT:    -7.473      0.971      4.922
REMARK INTER + INTRA:          -7.950
REMARK INTER:                  -7.910
REMARK INTRA:                  -0.040
REMARK UNBOUND:                -0.040
REMARK SMILES COc1ccc2ccc(=O)oc2c1
REMARK SMILES IDX 3 1 13 2 12 3 6 4 5 5 4 6 7 7 8 8 9 9 10 10 11 11 2 12 1 13
REMARK H PARENT
REMARK Flexibility Score: inf
ROOT
ATOM      1  C   UNL     1      33.246  26.883  17.362  1.00  0.00     0.122 A 
ATOM      2  C   UNL     1      33.218  27.562  18.597  1.00  0.00     0.094 A 
ATOM      3  C   UNL     1      33.761  26.968  19.740  1.00  0.00     0.142 A 
ATOM      4  C   UNL     1      34.339  25.682  19.657  1.00  0.00     0.018 A 
ATOM      5  C   UNL     1      34.366  25.007  18.430  1.00  0.00     0.016 A 
ATOM      6  C   UNL     1      33.821  25.608  17.291  1.00  0.00     0.047 A 
ATOM      7  C   UNL     1      34.873  25.114  20.817  1.00  0.00     0.019 A 
ATOM      8  C   UNL     1      34.821  25.827  22.015  1.00  0.00     0.094 A 
ATOM      9  C   UNL     1      34.233  27.097  22.023  1.00  0.00     0.336 A 
ATOM     10  O   UNL     1      34.176  27.756  23.093  1.00  0.00    -0.246 OA
ATOM     11  O   UNL     1      33.732  27.614  20.904  1.00  0.00    -0.423 OA
ENDROOT
BRANCH   1  12
ATOM     12  O   UNL     1      32.714  27.438  16.187  1.00  0.00    -0.497 OA
ATOM     13  C   UNL     1      32.789  26.825  14.903  1.00  0.00     0.278 C 
ENDBRANCH   1  12
TORSDOF 1
ENDMDL
MODEL 4
REMARK VINA RESULT:    -7.282      1.592      5.567
REMARK INTER + INTRA:          -7.748
REMARK INTER:                  -7.708
REMARK INTRA:                  -0.040
REMARK UNBOUND:                -0.040
REMARK SMILES COc1ccc2ccc(=O)oc2c1
REMARK SMILES IDX 3 1 13 2 12 3 6 4 5 5 4 6 7 7 8 8 9 9 10 10 11 11 2 12 1 13
REMARK H PARENT
REMARK Flexibility Score: inf
ROOT
ATOM      1  C   UNL     1      33.922  25.723  18.105  1.00  0.00     0.122 A 
ATOM      2  C   UNL     1      34.448  25.224  19.313  1.00  0.00     0.094 A 
ATOM      3  C   UNL     1      34.352  25.977  20.488  1.00  0.00     0.142 A 
ATOM      4  C   UNL     1      33.724  27.242  20.462  1.00  0.00     0.018 A 
ATOM      5  C   UNL     1      33.202  27.738  19.262  1.00  0.00     0.016 A 
ATOM      6  C   UNL     1      33.303  26.979  18.091  1.00  0.00     0.047 A 
ATOM      7  C   UNL     1      33.644  27.970  21.653  1.00  0.00     0.019 A 
ATOM      8  C   UNL     1      34.180  27.433  22.823  1.00  0.00     0.094 A 
ATOM      9  C   UNL     1      34.787  26.172  22.773  1.00  0.00     0.336 A 
ATOM     10  O   UNL     1      35.277  25.670  23.818  1.00  0.00    -0.246 OA
ATOM     11  O   UNL     1      34.850  25.500  21.627  1.00  0.00    -0.423 OA
ENDROOT
BRANCH   1  12
ATOM     12  O   UNL     1      33.995  25.005  16.900  1.00  0.00    -0.497 OA
ATOM     13  C   UNL     1      33.709  25.556  15.618  1.00  0.00     0.278 C 
ENDBRANCH   1  12
TORSDOF 1
ENDMDL
MODEL 5
REMARK VINA RESULT:    -7.206      2.424      3.120
REMARK INTER + INTRA:          -7.667
REMARK INTER:                  -7.634
REMARK INTRA:                  -0.033
REMARK UNBOUND:                -0.040
REMARK SMILES COc1ccc2ccc(=O)oc2c1
REMARK SMILES IDX 3 1 13 2 12 3 6 4 5 5 4 6 7 7 8 8 9 9 10 10 11 11 2 12 1 13
REMARK H PARENT
REMARK Flexibility Score: inf
ROOT
ATOM      1  C   UNL     1      35.170  26.672  21.578  1.00  0.00     0.122 A 
ATOM      2  C   UNL     1      35.149  25.438  20.897  1.00  0.00     0.094 A 
ATOM      3  C   UNL     1      34.381  25.284  19.739  1.00  0.00     0.142 A 
ATOM      4  C   UNL     1      33.621  26.370  19.250  1.00  0.00     0.018 A 
ATOM      5  C   UNL     1      33.641  27.596  19.927  1.00  0.00     0.016 A 
ATOM      6  C   UNL     1      34.412  27.741  21.084  1.00  0.00     0.047 A 
ATOM      7  C   UNL     1      32.862  26.186  18.091  1.00  0.00     0.019 A 
ATOM      8  C   UNL     1      32.876  24.945  17.453  1.00  0.00     0.094 A 
ATOM      9  C   UNL     1      33.653  23.914  17.994  1.00  0.00     0.336 A 
ATOM     10  O   UNL     1      33.679  22.788  17.434  1.00  0.00    -0.246 OA
ATOM     11  O   UNL     1      34.366  24.117  19.099  1.00  0.00    -0.423 OA
ENDROOT
BRANCH   1  12
ATOM     12  O   UNL     1      35.925  26.875  22.743  1.00  0.00    -0.497 OA
ATOM     13  C   UNL     1      37.328  27.118  22.760  1.00  0.00     0.278 C 
ENDBRANCH   1  12
TORSDOF 1
ENDMDL
MODEL 6
REMARK VINA RESULT:    -7.060      2.323      5.291
REMARK INTER + INTRA:          -7.513
REMARK INTER:                  -7.477
REMARK INTRA:                  -0.036
REMARK UNBOUND:                -0.040
REMARK SMILES COc1ccc2ccc(=O)oc2c1
REMARK SMILES IDX 3 1 13 2 12 3 6 4 5 5 4 6 7 7 8 8 9 9 10 10 11 11 2 12 1 13
REMARK H PARENT
REMARK Flexibility Score: inf
ROOT
ATOM      1  C   UNL     1      33.685  24.518  18.251  1.00  0.00     0.122 A 
ATOM      2  C   UNL     1      34.495  24.641  19.398  1.00  0.00     0.094 A 
ATOM      3  C   UNL     1      34.483  25.822  20.146  1.00  0.00     0.142 A 
ATOM      4  C   UNL     1      33.656  26.897  19.750  1.00  0.00     0.018 A 
ATOM      5  C   UNL     1      32.852  26.775  18.611  1.00  0.00     0.016 A 
ATOM      6  C   UNL     1      32.870  25.590  17.868  1.00  0.00     0.047 A 
ATOM      7  C   UNL     1      33.667  28.064  20.519  1.00  0.00     0.019 A 
ATOM      8  C   UNL     1      34.486  28.136  21.645  1.00  0.00     0.094 A 
ATOM      9  C   UNL     1      35.279  27.032  21.977  1.00  0.00     0.336 A 
ATOM     10  O   UNL     1      36.025  27.077  22.989  1.00  0.00    -0.246 OA
ATOM     11  O   UNL     1      35.250  25.932  21.229  1.00  0.00    -0.423 OA
ENDROOT
BRANCH   1  12
ATOM     12  O   UNL     1      33.663  23.353  17.468  1.00  0.00    -0.497 OA
ATOM     13  C   UNL     1      33.663  22.030  17.995  1.00  0.00     0.278 C 
ENDBRANCH   1  12
TORSDOF 1
ENDMDL
MODEL 7
REMARK VINA RESULT:    -7.033      1.254      2.097
REMARK INTER + INTRA:          -7.484
REMARK INTER:                  -7.451
REMARK INTRA:                  -0.033
REMARK UNBOUND:                -0.040
REMARK SMILES COc1ccc2ccc(=O)oc2c1
REMARK SMILES IDX 3 1 13 2 12 3 6 4 5 5 4 6 7 7 8 8 9 9 10 10 11 11 2 12 1 13
REMARK H PARENT
REMARK Flexibility Score: inf
ROOT
ATOM      1  C   UNL     1      34.220  27.633  22.272  1.00  0.00     0.122 A 
ATOM      2  C   UNL     1      33.727  28.056  21.021  1.00  0.00     0.094 A 
ATOM      3  C   UNL     1      33.780  27.200  19.917  1.00  0.00     0.142 A 
ATOM      4  C   UNL     1      34.331  25.907  20.055  1.00  0.00     0.018 A 
ATOM      5  C   UNL     1      34.821  25.487  21.298  1.00  0.00     0.016 A 
ATOM      6  C   UNL     1      34.764  26.348  22.398  1.00  0.00     0.047 A 
ATOM      7  C   UNL     1      34.370  25.075  18.933  1.00  0.00     0.019 A 
ATOM      8  C   UNL     1      33.869  25.541  17.717  1.00  0.00     0.094 A 
ATOM      9  C   UNL     1      33.338  26.834  17.654  1.00  0.00     0.336 A 
ATOM     10  O   UNL     1      32.881  27.273  16.567  1.00  0.00    -0.246 OA
ATOM     11  O   UNL     1      33.312  27.606  18.738  1.00  0.00    -0.423 OA
ENDROOT
BRANCH   1  12
ATOM     12  O   UNL     1      34.189  28.455  23.410  1.00  0.00    -0.497 OA
ATOM     13  C   UNL     1      35.260  29.299  23.821  1.00  0.00     0.278 C 
ENDBRANCH   1  12
TORSDOF 1
ENDMDL
MODEL 8
REMARK VINA RESULT:    -6.903      2.369      4.531
REMARK INTER + INTRA:          -7.346
REMARK INTER:                  -7.310
REMARK INTRA:                  -0.036
REMARK UNBOUND:                -0.040
REMARK SMILES COc1ccc2ccc(=O)oc2c1
REMARK SMILES IDX 3 1 13 2 12 3 6 4 5 5 4 6 7 7 8 8 9 9 10 10 11 11 2 12 1 13
REMARK H PARENT
REMARK Flexibility Score: inf
ROOT
ATOM      1  C   UNL     1      33.610  25.189  16.685  1.00  0.00     0.122 A 
ATOM      2  C   UNL     1      33.590  26.025  17.820  1.00  0.00     0.094 A 
ATOM      3  C   UNL     1      33.216  27.367  17.701  1.00  0.00     0.142 A 
ATOM      4  C   UNL     1      32.858  27.888  16.438  1.00  0.00     0.018 A 
ATOM      5  C   UNL     1      32.878  27.058  15.311  1.00  0.00     0.016 A 
ATOM      6  C   UNL     1      33.254  25.717  15.437  1.00  0.00     0.047 A 
ATOM      7  C   UNL     1      32.489  29.233  16.352  1.00  0.00     0.019 A 
ATOM      8  C   UNL     1      32.485  30.018  17.505  1.00  0.00     0.094 A 
ATOM      9  C   UNL     1      32.851  29.434  18.723  1.00  0.00     0.336 A 
ATOM     10  O   UNL     1      32.854  30.125  19.775  1.00  0.00    -0.246 OA
ATOM     11  O   UNL     1      33.198  28.151  18.778  1.00  0.00    -0.423 OA
ENDROOT
BRANCH   1  12
ATOM     12  O   UNL     1      33.978  23.837  16.753  1.00  0.00    -0.497 OA
ATOM     13  C   UNL     1      33.625  22.961  17.819  1.00  0.00     0.278 C 
ENDBRANCH   1  12
TORSDOF 1
ENDMDL
MODEL 9
REMARK VINA RESULT:    -6.862      1.943      4.033
REMARK INTER + INTRA:          -7.303
REMARK INTER:                  -7.269
REMARK INTRA:                  -0.034
REMARK UNBOUND:                -0.040
REMARK SMILES COc1ccc2ccc(=O)oc2c1
REMARK SMILES IDX 3 1 13 2 12 3 6 4 5 5 4 6 7 7 8 8 9 9 10 10 11 11 2 12 1 13
REMARK H PARENT
REMARK Flexibility Score: inf
ROOT
ATOM      1  C   UNL     1      33.791  24.594  18.143  1.00  0.00     0.122 A 
ATOM      2  C   UNL     1      33.129  25.737  17.651  1.00  0.00     0.094 A 
ATOM      3  C   UNL     1      33.102  26.914  18.404  1.00  0.00     0.142 A 
ATOM      4  C   UNL     1      33.740  26.958  19.663  1.00  0.00     0.018 A 
ATOM      5  C   UNL     1      34.397  25.823  20.152  1.00  0.00     0.016 A 
ATOM      6  C   UNL     1      34.420  24.649  19.393  1.00  0.00     0.047 A 
ATOM      7  C   UNL     1      33.694  28.150  20.392  1.00  0.00     0.019 A 
ATOM      8  C   UNL     1      33.026  29.254  19.861  1.00  0.00     0.094 A 
ATOM      9  C   UNL     1      32.417  29.137  18.607  1.00  0.00     0.336 A 
ATOM     10  O   UNL     1      31.809  30.121  18.110  1.00  0.00    -0.246 OA
ATOM     11  O   UNL     1      32.475  27.991  17.933  1.00  0.00    -0.423 OA
ENDROOT
BRANCH   1  12
ATOM     12  O   UNL     1      33.846  23.389  17.424  1.00  0.00    -0.497 OA
ATOM     13  C   UNL     1      33.506  22.115  17.964  1.00  0.00     0.278 C 
ENDBRANCH   1  12
TORSDOF 1
ENDMDL
