MODEL 1
REMARK VINA RESULT:    -5.285      0.000      0.000
REMARK INTER + INTRA:          -5.285
REMARK INTER:                  -5.285
REMARK INTRA:                   0.000
REMARK UNBOUND:                 0.000
REMARK SMILES C=C1CCC[C@]2(C)CC(=O)C(=C(C)C)C[C@H]12
REMARK SMILES IDX 13 1 12 2 11 3 15 4 16 5 2 6 1 7 3 8 4 9 5 10 6 11 8 12 9 13
REMARK SMILES IDX 10 14 7 15 14 16
REMARK H PARENT
REMARK Flexibility Score: inf
ROOT
ATOM      1  C   UNL     1      15.384 -26.923  40.603  1.00  0.00     0.039 C 
ATOM      2  C   UNL     1      15.096 -26.075  39.389  1.00  0.00    -0.070 C 
ATOM      3  C   UNL     1      14.474 -24.865  39.501  1.00  0.00    -0.006 C 
ATOM      4  C   UNL     1      14.110 -24.303  40.863  1.00  0.00     0.047 C 
ATOM      5  C   UNL     1      13.982 -22.758  40.909  1.00  0.00     0.025 C 
ATOM      6  C   UNL     1      13.321 -22.356  42.217  1.00  0.00    -0.073 C 
ATOM      7  C   UNL     1      14.051 -21.854  43.226  1.00  0.00     0.008 C 
ATOM      8  C   UNL     1      11.840 -22.627  42.392  1.00  0.00     0.031 C 
ATOM      9  C   UNL     1      11.031 -22.167  41.168  1.00  0.00     0.005 C 
ATOM     10  C   UNL     1      11.677 -22.574  39.827  1.00  0.00     0.008 C 
ATOM     11  C   UNL     1      13.176 -22.159  39.720  1.00  0.00    -0.018 C 
ATOM     12  C   UNL     1      13.781 -22.642  38.378  1.00  0.00     0.088 C 
ATOM     13  C   UNL     1      13.961 -24.126  38.318  1.00  0.00     0.159 C 
ATOM     14  O   UNL     1      13.670 -24.725  37.250  1.00  0.00    -0.295 OA
ATOM     15  C   UNL     1      13.295 -20.611  39.730  1.00  0.00     0.012 C 
ATOM     16  C   UNL     1      15.568 -26.611  38.059  1.00  0.00     0.039 C 
ENDROOT
TORSDOF 0
ENDMDL
MODEL 2
REMARK VINA RESULT:    -5.116      1.976      4.397
REMARK INTER + INTRA:          -5.116
REMARK INTER:                  -5.116
REMARK INTRA:                   0.000
REMARK UNBOUND:                 0.000
REMARK SMILES C=C1CCC[C@]2(C)CC(=O)C(=C(C)C)C[C@H]12
REMARK SMILES IDX 13 1 12 2 11 3 15 4 16 5 2 6 1 7 3 8 4 9 5 10 6 11 8 12 9 13
REMARK SMILES IDX 10 14 7 15 14 16
REMARK H PARENT
REMARK Flexibility Score: inf
ROOT
ATOM      1  C   UNL     1      14.465 -18.106  38.569  1.00  0.00     0.039 C 
ATOM      2  C   UNL     1      14.585 -19.311  37.668  1.00  0.00    -0.070 C 
ATOM      3  C   UNL     1      14.232 -20.556  38.101  1.00  0.00    -0.006 C 
ATOM      4  C   UNL     1      13.643 -20.759  39.484  1.00  0.00     0.047 C 
ATOM      5  C   UNL     1      12.762 -22.027  39.630  1.00  0.00     0.025 C 
ATOM      6  C   UNL     1      12.499 -22.279  41.105  1.00  0.00    -0.073 C 
ATOM      7  C   UNL     1      11.313 -21.967  41.651  1.00  0.00     0.008 C 
ATOM      8  C   UNL     1      13.636 -22.795  41.965  1.00  0.00     0.031 C 
ATOM      9  C   UNL     1      14.363 -23.974  41.296  1.00  0.00     0.005 C 
ATOM     10  C   UNL     1      14.651 -23.737  39.798  1.00  0.00     0.008 C 
ATOM     11  C   UNL     1      13.388 -23.303  38.995  1.00  0.00    -0.018 C 
ATOM     12  C   UNL     1      13.753 -23.028  37.513  1.00  0.00     0.088 C 
ATOM     13  C   UNL     1      14.565 -21.784  37.333  1.00  0.00     0.159 C 
ATOM     14  O   UNL     1      15.527 -21.806  36.520  1.00  0.00    -0.295 OA
ATOM     15  C   UNL     1      12.346 -24.454  38.989  1.00  0.00     0.012 C 
ATOM     16  C   UNL     1      15.071 -19.060  36.261  1.00  0.00     0.039 C 
ENDROOT
TORSDOF 0
ENDMDL
MODEL 3
REMARK VINA RESULT:    -5.056      2.108      5.095
REMARK INTER + INTRA:          -5.056
REMARK INTER:                  -5.056
REMARK INTRA:                   0.000
REMARK UNBOUND:                 0.000
REMARK SMILES C=C1CCC[C@]2(C)CC(=O)C(=C(C)C)C[C@H]12
REMARK SMILES IDX 13 1 12 2 11 3 15 4 16 5 2 6 1 7 3 8 4 9 5 10 6 11 8 12 9 13
REMARK SMILES IDX 10 14 7 15 14 16
REMARK H PARENT
REMARK Flexibility Score: inf
ROOT
ATOM      1  C   UNL     1      11.647 -21.841  41.425  1.00  0.00     0.039 C 
ATOM      2  C   UNL     1      10.864 -22.947  40.762  1.00  0.00    -0.070 C 
ATOM      3  C   UNL     1      11.477 -24.086  40.327  1.00  0.00    -0.006 C 
ATOM      4  C   UNL     1      12.961 -24.304  40.555  1.00  0.00     0.047 C 
ATOM      5  C   UNL     1      13.398 -25.792  40.575  1.00  0.00     0.025 C 
ATOM      6  C   UNL     1      14.914 -25.862  40.497  1.00  0.00    -0.073 C 
ATOM      7  C   UNL     1      15.644 -26.123  41.592  1.00  0.00     0.008 C 
ATOM      8  C   UNL     1      15.586 -25.534  39.178  1.00  0.00     0.031 C 
ATOM      9  C   UNL     1      14.910 -26.258  38.001  1.00  0.00     0.005 C 
ATOM     10  C   UNL     1      13.369 -26.191  38.053  1.00  0.00     0.008 C 
ATOM     11  C   UNL     1      12.784 -26.642  39.425  1.00  0.00    -0.018 C 
ATOM     12  C   UNL     1      11.240 -26.500  39.433  1.00  0.00     0.088 C 
ATOM     13  C   UNL     1      10.785 -25.075  39.460  1.00  0.00     0.159 C 
ATOM     14  O   UNL     1       9.809 -24.741  38.738  1.00  0.00    -0.295 OA
ATOM     15  C   UNL     1      13.092 -28.146  39.660  1.00  0.00     0.012 C 
ATOM     16  C   UNL     1       9.371 -22.748  40.648  1.00  0.00     0.039 C 
ENDROOT
TORSDOF 0
ENDMDL
MODEL 4
REMARK VINA RESULT:    -4.913      2.302      4.417
REMARK INTER + INTRA:          -4.913
REMARK INTER:                  -4.913
REMARK INTRA:                   0.000
REMARK UNBOUND:                 0.000
REMARK SMILES C=C1CCC[C@]2(C)CC(=O)C(=C(C)C)C[C@H]12
REMARK SMILES IDX 13 1 12 2 11 3 15 4 16 5 2 6 1 7 3 8 4 9 5 10 6 11 8 12 9 13
REMARK SMILES IDX 10 14 7 15 14 16
REMARK H PARENT
REMARK Flexibility Score: inf
ROOT
ATOM      1  C   UNL     1      13.919 -21.066  36.263  1.00  0.00     0.039 C 
ATOM      2  C   UNL     1      14.178 -20.275  37.521  1.00  0.00    -0.070 C 
ATOM      3  C   UNL     1      13.875 -20.782  38.751  1.00  0.00    -0.006 C 
ATOM      4  C   UNL     1      13.326 -22.189  38.897  1.00  0.00     0.047 C 
ATOM      5  C   UNL     1      13.586 -22.841  40.280  1.00  0.00     0.025 C 
ATOM      6  C   UNL     1      12.733 -24.093  40.403  1.00  0.00    -0.073 C 
ATOM      7  C   UNL     1      13.279 -25.310  40.254  1.00  0.00     0.008 C 
ATOM      8  C   UNL     1      11.238 -23.934  40.599  1.00  0.00     0.031 C 
ATOM      9  C   UNL     1      10.916 -22.903  41.693  1.00  0.00     0.005 C 
ATOM     10  C   UNL     1      11.762 -21.617  41.583  1.00  0.00     0.008 C 
ATOM     11  C   UNL     1      13.292 -21.899  41.484  1.00  0.00    -0.018 C 
ATOM     12  C   UNL     1      14.081 -20.575  41.320  1.00  0.00     0.088 C 
ATOM     13  C   UNL     1      13.889 -19.943  39.978  1.00  0.00     0.159 C 
ATOM     14  O   UNL     1      13.742 -18.693  39.917  1.00  0.00    -0.295 OA
ATOM     15  C   UNL     1      13.792 -22.554  42.800  1.00  0.00     0.012 C 
ATOM     16  C   UNL     1      14.827 -18.922  37.351  1.00  0.00     0.039 C 
ENDROOT
TORSDOF 0
ENDMDL
MODEL 5
REMARK VINA RESULT:    -4.881      4.373      7.246
REMARK INTER + INTRA:          -4.881
REMARK INTER:                  -4.881
REMARK INTRA:                   0.000
REMARK UNBOUND:                 0.000
REMARK SMILES C=C1CCC[C@]2(C)CC(=O)C(=C(C)C)C[C@H]12
REMARK SMILES IDX 13 1 12 2 11 3 15 4 16 5 2 6 1 7 3 8 4 9 5 10 6 11 8 12 9 13
REMARK SMILES IDX 10 14 7 15 14 16
REMARK H PARENT
REMARK Flexibility Score: inf
ROOT
ATOM      1  C   UNL     1      15.567 -26.499  41.546  1.00  0.00     0.039 C 
ATOM      2  C   UNL     1      15.297 -27.214  40.245  1.00  0.00    -0.070 C 
ATOM      3  C   UNL     1      14.575 -28.372  40.209  1.00  0.00    -0.006 C 
ATOM      4  C   UNL     1      13.964 -28.944  41.475  1.00  0.00     0.047 C 
ATOM      5  C   UNL     1      12.732 -29.856  41.240  1.00  0.00     0.025 C 
ATOM      6  C   UNL     1      12.416 -30.600  42.527  1.00  0.00    -0.073 C 
ATOM      7  C   UNL     1      11.392 -30.216  43.305  1.00  0.00     0.008 C 
ATOM      8  C   UNL     1      13.342 -31.720  42.962  1.00  0.00     0.031 C 
ATOM      9  C   UNL     1      13.657 -32.677  41.800  1.00  0.00     0.005 C 
ATOM     10  C   UNL     1      13.993 -31.944  40.484  1.00  0.00     0.008 C 
ATOM     11  C   UNL     1      12.922 -30.884  40.086  1.00  0.00    -0.018 C 
ATOM     12  C   UNL     1      13.342 -30.146  38.789  1.00  0.00     0.088 C 
ATOM     13  C   UNL     1      14.501 -29.221  38.992  1.00  0.00     0.159 C 
ATOM     14  O   UNL     1      15.401 -29.181  38.112  1.00  0.00    -0.295 OA
ATOM     15  C   UNL     1      11.573 -31.587  39.779  1.00  0.00     0.012 C 
ATOM     16  C   UNL     1      15.824 -26.561  38.989  1.00  0.00     0.039 C 
ENDROOT
TORSDOF 0
ENDMDL
MODEL 6
REMARK VINA RESULT:    -4.880      1.989      4.038
REMARK INTER + INTRA:          -4.880
REMARK INTER:                  -4.880
REMARK INTRA:                   0.000
REMARK UNBOUND:                 0.000
REMARK SMILES C=C1CCC[C@]2(C)CC(=O)C(=C(C)C)C[C@H]12
REMARK SMILES IDX 13 1 12 2 11 3 15 4 16 5 2 6 1 7 3 8 4 9 5 10 6 11 8 12 9 13
REMARK SMILES IDX 10 14 7 15 14 16
REMARK H PARENT
REMARK Flexibility Score: inf
ROOT
ATOM      1  C   UNL     1       9.379 -22.843  40.930  1.00  0.00     0.039 C 
ATOM      2  C   UNL     1      10.281 -23.923  40.386  1.00  0.00    -0.070 C 
ATOM      3  C   UNL     1      11.516 -23.629  39.883  1.00  0.00    -0.006 C 
ATOM      4  C   UNL     1      12.048 -22.208  39.915  1.00  0.00     0.047 C 
ATOM      5  C   UNL     1      13.594 -22.099  39.891  1.00  0.00     0.025 C 
ATOM      6  C   UNL     1      13.983 -20.656  39.614  1.00  0.00    -0.073 C 
ATOM      7  C   UNL     1      14.414 -19.861  40.606  1.00  0.00     0.008 C 
ATOM      8  C   UNL     1      13.779 -20.107  38.215  1.00  0.00     0.031 C 
ATOM      9  C   UNL     1      14.320 -21.070  37.144  1.00  0.00     0.005 C 
ATOM     10  C   UNL     1      13.929 -22.541  37.398  1.00  0.00     0.008 C 
ATOM     11  C   UNL     1      14.273 -23.025  38.840  1.00  0.00    -0.018 C 
ATOM     12  C   UNL     1      13.807 -24.488  39.050  1.00  0.00     0.088 C 
ATOM     13  C   UNL     1      12.319 -24.622  39.124  1.00  0.00     0.159 C 
ATOM     14  O   UNL     1      11.772 -25.591  38.534  1.00  0.00    -0.295 OA
ATOM     15  C   UNL     1      15.812 -23.015  39.044  1.00  0.00     0.012 C 
ATOM     16  C   UNL     1       9.769 -25.341  40.468  1.00  0.00     0.039 C 
ENDROOT
TORSDOF 0
ENDMDL
MODEL 7
REMARK VINA RESULT:    -4.821      4.075      5.856
REMARK INTER + INTRA:          -4.821
REMARK INTER:                  -4.821
REMARK INTRA:                   0.000
REMARK UNBOUND:                 0.000
REMARK SMILES C=C1CCC[C@]2(C)CC(=O)C(=C(C)C)C[C@H]12
REMARK SMILES IDX 13 1 12 2 11 3 15 4 16 5 2 6 1 7 3 8 4 9 5 10 6 11 8 12 9 13
REMARK SMILES IDX 10 14 7 15 14 16
REMARK H PARENT
REMARK Flexibility Score: inf
ROOT
ATOM      1  C   UNL     1      13.593 -23.591  41.002  1.00  0.00     0.039 C 
ATOM      2  C   UNL     1      12.119 -23.275  41.063  1.00  0.00    -0.070 C 
ATOM      3  C   UNL     1      11.178 -24.247  40.888  1.00  0.00    -0.006 C 
ATOM      4  C   UNL     1      11.586 -25.695  40.688  1.00  0.00     0.047 C 
ATOM      5  C   UNL     1      10.505 -26.730  41.093  1.00  0.00     0.025 C 
ATOM      6  C   UNL     1      10.906 -28.097  40.562  1.00  0.00    -0.073 C 
ATOM      7  C   UNL     1      11.426 -29.023  41.382  1.00  0.00     0.008 C 
ATOM      8  C   UNL     1      10.799 -28.354  39.071  1.00  0.00     0.031 C 
ATOM      9  C   UNL     1       9.444 -27.889  38.512  1.00  0.00     0.005 C 
ATOM     10  C   UNL     1       9.019 -26.498  39.029  1.00  0.00     0.008 C 
ATOM     11  C   UNL     1       9.077 -26.380  40.582  1.00  0.00    -0.018 C 
ATOM     12  C   UNL     1       8.693 -24.947  41.034  1.00  0.00     0.088 C 
ATOM     13  C   UNL     1       9.738 -23.930  40.699  1.00  0.00     0.159 C 
ATOM     14  O   UNL     1       9.368 -22.809  40.260  1.00  0.00    -0.295 OA
ATOM     15  C   UNL     1       8.038 -27.340  41.221  1.00  0.00     0.012 C 
ATOM     16  C   UNL     1      11.745 -21.845  41.373  1.00  0.00     0.039 C 
ENDROOT
TORSDOF 0
ENDMDL
MODEL 8
REMARK VINA RESULT:    -4.794      3.029      5.813
REMARK INTER + INTRA:          -4.794
REMARK INTER:                  -4.794
REMARK INTRA:                   0.000
REMARK UNBOUND:                 0.000
REMARK SMILES C=C1CCC[C@]2(C)CC(=O)C(=C(C)C)C[C@H]12
REMARK SMILES IDX 13 1 12 2 11 3 15 4 16 5 2 6 1 7 3 8 4 9 5 10 6 11 8 12 9 13
REMARK SMILES IDX 10 14 7 15 14 16
REMARK H PARENT
REMARK Flexibility Score: inf
ROOT
ATOM      1  C   UNL     1      12.297 -22.433  39.707  1.00  0.00     0.039 C 
ATOM      2  C   UNL     1      11.237 -23.339  40.283  1.00  0.00    -0.070 C 
ATOM      3  C   UNL     1      11.414 -24.691  40.335  1.00  0.00    -0.006 C 
ATOM      4  C   UNL     1      12.713 -25.323  39.871  1.00  0.00     0.047 C 
ATOM      5  C   UNL     1      13.022 -26.703  40.507  1.00  0.00     0.025 C 
ATOM      6  C   UNL     1      14.162 -27.355  39.742  1.00  0.00    -0.073 C 
ATOM      7  C   UNL     1      15.404 -27.372  40.249  1.00  0.00     0.008 C 
ATOM      8  C   UNL     1      13.884 -27.897  38.354  1.00  0.00     0.031 C 
ATOM      9  C   UNL     1      12.603 -28.747  38.322  1.00  0.00     0.005 C 
ATOM     10  C   UNL     1      11.427 -28.100  39.084  1.00  0.00     0.008 C 
ATOM     11  C   UNL     1      11.802 -27.669  40.534  1.00  0.00    -0.018 C 
ATOM     12  C   UNL     1      10.599 -26.978  41.226  1.00  0.00     0.088 C 
ATOM     13  C   UNL     1      10.303 -25.622  40.665  1.00  0.00     0.159 C 
ATOM     14  O   UNL     1       9.101 -25.295  40.485  1.00  0.00    -0.295 OA
ATOM     15  C   UNL     1      12.142 -28.923  41.384  1.00  0.00     0.012 C 
ATOM     16  C   UNL     1      10.001 -22.672  40.837  1.00  0.00     0.039 C 
ENDROOT
TORSDOF 0
ENDMDL
MODEL 9
REMARK VINA RESULT:    -4.786      2.557      3.509
REMARK INTER + INTRA:          -4.786
REMARK INTER:                  -4.786
REMARK INTRA:                   0.000
REMARK UNBOUND:                 0.000
REMARK SMILES C=C1CCC[C@]2(C)CC(=O)C(=C(C)C)C[C@H]12
REMARK SMILES IDX 13 1 12 2 11 3 15 4 16 5 2 6 1 7 3 8 4 9 5 10 6 11 8 12 9 13
REMARK SMILES IDX 10 14 7 15 14 16
REMARK H PARENT
REMARK Flexibility Score: inf
ROOT
ATOM      1  C   UNL     1      14.304 -27.488  39.654  1.00  0.00     0.039 C 
ATOM      2  C   UNL     1      12.863 -27.470  40.099  1.00  0.00    -0.070 C 
ATOM      3  C   UNL     1      12.211 -26.296  40.342  1.00  0.00    -0.006 C 
ATOM      4  C   UNL     1      12.899 -24.964  40.107  1.00  0.00     0.047 C 
ATOM      5  C   UNL     1      11.935 -23.780  39.836  1.00  0.00     0.025 C 
ATOM      6  C   UNL     1      12.713 -22.478  39.929  1.00  0.00    -0.073 C 
ATOM      7  C   UNL     1      13.079 -21.818  38.819  1.00  0.00     0.008 C 
ATOM      8  C   UNL     1      13.153 -21.994  41.298  1.00  0.00     0.031 C 
ATOM      9  C   UNL     1      12.004 -22.057  42.318  1.00  0.00     0.005 C 
ATOM     10  C   UNL     1      11.205 -23.376  42.250  1.00  0.00     0.008 C 
ATOM     11  C   UNL     1      10.721 -23.723  40.809  1.00  0.00    -0.018 C 
ATOM     12  C   UNL     1       9.974 -25.081  40.798  1.00  0.00     0.088 C 
ATOM     13  C   UNL     1      10.885 -26.250  41.010  1.00  0.00     0.159 C 
ATOM     14  O   UNL     1      10.499 -27.184  41.761  1.00  0.00    -0.295 OA
ATOM     15  C   UNL     1       9.705 -22.654  40.323  1.00  0.00     0.012 C 
ATOM     16  C   UNL     1      12.172 -28.807  40.218  1.00  0.00     0.039 C 
ENDROOT
TORSDOF 0
ENDMDL
