MODEL 1
REMARK VINA RESULT:    -6.121      0.000      0.000
REMARK INTER + INTRA:          -7.751
REMARK INTER:                  -7.194
REMARK INTRA:                  -0.557
REMARK UNBOUND:                -0.557
REMARK SMILES C=C(C)[C@H]1CC[C@@]2(CO)CC[C@@]3(C)[C@@H](CC[C@H]4[C@@]5(C)CC[C@@H](O)C(C)(C)[C@@H]5CC[C@]43C)[C@@H]12
REMARK SMILES IDX 4 1 5 2 6 3 7 4 32 5 14 6 15 7 16 8 17 9 18 10 20 11 21 12
REMARK SMILES IDX 22 13 24 14 27 15 28 16 29 17 30 18 12 19 11 20 10 21 13 22
REMARK SMILES IDX 31 23 25 24 26 25 19 26 2 27 3 28 1 29 8 30 9 31 23 33
REMARK H PARENT 9 32 23 34
REMARK Flexibility Score: inf
ROOT
ATOM      1  C   UNL     1      18.815  -7.776  39.898  1.00  0.00     0.018 C 
ATOM      2  C   UNL     1      18.149  -8.570  38.793  1.00  0.00     0.009 C 
ATOM      3  C   UNL     1      16.812  -9.000  39.399  1.00  0.00     0.010 C 
ATOM      4  C   UNL     1      16.949  -8.933  40.959  1.00  0.00    -0.003 C 
ATOM      5  C   UNL     1      18.474  -8.573  41.193  1.00  0.00     0.008 C 
ATOM      6  C   UNL     1      19.444  -9.755  41.705  1.00  0.00    -0.000 C 
ATOM      7  C   UNL     1      20.805  -9.949  41.028  1.00  0.00     0.005 C 
ATOM      8  C   UNL     1      21.755 -10.756  41.916  1.00  0.00     0.005 C 
ATOM      9  C   UNL     1      21.244 -12.140  42.425  1.00  0.00     0.002 C 
ATOM     10  C   UNL     1      22.279 -12.821  43.462  1.00  0.00    -0.026 C 
ATOM     11  C   UNL     1      23.769 -12.586  43.017  1.00  0.00     0.010 C 
ATOM     12  C   UNL     1      24.818 -13.044  44.048  1.00  0.00     0.033 C 
ATOM     13  C   UNL     1      24.621 -12.346  45.400  1.00  0.00     0.120 C 
ATOM     14  C   UNL     1      23.184 -12.565  45.977  1.00  0.00    -0.006 C 
ATOM     15  C   UNL     1      22.102 -12.168  44.886  1.00  0.00     0.003 C 
ATOM     16  C   UNL     1      20.640 -12.256  45.378  1.00  0.00     0.005 C 
ATOM     17  C   UNL     1      19.683 -11.555  44.408  1.00  0.00     0.008 C 
ATOM     18  C   UNL     1      19.722 -12.086  42.933  1.00  0.00    -0.024 C 
ATOM     19  C   UNL     1      18.798 -11.162  41.966  1.00  0.00    -0.024 C 
ATOM     20  C   UNL     1      17.416 -10.861  42.618  1.00  0.00     0.008 C 
ATOM     21  C   UNL     1      16.434 -10.248  41.635  1.00  0.00     0.010 C 
ATOM     22  C   UNL     1      18.588 -11.917  40.609  1.00  0.00     0.012 C 
ATOM     23  C   UNL     1      19.124 -13.539  42.935  1.00  0.00     0.012 C 
ATOM     24  C   UNL     1      23.036 -11.652  47.228  1.00  0.00     0.014 C 
ATOM     25  C   UNL     1      23.045 -14.027  46.487  1.00  0.00     0.014 C 
ATOM     26  C   UNL     1      22.044 -14.374  43.460  1.00  0.00     0.012 C 
ENDROOT
BRANCH   1  27
ATOM     27  C   UNL     1      20.229  -7.251  39.662  1.00  0.00    -0.077 C 
ATOM     28  C   UNL     1      21.021  -7.597  38.415  1.00  0.00     0.039 C 
ATOM     29  C   UNL     1      20.755  -6.375  40.545  1.00  0.00     0.008 C 
ENDBRANCH   1  27
BRANCH   4  30
ATOM     30  C   UNL     1      16.065  -7.759  41.505  1.00  0.00     0.163 C 
BRANCH  30  31
ATOM     31  O   UNL     1      16.516  -7.324  42.764  1.00  0.00    -0.396 OA
ATOM     32  H   UNL     1      16.576  -6.337  42.716  1.00  0.00     0.210 HD
ENDBRANCH  30  31
ENDBRANCH   4  30
BRANCH  13  33
ATOM     33  O   UNL     1      24.882 -10.968  45.252  1.00  0.00    -0.393 OA
ATOM     34  H   UNL     1      24.014 -10.492  45.326  1.00  0.00     0.210 HD
ENDBRANCH  13  33
TORSDOF 4
ENDMDL
MODEL 2
REMARK VINA RESULT:    -6.049      1.802      7.635
REMARK INTER + INTRA:          -7.667
REMARK INTER:                  -7.353
REMARK INTRA:                  -0.314
REMARK UNBOUND:                -0.557
REMARK SMILES C=C(C)[C@H]1CC[C@@]2(CO)CC[C@@]3(C)[C@@H](CC[C@H]4[C@@]5(C)CC[C@@H](O)C(C)(C)[C@@H]5CC[C@]43C)[C@@H]12
REMARK SMILES IDX 4 1 5 2 6 3 7 4 32 5 14 6 15 7 16 8 17 9 18 10 20 11 21 12
REMARK SMILES IDX 22 13 24 14 27 15 28 16 29 17 30 18 12 19 11 20 10 21 13 22
REMARK SMILES IDX 31 23 25 24 26 25 19 26 2 27 3 28 1 29 8 30 9 31 23 33
REMARK H PARENT 9 32 23 34
REMARK Flexibility Score: inf
ROOT
ATOM      1  C   UNL     1      23.261 -13.028  45.637  1.00  0.00     0.018 C 
ATOM      2  C   UNL     1      22.702 -14.204  46.413  1.00  0.00     0.009 C 
ATOM      3  C   UNL     1      22.865 -15.389  45.459  1.00  0.00     0.010 C 
ATOM      4  C   UNL     1      22.993 -14.820  44.004  1.00  0.00    -0.003 C 
ATOM      5  C   UNL     1      22.757 -13.263  44.181  1.00  0.00     0.008 C 
ATOM      6  C   UNL     1      21.336 -12.671  43.701  1.00  0.00    -0.000 C 
ATOM      7  C   UNL     1      20.584 -11.703  44.620  1.00  0.00     0.005 C 
ATOM      8  C   UNL     1      19.544 -10.894  43.841  1.00  0.00     0.005 C 
ATOM      9  C   UNL     1      18.505 -11.701  43.000  1.00  0.00     0.002 C 
ATOM     10  C   UNL     1      17.560 -10.732  42.118  1.00  0.00    -0.026 C 
ATOM     11  C   UNL     1      17.170  -9.436  42.916  1.00  0.00     0.010 C 
ATOM     12  C   UNL     1      16.425  -8.377  42.081  1.00  0.00     0.033 C 
ATOM     13  C   UNL     1      17.245  -7.943  40.860  1.00  0.00     0.120 C 
ATOM     14  C   UNL     1      17.640  -9.151  39.948  1.00  0.00    -0.006 C 
ATOM     15  C   UNL     1      18.337 -10.276  40.824  1.00  0.00     0.003 C 
ATOM     16  C   UNL     1      18.855 -11.485  40.012  1.00  0.00     0.005 C 
ATOM     17  C   UNL     1      19.794 -12.358  40.850  1.00  0.00     0.008 C 
ATOM     18  C   UNL     1      19.178 -12.909  42.183  1.00  0.00    -0.024 C 
ATOM     19  C   UNL     1      20.309 -13.674  43.065  1.00  0.00    -0.024 C 
ATOM     20  C   UNL     1      21.167 -14.631  42.184  1.00  0.00     0.008 C 
ATOM     21  C   UNL     1      22.032 -15.561  43.015  1.00  0.00     0.010 C 
ATOM     22  C   UNL     1      19.591 -14.495  44.191  1.00  0.00     0.012 C 
ATOM     23  C   UNL     1      18.071 -13.956  41.799  1.00  0.00     0.012 C 
ATOM     24  C   UNL     1      18.632  -8.624  38.873  1.00  0.00     0.014 C 
ATOM     25  C   UNL     1      16.387  -9.652  39.177  1.00  0.00     0.014 C 
ATOM     26  C   UNL     1      16.221 -11.489  41.800  1.00  0.00     0.012 C 
ENDROOT
BRANCH   1  27
ATOM     27  C   UNL     1      23.183 -11.640  46.268  1.00  0.00    -0.077 C 
ATOM     28  C   UNL     1      23.977 -10.464  45.730  1.00  0.00     0.039 C 
ATOM     29  C   UNL     1      22.310 -11.430  47.276  1.00  0.00     0.008 C 
ENDBRANCH   1  27
BRANCH   4  30
ATOM     30  C   UNL     1      24.455 -15.052  43.486  1.00  0.00     0.163 C 
BRANCH  30  31
ATOM     31  O   UNL     1      25.123 -16.016  44.262  1.00  0.00    -0.396 OA
ATOM     32  H   UNL     1      25.625 -15.519  44.956  1.00  0.00     0.210 HD
ENDBRANCH  30  31
ENDBRANCH   4  30
BRANCH  13  33
ATOM     33  O   UNL     1      18.402  -7.264  41.297  1.00  0.00    -0.393 OA
ATOM     34  H   UNL     1      18.690  -6.664  40.561  1.00  0.00     0.210 HD
ENDBRANCH  13  33
TORSDOF 4
ENDMDL
MODEL 3
REMARK VINA RESULT:    -5.814     10.251     13.383
REMARK INTER + INTRA:          -7.391
REMARK INTER:                  -7.088
REMARK INTRA:                  -0.303
REMARK UNBOUND:                -0.557
REMARK SMILES C=C(C)[C@H]1CC[C@@]2(CO)CC[C@@]3(C)[C@@H](CC[C@H]4[C@@]5(C)CC[C@@H](O)C(C)(C)[C@@H]5CC[C@]43C)[C@@H]12
REMARK SMILES IDX 4 1 5 2 6 3 7 4 32 5 14 6 15 7 16 8 17 9 18 10 20 11 21 12
REMARK SMILES IDX 22 13 24 14 27 15 28 16 29 17 30 18 12 19 11 20 10 21 13 22
REMARK SMILES IDX 31 23 25 24 26 25 19 26 2 27 3 28 1 29 8 30 9 31 23 33
REMARK H PARENT 9 32 23 34
REMARK Flexibility Score: inf
ROOT
ATOM      1  C   UNL     1       8.165  -2.717  40.269  1.00  0.00     0.018 C 
ATOM      2  C   UNL     1       7.832  -4.018  40.970  1.00  0.00     0.009 C 
ATOM      3  C   UNL     1       8.817  -4.073  42.139  1.00  0.00     0.010 C 
ATOM      4  C   UNL     1      10.021  -3.131  41.796  1.00  0.00    -0.003 C 
ATOM      5  C   UNL     1       9.721  -2.651  40.315  1.00  0.00     0.008 C 
ATOM      6  C   UNL     1      10.604  -3.304  39.133  1.00  0.00    -0.000 C 
ATOM      7  C   UNL     1       9.900  -3.802  37.866  1.00  0.00     0.005 C 
ATOM      8  C   UNL     1      10.884  -3.933  36.702  1.00  0.00     0.005 C 
ATOM      9  C   UNL     1      12.158  -4.801  36.946  1.00  0.00     0.002 C 
ATOM     10  C   UNL     1      13.178  -4.742  35.694  1.00  0.00    -0.026 C 
ATOM     11  C   UNL     1      12.403  -4.752  34.327  1.00  0.00     0.010 C 
ATOM     12  C   UNL     1      13.292  -4.511  33.092  1.00  0.00     0.033 C 
ATOM     13  C   UNL     1      14.044  -3.178  33.191  1.00  0.00     0.120 C 
ATOM     14  C   UNL     1      14.908  -3.078  34.491  1.00  0.00    -0.006 C 
ATOM     15  C   UNL     1      14.009  -3.404  35.757  1.00  0.00     0.003 C 
ATOM     16  C   UNL     1      14.737  -3.246  37.112  1.00  0.00     0.005 C 
ATOM     17  C   UNL     1      13.745  -3.248  38.280  1.00  0.00     0.008 C 
ATOM     18  C   UNL     1      12.832  -4.519  38.375  1.00  0.00    -0.024 C 
ATOM     19  C   UNL     1      11.714  -4.336  39.541  1.00  0.00    -0.024 C 
ATOM     20  C   UNL     1      12.342  -3.764  40.847  1.00  0.00     0.008 C 
ATOM     21  C   UNL     1      11.393  -3.848  42.030  1.00  0.00     0.010 C 
ATOM     22  C   UNL     1      11.067  -5.733  39.835  1.00  0.00     0.012 C 
ATOM     23  C   UNL     1      13.748  -5.735  38.767  1.00  0.00     0.012 C 
ATOM     24  C   UNL     1      15.450  -1.623  34.584  1.00  0.00     0.014 C 
ATOM     25  C   UNL     1      16.154  -3.998  34.359  1.00  0.00     0.014 C 
ATOM     26  C   UNL     1      14.077  -6.030  35.716  1.00  0.00     0.012 C 
ENDROOT
BRANCH   1  27
ATOM     27  C   UNL     1       7.414  -2.372  38.985  1.00  0.00    -0.077 C 
ATOM     28  C   UNL     1       6.733  -3.431  38.139  1.00  0.00     0.039 C 
ATOM     29  C   UNL     1       7.270  -1.073  38.644  1.00  0.00     0.008 C 
ENDBRANCH   1  27
BRANCH   4  30
ATOM     30  C   UNL     1       9.987  -1.883  42.745  1.00  0.00     0.163 C 
BRANCH  30  31
ATOM     31  O   UNL     1       8.877  -1.930  43.607  1.00  0.00    -0.396 OA
ATOM     32  H   UNL     1       9.226  -1.786  44.523  1.00  0.00     0.210 HD
ENDBRANCH  30  31
ENDBRANCH   4  30
BRANCH  13  33
ATOM     33  O   UNL     1      13.114  -2.117  33.141  1.00  0.00    -0.393 OA
ATOM     34  H   UNL     1      13.506  -1.407  32.568  1.00  0.00     0.210 HD
ENDBRANCH  13  33
TORSDOF 4
ENDMDL
MODEL 4
REMARK VINA RESULT:    -5.721      2.021      2.790
REMARK INTER + INTRA:          -7.281
REMARK INTER:                  -6.782
REMARK INTRA:                  -0.499
REMARK UNBOUND:                -0.557
REMARK SMILES C=C(C)[C@H]1CC[C@@]2(CO)CC[C@@]3(C)[C@@H](CC[C@H]4[C@@]5(C)CC[C@@H](O)C(C)(C)[C@@H]5CC[C@]43C)[C@@H]12
REMARK SMILES IDX 4 1 5 2 6 3 7 4 32 5 14 6 15 7 16 8 17 9 18 10 20 11 21 12
REMARK SMILES IDX 22 13 24 14 27 15 28 16 29 17 30 18 12 19 11 20 10 21 13 22
REMARK SMILES IDX 31 23 25 24 26 25 19 26 2 27 3 28 1 29 8 30 9 31 23 33
REMARK H PARENT 9 32 23 34
REMARK Flexibility Score: inf
ROOT
ATOM      1  C   UNL     1      16.026  -9.550  40.686  1.00  0.00     0.018 C 
ATOM      2  C   UNL     1      15.939 -10.153  39.299  1.00  0.00     0.009 C 
ATOM      3  C   UNL     1      15.412 -11.569  39.542  1.00  0.00     0.010 C 
ATOM      4  C   UNL     1      15.715 -11.944  41.033  1.00  0.00    -0.003 C 
ATOM      5  C   UNL     1      16.559 -10.716  41.572  1.00  0.00     0.008 C 
ATOM      6  C   UNL     1      18.145 -10.937  41.767  1.00  0.00    -0.000 C 
ATOM      7  C   UNL     1      19.115  -9.870  41.247  1.00  0.00     0.005 C 
ATOM      8  C   UNL     1      20.485  -9.993  41.917  1.00  0.00     0.005 C 
ATOM      9  C   UNL     1      21.184 -11.388  41.848  1.00  0.00     0.002 C 
ATOM     10  C   UNL     1      22.549 -11.421  42.711  1.00  0.00    -0.026 C 
ATOM     11  C   UNL     1      23.345 -10.074  42.571  1.00  0.00     0.010 C 
ATOM     12  C   UNL     1      24.563  -9.956  43.508  1.00  0.00     0.033 C 
ATOM     13  C   UNL     1      24.157 -10.107  44.980  1.00  0.00     0.120 C 
ATOM     14  C   UNL     1      23.408 -11.451  45.256  1.00  0.00    -0.006 C 
ATOM     15  C   UNL     1      22.200 -11.609  44.237  1.00  0.00     0.003 C 
ATOM     16  C   UNL     1      21.327 -12.863  44.475  1.00  0.00     0.005 C 
ATOM     17  C   UNL     1      20.013 -12.782  43.691  1.00  0.00     0.008 C 
ATOM     18  C   UNL     1      20.173 -12.599  42.142  1.00  0.00    -0.024 C 
ATOM     19  C   UNL     1      18.726 -12.358  41.441  1.00  0.00    -0.024 C 
ATOM     20  C   UNL     1      17.661 -13.364  41.972  1.00  0.00     0.008 C 
ATOM     21  C   UNL     1      16.390 -13.352  41.141  1.00  0.00     0.010 C 
ATOM     22  C   UNL     1      18.888 -12.530  39.891  1.00  0.00     0.012 C 
ATOM     23  C   UNL     1      20.776 -13.931  41.565  1.00  0.00     0.012 C 
ATOM     24  C   UNL     1      22.869 -11.398  46.714  1.00  0.00     0.014 C 
ATOM     25  C   UNL     1      24.419 -12.630  45.208  1.00  0.00     0.014 C 
ATOM     26  C   UNL     1      23.474 -12.557  42.144  1.00  0.00     0.012 C 
ENDROOT
BRANCH   1  27
ATOM     27  C   UNL     1      16.601  -8.143  40.831  1.00  0.00    -0.077 C 
ATOM     28  C   UNL     1      17.189  -7.387  39.655  1.00  0.00     0.039 C 
ATOM     29  C   UNL     1      16.495  -7.515  42.022  1.00  0.00     0.008 C 
ENDBRANCH   1  27
BRANCH   4  30
ATOM     30  C   UNL     1      14.367 -12.017  41.830  1.00  0.00     0.163 C 
BRANCH  30  31
ATOM     31  O   UNL     1      13.919 -13.344  41.953  1.00  0.00    -0.396 OA
ATOM     32  H   UNL     1      14.718 -13.920  41.854  1.00  0.00     0.210 HD
ENDBRANCH  30  31
ENDBRANCH   4  30
BRANCH  13  33
ATOM     33  O   UNL     1      23.348  -9.012  45.351  1.00  0.00    -0.393 OA
ATOM     34  H   UNL     1      23.412  -8.337  44.625  1.00  0.00     0.210 HD
ENDBRANCH  13  33
TORSDOF 4
ENDMDL
MODEL 5
REMARK VINA RESULT:    -5.574     10.474     13.198
REMARK INTER + INTRA:          -7.109
REMARK INTER:                  -6.557
REMARK INTRA:                  -0.552
REMARK UNBOUND:                -0.557
REMARK SMILES C=C(C)[C@H]1CC[C@@]2(CO)CC[C@@]3(C)[C@@H](CC[C@H]4[C@@]5(C)CC[C@@H](O)C(C)(C)[C@@H]5CC[C@]43C)[C@@H]12
REMARK SMILES IDX 4 1 5 2 6 3 7 4 32 5 14 6 15 7 16 8 17 9 18 10 20 11 21 12
REMARK SMILES IDX 22 13 24 14 27 15 28 16 29 17 30 18 12 19 11 20 10 21 13 22
REMARK SMILES IDX 31 23 25 24 26 25 19 26 2 27 3 28 1 29 8 30 9 31 23 33
REMARK H PARENT 9 32 23 34
REMARK Flexibility Score: inf
ROOT
ATOM      1  C   UNL     1      12.626  -6.125  33.551  1.00  0.00     0.018 C 
ATOM      2  C   UNL     1      13.349  -4.994  32.846  1.00  0.00     0.009 C 
ATOM      3  C   UNL     1      14.770  -5.054  33.409  1.00  0.00     0.010 C 
ATOM      4  C   UNL     1      14.713  -5.820  34.775  1.00  0.00    -0.003 C 
ATOM      5  C   UNL     1      13.165  -6.065  35.011  1.00  0.00     0.008 C 
ATOM      6  C   UNL     1      12.431  -5.149  36.118  1.00  0.00    -0.000 C 
ATOM      7  C   UNL     1      11.083  -4.505  35.777  1.00  0.00     0.005 C 
ATOM      8  C   UNL     1      10.329  -4.096  37.043  1.00  0.00     0.005 C 
ATOM      9  C   UNL     1      11.086  -3.176  38.052  1.00  0.00     0.002 C 
ATOM     10  C   UNL     1      10.236  -2.936  39.405  1.00  0.00    -0.026 C 
ATOM     11  C   UNL     1       8.706  -2.761  39.093  1.00  0.00     0.010 C 
ATOM     12  C   UNL     1       7.805  -2.713  40.342  1.00  0.00     0.033 C 
ATOM     13  C   UNL     1       7.964  -3.975  41.199  1.00  0.00     0.120 C 
ATOM     14  C   UNL     1       9.447  -4.219  41.628  1.00  0.00    -0.006 C 
ATOM     15  C   UNL     1      10.386  -4.190  40.349  1.00  0.00     0.003 C 
ATOM     16  C   UNL     1      11.870  -4.513  40.640  1.00  0.00     0.005 C 
ATOM     17  C   UNL     1      12.643  -4.793  39.347  1.00  0.00     0.008 C 
ATOM     18  C   UNL     1      12.606  -3.638  38.286  1.00  0.00    -0.024 C 
ATOM     19  C   UNL     1      13.311  -4.110  36.900  1.00  0.00    -0.024 C 
ATOM     20  C   UNL     1      14.661  -4.840  37.168  1.00  0.00     0.008 C 
ATOM     21  C   UNL     1      15.472  -5.038  35.899  1.00  0.00     0.010 C 
ATOM     22  C   UNL     1      13.563  -2.843  36.012  1.00  0.00     0.012 C 
ATOM     23  C   UNL     1      13.431  -2.433  38.866  1.00  0.00     0.012 C 
ATOM     24  C   UNL     1       9.516  -5.618  42.305  1.00  0.00     0.014 C 
ATOM     25  C   UNL     1       9.851  -3.188  42.718  1.00  0.00     0.014 C 
ATOM     26  C   UNL     1      10.719  -1.599  40.072  1.00  0.00     0.012 C 
ENDROOT
BRANCH   1  27
ATOM     27  C   UNL     1      11.134  -6.310  33.283  1.00  0.00    -0.077 C 
ATOM     28  C   UNL     1      10.344  -5.345  32.420  1.00  0.00     0.039 C 
ATOM     29  C   UNL     1      10.522  -7.419  33.751  1.00  0.00     0.008 C 
ENDBRANCH   1  27
BRANCH   4  30
ATOM     30  C   UNL     1      15.425  -7.208  34.619  1.00  0.00     0.163 C 
BRANCH  30  31
ATOM     31  O   UNL     1      14.852  -8.172  35.468  1.00  0.00    -0.396 OA
ATOM     32  H   UNL     1      15.111  -9.056  35.104  1.00  0.00     0.210 HD
ENDBRANCH  30  31
ENDBRANCH   4  30
BRANCH  13  33
ATOM     33  O   UNL     1       7.474  -5.087  40.481  1.00  0.00    -0.393 OA
ATOM     34  H   UNL     1       6.535  -4.885  40.227  1.00  0.00     0.210 HD
ENDBRANCH  13  33
TORSDOF 4
ENDMDL
MODEL 6
REMARK VINA RESULT:    -5.553      2.190      7.881
REMARK INTER + INTRA:          -7.084
REMARK INTER:                  -6.586
REMARK INTRA:                  -0.498
REMARK UNBOUND:                -0.557
REMARK SMILES C=C(C)[C@H]1CC[C@@]2(CO)CC[C@@]3(C)[C@@H](CC[C@H]4[C@@]5(C)CC[C@@H](O)C(C)(C)[C@@H]5CC[C@]43C)[C@@H]12
REMARK SMILES IDX 4 1 5 2 6 3 7 4 32 5 14 6 15 7 16 8 17 9 18 10 20 11 21 12
REMARK SMILES IDX 22 13 24 14 27 15 28 16 29 17 30 18 12 19 11 20 10 21 13 22
REMARK SMILES IDX 31 23 25 24 26 25 19 26 2 27 3 28 1 29 8 30 9 31 23 33
REMARK H PARENT 9 32 23 34
REMARK Flexibility Score: inf
ROOT
ATOM      1  C   UNL     1      22.489 -15.654  44.272  1.00  0.00     0.018 C 
ATOM      2  C   UNL     1      23.864 -15.174  43.854  1.00  0.00     0.009 C 
ATOM      3  C   UNL     1      24.178 -14.044  44.837  1.00  0.00     0.010 C 
ATOM      4  C   UNL     1      22.819 -13.533  45.428  1.00  0.00    -0.003 C 
ATOM      5  C   UNL     1      21.722 -14.344  44.623  1.00  0.00     0.008 C 
ATOM      6  C   UNL     1      20.899 -13.548  43.487  1.00  0.00    -0.000 C 
ATOM      7  C   UNL     1      20.706 -14.200  42.113  1.00  0.00     0.005 C 
ATOM      8  C   UNL     1      19.542 -13.557  41.355  1.00  0.00     0.005 C 
ATOM      9  C   UNL     1      19.583 -12.006  41.177  1.00  0.00     0.002 C 
ATOM     10  C   UNL     1      18.235 -11.443  40.489  1.00  0.00    -0.026 C 
ATOM     11  C   UNL     1      17.727 -12.406  39.355  1.00  0.00     0.010 C 
ATOM     12  C   UNL     1      16.348 -12.034  38.777  1.00  0.00     0.033 C 
ATOM     13  C   UNL     1      15.273 -11.993  39.870  1.00  0.00     0.120 C 
ATOM     14  C   UNL     1      15.640 -11.011  41.030  1.00  0.00    -0.006 C 
ATOM     15  C   UNL     1      17.094 -11.344  41.573  1.00  0.00     0.003 C 
ATOM     16  C   UNL     1      17.531 -10.493  42.787  1.00  0.00     0.005 C 
ATOM     17  C   UNL     1      18.777 -11.079  43.458  1.00  0.00     0.008 C 
ATOM     18  C   UNL     1      20.023 -11.244  42.519  1.00  0.00    -0.024 C 
ATOM     19  C   UNL     1      21.223 -12.025  43.289  1.00  0.00    -0.024 C 
ATOM     20  C   UNL     1      21.436 -11.464  44.727  1.00  0.00     0.008 C 
ATOM     21  C   UNL     1      22.719 -11.972  45.361  1.00  0.00     0.010 C 
ATOM     22  C   UNL     1      22.540 -11.858  42.457  1.00  0.00     0.012 C 
ATOM     23  C   UNL     1      20.536  -9.804  42.153  1.00  0.00     0.012 C 
ATOM     24  C   UNL     1      14.593 -11.208  42.163  1.00  0.00     0.014 C 
ATOM     25  C   UNL     1      15.480  -9.545  40.541  1.00  0.00     0.014 C 
ATOM     26  C   UNL     1      18.558 -10.066  39.804  1.00  0.00     0.012 C 
ENDROOT
BRANCH   1  27
ATOM     27  C   UNL     1      21.818 -16.745  43.440  1.00  0.00    -0.077 C 
ATOM     28  C   UNL     1      22.464 -17.320  42.193  1.00  0.00     0.039 C 
ATOM     29  C   UNL     1      20.660 -17.280  43.881  1.00  0.00     0.008 C 
ENDBRANCH   1  27
BRANCH   4  30
ATOM     30  C   UNL     1      22.732 -13.934  46.942  1.00  0.00     0.163 C 
BRANCH  30  31
ATOM     31  O   UNL     1      22.841 -12.807  47.775  1.00  0.00    -0.396 OA
ATOM     32  H   UNL     1      23.341 -12.125  47.261  1.00  0.00     0.210 HD
ENDBRANCH  30  31
ENDBRANCH   4  30
BRANCH  13  33
ATOM     33  O   UNL     1      15.078 -13.296  40.377  1.00  0.00    -0.393 OA
ATOM     34  H   UNL     1      15.677 -13.401  41.161  1.00  0.00     0.210 HD
ENDBRANCH  13  33
TORSDOF 4
ENDMDL
MODEL 7
REMARK VINA RESULT:    -5.522      2.226      4.095
REMARK INTER + INTRA:          -7.048
REMARK INTER:                  -6.495
REMARK INTRA:                  -0.553
REMARK UNBOUND:                -0.557
REMARK SMILES C=C(C)[C@H]1CC[C@@]2(CO)CC[C@@]3(C)[C@@H](CC[C@H]4[C@@]5(C)CC[C@@H](O)C(C)(C)[C@@H]5CC[C@]43C)[C@@H]12
REMARK SMILES IDX 4 1 5 2 6 3 7 4 32 5 14 6 15 7 16 8 17 9 18 10 20 11 21 12
REMARK SMILES IDX 22 13 24 14 27 15 28 16 29 17 30 18 12 19 11 20 10 21 13 22
REMARK SMILES IDX 31 23 25 24 26 25 19 26 2 27 3 28 1 29 8 30 9 31 23 33
REMARK H PARENT 9 32 23 34
REMARK Flexibility Score: inf
ROOT
ATOM      1  C   UNL     1      17.947  -9.915  40.517  1.00  0.00     0.018 C 
ATOM      2  C   UNL     1      18.442  -8.529  40.157  1.00  0.00     0.009 C 
ATOM      3  C   UNL     1      19.328  -8.758  38.931  1.00  0.00     0.010 C 
ATOM      4  C   UNL     1      19.767 -10.263  38.931  1.00  0.00    -0.003 C 
ATOM      5  C   UNL     1      19.190 -10.829  40.293  1.00  0.00     0.008 C 
ATOM      6  C   UNL     1      20.239 -11.090  41.490  1.00  0.00    -0.000 C 
ATOM      7  C   UNL     1      19.895 -10.604  42.902  1.00  0.00     0.005 C 
ATOM      8  C   UNL     1      20.732 -11.332  43.957  1.00  0.00     0.005 C 
ATOM      9  C   UNL     1      22.282 -11.299  43.776  1.00  0.00     0.002 C 
ATOM     10  C   UNL     1      23.036 -12.218  44.870  1.00  0.00    -0.026 C 
ATOM     11  C   UNL     1      22.352 -12.103  46.280  1.00  0.00     0.010 C 
ATOM     12  C   UNL     1      22.896 -13.089  47.332  1.00  0.00     0.033 C 
ATOM     13  C   UNL     1      22.759 -14.544  46.864  1.00  0.00     0.120 C 
ATOM     14  C   UNL     1      23.463 -14.796  45.491  1.00  0.00    -0.006 C 
ATOM     15  C   UNL     1      22.960 -13.730  44.428  1.00  0.00     0.003 C 
ATOM     16  C   UNL     1      23.521 -13.939  43.003  1.00  0.00     0.005 C 
ATOM     17  C   UNL     1      22.754 -13.101  41.974  1.00  0.00     0.008 C 
ATOM     18  C   UNL     1      22.731 -11.558  42.257  1.00  0.00    -0.024 C 
ATOM     19  C   UNL     1      21.755 -10.797  41.203  1.00  0.00    -0.024 C 
ATOM     20  C   UNL     1      21.996 -11.289  39.745  1.00  0.00     0.008 C 
ATOM     21  C   UNL     1      21.311 -10.407  38.717  1.00  0.00     0.010 C 
ATOM     22  C   UNL     1      22.030  -9.256  41.293  1.00  0.00     0.012 C 
ATOM     23  C   UNL     1      24.190 -11.015  42.047  1.00  0.00     0.012 C 
ATOM     24  C   UNL     1      23.083 -16.231  45.024  1.00  0.00     0.014 C 
ATOM     25  C   UNL     1      25.004 -14.797  45.689  1.00  0.00     0.014 C 
ATOM     26  C   UNL     1      24.508 -11.697  45.036  1.00  0.00     0.012 C 
ENDROOT
BRANCH   1  27
ATOM     27  C   UNL     1      17.083 -10.076  41.766  1.00  0.00    -0.077 C 
ATOM     28  C   UNL     1      16.809  -8.920  42.710  1.00  0.00     0.039 C 
ATOM     29  C   UNL     1      16.467 -11.257  41.984  1.00  0.00     0.008 C 
ENDBRANCH   1  27
BRANCH   4  30
ATOM     30  C   UNL     1      19.066 -11.004  37.740  1.00  0.00     0.163 C 
BRANCH  30  31
ATOM     31  O   UNL     1      18.927 -12.377  38.006  1.00  0.00    -0.396 OA
ATOM     32  H   UNL     1      19.464 -12.852  37.323  1.00  0.00     0.210 HD
ENDBRANCH  30  31
ENDBRANCH   4  30
BRANCH  13  33
ATOM     33  O   UNL     1      21.390 -14.875  46.779  1.00  0.00    -0.393 OA
ATOM     34  H   UNL     1      20.880 -14.023  46.758  1.00  0.00     0.210 HD
ENDBRANCH  13  33
TORSDOF 4
ENDMDL
MODEL 8
REMARK VINA RESULT:    -5.492      8.433     11.668
REMARK INTER + INTRA:          -7.012
REMARK INTER:                  -6.459
REMARK INTRA:                  -0.553
REMARK UNBOUND:                -0.557
REMARK SMILES C=C(C)[C@H]1CC[C@@]2(CO)CC[C@@]3(C)[C@@H](CC[C@H]4[C@@]5(C)CC[C@@H](O)C(C)(C)[C@@H]5CC[C@]43C)[C@@H]12
REMARK SMILES IDX 4 1 5 2 6 3 7 4 32 5 14 6 15 7 16 8 17 9 18 10 20 11 21 12
REMARK SMILES IDX 22 13 24 14 27 15 28 16 29 17 30 18 12 19 11 20 10 21 13 22
REMARK SMILES IDX 31 23 25 24 26 25 19 26 2 27 3 28 1 29 8 30 9 31 23 33
REMARK H PARENT 9 32 23 34
REMARK Flexibility Score: inf
ROOT
ATOM      1  C   UNL     1      13.274  -7.333  37.706  1.00  0.00     0.018 C 
ATOM      2  C   UNL     1      14.602  -6.642  37.479  1.00  0.00     0.009 C 
ATOM      3  C   UNL     1      14.386  -5.833  36.198  1.00  0.00     0.010 C 
ATOM      4  C   UNL     1      13.179  -6.470  35.427  1.00  0.00    -0.003 C 
ATOM      5  C   UNL     1      12.820  -7.758  36.277  1.00  0.00     0.008 C 
ATOM      6  C   UNL     1      13.255  -9.189  35.671  1.00  0.00    -0.000 C 
ATOM      7  C   UNL     1      13.939 -10.209  36.589  1.00  0.00     0.005 C 
ATOM      8  C   UNL     1      13.843 -11.623  36.012  1.00  0.00     0.005 C 
ATOM      9  C   UNL     1      14.361 -11.829  34.553  1.00  0.00     0.002 C 
ATOM     10  C   UNL     1      14.073 -13.325  34.017  1.00  0.00    -0.026 C 
ATOM     11  C   UNL     1      14.304 -14.391  35.150  1.00  0.00     0.010 C 
ATOM     12  C   UNL     1      13.874 -15.821  34.773  1.00  0.00     0.033 C 
ATOM     13  C   UNL     1      12.393 -15.877  34.375  1.00  0.00     0.120 C 
ATOM     14  C   UNL     1      12.054 -14.898  33.204  1.00  0.00    -0.006 C 
ATOM     15  C   UNL     1      12.569 -13.439  33.559  1.00  0.00     0.003 C 
ATOM     16  C   UNL     1      12.207 -12.363  32.510  1.00  0.00     0.005 C 
ATOM     17  C   UNL     1      12.433 -10.951  33.061  1.00  0.00     0.008 C 
ATOM     18  C   UNL     1      13.890 -10.658  33.561  1.00  0.00    -0.024 C 
ATOM     19  C   UNL     1      13.969  -9.199  34.273  1.00  0.00    -0.024 C 
ATOM     20  C   UNL     1      13.232  -8.114  33.432  1.00  0.00     0.008 C 
ATOM     21  C   UNL     1      13.527  -6.706  33.919  1.00  0.00     0.010 C 
ATOM     22  C   UNL     1      15.477  -8.805  34.437  1.00  0.00     0.012 C 
ATOM     23  C   UNL     1      14.830 -10.635  32.302  1.00  0.00     0.012 C 
ATOM     24  C   UNL     1      10.508 -14.888  33.032  1.00  0.00     0.014 C 
ATOM     25  C   UNL     1      12.636 -15.456  31.875  1.00  0.00     0.014 C 
ATOM     26  C   UNL     1      15.095 -13.654  32.870  1.00  0.00     0.012 C 
ENDROOT
BRANCH   1  27
ATOM     27  C   UNL     1      13.153  -8.305  38.877  1.00  0.00    -0.077 C 
ATOM     28  C   UNL     1      14.333  -8.647  39.767  1.00  0.00     0.039 C 
ATOM     29  C   UNL     1      11.937  -8.803  39.188  1.00  0.00     0.008 C 
ENDBRANCH   1  27
BRANCH   4  30
ATOM     30  C   UNL     1      11.961  -5.483  35.470  1.00  0.00     0.163 C 
BRANCH  30  31
ATOM     31  O   UNL     1      10.756  -6.150  35.192  1.00  0.00    -0.396 OA
ATOM     32  H   UNL     1      10.560  -5.991  34.235  1.00  0.00     0.210 HD
ENDBRANCH  30  31
ENDBRANCH   4  30
BRANCH  13  33
ATOM     33  O   UNL     1      11.600 -15.580  35.504  1.00  0.00    -0.393 OA
ATOM     34  H   UNL     1      11.703 -14.611  35.692  1.00  0.00     0.210 HD
ENDBRANCH  13  33
TORSDOF 4
ENDMDL
MODEL 9
REMARK VINA RESULT:    -5.313      1.956      7.347
REMARK INTER + INTRA:          -6.802
REMARK INTER:                  -6.570
REMARK INTRA:                  -0.231
REMARK UNBOUND:                -0.557
REMARK SMILES C=C(C)[C@H]1CC[C@@]2(CO)CC[C@@]3(C)[C@@H](CC[C@H]4[C@@]5(C)CC[C@@H](O)C(C)(C)[C@@H]5CC[C@]43C)[C@@H]12
REMARK SMILES IDX 4 1 5 2 6 3 7 4 32 5 14 6 15 7 16 8 17 9 18 10 20 11 21 12
REMARK SMILES IDX 22 13 24 14 27 15 28 16 29 17 30 18 12 19 11 20 10 21 13 22
REMARK SMILES IDX 31 23 25 24 26 25 19 26 2 27 3 28 1 29 8 30 9 31 23 33
REMARK H PARENT 9 32 23 34
REMARK Flexibility Score: inf
ROOT
ATOM      1  C   UNL     1      24.022 -12.511  44.386  1.00  0.00     0.018 C 
ATOM      2  C   UNL     1      24.069 -11.765  45.704  1.00  0.00     0.009 C 
ATOM      3  C   UNL     1      23.129 -12.559  46.613  1.00  0.00     0.010 C 
ATOM      4  C   UNL     1      22.163 -13.387  45.698  1.00  0.00    -0.003 C 
ATOM      5  C   UNL     1      22.524 -12.910  44.231  1.00  0.00     0.008 C 
ATOM      6  C   UNL     1      21.484 -11.918  43.498  1.00  0.00    -0.000 C 
ATOM      7  C   UNL     1      22.022 -10.679  42.774  1.00  0.00     0.005 C 
ATOM      8  C   UNL     1      21.003 -10.142  41.767  1.00  0.00     0.005 C 
ATOM      9  C   UNL     1      19.571  -9.830  42.306  1.00  0.00     0.002 C 
ATOM     10  C   UNL     1      18.559  -9.407  41.120  1.00  0.00    -0.026 C 
ATOM     11  C   UNL     1      19.274  -8.496  40.057  1.00  0.00     0.010 C 
ATOM     12  C   UNL     1      18.431  -8.204  38.802  1.00  0.00     0.033 C 
ATOM     13  C   UNL     1      18.005  -9.497  38.095  1.00  0.00     0.120 C 
ATOM     14  C   UNL     1      17.221 -10.462  39.044  1.00  0.00    -0.006 C 
ATOM     15  C   UNL     1      18.056 -10.701  40.373  1.00  0.00     0.003 C 
ATOM     16  C   UNL     1      17.420 -11.716  41.350  1.00  0.00     0.005 C 
ATOM     17  C   UNL     1      18.417 -12.145  42.432  1.00  0.00     0.008 C 
ATOM     18  C   UNL     1      19.019 -10.975  43.285  1.00  0.00    -0.024 C 
ATOM     19  C   UNL     1      20.180 -11.528  44.279  1.00  0.00    -0.024 C 
ATOM     20  C   UNL     1      19.734 -12.832  45.005  1.00  0.00     0.008 C 
ATOM     21  C   UNL     1      20.671 -13.212  46.139  1.00  0.00     0.010 C 
ATOM     22  C   UNL     1      20.499 -10.418  45.339  1.00  0.00     0.012 C 
ATOM     23  C   UNL     1      17.861 -10.387  44.170  1.00  0.00     0.012 C 
ATOM     24  C   UNL     1      17.029 -11.809  38.289  1.00  0.00     0.014 C 
ATOM     25  C   UNL     1      15.796  -9.898  39.299  1.00  0.00     0.014 C 
ATOM     26  C   UNL     1      17.391  -8.556  41.735  1.00  0.00     0.012 C 
ENDROOT
BRANCH   1  27
ATOM     27  C   UNL     1      24.798 -11.940  43.201  1.00  0.00    -0.077 C 
ATOM     28  C   UNL     1      25.118 -12.770  41.972  1.00  0.00     0.039 C 
ATOM     29  C   UNL     1      25.124 -10.630  43.207  1.00  0.00     0.008 C 
ENDBRANCH   1  27
BRANCH   4  30
ATOM     30  C   UNL     1      22.506 -14.911  45.831  1.00  0.00     0.163 C 
BRANCH  30  31
ATOM     31  O   UNL     1      22.448 -15.331  47.172  1.00  0.00    -0.396 OA
ATOM     32  H   UNL     1      23.297 -15.044  47.593  1.00  0.00     0.210 HD
ENDBRANCH  30  31
ENDBRANCH   4  30
BRANCH  13  33
ATOM     33  O   UNL     1      19.150 -10.141  37.581  1.00  0.00    -0.393 OA
ATOM     34  H   UNL     1      19.879  -9.468  37.547  1.00  0.00     0.210 HD
ENDBRANCH  13  33
TORSDOF 4
ENDMDL
