MODEL 1
REMARK VINA RESULT:    -3.628      0.000      0.000
REMARK INTER + INTRA:          -4.695
REMARK INTER:                  -4.476
REMARK INTRA:                  -0.219
REMARK UNBOUND:                -0.219
REMARK SMILES C=CC[C@@H](C)C(=O)CC
REMARK SMILES IDX 4 1 5 2 6 3 7 4 8 5 9 6 3 7 2 8 1 9
REMARK H PARENT
REMARK Flexibility Score: inf
ROOT
ATOM      1  C   UNL     1      67.026 -15.159  14.329  1.00  0.00     0.057 C 
ATOM      2  C   UNL     1      65.739 -15.994  14.282  1.00  0.00     0.016 C 
ENDROOT
BRANCH   1   3
ATOM      3  C   UNL     1      68.229 -16.074  14.421  1.00  0.00     0.135 C 
ATOM      4  O   UNL     1      68.529 -16.778  13.466  1.00  0.00    -0.299 OA
BRANCH   3   5
ATOM      5  C   UNL     1      69.065 -16.142  15.672  1.00  0.00     0.072 C 
ATOM      6  C   UNL     1      68.303 -16.842  16.793  1.00  0.00     0.012 C 
ENDBRANCH   3   5
ENDBRANCH   1   3
BRANCH   1   7
ATOM      7  C   UNL     1      67.158 -14.242  13.098  1.00  0.00     0.038 C 
BRANCH   7   8
ATOM      8  C   UNL     1      65.948 -14.336  12.205  1.00  0.00    -0.034 C 
ATOM      9  C   UNL     1      65.321 -13.250  11.746  1.00  0.00     0.004 C 
ENDBRANCH   7   8
ENDBRANCH   1   7
TORSDOF 4
ENDMDL
MODEL 2
REMARK VINA RESULT:    -3.602      1.533      4.583
REMARK INTER + INTRA:          -4.663
REMARK INTER:                  -4.474
REMARK INTRA:                  -0.190
REMARK UNBOUND:                -0.219
REMARK SMILES C=CC[C@@H](C)C(=O)CC
REMARK SMILES IDX 4 1 5 2 6 3 7 4 8 5 9 6 3 7 2 8 1 9
REMARK H PARENT
REMARK Flexibility Score: inf
ROOT
ATOM      1  C   UNL     1      66.866 -14.903  13.836  1.00  0.00     0.057 C 
ATOM      2  C   UNL     1      68.210 -14.894  13.094  1.00  0.00     0.016 C 
ENDROOT
BRANCH   1   3
ATOM      3  C   UNL     1      65.735 -15.104  12.850  1.00  0.00     0.135 C 
ATOM      4  O   UNL     1      64.788 -15.818  13.151  1.00  0.00    -0.299 OA
BRANCH   3   5
ATOM      5  C   UNL     1      65.754 -14.445  11.496  1.00  0.00     0.072 C 
ATOM      6  C   UNL     1      65.251 -13.008  11.587  1.00  0.00     0.012 C 
ENDBRANCH   3   5
ENDBRANCH   1   3
BRANCH   1   7
ATOM      7  C   UNL     1      66.819 -15.999  14.919  1.00  0.00     0.038 C 
BRANCH   7   8
ATOM      8  C   UNL     1      68.115 -16.077  15.684  1.00  0.00    -0.034 C 
ATOM      9  C   UNL     1      68.224 -16.771  16.820  1.00  0.00     0.004 C 
ENDBRANCH   7   8
ENDBRANCH   1   7
TORSDOF 4
ENDMDL
MODEL 3
REMARK VINA RESULT:    -3.565      2.056      3.210
REMARK INTER + INTRA:          -4.618
REMARK INTER:                  -4.177
REMARK INTRA:                  -0.441
REMARK UNBOUND:                -0.219
REMARK SMILES C=CC[C@@H](C)C(=O)CC
REMARK SMILES IDX 4 1 5 2 6 3 7 4 8 5 9 6 3 7 2 8 1 9
REMARK H PARENT
REMARK Flexibility Score: inf
ROOT
ATOM      1  C   UNL     1      66.093 -14.765  12.173  1.00  0.00     0.057 C 
ATOM      2  C   UNL     1      65.285 -13.474  11.982  1.00  0.00     0.016 C 
ENDROOT
BRANCH   1   3
ATOM      3  C   UNL     1      65.459 -15.611  13.257  1.00  0.00     0.135 C 
ATOM      4  O   UNL     1      64.416 -16.208  13.029  1.00  0.00    -0.299 OA
BRANCH   3   5
ATOM      5  C   UNL     1      66.087 -15.729  14.622  1.00  0.00     0.072 C 
ATOM      6  C   UNL     1      67.512 -15.186  14.610  1.00  0.00     0.012 C 
ENDBRANCH   3   5
ENDBRANCH   1   3
BRANCH   1   7
ATOM      7  C   UNL     1      66.192 -15.575  10.866  1.00  0.00     0.038 C 
BRANCH   7   8
ATOM      8  C   UNL     1      67.598 -15.584  10.326  1.00  0.00    -0.034 C 
ATOM      9  C   UNL     1      68.623 -15.074  11.014  1.00  0.00     0.004 C 
ENDBRANCH   7   8
ENDBRANCH   1   7
TORSDOF 4
ENDMDL
MODEL 4
REMARK VINA RESULT:    -3.552      1.805      2.186
REMARK INTER + INTRA:          -4.602
REMARK INTER:                  -4.419
REMARK INTRA:                  -0.183
REMARK UNBOUND:                -0.219
REMARK SMILES C=CC[C@@H](C)C(=O)CC
REMARK SMILES IDX 4 1 5 2 6 3 7 4 8 5 9 6 3 7 2 8 1 9
REMARK H PARENT
REMARK Flexibility Score: inf
ROOT
ATOM      1  C   UNL     1      67.035 -14.464  13.307  1.00  0.00     0.057 C 
ATOM      2  C   UNL     1      65.629 -14.446  12.692  1.00  0.00     0.016 C 
ENDROOT
BRANCH   1   3
ATOM      3  C   UNL     1      67.043 -15.333  14.547  1.00  0.00     0.135 C 
ATOM      4  O   UNL     1      65.987 -15.753  14.999  1.00  0.00    -0.299 OA
BRANCH   3   5
ATOM      5  C   UNL     1      68.331 -15.686  15.244  1.00  0.00     0.072 C 
ATOM      6  C   UNL     1      68.060 -16.548  16.474  1.00  0.00     0.012 C 
ENDBRANCH   3   5
ENDBRANCH   1   3
BRANCH   1   7
ATOM      7  C   UNL     1      68.091 -14.971  12.305  1.00  0.00     0.038 C 
BRANCH   7   8
ATOM      8  C   UNL     1      67.556 -14.983  10.897  1.00  0.00    -0.034 C 
ATOM      9  C   UNL     1      67.887 -15.938  10.023  1.00  0.00     0.004 C 
ENDBRANCH   7   8
ENDBRANCH   1   7
TORSDOF 4
ENDMDL
MODEL 5
REMARK VINA RESULT:    -3.540      1.165      4.228
REMARK INTER + INTRA:          -4.586
REMARK INTER:                  -4.366
REMARK INTRA:                  -0.221
REMARK UNBOUND:                -0.219
REMARK SMILES C=CC[C@@H](C)C(=O)CC
REMARK SMILES IDX 4 1 5 2 6 3 7 4 8 5 9 6 3 7 2 8 1 9
REMARK H PARENT
REMARK Flexibility Score: inf
ROOT
ATOM      1  C   UNL     1      66.832 -15.890  13.492  1.00  0.00     0.057 C 
ATOM      2  C   UNL     1      65.355 -16.302  13.553  1.00  0.00     0.016 C 
ENDROOT
BRANCH   1   3
ATOM      3  C   UNL     1      67.068 -15.001  12.289  1.00  0.00     0.135 C 
ATOM      4  O   UNL     1      68.179 -14.526  12.095  1.00  0.00    -0.299 OA
BRANCH   3   5
ATOM      5  C   UNL     1      65.957 -14.682  11.324  1.00  0.00     0.072 C 
ATOM      6  C   UNL     1      65.416 -13.277  11.569  1.00  0.00     0.012 C 
ENDBRANCH   3   5
ENDBRANCH   1   3
BRANCH   1   7
ATOM      7  C   UNL     1      67.277 -15.164  14.776  1.00  0.00     0.038 C 
BRANCH   7   8
ATOM      8  C   UNL     1      68.393 -15.901  15.470  1.00  0.00    -0.034 C 
ATOM      9  C   UNL     1      68.190 -16.599  16.591  1.00  0.00     0.004 C 
ENDBRANCH   7   8
ENDBRANCH   1   7
TORSDOF 4
ENDMDL
MODEL 6
REMARK VINA RESULT:    -3.512      1.451      2.048
REMARK INTER + INTRA:          -4.552
REMARK INTER:                  -4.229
REMARK INTRA:                  -0.323
REMARK UNBOUND:                -0.219
REMARK SMILES C=CC[C@@H](C)C(=O)CC
REMARK SMILES IDX 4 1 5 2 6 3 7 4 8 5 9 6 3 7 2 8 1 9
REMARK H PARENT
REMARK Flexibility Score: inf
ROOT
ATOM      1  C   UNL     1      65.194 -15.773  13.158  1.00  0.00     0.057 C 
ATOM      2  C   UNL     1      64.074 -16.822  13.188  1.00  0.00     0.016 C 
ENDROOT
BRANCH   1   3
ATOM      3  C   UNL     1      66.170 -16.032  14.287  1.00  0.00     0.135 C 
ATOM      4  O   UNL     1      66.068 -17.053  14.954  1.00  0.00    -0.299 OA
BRANCH   3   5
ATOM      5  C   UNL     1      67.266 -15.051  14.612  1.00  0.00     0.072 C 
ATOM      6  C   UNL     1      68.398 -15.737  15.369  1.00  0.00     0.012 C 
ENDBRANCH   3   5
ENDBRANCH   1   3
BRANCH   1   7
ATOM      7  C   UNL     1      65.940 -15.772  11.810  1.00  0.00     0.038 C 
BRANCH   7   8
ATOM      8  C   UNL     1      65.940 -14.404  11.179  1.00  0.00    -0.034 C 
ATOM      9  C   UNL     1      65.295 -13.372  11.728  1.00  0.00     0.004 C 
ENDBRANCH   7   8
ENDBRANCH   1   7
TORSDOF 4
ENDMDL
MODEL 7
REMARK VINA RESULT:    -3.327     19.364     20.360
REMARK INTER + INTRA:          -4.324
REMARK INTER:                  -4.056
REMARK INTRA:                  -0.268
REMARK UNBOUND:                -0.219
REMARK SMILES C=CC[C@@H](C)C(=O)CC
REMARK SMILES IDX 4 1 5 2 6 3 7 4 8 5 9 6 3 7 2 8 1 9
REMARK H PARENT
REMARK Flexibility Score: inf
ROOT
ATOM      1  C   UNL     1      56.627  -0.131  21.853  1.00  0.00     0.057 C 
ATOM      2  C   UNL     1      57.649   0.131  20.739  1.00  0.00     0.016 C 
ENDROOT
BRANCH   1   3
ATOM      3  C   UNL     1      57.245  -1.011  22.920  1.00  0.00     0.135 C 
ATOM      4  O   UNL     1      56.741  -1.058  24.034  1.00  0.00    -0.299 OA
BRANCH   3   5
ATOM      5  C   UNL     1      58.479  -1.829  22.639  1.00  0.00     0.072 C 
ATOM      6  C   UNL     1      59.260  -2.086  23.923  1.00  0.00     0.012 C 
ENDBRANCH   3   5
ENDBRANCH   1   3
BRANCH   1   7
ATOM      7  C   UNL     1      56.120   1.180  22.484  1.00  0.00     0.038 C 
BRANCH   7   8
ATOM      8  C   UNL     1      54.632   1.338  22.311  1.00  0.00    -0.034 C 
ATOM      9  C   UNL     1      53.895   0.430  21.664  1.00  0.00     0.004 C 
ENDBRANCH   7   8
ENDBRANCH   1   7
TORSDOF 4
ENDMDL
MODEL 8
REMARK VINA RESULT:    -3.305     14.036     15.713
REMARK INTER + INTRA:          -4.297
REMARK INTER:                  -3.827
REMARK INTRA:                  -0.470
REMARK UNBOUND:                -0.219
REMARK SMILES C=CC[C@@H](C)C(=O)CC
REMARK SMILES IDX 4 1 5 2 6 3 7 4 8 5 9 6 3 7 2 8 1 9
REMARK H PARENT
REMARK Flexibility Score: inf
ROOT
ATOM      1  C   UNL     1      68.112   0.293  10.340  1.00  0.00     0.057 C 
ATOM      2  C   UNL     1      68.042   1.311  11.487  1.00  0.00     0.016 C 
ENDROOT
BRANCH   1   3
ATOM      3  C   UNL     1      68.611  -1.037  10.863  1.00  0.00     0.135 C 
ATOM      4  O   UNL     1      69.205  -1.085  11.931  1.00  0.00    -0.299 OA
BRANCH   3   5
ATOM      5  C   UNL     1      68.397  -2.311  10.087  1.00  0.00     0.072 C 
ATOM      6  C   UNL     1      69.459  -2.469   9.004  1.00  0.00     0.012 C 
ENDBRANCH   3   5
ENDBRANCH   1   3
BRANCH   1   7
ATOM      7  C   UNL     1      66.743   0.108   9.657  1.00  0.00     0.038 C 
BRANCH   7   8
ATOM      8  C   UNL     1      66.775   0.559   8.220  1.00  0.00    -0.034 C 
ATOM      9  C   UNL     1      67.918   0.657   7.535  1.00  0.00     0.004 C 
ENDBRANCH   7   8
ENDBRANCH   1   7
TORSDOF 4
ENDMDL
MODEL 9
REMARK VINA RESULT:    -3.201     10.606     12.409
REMARK INTER + INTRA:          -4.169
REMARK INTER:                  -3.876
REMARK INTRA:                  -0.292
REMARK UNBOUND:                -0.219
REMARK SMILES C=CC[C@@H](C)C(=O)CC
REMARK SMILES IDX 4 1 5 2 6 3 7 4 8 5 9 6 3 7 2 8 1 9
REMARK H PARENT
REMARK Flexibility Score: inf
ROOT
ATOM      1  C   UNL     1      56.456 -14.563   8.742  1.00  0.00     0.057 C 
ATOM      2  C   UNL     1      57.739 -13.745   8.946  1.00  0.00     0.016 C 
ENDROOT
BRANCH   1   3
ATOM      3  C   UNL     1      56.536 -15.329   7.439  1.00  0.00     0.135 C 
ATOM      4  O   UNL     1      55.582 -15.999   7.070  1.00  0.00    -0.299 OA
BRANCH   3   5
ATOM      5  C   UNL     1      57.777 -15.289   6.584  1.00  0.00     0.072 C 
ATOM      6  C   UNL     1      57.427 -14.947   5.140  1.00  0.00     0.012 C 
ENDBRANCH   3   5
ENDBRANCH   1   3
BRANCH   1   7
ATOM      7  C   UNL     1      56.209 -15.538   9.910  1.00  0.00     0.038 C 
BRANCH   7   8
ATOM      8  C   UNL     1      57.413 -16.403  10.173  1.00  0.00    -0.034 C 
ATOM      9  C   UNL     1      57.814 -16.698  11.413  1.00  0.00     0.004 C 
ENDBRANCH   7   8
ENDBRANCH   1   7
TORSDOF 4
ENDMDL
