MODEL 1
REMARK VINA RESULT:    -3.885      0.000      0.000
REMARK INTER + INTRA:          -5.426
REMARK INTER:                  -5.021
REMARK INTRA:                  -0.405
REMARK UNBOUND:                -0.405
REMARK SMILES CCO[C@@H]1O[C@@H](CO)[C@H](O)[C@@H](O)[C@@H]1O
REMARK SMILES IDX 4 1 13 2 11 3 9 4 6 5 5 6 3 7 2 8 1 9 14 10 12 12 7 14 8 15
REMARK SMILES IDX 10 17
REMARK H PARENT 14 11 12 13 8 16 10 18
REMARK Flexibility Score: inf
ROOT
ATOM      1  C   UNL     1       7.875  -4.403  -2.734  1.00  0.00     0.281 C 
ATOM      2  C   UNL     1       9.425  -4.484  -2.655  1.00  0.00     0.202 C 
ATOM      3  C   UNL     1       9.828  -5.375  -1.463  1.00  0.00     0.179 C 
ATOM      4  C   UNL     1       9.127  -6.734  -1.582  1.00  0.00     0.177 C 
ATOM      5  C   UNL     1       7.593  -6.521  -1.703  1.00  0.00     0.178 C 
ATOM      6  O   UNL     1       7.294  -5.698  -2.828  1.00  0.00    -0.341 OA
ENDROOT
BRANCH   1   7
ATOM      7  O   UNL     1       7.384  -3.679  -1.618  1.00  0.00    -0.350 OA
BRANCH   7   8
ATOM      8  C   UNL     1       6.435  -2.694  -2.004  1.00  0.00     0.160 C 
ATOM      9  C   UNL     1       5.126  -2.908  -1.253  1.00  0.00     0.035 C 
ENDBRANCH   7   8
ENDBRANCH   1   7
BRANCH   2  10
ATOM     10  O   UNL     1      10.029  -3.217  -2.501  1.00  0.00    -0.385 OA
ATOM     11  H   UNL     1      10.851  -3.322  -1.955  1.00  0.00     0.211 HD
ENDBRANCH   2  10
BRANCH   3  12
ATOM     12  O   UNL     1      11.224  -5.595  -1.464  1.00  0.00    -0.387 OA
ATOM     13  H   UNL     1      11.520  -5.558  -2.412  1.00  0.00     0.211 HD
ENDBRANCH   3  12
BRANCH   5  14
ATOM     14  C   UNL     1       6.902  -7.879  -1.918  1.00  0.00     0.191 C 
BRANCH  14  15
ATOM     15  O   UNL     1       6.608  -8.516  -0.702  1.00  0.00    -0.394 OA
ATOM     16  H   UNL     1       7.379  -8.377  -0.086  1.00  0.00     0.210 HD
ENDBRANCH  14  15
ENDBRANCH   5  14
BRANCH   4  17
ATOM     17  O   UNL     1       9.417  -7.512  -0.449  1.00  0.00    -0.387 OA
ATOM     18  H   UNL     1       8.620  -7.506   0.144  1.00  0.00     0.211 HD
ENDBRANCH   4  17
TORSDOF 7
ENDMDL
MODEL 2
REMARK VINA RESULT:    -3.858      1.764      3.557
REMARK INTER + INTRA:          -5.391
REMARK INTER:                  -4.951
REMARK INTRA:                  -0.439
REMARK UNBOUND:                -0.405
REMARK SMILES CCO[C@@H]1O[C@@H](CO)[C@H](O)[C@@H](O)[C@@H]1O
REMARK SMILES IDX 4 1 13 2 11 3 9 4 6 5 5 6 3 7 2 8 1 9 14 10 12 12 7 14 8 15
REMARK SMILES IDX 10 17
REMARK H PARENT 14 11 12 13 8 16 10 18
REMARK Flexibility Score: inf
ROOT
ATOM      1  C   UNL     1       7.896  -2.652  -1.646  1.00  0.00     0.281 C 
ATOM      2  C   UNL     1       7.446  -3.900  -0.837  1.00  0.00     0.202 C 
ATOM      3  C   UNL     1       7.754  -5.173  -1.651  1.00  0.00     0.179 C 
ATOM      4  C   UNL     1       9.235  -5.175  -2.052  1.00  0.00     0.177 C 
ATOM      5  C   UNL     1       9.574  -3.861  -2.808  1.00  0.00     0.178 C 
ATOM      6  O   UNL     1       9.272  -2.729  -1.994  1.00  0.00    -0.341 OA
ENDROOT
BRANCH   1   7
ATOM      7  O   UNL     1       7.065  -2.506  -2.786  1.00  0.00    -0.350 OA
BRANCH   7   8
ATOM      8  C   UNL     1       6.465  -1.219  -2.842  1.00  0.00     0.160 C 
ATOM      9  C   UNL     1       4.948  -1.348  -2.767  1.00  0.00     0.035 C 
ENDBRANCH   7   8
ENDBRANCH   1   7
BRANCH   2  10
ATOM     10  O   UNL     1       6.068  -3.881  -0.527  1.00  0.00    -0.385 OA
ATOM     11  H   UNL     1       5.699  -2.994  -0.775  1.00  0.00     0.211 HD
ENDBRANCH   2  10
BRANCH   3  12
ATOM     12  O   UNL     1       7.504  -6.326  -0.875  1.00  0.00    -0.387 OA
ATOM     13  H   UNL     1       6.738  -6.798  -1.299  1.00  0.00     0.211 HD
ENDBRANCH   3  12
BRANCH   5  14
ATOM     14  C   UNL     1      11.079  -3.823  -3.124  1.00  0.00     0.191 C 
BRANCH  14  15
ATOM     15  O   UNL     1      11.819  -4.625  -2.242  1.00  0.00    -0.394 OA
ATOM     16  H   UNL     1      12.777  -4.357  -2.309  1.00  0.00     0.210 HD
ENDBRANCH  14  15
ENDBRANCH   5  14
BRANCH   4  17
ATOM     17  O   UNL     1       9.497  -6.284  -2.874  1.00  0.00    -0.387 OA
ATOM     18  H   UNL     1      10.472  -6.474  -2.838  1.00  0.00     0.211 HD
ENDBRANCH   4  17
TORSDOF 7
ENDMDL
MODEL 3
REMARK VINA RESULT:    -3.834      1.675      4.106
REMARK INTER + INTRA:          -5.359
REMARK INTER:                  -4.987
REMARK INTRA:                  -0.372
REMARK UNBOUND:                -0.405
REMARK SMILES CCO[C@@H]1O[C@@H](CO)[C@H](O)[C@@H](O)[C@@H]1O
REMARK SMILES IDX 4 1 13 2 11 3 9 4 6 5 5 6 3 7 2 8 1 9 14 10 12 12 7 14 8 15
REMARK SMILES IDX 10 17
REMARK H PARENT 14 11 12 13 8 16 10 18
REMARK Flexibility Score: inf
ROOT
ATOM      1  C   UNL     1       6.984  -6.151  -3.074  1.00  0.00     0.281 C 
ATOM      2  C   UNL     1       6.398  -4.721  -2.923  1.00  0.00     0.202 C 
ATOM      3  C   UNL     1       6.765  -4.164  -1.533  1.00  0.00     0.179 C 
ATOM      4  C   UNL     1       8.283  -4.252  -1.333  1.00  0.00     0.177 C 
ATOM      5  C   UNL     1       8.755  -5.715  -1.557  1.00  0.00     0.178 C 
ATOM      6  O   UNL     1       8.391  -6.159  -2.862  1.00  0.00    -0.341 OA
ENDROOT
BRANCH   1   7
ATOM      7  O   UNL     1       6.308  -7.033  -2.193  1.00  0.00    -0.350 OA
BRANCH   7   8
ATOM      8  C   UNL     1       6.593  -8.394  -2.484  1.00  0.00     0.160 C 
ATOM      9  C   UNL     1       7.035  -9.117  -1.218  1.00  0.00     0.035 C 
ENDBRANCH   7   8
ENDBRANCH   1   7
BRANCH   2  10
ATOM     10  O   UNL     1       4.993  -4.689  -3.069  1.00  0.00    -0.385 OA
ATOM     11  H   UNL     1       4.705  -5.515  -3.538  1.00  0.00     0.211 HD
ENDBRANCH   2  10
BRANCH   3  12
ATOM     12  O   UNL     1       6.383  -2.808  -1.430  1.00  0.00    -0.387 OA
ATOM     13  H   UNL     1       7.133  -2.330  -0.984  1.00  0.00     0.211 HD
ENDBRANCH   3  12
BRANCH   5  14
ATOM     14  C   UNL     1      10.288  -5.782  -1.450  1.00  0.00     0.191 C 
BRANCH  14  15
ATOM     15  O   UNL     1      10.719  -5.844  -0.116  1.00  0.00    -0.394 OA
ATOM     16  H   UNL     1       9.928  -5.691   0.472  1.00  0.00     0.210 HD
ENDBRANCH  14  15
ENDBRANCH   5  14
BRANCH   4  17
ATOM     17  O   UNL     1       8.611  -3.835  -0.032  1.00  0.00    -0.387 OA
ATOM     18  H   UNL     1       8.271  -2.910   0.092  1.00  0.00     0.211 HD
ENDBRANCH   4  17
TORSDOF 7
ENDMDL
MODEL 4
REMARK VINA RESULT:    -3.819      1.440      4.024
REMARK INTER + INTRA:          -5.340
REMARK INTER:                  -5.079
REMARK INTRA:                  -0.261
REMARK UNBOUND:                -0.405
REMARK SMILES CCO[C@@H]1O[C@@H](CO)[C@H](O)[C@@H](O)[C@@H]1O
REMARK SMILES IDX 4 1 13 2 11 3 9 4 6 5 5 6 3 7 2 8 1 9 14 10 12 12 7 14 8 15
REMARK SMILES IDX 10 17
REMARK H PARENT 14 11 12 13 8 16 10 18
REMARK Flexibility Score: inf
ROOT
ATOM      1  C   UNL     1       7.498  -5.752  -1.435  1.00  0.00     0.281 C 
ATOM      2  C   UNL     1       8.860  -5.012  -1.546  1.00  0.00     0.202 C 
ATOM      3  C   UNL     1       8.694  -3.774  -2.451  1.00  0.00     0.179 C 
ATOM      4  C   UNL     1       7.542  -2.909  -1.925  1.00  0.00     0.177 C 
ATOM      5  C   UNL     1       6.253  -3.768  -1.813  1.00  0.00     0.178 C 
ATOM      6  O   UNL     1       6.476  -4.886  -0.957  1.00  0.00    -0.341 OA
ENDROOT
BRANCH   1   7
ATOM      7  O   UNL     1       7.168  -6.322  -2.692  1.00  0.00    -0.350 OA
BRANCH   7   8
ATOM      8  C   UNL     1       6.548  -7.592  -2.550  1.00  0.00     0.160 C 
ATOM      9  C   UNL     1       7.111  -8.315  -1.332  1.00  0.00     0.035 C 
ENDBRANCH   7   8
ENDBRANCH   1   7
BRANCH   2  10
ATOM     10  O   UNL     1       9.883  -5.829  -2.075  1.00  0.00    -0.385 OA
ATOM     11  H   UNL     1       9.474  -6.666  -2.417  1.00  0.00     0.211 HD
ENDBRANCH   2  10
BRANCH   3  12
ATOM     12  O   UNL     1       9.874  -2.996  -2.439  1.00  0.00    -0.387 OA
ATOM     13  H   UNL     1      10.555  -3.499  -2.961  1.00  0.00     0.211 HD
ENDBRANCH   3  12
BRANCH   5  14
ATOM     14  C   UNL     1       5.125  -2.923  -1.196  1.00  0.00     0.191 C 
BRANCH  14  15
ATOM     15  O   UNL     1       5.010  -3.133   0.187  1.00  0.00    -0.394 OA
ATOM     16  H   UNL     1       4.481  -2.381   0.571  1.00  0.00     0.210 HD
ENDBRANCH  14  15
ENDBRANCH   5  14
BRANCH   4  17
ATOM     17  O   UNL     1       7.327  -1.831  -2.801  1.00  0.00    -0.387 OA
ATOM     18  H   UNL     1       8.211  -1.522  -3.134  1.00  0.00     0.211 HD
ENDBRANCH   4  17
TORSDOF 7
ENDMDL
MODEL 5
REMARK VINA RESULT:    -3.509      1.409      2.144
REMARK INTER + INTRA:          -4.940
REMARK INTER:                  -4.824
REMARK INTRA:                  -0.116
REMARK UNBOUND:                -0.405
REMARK SMILES CCO[C@@H]1O[C@@H](CO)[C@H](O)[C@@H](O)[C@@H]1O
REMARK SMILES IDX 4 1 13 2 11 3 9 4 6 5 5 6 3 7 2 8 1 9 14 10 12 12 7 14 8 15
REMARK SMILES IDX 10 17
REMARK H PARENT 14 11 12 13 8 16 10 18
REMARK Flexibility Score: inf
ROOT
ATOM      1  C   UNL     1       6.011  -3.855  -2.456  1.00  0.00     0.281 C 
ATOM      2  C   UNL     1       7.281  -3.032  -2.811  1.00  0.00     0.202 C 
ATOM      3  C   UNL     1       8.419  -3.410  -1.842  1.00  0.00     0.179 C 
ATOM      4  C   UNL     1       8.622  -4.931  -1.862  1.00  0.00     0.177 C 
ATOM      5  C   UNL     1       7.278  -5.641  -1.542  1.00  0.00     0.178 C 
ATOM      6  O   UNL     1       6.276  -5.252  -2.480  1.00  0.00    -0.341 OA
ENDROOT
BRANCH   1   7
ATOM      7  O   UNL     1       5.511  -3.429  -1.198  1.00  0.00    -0.350 OA
BRANCH   7   8
ATOM      8  C   UNL     1       4.313  -2.677  -1.333  1.00  0.00     0.160 C 
ATOM      9  C   UNL     1       3.479  -3.225  -2.485  1.00  0.00     0.035 C 
ENDBRANCH   7   8
ENDBRANCH   1   7
BRANCH   2  10
ATOM     10  O   UNL     1       7.065  -1.638  -2.737  1.00  0.00    -0.385 OA
ATOM     11  H   UNL     1       7.492  -1.295  -1.909  1.00  0.00     0.211 HD
ENDBRANCH   2  10
BRANCH   3  12
ATOM     12  O   UNL     1       9.628  -2.798  -2.241  1.00  0.00    -0.387 OA
ATOM     13  H   UNL     1       9.411  -2.209  -3.014  1.00  0.00     0.211 HD
ENDBRANCH   3  12
BRANCH   5  14
ATOM     14  C   UNL     1       7.461  -7.164  -1.657  1.00  0.00     0.191 C 
BRANCH  14  15
ATOM     15  O   UNL     1       6.433  -7.865  -1.008  1.00  0.00    -0.394 OA
ATOM     16  H   UNL     1       6.281  -8.718  -1.502  1.00  0.00     0.210 HD
ENDBRANCH  14  15
ENDBRANCH   5  14
BRANCH   4  17
ATOM     17  O   UNL     1       9.593  -5.288  -0.911  1.00  0.00    -0.387 OA
ATOM     18  H   UNL     1       9.986  -6.159  -1.181  1.00  0.00     0.211 HD
ENDBRANCH   4  17
TORSDOF 7
ENDMDL
MODEL 6
REMARK VINA RESULT:    -3.169      1.772      3.580
REMARK INTER + INTRA:          -4.500
REMARK INTER:                  -4.199
REMARK INTRA:                  -0.300
REMARK UNBOUND:                -0.405
REMARK SMILES CCO[C@@H]1O[C@@H](CO)[C@H](O)[C@@H](O)[C@@H]1O
REMARK SMILES IDX 4 1 13 2 11 3 9 4 6 5 5 6 3 7 2 8 1 9 14 10 12 12 7 14 8 15
REMARK SMILES IDX 10 17
REMARK H PARENT 14 11 12 13 8 16 10 18
REMARK Flexibility Score: inf
ROOT
ATOM      1  C   UNL     1       6.861  -4.485  -2.347  1.00  0.00     0.281 C 
ATOM      2  C   UNL     1       7.104  -3.628  -1.074  1.00  0.00     0.202 C 
ATOM      3  C   UNL     1       8.141  -4.332  -0.176  1.00  0.00     0.179 C 
ATOM      4  C   UNL     1       9.406  -4.628  -0.993  1.00  0.00     0.177 C 
ATOM      5  C   UNL     1       9.029  -5.444  -2.259  1.00  0.00     0.178 C 
ATOM      6  O   UNL     1       8.076  -4.731  -3.044  1.00  0.00    -0.341 OA
ENDROOT
BRANCH   1   7
ATOM      7  O   UNL     1       6.201  -5.687  -1.986  1.00  0.00    -0.350 OA
BRANCH   7   8
ATOM      8  C   UNL     1       5.867  -6.469  -3.124  1.00  0.00     0.160 C 
ATOM      9  C   UNL     1       6.370  -7.896  -2.943  1.00  0.00     0.035 C 
ENDBRANCH   7   8
ENDBRANCH   1   7
BRANCH   2  10
ATOM     10  O   UNL     1       5.925  -3.416  -0.326  1.00  0.00    -0.385 OA
ATOM     11  H   UNL     1       6.155  -2.897   0.488  1.00  0.00     0.211 HD
ENDBRANCH   2  10
BRANCH   3  12
ATOM     12  O   UNL     1       8.499  -3.500   0.908  1.00  0.00    -0.387 OA
ATOM     13  H   UNL     1       7.692  -2.967   1.141  1.00  0.00     0.211 HD
ENDBRANCH   3  12
BRANCH   5  14
ATOM     14  C   UNL     1      10.283  -5.657  -3.125  1.00  0.00     0.191 C 
BRANCH  14  15
ATOM     15  O   UNL     1      11.278  -4.707  -2.848  1.00  0.00    -0.394 OA
ATOM     16  H   UNL     1      12.046  -4.874  -3.461  1.00  0.00     0.210 HD
ENDBRANCH  14  15
ENDBRANCH   5  14
BRANCH   4  17
ATOM     17  O   UNL     1      10.314  -5.354  -0.205  1.00  0.00    -0.387 OA
ATOM     18  H   UNL     1      10.552  -6.186  -0.693  1.00  0.00     0.211 HD
ENDBRANCH   4  17
TORSDOF 7
ENDMDL
MODEL 7
REMARK VINA RESULT:    -3.155      1.633      3.670
REMARK INTER + INTRA:          -4.482
REMARK INTER:                  -4.268
REMARK INTRA:                  -0.214
REMARK UNBOUND:                -0.405
REMARK SMILES CCO[C@@H]1O[C@@H](CO)[C@H](O)[C@@H](O)[C@@H]1O
REMARK SMILES IDX 4 1 13 2 11 3 9 4 6 5 5 6 3 7 2 8 1 9 14 10 12 12 7 14 8 15
REMARK SMILES IDX 10 17
REMARK H PARENT 14 11 12 13 8 16 10 18
REMARK Flexibility Score: inf
ROOT
ATOM      1  C   UNL     1       8.867  -3.912  -1.792  1.00  0.00     0.281 C 
ATOM      2  C   UNL     1       7.419  -3.352  -1.724  1.00  0.00     0.202 C 
ATOM      3  C   UNL     1       6.488  -4.245  -2.569  1.00  0.00     0.179 C 
ATOM      4  C   UNL     1       6.627  -5.702  -2.111  1.00  0.00     0.177 C 
ATOM      5  C   UNL     1       8.118  -6.130  -2.176  1.00  0.00     0.178 C 
ATOM      6  O   UNL     1       8.917  -5.268  -1.368  1.00  0.00    -0.341 OA
ENDROOT
BRANCH   1   7
ATOM      7  O   UNL     1       9.376  -3.745  -3.105  1.00  0.00    -0.350 OA
BRANCH   7   8
ATOM      8  C   UNL     1      10.653  -3.123  -3.102  1.00  0.00     0.160 C 
ATOM      9  C   UNL     1      11.749  -4.181  -3.125  1.00  0.00     0.035 C 
ENDBRANCH   7   8
ENDBRANCH   1   7
BRANCH   2  10
ATOM     10  O   UNL     1       7.326  -2.024  -2.196  1.00  0.00    -0.385 OA
ATOM     11  H   UNL     1       6.714  -1.518  -1.600  1.00  0.00     0.211 HD
ENDBRANCH   2  10
BRANCH   3  12
ATOM     12  O   UNL     1       5.142  -3.853  -2.397  1.00  0.00    -0.387 OA
ATOM     13  H   UNL     1       4.579  -4.615  -2.700  1.00  0.00     0.211 HD
ENDBRANCH   3  12
BRANCH   5  14
ATOM     14  C   UNL     1       8.268  -7.559  -1.627  1.00  0.00     0.191 C 
BRANCH  14  15
ATOM     15  O   UNL     1       9.164  -7.614  -0.548  1.00  0.00    -0.394 OA
ATOM     16  H   UNL     1       8.949  -8.425  -0.008  1.00  0.00     0.210 HD
ENDBRANCH  14  15
ENDBRANCH   5  14
BRANCH   4  17
ATOM     17  O   UNL     1       5.852  -6.531  -2.941  1.00  0.00    -0.387 OA
ATOM     18  H   UNL     1       4.902  -6.445  -2.665  1.00  0.00     0.211 HD
ENDBRANCH   4  17
TORSDOF 7
ENDMDL
MODEL 8
REMARK VINA RESULT:    -2.940      1.702      3.214
REMARK INTER + INTRA:          -4.205
REMARK INTER:                  -3.835
REMARK INTRA:                  -0.370
REMARK UNBOUND:                -0.405
REMARK SMILES CCO[C@@H]1O[C@@H](CO)[C@H](O)[C@@H](O)[C@@H]1O
REMARK SMILES IDX 4 1 13 2 11 3 9 4 6 5 5 6 3 7 2 8 1 9 14 10 12 12 7 14 8 15
REMARK SMILES IDX 10 17
REMARK H PARENT 14 11 12 13 8 16 10 18
REMARK Flexibility Score: inf
ROOT
ATOM      1  C   UNL     1       7.379  -4.208  -1.824  1.00  0.00     0.281 C 
ATOM      2  C   UNL     1       6.506  -5.458  -2.124  1.00  0.00     0.202 C 
ATOM      3  C   UNL     1       7.320  -6.455  -2.974  1.00  0.00     0.179 C 
ATOM      4  C   UNL     1       8.647  -6.761  -2.268  1.00  0.00     0.177 C 
ATOM      5  C   UNL     1       9.403  -5.436  -1.980  1.00  0.00     0.178 C 
ATOM      6  O   UNL     1       8.597  -4.568  -1.185  1.00  0.00    -0.341 OA
ENDROOT
BRANCH   1   7
ATOM      7  O   UNL     1       7.602  -3.489  -3.027  1.00  0.00    -0.350 OA
BRANCH   7   8
ATOM      8  C   UNL     1       7.046  -2.183  -2.973  1.00  0.00     0.160 C 
ATOM      9  C   UNL     1       7.833  -1.321  -1.994  1.00  0.00     0.035 C 
ENDBRANCH   7   8
ENDBRANCH   1   7
BRANCH   2  10
ATOM     10  O   UNL     1       5.316  -5.139  -2.813  1.00  0.00    -0.385 OA
ATOM     11  H   UNL     1       4.543  -5.394  -2.245  1.00  0.00     0.211 HD
ENDBRANCH   2  10
BRANCH   3  12
ATOM     12  O   UNL     1       6.609  -7.666  -3.125  1.00  0.00    -0.387 OA
ATOM     13  H   UNL     1       5.919  -7.686  -2.409  1.00  0.00     0.211 HD
ENDBRANCH   3  12
BRANCH   5  14
ATOM     14  C   UNL     1      10.687  -5.738  -1.188  1.00  0.00     0.191 C 
BRANCH  14  15
ATOM     15  O   UNL     1      10.541  -6.865  -0.364  1.00  0.00    -0.394 OA
ATOM     16  H   UNL     1       9.693  -7.325  -0.616  1.00  0.00     0.210 HD
ENDBRANCH  14  15
ENDBRANCH   5  14
BRANCH   4  17
ATOM     17  O   UNL     1       9.431  -7.594  -3.084  1.00  0.00    -0.387 OA
ATOM     18  H   UNL     1       9.648  -7.097  -3.917  1.00  0.00     0.211 HD
ENDBRANCH   4  17
TORSDOF 7
ENDMDL
