MODEL 1
REMARK VINA RESULT:    -3.683      0.000      0.000
REMARK INTER + INTRA:          -4.624
REMARK INTER:                  -4.437
REMARK INTRA:                  -0.188
REMARK UNBOUND:                -0.188
REMARK SMILES O=c1ccn([C@@H]2O[C@H](CO)[C@@H](O)[C@@H]2O)c(=O)[nH]1
REMARK SMILES IDX 6 1 13 2 11 3 8 4 7 5 5 6 3 7 4 8 2 9 17 10 1 11 15 12 16 14
REMARK SMILES IDX 14 15 12 17 9 19 10 20
REMARK H PARENT 17 13 14 16 12 18 10 21
REMARK Flexibility Score: inf
ROOT
ATOM      1  C   UNL     1     165.879 172.738 175.648  1.00  0.00     0.255 C 
ATOM      2  C   UNL     1     167.139 172.334 176.403  1.00  0.00     0.196 C 
ATOM      3  C   UNL     1     166.783 170.945 176.882  1.00  0.00     0.179 C 
ATOM      4  C   UNL     1     165.248 170.972 176.939  1.00  0.00     0.178 C 
ATOM      5  O   UNL     1     164.770 172.114 176.255  1.00  0.00    -0.347 OA
ENDROOT
BRANCH   1   6
ATOM      6  N   UNL     1     165.712 174.207 175.585  1.00  0.00    -0.271 N 
ATOM      7  C   UNL     1     164.547 176.159 176.357  1.00  0.00     0.090 A 
ATOM      8  C   UNL     1     164.764 174.784 176.385  1.00  0.00     0.099 A 
ATOM      9  C   UNL     1     165.305 176.934 175.489  1.00  0.00     0.253 A 
ATOM     10  N   UNL     1     166.229 176.345 174.687  1.00  0.00    -0.274 N 
ATOM     11  O   UNL     1     165.131 178.182 175.443  1.00  0.00    -0.269 OA
ATOM     12  C   UNL     1     166.434 174.998 174.719  1.00  0.00     0.330 A 
ATOM     13  H   UNL     1     166.789 176.935 174.029  1.00  0.00     0.175 HD
ATOM     14  O   UNL     1     167.286 174.492 173.940  1.00  0.00    -0.248 OA
ENDBRANCH   1   6
BRANCH   2  15
ATOM     15  O   UNL     1     167.361 173.183 177.500  1.00  0.00    -0.386 OA
ATOM     16  H   UNL     1     167.467 174.099 177.131  1.00  0.00     0.211 HD
ENDBRANCH   2  15
BRANCH   3  17
ATOM     17  O   UNL     1     167.204 169.987 175.945  1.00  0.00    -0.387 OA
ATOM     18  H   UNL     1     167.877 169.417 176.402  1.00  0.00     0.211 HD
ENDBRANCH   3  17
BRANCH   4  19
ATOM     19  C   UNL     1     164.737 170.998 178.384  1.00  0.00     0.191 C 
BRANCH  19  20
ATOM     20  O   UNL     1     165.240 169.893 179.083  1.00  0.00    -0.394 OA
ATOM     21  H   UNL     1     165.018 170.047 180.038  1.00  0.00     0.210 HD
ENDBRANCH  19  20
ENDBRANCH   4  19
TORSDOF 5
ENDMDL
MODEL 2
REMARK VINA RESULT:    -3.672     12.168     13.521
REMARK INTER + INTRA:          -4.612
REMARK INTER:                  -4.272
REMARK INTRA:                  -0.339
REMARK UNBOUND:                -0.188
REMARK SMILES O=c1ccn([C@@H]2O[C@H](CO)[C@@H](O)[C@@H]2O)c(=O)[nH]1
REMARK SMILES IDX 6 1 13 2 11 3 8 4 7 5 5 6 3 7 4 8 2 9 17 10 1 11 15 12 16 14
REMARK SMILES IDX 14 15 12 17 9 19 10 20
REMARK H PARENT 17 13 14 16 12 18 10 21
REMARK Flexibility Score: inf
ROOT
ATOM      1  C   UNL     1     162.581 174.116 162.594  1.00  0.00     0.255 C 
ATOM      2  C   UNL     1     163.134 172.727 162.880  1.00  0.00     0.196 C 
ATOM      3  C   UNL     1     162.592 171.929 161.717  1.00  0.00     0.179 C 
ATOM      4  C   UNL     1     161.336 172.713 161.305  1.00  0.00     0.178 C 
ATOM      5  O   UNL     1     161.345 173.982 161.930  1.00  0.00    -0.347 OA
ENDROOT
BRANCH   1   6
ATOM      6  N   UNL     1     162.454 174.932 163.823  1.00  0.00    -0.271 N 
ATOM      7  C   UNL     1     161.052 175.736 165.597  1.00  0.00     0.090 A 
ATOM      8  C   UNL     1     161.238 174.972 164.448  1.00  0.00     0.099 A 
ATOM      9  C   UNL     1     162.123 176.469 166.090  1.00  0.00     0.253 A 
ATOM     10  N   UNL     1     163.319 176.434 165.447  1.00  0.00    -0.274 N 
ATOM     11  O   UNL     1     161.984 177.168 167.130  1.00  0.00    -0.269 OA
ATOM     12  C   UNL     1     163.493 175.685 164.322  1.00  0.00     0.330 A 
ATOM     13  H   UNL     1     164.119 176.996 165.820  1.00  0.00     0.175 HD
ATOM     14  O   UNL     1     164.615 175.702 163.746  1.00  0.00    -0.248 OA
ENDBRANCH   1   6
BRANCH   2  15
ATOM     15  O   UNL     1     162.629 172.224 164.090  1.00  0.00    -0.386 OA
ATOM     16  H   UNL     1     162.581 172.992 164.718  1.00  0.00     0.211 HD
ENDBRANCH   2  15
BRANCH   3  17
ATOM     17  O   UNL     1     163.515 171.929 160.658  1.00  0.00    -0.387 OA
ATOM     18  H   UNL     1     162.986 171.920 159.817  1.00  0.00     0.211 HD
ENDBRANCH   3  17
BRANCH   4  19
ATOM     19  C   UNL     1     160.054 171.968 161.693  1.00  0.00     0.191 C 
BRANCH  19  20
ATOM     20  O   UNL     1     160.379 170.793 162.382  1.00  0.00    -0.394 OA
ATOM     21  H   UNL     1     159.519 170.410 162.695  1.00  0.00     0.210 HD
ENDBRANCH  19  20
ENDBRANCH   4  19
TORSDOF 5
ENDMDL
MODEL 3
REMARK VINA RESULT:    -3.654      7.146      8.692
REMARK INTER + INTRA:          -4.590
REMARK INTER:                  -4.399
REMARK INTRA:                  -0.190
REMARK UNBOUND:                -0.188
REMARK SMILES O=c1ccn([C@@H]2O[C@H](CO)[C@@H](O)[C@@H]2O)c(=O)[nH]1
REMARK SMILES IDX 6 1 13 2 11 3 8 4 7 5 5 6 3 7 4 8 2 9 17 10 1 11 15 12 16 14
REMARK SMILES IDX 14 15 12 17 9 19 10 20
REMARK H PARENT 17 13 14 16 12 18 10 21
REMARK Flexibility Score: inf
ROOT
ATOM      1  C   UNL     1     172.654 171.153 175.653  1.00  0.00     0.255 C 
ATOM      2  C   UNL     1     172.295 169.927 176.481  1.00  0.00     0.196 C 
ATOM      3  C   UNL     1     170.894 170.260 176.940  1.00  0.00     0.179 C 
ATOM      4  C   UNL     1     170.866 171.795 176.906  1.00  0.00     0.178 C 
ATOM      5  O   UNL     1     171.991 172.273 176.194  1.00  0.00    -0.347 OA
ENDROOT
BRANCH   1   6
ATOM      6  N   UNL     1     174.117 171.369 175.579  1.00  0.00    -0.271 N 
ATOM      7  C   UNL     1     176.029 172.623 176.308  1.00  0.00     0.090 A 
ATOM      8  C   UNL     1     174.663 172.359 176.349  1.00  0.00     0.099 A 
ATOM      9  C   UNL     1     176.828 171.868 175.459  1.00  0.00     0.253 A 
ATOM     10  N   UNL     1     176.268 170.901 174.687  1.00  0.00    -0.274 N 
ATOM     11  O   UNL     1     178.069 172.083 175.403  1.00  0.00    -0.269 OA
ATOM     12  C   UNL     1     174.929 170.651 174.731  1.00  0.00     0.330 A 
ATOM     13  H   UNL     1     176.875 170.343 174.043  1.00  0.00     0.175 HD
ATOM     14  O   UNL     1     174.451 169.759 173.978  1.00  0.00    -0.248 OA
ENDBRANCH   1   6
BRANCH   2  15
ATOM     15  O   UNL     1     173.151 169.800 177.588  1.00  0.00    -0.386 OA
ATOM     16  H   UNL     1     173.601 170.678 177.700  1.00  0.00     0.211 HD
ENDBRANCH   2  15
BRANCH   3  17
ATOM     17  O   UNL     1     169.953 169.750 176.030  1.00  0.00    -0.387 OA
ATOM     18  H   UNL     1     169.161 170.348 176.073  1.00  0.00     0.211 HD
ENDBRANCH   3  17
BRANCH   4  19
ATOM     19  C   UNL     1     170.871 172.391 178.318  1.00  0.00     0.191 C 
BRANCH  19  20
ATOM     20  O   UNL     1     169.731 171.969 179.014  1.00  0.00    -0.394 OA
ATOM     21  H   UNL     1     169.233 172.794 179.253  1.00  0.00     0.210 HD
ENDBRANCH  19  20
ENDBRANCH   4  19
TORSDOF 5
ENDMDL
MODEL 4
REMARK VINA RESULT:    -3.637     12.870     14.649
REMARK INTER + INTRA:          -4.570
REMARK INTER:                  -4.209
REMARK INTRA:                  -0.360
REMARK UNBOUND:                -0.188
REMARK SMILES O=c1ccn([C@@H]2O[C@H](CO)[C@@H](O)[C@@H]2O)c(=O)[nH]1
REMARK SMILES IDX 6 1 13 2 11 3 8 4 7 5 5 6 3 7 4 8 2 9 17 10 1 11 15 12 16 14
REMARK SMILES IDX 14 15 12 17 9 19 10 20
REMARK H PARENT 17 13 14 16 12 18 10 21
REMARK Flexibility Score: inf
ROOT
ATOM      1  C   UNL     1     173.919 162.474 174.606  1.00  0.00     0.255 C 
ATOM      2  C   UNL     1     172.497 162.913 174.284  1.00  0.00     0.196 C 
ATOM      3  C   UNL     1     171.715 162.293 175.420  1.00  0.00     0.179 C 
ATOM      4  C   UNL     1     172.588 161.103 175.843  1.00  0.00     0.178 C 
ATOM      5  O   UNL     1     173.869 161.223 175.255  1.00  0.00    -0.347 OA
ENDROOT
BRANCH   1   6
ATOM      6  N   UNL     1     174.776 162.428 173.400  1.00  0.00    -0.271 N 
ATOM      7  C   UNL     1     175.772 161.111 171.658  1.00  0.00     0.090 A 
ATOM      8  C   UNL     1     174.962 161.221 172.785  1.00  0.00     0.099 A 
ATOM      9  C   UNL     1     176.401 162.252 171.177  1.00  0.00     0.253 A 
ATOM     10  N   UNL     1     176.222 163.440 171.810  1.00  0.00    -0.274 N 
ATOM     11  O   UNL     1     177.139 162.182 170.158  1.00  0.00    -0.269 OA
ATOM     12  C   UNL     1     175.429 163.538 172.914  1.00  0.00     0.330 A 
ATOM     13  H   UNL     1     176.707 164.293 171.447  1.00  0.00     0.175 HD
ATOM     14  O   UNL     1     175.312 164.658 173.482  1.00  0.00    -0.248 OA
ENDBRANCH   1   6
BRANCH   2  15
ATOM     15  O   UNL     1     172.072 162.381 173.056  1.00  0.00    -0.386 OA
ATOM     16  H   UNL     1     171.120 162.641 172.949  1.00  0.00     0.211 HD
ENDBRANCH   2  15
BRANCH   3  17
ATOM     17  O   UNL     1     171.607 163.202 176.486  1.00  0.00    -0.387 OA
ATOM     18  H   UNL     1     172.303 162.949 177.148  1.00  0.00     0.211 HD
ENDBRANCH   3  17
BRANCH   4  19
ATOM     19  C   UNL     1     171.963 159.767 175.423  1.00  0.00     0.191 C 
BRANCH  19  20
ATOM     20  O   UNL     1     170.856 160.002 174.598  1.00  0.00    -0.394 OA
ATOM     21  H   UNL     1     170.189 159.304 174.827  1.00  0.00     0.210 HD
ENDBRANCH  19  20
ENDBRANCH   4  19
TORSDOF 5
ENDMDL
MODEL 5
REMARK VINA RESULT:    -3.636      9.977     12.387
REMARK INTER + INTRA:          -4.568
REMARK INTER:                  -4.267
REMARK INTRA:                  -0.301
REMARK UNBOUND:                -0.188
REMARK SMILES O=c1ccn([C@@H]2O[C@H](CO)[C@@H](O)[C@@H]2O)c(=O)[nH]1
REMARK SMILES IDX 6 1 13 2 11 3 8 4 7 5 5 6 3 7 4 8 2 9 17 10 1 11 15 12 16 14
REMARK SMILES IDX 14 15 12 17 9 19 10 20
REMARK H PARENT 17 13 14 16 12 18 10 21
REMARK Flexibility Score: inf
ROOT
ATOM      1  C   UNL     1     162.705 162.685 174.647  1.00  0.00     0.255 C 
ATOM      2  C   UNL     1     163.342 164.056 174.462  1.00  0.00     0.196 C 
ATOM      3  C   UNL     1     162.882 164.783 175.705  1.00  0.00     0.179 C 
ATOM      4  C   UNL     1     161.588 164.048 176.087  1.00  0.00     0.178 C 
ATOM      5  O   UNL     1     161.497 162.840 175.357  1.00  0.00    -0.347 OA
ENDROOT
BRANCH   1   6
ATOM      6  N   UNL     1     162.494 161.989 173.358  1.00  0.00    -0.271 N 
ATOM      7  C   UNL     1     161.028 161.512 171.518  1.00  0.00     0.090 A 
ATOM      8  C   UNL     1     161.293 162.156 172.723  1.00  0.00     0.099 A 
ATOM      9  C   UNL     1     162.003 160.684 170.977  1.00  0.00     0.253 A 
ATOM     10  N   UNL     1     163.183 160.514 171.628  1.00  0.00    -0.274 N 
ATOM     11  O   UNL     1     161.791 160.090 169.885  1.00  0.00    -0.269 OA
ATOM     12  C   UNL     1     163.433 161.146 172.809  1.00  0.00     0.330 A 
ATOM     13  H   UNL     1     163.908 159.881 171.218  1.00  0.00     0.175 HD
ATOM     14  O   UNL     1     164.534 160.938 173.390  1.00  0.00    -0.248 OA
ENDBRANCH   1   6
BRANCH   2  15
ATOM     15  O   UNL     1     162.840 164.693 173.315  1.00  0.00    -0.386 OA
ATOM     16  H   UNL     1     162.362 165.504 173.629  1.00  0.00     0.211 HD
ENDBRANCH   2  15
BRANCH   3  17
ATOM     17  O   UNL     1     163.830 164.633 176.731  1.00  0.00    -0.387 OA
ATOM     18  H   UNL     1     164.102 165.549 177.005  1.00  0.00     0.211 HD
ENDBRANCH   3  17
BRANCH   4  19
ATOM     19  C   UNL     1     160.349 164.905 175.803  1.00  0.00     0.191 C 
BRANCH  19  20
ATOM     20  O   UNL     1     160.711 166.025 175.045  1.00  0.00    -0.394 OA
ATOM     21  H   UNL     1     161.673 165.912 174.829  1.00  0.00     0.210 HD
ENDBRANCH  19  20
ENDBRANCH   4  19
TORSDOF 5
ENDMDL
MODEL 6
REMARK VINA RESULT:    -3.627     18.216     19.624
REMARK INTER + INTRA:          -4.557
REMARK INTER:                  -4.229
REMARK INTRA:                  -0.328
REMARK UNBOUND:                -0.188
REMARK SMILES O=c1ccn([C@@H]2O[C@H](CO)[C@@H](O)[C@@H]2O)c(=O)[nH]1
REMARK SMILES IDX 6 1 13 2 11 3 8 4 7 5 5 6 3 7 4 8 2 9 17 10 1 11 15 12 16 14
REMARK SMILES IDX 14 15 12 17 9 19 10 20
REMARK H PARENT 17 13 14 16 12 18 10 21
REMARK Flexibility Score: inf
ROOT
ATOM      1  C   UNL     1     174.517 162.746 162.546  1.00  0.00     0.255 C 
ATOM      2  C   UNL     1     173.867 164.113 162.714  1.00  0.00     0.196 C 
ATOM      3  C   UNL     1     174.366 164.848 161.491  1.00  0.00     0.179 C 
ATOM      4  C   UNL     1     175.676 164.122 161.152  1.00  0.00     0.178 C 
ATOM      5  O   UNL     1     175.748 162.911 161.879  1.00  0.00    -0.347 OA
ENDROOT
BRANCH   1   6
ATOM      6  N   UNL     1     174.687 162.045 163.839  1.00  0.00    -0.271 N 
ATOM      7  C   UNL     1     176.107 161.531 165.705  1.00  0.00     0.090 A 
ATOM      8  C   UNL     1     175.880 162.180 164.494  1.00  0.00     0.099 A 
ATOM      9  C   UNL     1     175.100 160.729 166.228  1.00  0.00     0.253 A 
ATOM     10  N   UNL     1     173.929 160.590 165.556  1.00  0.00    -0.274 N 
ATOM     11  O   UNL     1     175.277 160.130 167.323  1.00  0.00    -0.269 OA
ATOM     12  C   UNL     1     173.716 161.227 164.371  1.00  0.00     0.330 A 
ATOM     13  H   UNL     1     173.179 159.977 165.952  1.00  0.00     0.175 HD
ATOM     14  O   UNL     1     172.621 161.049 163.771  1.00  0.00    -0.248 OA
ENDBRANCH   1   6
BRANCH   2  15
ATOM     15  O   UNL     1     174.325 164.747 163.881  1.00  0.00    -0.386 OA
ATOM     16  H   UNL     1     173.682 164.514 164.601  1.00  0.00     0.211 HD
ENDBRANCH   2  15
BRANCH   3  17
ATOM     17  O   UNL     1     173.455 164.698 160.432  1.00  0.00    -0.387 OA
ATOM     18  H   UNL     1     173.693 163.852 159.969  1.00  0.00     0.211 HD
ENDBRANCH   3  17
BRANCH   4  19
ATOM     19  C   UNL     1     176.901 164.983 161.482  1.00  0.00     0.191 C 
BRANCH  19  20
ATOM     20  O   UNL     1     176.502 166.115 162.204  1.00  0.00    -0.394 OA
ATOM     21  H   UNL     1     175.517 166.175 162.100  1.00  0.00     0.210 HD
ENDBRANCH  19  20
ENDBRANCH   4  19
TORSDOF 5
ENDMDL
MODEL 7
REMARK VINA RESULT:    -3.622     14.722     15.875
REMARK INTER + INTRA:          -4.551
REMARK INTER:                  -4.205
REMARK INTRA:                  -0.346
REMARK UNBOUND:                -0.188
REMARK SMILES O=c1ccn([C@@H]2O[C@H](CO)[C@@H](O)[C@@H]2O)c(=O)[nH]1
REMARK SMILES IDX 6 1 13 2 11 3 8 4 7 5 5 6 3 7 4 8 2 9 17 10 1 11 15 12 16 14
REMARK SMILES IDX 14 15 12 17 9 19 10 20
REMARK H PARENT 17 13 14 16 12 18 10 21
REMARK Flexibility Score: inf
ROOT
ATOM      1  C   UNL     1     174.122 174.616 162.576  1.00  0.00     0.255 C 
ATOM      2  C   UNL     1     172.732 174.056 162.848  1.00  0.00     0.196 C 
ATOM      3  C   UNL     1     171.940 174.609 161.685  1.00  0.00     0.179 C 
ATOM      4  C   UNL     1     172.723 175.871 161.293  1.00  0.00     0.178 C 
ATOM      5  O   UNL     1     173.988 175.860 161.926  1.00  0.00    -0.347 OA
ENDROOT
BRANCH   1   6
ATOM      6  N   UNL     1     174.929 174.732 163.812  1.00  0.00    -0.271 N 
ATOM      7  C   UNL     1     175.734 176.122 165.595  1.00  0.00     0.090 A 
ATOM      8  C   UNL     1     174.977 175.946 164.440  1.00  0.00     0.099 A 
ATOM      9  C   UNL     1     176.451 175.042 166.092  1.00  0.00     0.253 A 
ATOM     10  N   UNL     1     176.408 173.847 165.447  1.00  0.00    -0.274 N 
ATOM     11  O   UNL     1     177.144 175.171 167.137  1.00  0.00    -0.269 OA
ATOM     12  C   UNL     1     175.667 173.684 164.315  1.00  0.00     0.330 A 
ATOM     13  H   UNL     1     176.959 173.041 165.822  1.00  0.00     0.175 HD
ATOM     14  O   UNL     1     175.676 172.563 163.737  1.00  0.00    -0.248 OA
ENDBRANCH   1   6
BRANCH   2  15
ATOM     15  O   UNL     1     172.220 174.546 164.060  1.00  0.00    -0.386 OA
ATOM     16  H   UNL     1     172.695 174.061 164.785  1.00  0.00     0.211 HD
ENDBRANCH   2  15
BRANCH   3  17
ATOM     17  O   UNL     1     171.950 173.697 160.616  1.00  0.00    -0.387 OA
ATOM     18  H   UNL     1     171.710 172.811 160.995  1.00  0.00     0.211 HD
ENDBRANCH   3  17
BRANCH   4  19
ATOM     19  C   UNL     1     171.971 177.147 161.690  1.00  0.00     0.191 C 
BRANCH  19  20
ATOM     20  O   UNL     1     170.799 176.810 162.379  1.00  0.00    -0.394 OA
ATOM     21  H   UNL     1     170.632 177.551 163.018  1.00  0.00     0.210 HD
ENDBRANCH  19  20
ENDBRANCH   4  19
TORSDOF 5
ENDMDL
MODEL 8
REMARK VINA RESULT:    -3.620      8.404      9.771
REMARK INTER + INTRA:          -4.548
REMARK INTER:                  -4.218
REMARK INTRA:                  -0.330
REMARK UNBOUND:                -0.188
REMARK SMILES O=c1ccn([C@@H]2O[C@H](CO)[C@@H](O)[C@@H]2O)c(=O)[nH]1
REMARK SMILES IDX 6 1 13 2 11 3 8 4 7 5 5 6 3 7 4 8 2 9 17 10 1 11 15 12 16 14
REMARK SMILES IDX 14 15 12 17 9 19 10 20
REMARK H PARENT 17 13 14 16 12 18 10 21
REMARK Flexibility Score: inf
ROOT
ATOM      1  C   UNL     1     174.567 173.871 174.779  1.00  0.00     0.255 C 
ATOM      2  C   UNL     1     174.201 172.422 174.490  1.00  0.00     0.196 C 
ATOM      3  C   UNL     1     174.852 171.700 175.648  1.00  0.00     0.179 C 
ATOM      4  C   UNL     1     175.994 172.642 176.055  1.00  0.00     0.178 C 
ATOM      5  O   UNL     1     175.814 173.901 175.435  1.00  0.00    -0.347 OA
ENDROOT
BRANCH   1   6
ATOM      6  N   UNL     1     174.577 174.700 173.552  1.00  0.00    -0.271 N 
ATOM      7  C   UNL     1     175.859 175.754 171.818  1.00  0.00     0.090 A 
ATOM      8  C   UNL     1     175.782 174.965 172.962  1.00  0.00     0.099 A 
ATOM      9  C   UNL     1     174.685 176.279 171.292  1.00  0.00     0.253 A 
ATOM     10  N   UNL     1     173.498 176.023 171.900  1.00  0.00    -0.274 N 
ATOM     11  O   UNL     1     174.724 176.996 170.255  1.00  0.00    -0.269 OA
ATOM     12  C   UNL     1     173.433 175.252 173.022  1.00  0.00     0.330 A 
ATOM     13  H   UNL     1     172.620 176.431 171.504  1.00  0.00     0.175 HD
ATOM     14  O   UNL     1     172.310 175.061 173.565  1.00  0.00    -0.248 OA
ENDBRANCH   1   6
BRANCH   2  15
ATOM     15  O   UNL     1     174.762 171.994 173.275  1.00  0.00    -0.386 OA
ATOM     16  H   UNL     1     175.045 172.814 172.791  1.00  0.00     0.211 HD
ENDBRANCH   2  15
BRANCH   3  17
ATOM     17  O   UNL     1     173.943 171.573 176.711  1.00  0.00    -0.387 OA
ATOM     18  H   UNL     1     173.271 172.297 176.601  1.00  0.00     0.211 HD
ENDBRANCH   3  17
BRANCH   4  19
ATOM     19  C   UNL     1     177.362 172.075 175.658  1.00  0.00     0.191 C 
BRANCH  19  20
ATOM     20  O   UNL     1     177.201 170.806 175.089  1.00  0.00    -0.394 OA
ATOM     21  H   UNL     1     176.627 170.294 175.716  1.00  0.00     0.210 HD
ENDBRANCH  19  20
ENDBRANCH   4  19
TORSDOF 5
ENDMDL
MODEL 9
REMARK VINA RESULT:    -3.610      4.188      5.579
REMARK INTER + INTRA:          -4.537
REMARK INTER:                  -4.197
REMARK INTRA:                  -0.340
REMARK UNBOUND:                -0.188
REMARK SMILES O=c1ccn([C@@H]2O[C@H](CO)[C@@H](O)[C@@H]2O)c(=O)[nH]1
REMARK SMILES IDX 6 1 13 2 11 3 8 4 7 5 5 6 3 7 4 8 2 9 17 10 1 11 15 12 16 14
REMARK SMILES IDX 14 15 12 17 9 19 10 20
REMARK H PARENT 17 13 14 16 12 18 10 21
REMARK Flexibility Score: inf
ROOT
ATOM      1  C   UNL     1     162.796 174.485 174.693  1.00  0.00     0.255 C 
ATOM      2  C   UNL     1     164.173 173.857 174.522  1.00  0.00     0.196 C 
ATOM      3  C   UNL     1     164.898 174.356 175.751  1.00  0.00     0.179 C 
ATOM      4  C   UNL     1     164.152 175.652 176.100  1.00  0.00     0.178 C 
ATOM      5  O   UNL     1     162.941 175.713 175.371  1.00  0.00    -0.347 OA
ENDROOT
BRANCH   1   6
ATOM      6  N   UNL     1     162.095 174.656 173.400  1.00  0.00    -0.271 N 
ATOM      7  C   UNL     1     161.536 176.095 171.562  1.00  0.00     0.090 A 
ATOM      8  C   UNL     1     162.188 175.867 172.771  1.00  0.00     0.099 A 
ATOM      9  C   UNL     1     160.775 175.071 171.013  1.00  0.00     0.253 A 
ATOM     10  N   UNL     1     160.677 173.880 171.660  1.00  0.00    -0.274 N 
ATOM     11  O   UNL     1     160.175 175.248 169.919  1.00  0.00    -0.269 OA
ATOM     12  C   UNL     1     161.317 173.666 172.843  1.00  0.00     0.330 A 
ATOM     13  H   UNL     1     160.095 173.117 171.244  1.00  0.00     0.175 HD
ATOM     14  O   UNL     1     161.178 172.553 173.419  1.00  0.00    -0.248 OA
ENDBRANCH   1   6
BRANCH   2  15
ATOM     15  O   UNL     1     164.802 174.335 173.360  1.00  0.00    -0.386 OA
ATOM     16  H   UNL     1     165.310 173.571 172.979  1.00  0.00     0.211 HD
ENDBRANCH   2  15
BRANCH   3  17
ATOM     17  O   UNL     1     164.760 173.434 176.801  1.00  0.00    -0.387 OA
ATOM     18  H   UNL     1     165.305 173.778 177.557  1.00  0.00     0.211 HD
ENDBRANCH   3  17
BRANCH   4  19
ATOM     19  C   UNL     1     164.995 176.892 175.782  1.00  0.00     0.191 C 
BRANCH  19  20
ATOM     20  O   UNL     1     166.126 176.519 175.045  1.00  0.00    -0.394 OA
ATOM     21  H   UNL     1     166.527 175.749 175.527  1.00  0.00     0.210 HD
ENDBRANCH  19  20
ENDBRANCH   4  19
TORSDOF 5
ENDMDL
