MODEL 1
REMARK VINA RESULT:    -7.166      0.000      0.000
REMARK INTER + INTRA:          -8.935
REMARK INTER:                  -8.632
REMARK INTRA:                  -0.303
REMARK UNBOUND:                -0.303
REMARK SMILES O=c1c(O)c(-c2ccc(O)c(O)c2)oc2cc(O)cc(O)c12
REMARK SMILES IDX 5 1 3 2 2 3 1 4 22 5 20 6 19 7 17 8 16 9 15 10 14 11 6 12
REMARK SMILES IDX 7 13 8 14 9 15 13 16 11 17 10 18 12 20 4 22 21 24 18 26
REMARK H PARENT 10 19 12 21 4 23 21 25 18 27
REMARK Flexibility Score: inf
ROOT
ATOM      1  C   UNL     1       9.722  11.366 -15.954  1.00  0.00     0.180 A 
ATOM      2  C   UNL     1      10.426  10.200 -16.301  1.00  0.00     0.208 A 
ATOM      3  C   UNL     1      10.102   8.994 -15.661  1.00  0.00     0.238 A 
ATOM      4  O   UNL     1      10.773   7.964 -15.936  1.00  0.00    -0.285 OA
ATOM      5  C   UNL     1       9.066   8.963 -14.696  1.00  0.00     0.111 A 
ATOM      6  C   UNL     1       8.627   7.788 -14.016  1.00  0.00     0.134 A 
ATOM      7  C   UNL     1       7.684   7.898 -12.986  1.00  0.00     0.093 A 
ATOM      8  C   UNL     1       7.117   9.132 -12.658  1.00  0.00     0.123 A 
ATOM      9  C   UNL     1       7.495  10.275 -13.357  1.00  0.00     0.094 A 
ATOM     10  C   UNL     1       8.461  10.203 -14.365  1.00  0.00     0.146 A 
ATOM     11  O   UNL     1       8.801  11.318 -14.999  1.00  0.00    -0.452 OA
ENDROOT
BRANCH   1  12
ATOM     12  C   UNL     1       9.989  12.671 -16.602  1.00  0.00     0.025 A 
ATOM     13  C   UNL     1      10.837  13.622 -16.008  1.00  0.00     0.016 A 
ATOM     14  C   UNL     1      11.092  14.838 -16.648  1.00  0.00     0.051 A 
ATOM     15  C   UNL     1      10.518  15.115 -17.896  1.00  0.00     0.157 A 
ATOM     16  C   UNL     1       9.433  12.945 -17.862  1.00  0.00     0.062 A 
ATOM     17  C   UNL     1       9.687  14.161 -18.506  1.00  0.00     0.158 A 
BRANCH  15  18
ATOM     18  O   UNL     1      10.775  16.329 -18.532  1.00  0.00    -0.504 OA
ATOM     19  H   UNL     1      10.026  16.904 -18.898  1.00  0.00     0.293 HD
ENDBRANCH  15  18
BRANCH  17  20
ATOM     20  O   UNL     1       9.105  14.403 -19.750  1.00  0.00    -0.504 OA
ATOM     21  H   UNL     1       8.102  14.378 -19.890  1.00  0.00     0.293 HD
ENDBRANCH  17  20
ENDBRANCH   1  12
BRANCH   2  22
ATOM     22  O   UNL     1      11.460  10.256 -17.240  1.00  0.00    -0.502 OA
ATOM     23  H   UNL     1      11.675  11.098 -17.761  1.00  0.00     0.293 HD
ENDBRANCH   2  22
BRANCH   6  24
ATOM     24  O   UNL     1       9.061   6.496 -14.328  1.00  0.00    -0.507 OA
ATOM     25  H   UNL     1       9.817   6.281 -14.960  1.00  0.00     0.293 HD
ENDBRANCH   6  24
BRANCH   8  26
ATOM     26  O   UNL     1       6.167   9.231 -11.643  1.00  0.00    -0.508 OA
ATOM     27  H   UNL     1       6.247   9.923 -10.908  1.00  0.00     0.293 HD
ENDBRANCH   8  26
TORSDOF 6
ENDMDL
MODEL 2
REMARK VINA RESULT:    -7.083      1.923      7.389
REMARK INTER + INTRA:          -8.836
REMARK INTER:                  -8.502
REMARK INTRA:                  -0.334
REMARK UNBOUND:                -0.303
REMARK SMILES O=c1c(O)c(-c2ccc(O)c(O)c2)oc2cc(O)cc(O)c12
REMARK SMILES IDX 5 1 3 2 2 3 1 4 22 5 20 6 19 7 17 8 16 9 15 10 14 11 6 12
REMARK SMILES IDX 7 13 8 14 9 15 13 16 11 17 10 18 12 20 4 22 21 24 18 26
REMARK H PARENT 10 19 12 21 4 23 21 25 18 27
REMARK Flexibility Score: inf
ROOT
ATOM      1  C   UNL     1       9.947  12.482 -17.205  1.00  0.00     0.180 A 
ATOM      2  C   UNL     1      10.688  13.573 -16.719  1.00  0.00     0.208 A 
ATOM      3  C   UNL     1      10.679  14.777 -17.441  1.00  0.00     0.238 A 
ATOM      4  O   UNL     1      11.388  15.733 -17.029  1.00  0.00    -0.285 OA
ATOM      5  C   UNL     1       9.917  14.883 -18.629  1.00  0.00     0.111 A 
ATOM      6  C   UNL     1       9.804  16.066 -19.418  1.00  0.00     0.134 A 
ATOM      7  C   UNL     1       9.129  16.018 -20.644  1.00  0.00     0.093 A 
ATOM      8  C   UNL     1       8.507  14.844 -21.078  1.00  0.00     0.123 A 
ATOM      9  C   UNL     1       8.561  13.700 -20.287  1.00  0.00     0.094 A 
ATOM     10  C   UNL     1       9.259  13.707 -19.076  1.00  0.00     0.146 A 
ATOM     11  O   UNL     1       9.295  12.591 -18.357  1.00  0.00    -0.452 OA
ENDROOT
BRANCH   1  12
ATOM     12  C   UNL     1       9.886  11.188 -16.489  1.00  0.00     0.025 A 
ATOM     13  C   UNL     1       8.929  10.952 -15.487  1.00  0.00     0.016 A 
ATOM     14  C   UNL     1       8.875   9.715 -14.839  1.00  0.00     0.051 A 
ATOM     15  C   UNL     1       9.766   8.692 -15.192  1.00  0.00     0.157 A 
ATOM     16  C   UNL     1      10.763  10.154 -16.852  1.00  0.00     0.062 A 
ATOM     17  C   UNL     1      10.712   8.913 -16.206  1.00  0.00     0.158 A 
BRANCH  15  18
ATOM     18  O   UNL     1       9.710   7.459 -14.543  1.00  0.00    -0.504 OA
ATOM     19  H   UNL     1       9.202   7.339 -13.675  1.00  0.00     0.293 HD
ENDBRANCH  15  18
BRANCH  17  20
ATOM     20  O   UNL     1      11.608   7.914 -16.586  1.00  0.00    -0.504 OA
ATOM     21  H   UNL     1      12.541   8.126 -16.919  1.00  0.00     0.293 HD
ENDBRANCH  17  20
ENDBRANCH   1  12
BRANCH   2  22
ATOM     22  O   UNL     1      11.451  13.442 -15.556  1.00  0.00    -0.502 OA
ATOM     23  H   UNL     1      12.420  13.144 -15.572  1.00  0.00     0.293 HD
ENDBRANCH   2  22
BRANCH   6  24
ATOM     24  O   UNL     1      10.308  17.312 -19.033  1.00  0.00    -0.507 OA
ATOM     25  H   UNL     1       9.747  18.135 -18.874  1.00  0.00     0.293 HD
ENDBRANCH   6  24
BRANCH   8  26
ATOM     26  O   UNL     1       7.823  14.809 -22.291  1.00  0.00    -0.508 OA
ATOM     27  H   UNL     1       8.210  14.344 -23.103  1.00  0.00     0.293 HD
ENDBRANCH   8  26
TORSDOF 6
ENDMDL
MODEL 3
REMARK VINA RESULT:    -6.616      2.088      7.321
REMARK INTER + INTRA:          -8.273
REMARK INTER:                  -7.951
REMARK INTRA:                  -0.322
REMARK UNBOUND:                -0.303
REMARK SMILES O=c1c(O)c(-c2ccc(O)c(O)c2)oc2cc(O)cc(O)c12
REMARK SMILES IDX 5 1 3 2 2 3 1 4 22 5 20 6 19 7 17 8 16 9 15 10 14 11 6 12
REMARK SMILES IDX 7 13 8 14 9 15 13 16 11 17 10 18 12 20 4 22 21 24 18 26
REMARK H PARENT 10 19 12 21 4 23 21 25 18 27
REMARK Flexibility Score: inf
ROOT
ATOM      1  C   UNL     1       8.908  11.855 -17.907  1.00  0.00     0.180 A 
ATOM      2  C   UNL     1       8.039  11.623 -18.987  1.00  0.00     0.208 A 
ATOM      3  C   UNL     1       7.832  12.644 -19.926  1.00  0.00     0.238 A 
ATOM      4  O   UNL     1       7.011  12.449 -20.861  1.00  0.00    -0.285 OA
ATOM      5  C   UNL     1       8.510  13.880 -19.786  1.00  0.00     0.111 A 
ATOM      6  C   UNL     1       8.406  14.969 -20.701  1.00  0.00     0.134 A 
ATOM      7  C   UNL     1       9.018  16.191 -20.394  1.00  0.00     0.093 A 
ATOM      8  C   UNL     1       9.784  16.340 -19.235  1.00  0.00     0.123 A 
ATOM      9  C   UNL     1       9.941  15.264 -18.365  1.00  0.00     0.094 A 
ATOM     10  C   UNL     1       9.312  14.044 -18.627  1.00  0.00     0.146 A 
ATOM     11  O   UNL     1       9.478  13.047 -17.766  1.00  0.00    -0.452 OA
ENDROOT
BRANCH   1  12
ATOM     12  C   UNL     1       9.196  10.819 -16.889  1.00  0.00     0.025 A 
ATOM     13  C   UNL     1       8.435  10.719 -15.711  1.00  0.00     0.016 A 
ATOM     14  C   UNL     1       8.711   9.719 -14.775  1.00  0.00     0.051 A 
ATOM     15  C   UNL     1       9.740   8.797 -15.007  1.00  0.00     0.157 A 
ATOM     16  C   UNL     1      10.213   9.881 -17.126  1.00  0.00     0.062 A 
ATOM     17  C   UNL     1      10.492   8.877 -16.191  1.00  0.00     0.158 A 
BRANCH  15  18
ATOM     18  O   UNL     1      10.013   7.801 -14.070  1.00  0.00    -0.504 OA
ATOM     19  H   UNL     1      10.859   7.246 -14.117  1.00  0.00     0.293 HD
ENDBRANCH  15  18
BRANCH  17  20
ATOM     20  O   UNL     1      11.518   7.971 -16.455  1.00  0.00    -0.504 OA
ATOM     21  H   UNL     1      11.447   7.275 -17.187  1.00  0.00     0.293 HD
ENDBRANCH  17  20
ENDBRANCH   1  12
BRANCH   2  22
ATOM     22  O   UNL     1       7.363  10.404 -19.094  1.00  0.00    -0.502 OA
ATOM     23  H   UNL     1       6.614  10.141 -18.466  1.00  0.00     0.293 HD
ENDBRANCH   2  22
BRANCH   6  24
ATOM     24  O   UNL     1       7.742  14.897 -21.930  1.00  0.00    -0.507 OA
ATOM     25  H   UNL     1       7.471  14.040 -22.387  1.00  0.00     0.293 HD
ENDBRANCH   6  24
BRANCH   8  26
ATOM     26  O   UNL     1      10.404  17.554 -18.944  1.00  0.00    -0.508 OA
ATOM     27  H   UNL     1      10.600  18.235 -19.667  1.00  0.00     0.293 HD
ENDBRANCH   8  26
TORSDOF 6
ENDMDL
MODEL 4
REMARK VINA RESULT:    -6.560      4.215      6.684
REMARK INTER + INTRA:          -8.206
REMARK INTER:                  -7.871
REMARK INTRA:                  -0.335
REMARK UNBOUND:                -0.303
REMARK SMILES O=c1c(O)c(-c2ccc(O)c(O)c2)oc2cc(O)cc(O)c12
REMARK SMILES IDX 5 1 3 2 2 3 1 4 22 5 20 6 19 7 17 8 16 9 15 10 14 11 6 12
REMARK SMILES IDX 7 13 8 14 9 15 13 16 11 17 10 18 12 20 4 22 21 24 18 26
REMARK H PARENT 10 19 12 21 4 23 21 25 18 27
REMARK Flexibility Score: inf
ROOT
ATOM      1  C   UNL     1       8.652  14.982 -20.588  1.00  0.00     0.180 A 
ATOM      2  C   UNL     1       7.538  14.166 -20.327  1.00  0.00     0.208 A 
ATOM      3  C   UNL     1       7.361  13.651 -19.033  1.00  0.00     0.238 A 
ATOM      4  O   UNL     1       6.391  12.876 -18.819  1.00  0.00    -0.285 OA
ATOM      5  C   UNL     1       8.288  13.972 -18.012  1.00  0.00     0.111 A 
ATOM      6  C   UNL     1       8.183  13.538 -16.657  1.00  0.00     0.134 A 
ATOM      7  C   UNL     1       9.227  13.807 -15.763  1.00  0.00     0.093 A 
ATOM      8  C   UNL     1      10.341  14.550 -16.160  1.00  0.00     0.123 A 
ATOM      9  C   UNL     1      10.424  15.029 -17.465  1.00  0.00     0.094 A 
ATOM     10  C   UNL     1       9.416  14.746 -18.390  1.00  0.00     0.146 A 
ATOM     11  O   UNL     1       9.539  15.211 -19.627  1.00  0.00    -0.452 OA
ENDROOT
BRANCH   1  12
ATOM     12  C   UNL     1       8.895  15.582 -21.920  1.00  0.00     0.025 A 
ATOM     13  C   UNL     1       8.345  16.828 -22.271  1.00  0.00     0.016 A 
ATOM     14  C   UNL     1       8.606  17.386 -23.525  1.00  0.00     0.051 A 
ATOM     15  C   UNL     1       9.431  16.717 -24.440  1.00  0.00     0.157 A 
ATOM     16  C   UNL     1       9.737  14.926 -22.832  1.00  0.00     0.062 A 
ATOM     17  C   UNL     1      10.001  15.482 -24.089  1.00  0.00     0.158 A 
BRANCH  15  18
ATOM     18  O   UNL     1       9.688  17.276 -25.691  1.00  0.00    -0.504 OA
ATOM     19  H   UNL     1      10.328  18.054 -25.803  1.00  0.00     0.293 HD
ENDBRANCH  15  18
BRANCH  17  20
ATOM     20  O   UNL     1      10.831  14.794 -24.973  1.00  0.00    -0.504 OA
ATOM     21  H   UNL     1      11.532  15.267 -25.531  1.00  0.00     0.293 HD
ENDBRANCH  17  20
ENDBRANCH   1  12
BRANCH   2  22
ATOM     22  O   UNL     1       6.647  13.843 -21.354  1.00  0.00    -0.502 OA
ATOM     23  H   UNL     1       5.710  13.502 -21.174  1.00  0.00     0.293 HD
ENDBRANCH   2  22
BRANCH   6  24
ATOM     24  O   UNL     1       7.072  12.870 -16.134  1.00  0.00    -0.507 OA
ATOM     25  H   UNL     1       6.620  12.080 -16.569  1.00  0.00     0.293 HD
ENDBRANCH   6  24
BRANCH   8  26
ATOM     26  O   UNL     1      11.369  14.828 -15.260  1.00  0.00    -0.508 OA
ATOM     27  H   UNL     1      11.913  15.679 -15.325  1.00  0.00     0.293 HD
ENDBRANCH   8  26
TORSDOF 6
ENDMDL
MODEL 5
REMARK VINA RESULT:    -6.404      1.242      2.976
REMARK INTER + INTRA:          -8.017
REMARK INTER:                  -7.690
REMARK INTRA:                  -0.327
REMARK UNBOUND:                -0.303
REMARK SMILES O=c1c(O)c(-c2ccc(O)c(O)c2)oc2cc(O)cc(O)c12
REMARK SMILES IDX 5 1 3 2 2 3 1 4 22 5 20 6 19 7 17 8 16 9 15 10 14 11 6 12
REMARK SMILES IDX 7 13 8 14 9 15 13 16 11 17 10 18 12 20 4 22 21 24 18 26
REMARK H PARENT 10 19 12 21 4 23 21 25 18 27
REMARK Flexibility Score: inf
ROOT
ATOM      1  C   UNL     1       8.758  12.298 -15.464  1.00  0.00     0.180 A 
ATOM      2  C   UNL     1       7.647  12.607 -14.660  1.00  0.00     0.208 A 
ATOM      3  C   UNL     1       7.073  11.595 -13.875  1.00  0.00     0.238 A 
ATOM      4  O   UNL     1       6.045  11.865 -13.199  1.00  0.00    -0.285 OA
ATOM      5  C   UNL     1       7.624  10.291 -13.890  1.00  0.00     0.111 A 
ATOM      6  C   UNL     1       7.148   9.200 -13.104  1.00  0.00     0.134 A 
ATOM      7  C   UNL     1       7.686   7.922 -13.297  1.00  0.00     0.093 A 
ATOM      8  C   UNL     1       8.730   7.710 -14.201  1.00  0.00     0.123 A 
ATOM      9  C   UNL     1       9.243   8.780 -14.929  1.00  0.00     0.094 A 
ATOM     10  C   UNL     1       8.701  10.060 -14.786  1.00  0.00     0.146 A 
ATOM     11  O   UNL     1       9.212  11.051 -15.507  1.00  0.00    -0.452 OA
ENDROOT
BRANCH   1  12
ATOM     12  C   UNL     1       9.434  13.316 -16.300  1.00  0.00     0.025 A 
ATOM     13  C   UNL     1      10.538  14.042 -15.818  1.00  0.00     0.016 A 
ATOM     14  C   UNL     1      11.174  14.982 -16.632  1.00  0.00     0.051 A 
ATOM     15  C   UNL     1      10.730  15.200 -17.943  1.00  0.00     0.157 A 
ATOM     16  C   UNL     1       9.005  13.524 -17.620  1.00  0.00     0.062 A 
ATOM     17  C   UNL     1       9.641  14.464 -18.439  1.00  0.00     0.158 A 
BRANCH  15  18
ATOM     18  O   UNL     1      11.367  16.140 -18.752  1.00  0.00    -0.504 OA
ATOM     19  H   UNL     1      12.376  16.231 -18.766  1.00  0.00     0.293 HD
ENDBRANCH  15  18
BRANCH  17  20
ATOM     20  O   UNL     1       9.178  14.653 -19.741  1.00  0.00    -0.504 OA
ATOM     21  H   UNL     1       8.231  14.418 -20.014  1.00  0.00     0.293 HD
ENDBRANCH  17  20
ENDBRANCH   1  12
BRANCH   2  22
ATOM     22  O   UNL     1       7.104  13.895 -14.677  1.00  0.00    -0.502 OA
ATOM     23  H   UNL     1       6.409  14.182 -15.355  1.00  0.00     0.293 HD
ENDBRANCH   2  22
BRANCH   6  24
ATOM     24  O   UNL     1       6.173   9.321 -12.109  1.00  0.00    -0.507 OA
ATOM     25  H   UNL     1       5.356   8.736 -12.031  1.00  0.00     0.293 HD
ENDBRANCH   6  24
BRANCH   8  26
ATOM     26  O   UNL     1       9.273   6.438 -14.376  1.00  0.00    -0.508 OA
ATOM     27  H   UNL     1       8.976   5.835 -15.133  1.00  0.00     0.293 HD
ENDBRANCH   8  26
TORSDOF 6
ENDMDL
MODEL 6
REMARK VINA RESULT:    -6.377      2.272      4.201
REMARK INTER + INTRA:          -7.985
REMARK INTER:                  -7.674
REMARK INTRA:                  -0.310
REMARK UNBOUND:                -0.303
REMARK SMILES O=c1c(O)c(-c2ccc(O)c(O)c2)oc2cc(O)cc(O)c12
REMARK SMILES IDX 5 1 3 2 2 3 1 4 22 5 20 6 19 7 17 8 16 9 15 10 14 11 6 12
REMARK SMILES IDX 7 13 8 14 9 15 13 16 11 17 10 18 12 20 4 22 21 24 18 26
REMARK H PARENT 10 19 12 21 4 23 21 25 18 27
REMARK Flexibility Score: inf
ROOT
ATOM      1  C   UNL     1       9.000  12.467 -18.186  1.00  0.00     0.180 A 
ATOM      2  C   UNL     1       8.117  12.391 -17.094  1.00  0.00     0.208 A 
ATOM      3  C   UNL     1       8.255  11.334 -16.181  1.00  0.00     0.238 A 
ATOM      4  O   UNL     1       7.427  11.240 -15.236  1.00  0.00    -0.285 OA
ATOM      5  C   UNL     1       9.283  10.376 -16.359  1.00  0.00     0.111 A 
ATOM      6  C   UNL     1       9.539   9.288 -15.473  1.00  0.00     0.134 A 
ATOM      7  C   UNL     1      10.498   8.328 -15.817  1.00  0.00     0.093 A 
ATOM      8  C   UNL     1      11.256   8.453 -16.984  1.00  0.00     0.123 A 
ATOM      9  C   UNL     1      11.054   9.544 -17.826  1.00  0.00     0.094 A 
ATOM     10  C   UNL     1      10.079  10.499 -17.527  1.00  0.00     0.146 A 
ATOM     11  O   UNL     1       9.912  11.518 -18.362  1.00  0.00    -0.452 OA
ENDROOT
BRANCH   1  12
ATOM     12  C   UNL     1       8.934  13.565 -19.177  1.00  0.00     0.025 A 
ATOM     13  C   UNL     1       8.223  13.421 -20.381  1.00  0.00     0.016 A 
ATOM     14  C   UNL     1       8.157  14.479 -21.292  1.00  0.00     0.051 A 
ATOM     15  C   UNL     1       8.785  15.699 -21.008  1.00  0.00     0.157 A 
ATOM     16  C   UNL     1       9.545  14.796 -18.888  1.00  0.00     0.062 A 
ATOM     17  C   UNL     1       9.480  15.857 -19.798  1.00  0.00     0.158 A 
BRANCH  15  18
ATOM     18  O   UNL     1       8.717  16.751 -21.920  1.00  0.00    -0.504 OA
ATOM     19  H   UNL     1       9.511  17.357 -22.090  1.00  0.00     0.293 HD
ENDBRANCH  15  18
BRANCH  17  20
ATOM     20  O   UNL     1      10.111  17.060 -19.482  1.00  0.00    -0.504 OA
ATOM     21  H   UNL     1      10.731  17.150 -18.686  1.00  0.00     0.293 HD
ENDBRANCH  17  20
ENDBRANCH   1  12
BRANCH   2  22
ATOM     22  O   UNL     1       7.095  13.333 -16.949  1.00  0.00    -0.502 OA
ATOM     23  H   UNL     1       6.602  13.470 -16.075  1.00  0.00     0.293 HD
ENDBRANCH   2  22
BRANCH   6  24
ATOM     24  O   UNL     1       8.904   9.120 -14.239  1.00  0.00    -0.507 OA
ATOM     25  H   UNL     1       8.736   8.229 -13.796  1.00  0.00     0.293 HD
ENDBRANCH   6  24
BRANCH   8  26
ATOM     26  O   UNL     1      12.220   7.502 -17.313  1.00  0.00    -0.508 OA
ATOM     27  H   UNL     1      13.204   7.665 -17.141  1.00  0.00     0.293 HD
ENDBRANCH   8  26
TORSDOF 6
ENDMDL
MODEL 7
REMARK VINA RESULT:    -6.360      2.798      7.377
REMARK INTER + INTRA:          -7.964
REMARK INTER:                  -7.856
REMARK INTRA:                  -0.108
REMARK UNBOUND:                -0.303
REMARK SMILES O=c1c(O)c(-c2ccc(O)c(O)c2)oc2cc(O)cc(O)c12
REMARK SMILES IDX 5 1 3 2 2 3 1 4 22 5 20 6 19 7 17 8 16 9 15 10 14 11 6 12
REMARK SMILES IDX 7 13 8 14 9 15 13 16 11 17 10 18 12 20 4 22 21 24 18 26
REMARK H PARENT 10 19 12 21 4 23 21 25 18 27
REMARK Flexibility Score: inf
ROOT
ATOM      1  C   UNL     1       7.445   8.248 -15.016  1.00  0.00     0.180 A 
ATOM      2  C   UNL     1       7.184   8.571 -13.674  1.00  0.00     0.208 A 
ATOM      3  C   UNL     1       7.545   9.840 -13.196  1.00  0.00     0.238 A 
ATOM      4  O   UNL     1       7.358  10.104 -11.979  1.00  0.00    -0.285 OA
ATOM      5  C   UNL     1       8.147  10.778 -14.070  1.00  0.00     0.111 A 
ATOM      6  C   UNL     1       8.517  12.106 -13.703  1.00  0.00     0.134 A 
ATOM      7  C   UNL     1       9.225  12.903 -14.612  1.00  0.00     0.093 A 
ATOM      8  C   UNL     1       9.518  12.440 -15.897  1.00  0.00     0.123 A 
ATOM      9  C   UNL     1       9.109  11.167 -16.285  1.00  0.00     0.094 A 
ATOM     10  C   UNL     1       8.433  10.336 -15.388  1.00  0.00     0.146 A 
ATOM     11  O   UNL     1       8.070   9.125 -15.794  1.00  0.00    -0.452 OA
ENDROOT
BRANCH   1  12
ATOM     12  C   UNL     1       7.071   6.940 -15.600  1.00  0.00     0.025 A 
ATOM     13  C   UNL     1       6.196   6.852 -16.698  1.00  0.00     0.016 A 
ATOM     14  C   UNL     1       5.875   5.608 -17.247  1.00  0.00     0.051 A 
ATOM     15  C   UNL     1       6.433   4.436 -16.719  1.00  0.00     0.157 A 
ATOM     16  C   UNL     1       7.643   5.765 -15.088  1.00  0.00     0.062 A 
ATOM     17  C   UNL     1       7.324   4.517 -15.636  1.00  0.00     0.158 A 
BRANCH  15  18
ATOM     18  O   UNL     1       6.110   3.196 -17.269  1.00  0.00    -0.504 OA
ATOM     19  H   UNL     1       5.152   2.944 -17.480  1.00  0.00     0.293 HD
ENDBRANCH  15  18
BRANCH  17  20
ATOM     20  O   UNL     1       7.902   3.370 -15.092  1.00  0.00    -0.504 OA
ATOM     21  H   UNL     1       7.910   3.193 -14.094  1.00  0.00     0.293 HD
ENDBRANCH  17  20
ENDBRANCH   1  12
BRANCH   2  22
ATOM     22  O   UNL     1       6.609   7.623 -12.822  1.00  0.00    -0.502 OA
ATOM     23  H   UNL     1       6.418   6.673 -13.117  1.00  0.00     0.293 HD
ENDBRANCH   2  22
BRANCH   6  24
ATOM     24  O   UNL     1       8.192  12.697 -12.478  1.00  0.00    -0.507 OA
ATOM     25  H   UNL     1       7.632  13.530 -12.373  1.00  0.00     0.293 HD
ENDBRANCH   6  24
BRANCH   8  26
ATOM     26  O   UNL     1      10.208  13.245 -16.802  1.00  0.00    -0.508 OA
ATOM     27  H   UNL     1      10.177  14.255 -16.743  1.00  0.00     0.293 HD
ENDBRANCH   8  26
TORSDOF 6
ENDMDL
MODEL 8
REMARK VINA RESULT:    -6.351      1.903      2.799
REMARK INTER + INTRA:          -7.953
REMARK INTER:                  -7.707
REMARK INTRA:                  -0.247
REMARK UNBOUND:                -0.303
REMARK SMILES O=c1c(O)c(-c2ccc(O)c(O)c2)oc2cc(O)cc(O)c12
REMARK SMILES IDX 5 1 3 2 2 3 1 4 22 5 20 6 19 7 17 8 16 9 15 10 14 11 6 12
REMARK SMILES IDX 7 13 8 14 9 15 13 16 11 17 10 18 12 20 4 22 21 24 18 26
REMARK H PARENT 10 19 12 21 4 23 21 25 18 27
REMARK Flexibility Score: inf
ROOT
ATOM      1  C   UNL     1       8.959  12.371 -18.049  1.00  0.00     0.180 A 
ATOM      2  C   UNL     1       9.491  11.144 -18.480  1.00  0.00     0.208 A 
ATOM      3  C   UNL     1       9.533  10.067 -17.581  1.00  0.00     0.238 A 
ATOM      4  O   UNL     1      10.061   8.987 -17.957  1.00  0.00    -0.285 OA
ATOM      5  C   UNL     1       9.026  10.223 -16.268  1.00  0.00     0.111 A 
ATOM      6  C   UNL     1       8.981   9.187 -15.289  1.00  0.00     0.134 A 
ATOM      7  C   UNL     1       8.580   9.489 -13.982  1.00  0.00     0.093 A 
ATOM      8  C   UNL     1       8.160  10.776 -13.637  1.00  0.00     0.123 A 
ATOM      9  C   UNL     1       8.143  11.780 -14.602  1.00  0.00     0.094 A 
ATOM     10  C   UNL     1       8.573  11.518 -15.906  1.00  0.00     0.146 A 
ATOM     11  O   UNL     1       8.552  12.506 -16.792  1.00  0.00    -0.452 OA
ENDROOT
BRANCH   1  12
ATOM     12  C   UNL     1       8.857  13.546 -18.945  1.00  0.00     0.025 A 
ATOM     13  C   UNL     1       7.936  13.578 -20.006  1.00  0.00     0.016 A 
ATOM     14  C   UNL     1       7.843  14.707 -20.825  1.00  0.00     0.051 A 
ATOM     15  C   UNL     1       8.656  15.823 -20.588  1.00  0.00     0.157 A 
ATOM     16  C   UNL     1       9.655  14.674 -18.698  1.00  0.00     0.062 A 
ATOM     17  C   UNL     1       9.564  15.807 -19.516  1.00  0.00     0.158 A 
BRANCH  15  18
ATOM     18  O   UNL     1       8.560  16.947 -21.407  1.00  0.00    -0.504 OA
ATOM     19  H   UNL     1       8.062  17.778 -21.112  1.00  0.00     0.293 HD
ENDBRANCH  15  18
BRANCH  17  20
ATOM     20  O   UNL     1      10.383  16.904 -19.249  1.00  0.00    -0.504 OA
ATOM     21  H   UNL     1      11.335  16.797 -18.920  1.00  0.00     0.293 HD
ENDBRANCH  17  20
ENDBRANCH   1  12
BRANCH   2  22
ATOM     22  O   UNL     1      10.006  11.018 -19.774  1.00  0.00    -0.502 OA
ATOM     23  H   UNL     1      10.197  10.117 -20.197  1.00  0.00     0.293 HD
ENDBRANCH   2  22
BRANCH   6  24
ATOM     24  O   UNL     1       9.291   7.849 -15.552  1.00  0.00    -0.507 OA
ATOM     25  H   UNL     1      10.000   7.540 -16.200  1.00  0.00     0.293 HD
ENDBRANCH   6  24
BRANCH   8  26
ATOM     26  O   UNL     1       7.746  11.066 -12.338  1.00  0.00    -0.508 OA
ATOM     27  H   UNL     1       8.213  11.768 -11.778  1.00  0.00     0.293 HD
ENDBRANCH   8  26
TORSDOF 6
ENDMDL
MODEL 9
REMARK VINA RESULT:    -6.027      2.898      7.379
REMARK INTER + INTRA:          -7.564
REMARK INTER:                  -7.369
REMARK INTRA:                  -0.195
REMARK UNBOUND:                -0.303
REMARK SMILES O=c1c(O)c(-c2ccc(O)c(O)c2)oc2cc(O)cc(O)c12
REMARK SMILES IDX 5 1 3 2 2 3 1 4 22 5 20 6 19 7 17 8 16 9 15 10 14 11 6 12
REMARK SMILES IDX 7 13 8 14 9 15 13 16 11 17 10 18 12 20 4 22 21 24 18 26
REMARK H PARENT 10 19 12 21 4 23 21 25 18 27
REMARK Flexibility Score: inf
ROOT
ATOM      1  C   UNL     1       9.184  12.735 -18.545  1.00  0.00     0.180 A 
ATOM      2  C   UNL     1       9.179  12.824 -19.947  1.00  0.00     0.208 A 
ATOM      3  C   UNL     1       8.923  14.065 -20.550  1.00  0.00     0.238 A 
ATOM      4  O   UNL     1       8.867  14.126 -21.807  1.00  0.00    -0.285 OA
ATOM      5  C   UNL     1       8.692  15.207 -19.745  1.00  0.00     0.111 A 
ATOM      6  C   UNL     1       8.463  16.521 -20.249  1.00  0.00     0.134 A 
ATOM      7  C   UNL     1       8.116  17.550 -19.365  1.00  0.00     0.093 A 
ATOM      8  C   UNL     1       8.055  17.324 -17.987  1.00  0.00     0.123 A 
ATOM      9  C   UNL     1       8.335  16.058 -17.480  1.00  0.00     0.094 A 
ATOM     10  C   UNL     1       8.649  15.003 -18.341  1.00  0.00     0.146 A 
ATOM     11  O   UNL     1       8.899  13.809 -17.817  1.00  0.00    -0.452 OA
ENDROOT
BRANCH   1  12
ATOM     12  C   UNL     1       9.470  11.468 -17.835  1.00  0.00     0.025 A 
ATOM     13  C   UNL     1      10.635  11.308 -17.064  1.00  0.00     0.016 A 
ATOM     14  C   UNL     1      10.873  10.110 -16.385  1.00  0.00     0.051 A 
ATOM     15  C   UNL     1       9.947   9.061 -16.452  1.00  0.00     0.157 A 
ATOM     16  C   UNL     1       8.535  10.421 -17.884  1.00  0.00     0.062 A 
ATOM     17  C   UNL     1       8.770   9.220 -17.204  1.00  0.00     0.158 A 
BRANCH  15  18
ATOM     18  O   UNL     1      10.188   7.868 -15.774  1.00  0.00    -0.504 OA
ATOM     19  H   UNL     1       9.993   6.968 -16.197  1.00  0.00     0.293 HD
ENDBRANCH  15  18
BRANCH  17  20
ATOM     20  O   UNL     1       7.825   8.198 -17.287  1.00  0.00    -0.504 OA
ATOM     21  H   UNL     1       7.884   7.363 -16.717  1.00  0.00     0.293 HD
ENDBRANCH  17  20
ENDBRANCH   1  12
BRANCH   2  22
ATOM     22  O   UNL     1       9.388  11.680 -20.724  1.00  0.00    -0.502 OA
ATOM     23  H   UNL     1       8.720  10.919 -20.760  1.00  0.00     0.293 HD
ENDBRANCH   2  22
BRANCH   6  24
ATOM     24  O   UNL     1       8.589  16.874 -21.596  1.00  0.00    -0.507 OA
ATOM     25  H   UNL     1       8.152  17.677 -22.023  1.00  0.00     0.293 HD
ENDBRANCH   6  24
BRANCH   8  26
ATOM     26  O   UNL     1       7.724  18.357 -17.111  1.00  0.00    -0.508 OA
ATOM     27  H   UNL     1       6.767  18.526 -16.830  1.00  0.00     0.293 HD
ENDBRANCH   8  26
TORSDOF 6
ENDMDL
