MODEL 1
REMARK VINA RESULT:    -3.730      0.000      0.000
REMARK INTER + INTRA:          -7.117
REMARK INTER:                  -6.020
REMARK INTRA:                  -1.096
REMARK UNBOUND:                -1.096
REMARK SMILES CCCCCCCCCCCCO
REMARK SMILES IDX 7 1 6 2 5 3 4 4 3 5 2 6 1 7 8 8 9 9 10 10 11 11 12 12 13 13
REMARK H PARENT 13 14
REMARK Flexibility Score: inf
ROOT
ATOM      1  C   UNL     1     169.068 169.355 162.911  1.00  0.00     0.000 C 
ENDROOT
BRANCH   1   2
ATOM      2  C   UNL     1     170.269 169.214 163.863  1.00  0.00    -0.000 C 
BRANCH   2   3
ATOM      3  C   UNL     1     170.567 170.459 164.724  1.00  0.00    -0.000 C 
BRANCH   3   4
ATOM      4  C   UNL     1     171.898 171.171 164.408  1.00  0.00    -0.000 C 
BRANCH   4   5
ATOM      5  C   UNL     1     172.085 171.574 162.934  1.00  0.00    -0.000 C 
BRANCH   5   6
ATOM      6  C   UNL     1     172.956 172.827 162.765  1.00  0.00    -0.003 C 
ATOM      7  C   UNL     1     174.274 172.490 162.076  1.00  0.00     0.004 C 
ENDBRANCH   5   6
ENDBRANCH   4   5
ENDBRANCH   3   4
ENDBRANCH   2   3
ENDBRANCH   1   2
BRANCH   1   8
ATOM      8  C   UNL     1     168.014 170.348 163.423  1.00  0.00     0.000 C 
BRANCH   8   9
ATOM      9  C   UNL     1     167.454 171.196 162.274  1.00  0.00     0.000 C 
BRANCH   9  10
ATOM     10  C   UNL     1     168.344 172.419 162.009  1.00  0.00     0.002 C 
BRANCH  10  11
ATOM     11  C   UNL     1     168.087 173.565 163.000  1.00  0.00     0.028 C 
BRANCH  11  12
ATOM     12  C   UNL     1     169.375 174.092 163.644  1.00  0.00     0.156 C 
BRANCH  12  13
ATOM     13  O   UNL     1     169.428 173.716 164.993  1.00  0.00    -0.396 OA
ATOM     14  H   UNL     1     170.198 173.095 165.087  1.00  0.00     0.210 HD
ENDBRANCH  12  13
ENDBRANCH  11  12
ENDBRANCH  10  11
ENDBRANCH   9  10
ENDBRANCH   8   9
ENDBRANCH   1   8
TORSDOF 11
ENDMDL
MODEL 2
REMARK VINA RESULT:    -3.676      1.032      3.869
REMARK INTER + INTRA:          -7.030
REMARK INTER:                  -5.679
REMARK INTRA:                  -1.351
REMARK UNBOUND:                -1.096
REMARK SMILES CCCCCCCCCCCCO
REMARK SMILES IDX 7 1 6 2 5 3 4 4 3 5 2 6 1 7 8 8 9 9 10 10 11 11 12 12 13 13
REMARK H PARENT 13 14
REMARK Flexibility Score: inf
ROOT
ATOM      1  C   UNL     1     172.081 170.975 164.254  1.00  0.00     0.000 C 
ENDROOT
BRANCH   1   2
ATOM      2  C   UNL     1     170.636 170.578 164.609  1.00  0.00    -0.000 C 
BRANCH   2   3
ATOM      3  C   UNL     1     170.147 169.264 163.967  1.00  0.00    -0.000 C 
BRANCH   3   4
ATOM      4  C   UNL     1     169.024 169.423 162.921  1.00  0.00    -0.000 C 
BRANCH   4   5
ATOM      5  C   UNL     1     168.049 170.584 163.188  1.00  0.00    -0.000 C 
BRANCH   5   6
ATOM      6  C   UNL     1     167.331 171.062 161.919  1.00  0.00    -0.003 C 
ATOM      7  C   UNL     1     166.453 172.276 162.208  1.00  0.00     0.004 C 
ENDBRANCH   5   6
ENDBRANCH   4   5
ENDBRANCH   3   4
ENDBRANCH   2   3
ENDBRANCH   1   2
BRANCH   1   8
ATOM      8  C   UNL     1     172.159 172.281 163.450  1.00  0.00     0.000 C 
BRANCH   8   9
ATOM      9  C   UNL     1     171.551 172.103 162.053  1.00  0.00     0.000 C 
BRANCH   9  10
ATOM     10  C   UNL     1     170.383 173.076 161.834  1.00  0.00     0.002 C 
BRANCH  10  11
ATOM     11  C   UNL     1     170.339 174.195 162.885  1.00  0.00     0.028 C 
BRANCH  11  12
ATOM     12  C   UNL     1     169.052 174.174 163.720  1.00  0.00     0.156 C 
BRANCH  12  13
ATOM     13  O   UNL     1     169.331 173.746 165.025  1.00  0.00    -0.396 OA
ATOM     14  H   UNL     1     169.998 174.381 165.397  1.00  0.00     0.210 HD
ENDBRANCH  12  13
ENDBRANCH  11  12
ENDBRANCH  10  11
ENDBRANCH   9  10
ENDBRANCH   8   9
ENDBRANCH   1   8
TORSDOF 11
ENDMDL
MODEL 3
REMARK VINA RESULT:    -3.593      1.832      4.381
REMARK INTER + INTRA:          -6.895
REMARK INTER:                  -5.623
REMARK INTRA:                  -1.272
REMARK UNBOUND:                -1.096
REMARK SMILES CCCCCCCCCCCCO
REMARK SMILES IDX 7 1 6 2 5 3 4 4 3 5 2 6 1 7 8 8 9 9 10 10 11 11 12 12 13 13
REMARK H PARENT 13 14
REMARK Flexibility Score: inf
ROOT
ATOM      1  C   UNL     1     170.450 169.255 163.833  1.00  0.00     0.000 C 
ENDROOT
BRANCH   1   2
ATOM      2  C   UNL     1     169.080 169.155 163.138  1.00  0.00    -0.000 C 
BRANCH   2   3
ATOM      3  C   UNL     1     168.085 170.277 163.497  1.00  0.00    -0.000 C 
BRANCH   3   4
ATOM      4  C   UNL     1     167.699 171.210 162.330  1.00  0.00    -0.000 C 
BRANCH   4   5
ATOM      5  C   UNL     1     167.509 172.688 162.717  1.00  0.00    -0.000 C 
BRANCH   5   6
ATOM      6  C   UNL     1     168.840 173.433 162.891  1.00  0.00    -0.003 C 
ATOM      7  C   UNL     1     169.084 173.788 164.355  1.00  0.00     0.004 C 
ENDBRANCH   5   6
ENDBRANCH   4   5
ENDBRANCH   3   4
ENDBRANCH   2   3
ENDBRANCH   1   2
BRANCH   1   8
ATOM      8  C   UNL     1     170.557 170.468 164.769  1.00  0.00     0.000 C 
BRANCH   8   9
ATOM      9  C   UNL     1     171.888 171.202 164.568  1.00  0.00     0.000 C 
BRANCH   9  10
ATOM     10  C   UNL     1     172.127 171.510 163.082  1.00  0.00     0.002 C 
BRANCH  10  11
ATOM     11  C   UNL     1     172.894 172.823 162.864  1.00  0.00     0.028 C 
BRANCH  11  12
ATOM     12  C   UNL     1     174.185 172.629 162.059  1.00  0.00     0.156 C 
BRANCH  12  13
ATOM     13  O   UNL     1     174.712 171.351 162.294  1.00  0.00    -0.396 OA
ATOM     14  H   UNL     1     174.939 171.310 163.260  1.00  0.00     0.210 HD
ENDBRANCH  12  13
ENDBRANCH  11  12
ENDBRANCH  10  11
ENDBRANCH   9  10
ENDBRANCH   8   9
ENDBRANCH   1   8
TORSDOF 11
ENDMDL
MODEL 4
REMARK VINA RESULT:    -3.530      1.664      3.627
REMARK INTER + INTRA:          -6.794
REMARK INTER:                  -5.392
REMARK INTRA:                  -1.402
REMARK UNBOUND:                -1.096
REMARK SMILES CCCCCCCCCCCCO
REMARK SMILES IDX 7 1 6 2 5 3 4 4 3 5 2 6 1 7 8 8 9 9 10 10 11 11 12 12 13 13
REMARK H PARENT 13 14
REMARK Flexibility Score: inf
ROOT
ATOM      1  C   UNL     1     172.162 173.097 163.037  1.00  0.00     0.000 C 
ENDROOT
BRANCH   1   2
ATOM      2  C   UNL     1     172.368 171.589 163.268  1.00  0.00    -0.000 C 
BRANCH   2   3
ATOM      3  C   UNL     1     171.922 171.076 164.652  1.00  0.00    -0.000 C 
BRANCH   3   4
ATOM      4  C   UNL     1     170.501 170.479 164.705  1.00  0.00    -0.000 C 
BRANCH   4   5
ATOM      5  C   UNL     1     170.229 169.359 163.683  1.00  0.00    -0.000 C 
BRANCH   5   6
ATOM      6  C   UNL     1     169.072 169.691 162.731  1.00  0.00    -0.003 C 
ATOM      7  C   UNL     1     169.585 169.982 161.324  1.00  0.00     0.004 C 
ENDBRANCH   5   6
ENDBRANCH   4   5
ENDBRANCH   3   4
ENDBRANCH   2   3
ENDBRANCH   1   2
BRANCH   1   8
ATOM      8  C   UNL     1     170.871 173.412 162.266  1.00  0.00     0.000 C 
BRANCH   8   9
ATOM      9  C   UNL     1     170.029 174.458 163.008  1.00  0.00     0.000 C 
BRANCH   9  10
ATOM     10  C   UNL     1     169.085 173.789 164.017  1.00  0.00     0.002 C 
BRANCH  10  11
ATOM     11  C   UNL     1     167.906 173.073 163.341  1.00  0.00     0.028 C 
BRANCH  11  12
ATOM     12  C   UNL     1     166.865 174.048 162.775  1.00  0.00     0.156 C 
BRANCH  12  13
ATOM     13  O   UNL     1     165.574 173.535 162.960  1.00  0.00    -0.396 OA
ATOM     14  H   UNL     1     165.194 173.996 163.753  1.00  0.00     0.210 HD
ENDBRANCH  12  13
ENDBRANCH  11  12
ENDBRANCH  10  11
ENDBRANCH   9  10
ENDBRANCH   8   9
ENDBRANCH   1   8
TORSDOF 11
ENDMDL
MODEL 5
REMARK VINA RESULT:    -3.529      2.012      4.628
REMARK INTER + INTRA:          -6.791
REMARK INTER:                  -5.217
REMARK INTRA:                  -1.574
REMARK UNBOUND:                -1.096
REMARK SMILES CCCCCCCCCCCCO
REMARK SMILES IDX 7 1 6 2 5 3 4 4 3 5 2 6 1 7 8 8 9 9 10 10 11 11 12 12 13 13
REMARK H PARENT 13 14
REMARK Flexibility Score: inf
ROOT
ATOM      1  C   UNL     1     171.895 172.327 161.308  1.00  0.00     0.000 C 
ENDROOT
BRANCH   1   2
ATOM      2  C   UNL     1     170.982 171.165 160.878  1.00  0.00    -0.000 C 
BRANCH   2   3
ATOM      3  C   UNL     1     169.483 171.513 160.790  1.00  0.00    -0.000 C 
BRANCH   3   4
ATOM      4  C   UNL     1     169.099 172.904 161.334  1.00  0.00    -0.000 C 
BRANCH   4   5
ATOM      5  C   UNL     1     168.471 172.900 162.740  1.00  0.00    -0.000 C 
BRANCH   5   6
ATOM      6  C   UNL     1     168.899 174.107 163.586  1.00  0.00    -0.003 C 
ATOM      7  C   UNL     1     169.795 175.048 162.786  1.00  0.00     0.004 C 
ENDBRANCH   5   6
ENDBRANCH   4   5
ENDBRANCH   3   4
ENDBRANCH   2   3
ENDBRANCH   1   2
BRANCH   1   8
ATOM      8  C   UNL     1     172.770 171.981 162.521  1.00  0.00     0.000 C 
BRANCH   8   9
ATOM      9  C   UNL     1     172.005 172.204 163.832  1.00  0.00     0.000 C 
BRANCH   9  10
ATOM     10  C   UNL     1     171.782 170.876 164.571  1.00  0.00     0.002 C 
BRANCH  10  11
ATOM     11  C   UNL     1     170.308 170.441 164.575  1.00  0.00     0.028 C 
BRANCH  11  12
ATOM     12  C   UNL     1     170.068 169.154 163.776  1.00  0.00     0.156 C 
BRANCH  12  13
ATOM     13  O   UNL     1     170.816 168.102 164.322  1.00  0.00    -0.396 OA
ATOM     14  H   UNL     1     171.678 168.491 164.624  1.00  0.00     0.210 HD
ENDBRANCH  12  13
ENDBRANCH  11  12
ENDBRANCH  10  11
ENDBRANCH   9  10
ENDBRANCH   8   9
ENDBRANCH   1   8
TORSDOF 11
ENDMDL
MODEL 6
REMARK VINA RESULT:    -3.520      2.013      5.093
REMARK INTER + INTRA:          -6.777
REMARK INTER:                  -5.598
REMARK INTRA:                  -1.179
REMARK UNBOUND:                -1.096
REMARK SMILES CCCCCCCCCCCCO
REMARK SMILES IDX 7 1 6 2 5 3 4 4 3 5 2 6 1 7 8 8 9 9 10 10 11 11 12 12 13 13
REMARK H PARENT 13 14
REMARK Flexibility Score: inf
ROOT
ATOM      1  C   UNL     1     170.579 173.004 161.988  1.00  0.00     0.000 C 
ENDROOT
BRANCH   1   2
ATOM      2  C   UNL     1     170.375 174.053 163.097  1.00  0.00    -0.000 C 
BRANCH   2   3
ATOM      3  C   UNL     1     168.990 174.024 163.773  1.00  0.00    -0.000 C 
BRANCH   3   4
ATOM      4  C   UNL     1     167.790 174.197 162.819  1.00  0.00    -0.000 C 
BRANCH   4   5
ATOM      5  C   UNL     1     166.676 173.146 162.981  1.00  0.00    -0.000 C 
BRANCH   5   6
ATOM      6  C   UNL     1     167.210 171.707 162.978  1.00  0.00    -0.003 C 
ATOM      7  C   UNL     1     167.389 171.191 161.553  1.00  0.00     0.004 C 
ENDBRANCH   5   6
ENDBRANCH   4   5
ENDBRANCH   3   4
ENDBRANCH   2   3
ENDBRANCH   1   2
BRANCH   1   8
ATOM      8  C   UNL     1     171.678 171.985 162.325  1.00  0.00     0.000 C 
BRANCH   8   9
ATOM      9  C   UNL     1     172.038 172.039 163.815  1.00  0.00     0.000 C 
BRANCH   9  10
ATOM     10  C   UNL     1     171.660 170.728 164.520  1.00  0.00     0.002 C 
BRANCH  10  11
ATOM     11  C   UNL     1     170.149 170.449 164.483  1.00  0.00     0.028 C 
BRANCH  11  12
ATOM     12  C   UNL     1     169.815 169.064 163.914  1.00  0.00     0.156 C 
BRANCH  12  13
ATOM     13  O   UNL     1     170.816 168.147 164.264  1.00  0.00    -0.396 OA
ATOM     14  H   UNL     1     171.058 168.335 165.209  1.00  0.00     0.210 HD
ENDBRANCH  12  13
ENDBRANCH  11  12
ENDBRANCH  10  11
ENDBRANCH   9  10
ENDBRANCH   8   9
ENDBRANCH   1   8
TORSDOF 11
ENDMDL
MODEL 7
REMARK VINA RESULT:    -3.510      1.445      4.210
REMARK INTER + INTRA:          -6.761
REMARK INTER:                  -5.416
REMARK INTRA:                  -1.345
REMARK UNBOUND:                -1.096
REMARK SMILES CCCCCCCCCCCCO
REMARK SMILES IDX 7 1 6 2 5 3 4 4 3 5 2 6 1 7 8 8 9 9 10 10 11 11 12 12 13 13
REMARK H PARENT 13 14
REMARK Flexibility Score: inf
ROOT
ATOM      1  C   UNL     1     168.504 170.449 161.951  1.00  0.00     0.000 C 
ENDROOT
BRANCH   1   2
ATOM      2  C   UNL     1     167.595 171.342 161.088  1.00  0.00    -0.000 C 
BRANCH   2   3
ATOM      3  C   UNL     1     166.492 172.090 161.863  1.00  0.00    -0.000 C 
BRANCH   3   4
ATOM      4  C   UNL     1     166.728 173.603 162.046  1.00  0.00    -0.000 C 
BRANCH   4   5
ATOM      5  C   UNL     1     167.120 174.031 163.472  1.00  0.00    -0.000 C 
BRANCH   5   6
ATOM      6  C   UNL     1     168.636 174.195 163.648  1.00  0.00    -0.003 C 
ATOM      7  C   UNL     1     169.314 174.500 162.316  1.00  0.00     0.004 C 
ENDBRANCH   5   6
ENDBRANCH   4   5
ENDBRANCH   3   4
ENDBRANCH   2   3
ENDBRANCH   1   2
BRANCH   1   8
ATOM      8  C   UNL     1     168.029 170.345 163.408  1.00  0.00     0.000 C 
BRANCH   8   9
ATOM      9  C   UNL     1     169.134 170.778 164.379  1.00  0.00     0.000 C 
BRANCH   9  10
ATOM     10  C   UNL     1     170.475 170.122 164.015  1.00  0.00     0.002 C 
BRANCH  10  11
ATOM     11  C   UNL     1     171.683 170.923 164.524  1.00  0.00     0.028 C 
BRANCH  11  12
ATOM     12  C   UNL     1     172.047 172.095 163.604  1.00  0.00     0.156 C 
BRANCH  12  13
ATOM     13  O   UNL     1     172.002 173.300 164.320  1.00  0.00    -0.396 OA
ATOM     14  H   UNL     1     171.527 173.956 163.744  1.00  0.00     0.210 HD
ENDBRANCH  12  13
ENDBRANCH  11  12
ENDBRANCH  10  11
ENDBRANCH   9  10
ENDBRANCH   8   9
ENDBRANCH   1   8
TORSDOF 11
ENDMDL
MODEL 8
REMARK VINA RESULT:    -3.450      1.828      2.271
REMARK INTER + INTRA:          -6.664
REMARK INTER:                  -5.112
REMARK INTRA:                  -1.552
REMARK UNBOUND:                -1.096
REMARK SMILES CCCCCCCCCCCCO
REMARK SMILES IDX 7 1 6 2 5 3 4 4 3 5 2 6 1 7 8 8 9 9 10 10 11 11 12 12 13 13
REMARK H PARENT 13 14
REMARK Flexibility Score: inf
ROOT
ATOM      1  C   UNL     1     170.102 169.507 163.436  1.00  0.00     0.000 C 
ENDROOT
BRANCH   1   2
ATOM      2  C   UNL     1     170.480 170.432 164.607  1.00  0.00    -0.000 C 
BRANCH   2   3
ATOM      3  C   UNL     1     171.898 171.032 164.530  1.00  0.00    -0.000 C 
BRANCH   3   4
ATOM      4  C   UNL     1     172.128 172.026 163.374  1.00  0.00    -0.000 C 
BRANCH   4   5
ATOM      5  C   UNL     1     171.092 173.162 163.279  1.00  0.00    -0.000 C 
BRANCH   5   6
ATOM      6  C   UNL     1     170.756 173.540 161.830  1.00  0.00    -0.003 C 
ATOM      7  C   UNL     1     170.828 172.323 160.913  1.00  0.00     0.004 C 
ENDBRANCH   5   6
ENDBRANCH   4   5
ENDBRANCH   3   4
ENDBRANCH   2   3
ENDBRANCH   1   2
BRANCH   1   8
ATOM      8  C   UNL     1     168.782 169.908 162.761  1.00  0.00     0.000 C 
BRANCH   8   9
ATOM      9  C   UNL     1     168.037 170.961 163.593  1.00  0.00     0.000 C 
BRANCH   9  10
ATOM     10  C   UNL     1     167.342 171.987 162.686  1.00  0.00     0.002 C 
BRANCH  10  11
ATOM     11  C   UNL     1     167.313 173.396 163.299  1.00  0.00     0.028 C 
BRANCH  11  12
ATOM     12  C   UNL     1     166.705 174.441 162.354  1.00  0.00     0.156 C 
BRANCH  12  13
ATOM     13  O   UNL     1     165.439 174.828 162.815  1.00  0.00    -0.396 OA
ATOM     14  H   UNL     1     165.067 175.450 162.136  1.00  0.00     0.210 HD
ENDBRANCH  12  13
ENDBRANCH  11  12
ENDBRANCH  10  11
ENDBRANCH   9  10
ENDBRANCH   8   9
ENDBRANCH   1   8
TORSDOF 11
ENDMDL
MODEL 9
REMARK VINA RESULT:    -3.395      1.968      3.790
REMARK INTER + INTRA:          -6.575
REMARK INTER:                  -5.366
REMARK INTRA:                  -1.210
REMARK UNBOUND:                -1.096
REMARK SMILES CCCCCCCCCCCCO
REMARK SMILES IDX 7 1 6 2 5 3 4 4 3 5 2 6 1 7 8 8 9 9 10 10 11 11 12 12 13 13
REMARK H PARENT 13 14
REMARK Flexibility Score: inf
ROOT
ATOM      1  C   UNL     1     167.317 172.897 162.114  1.00  0.00     0.000 C 
ENDROOT
BRANCH   1   2
ATOM      2  C   UNL     1     167.372 173.574 163.495  1.00  0.00    -0.000 C 
BRANCH   2   3
ATOM      3  C   UNL     1     168.764 174.094 163.909  1.00  0.00    -0.000 C 
BRANCH   3   4
ATOM      4  C   UNL     1     169.856 173.013 164.040  1.00  0.00    -0.000 C 
BRANCH   4   5
ATOM      5  C   UNL     1     170.969 173.084 162.978  1.00  0.00    -0.000 C 
BRANCH   5   6
ATOM      6  C   UNL     1     172.133 172.126 163.271  1.00  0.00    -0.003 C 
ATOM      7  C   UNL     1     171.845 171.274 164.503  1.00  0.00     0.004 C 
ENDBRANCH   5   6
ENDBRANCH   4   5
ENDBRANCH   3   4
ENDBRANCH   2   3
ENDBRANCH   1   2
BRANCH   1   8
ATOM      8  C   UNL     1     167.320 171.363 162.201  1.00  0.00     0.000 C 
BRANCH   8   9
ATOM      9  C   UNL     1     168.111 170.749 161.039  1.00  0.00     0.000 C 
BRANCH   9  10
ATOM     10  C   UNL     1     169.332 169.973 161.555  1.00  0.00     0.002 C 
BRANCH  10  11
ATOM     11  C   UNL     1     169.148 169.465 162.993  1.00  0.00     0.028 C 
BRANCH  11  12
ATOM     12  C   UNL     1     169.776 168.084 163.219  1.00  0.00     0.156 C 
BRANCH  12  13
ATOM     13  O   UNL     1     170.563 168.097 164.379  1.00  0.00    -0.396 OA
ATOM     14  H   UNL     1     171.206 168.847 164.279  1.00  0.00     0.210 HD
ENDBRANCH  12  13
ENDBRANCH  11  12
ENDBRANCH  10  11
ENDBRANCH   9  10
ENDBRANCH   8   9
ENDBRANCH   1   8
TORSDOF 11
ENDMDL
