MODEL 1
REMARK VINA RESULT:    -3.992      0.000      0.000
REMARK INTER + INTRA:          -5.232
REMARK INTER:                  -5.159
REMARK INTRA:                  -0.073
REMARK UNBOUND:                -0.073
REMARK SMILES CCCCCCC(=O)[O-]
REMARK SMILES IDX 5 1 6 2 7 3 8 4 9 5 4 6 3 7 2 8 1 9
REMARK H PARENT
REMARK Flexibility Score: inf
ROOT
ATOM      1  C   UNL     1      42.535  51.048   8.416  1.00  0.00     0.006 C 
ENDROOT
BRANCH   1   2
ATOM      2  C   UNL     1      41.145  51.558   8.810  1.00  0.00     0.053 C 
BRANCH   2   3
ATOM      3  C   UNL     1      41.051  53.036   8.598  1.00  0.00     0.041 C 
ATOM      4  O   UNL     1      40.231  53.720   9.266  1.00  0.00    -0.550 OA
ATOM      5  O   UNL     1      41.831  53.651   7.628  1.00  0.00    -0.550 OA
ENDBRANCH   2   3
ENDBRANCH   1   2
BRANCH   1   6
ATOM      6  C   UNL     1      42.622  49.523   8.557  1.00  0.00     0.000 C 
BRANCH   6   7
ATOM      7  C   UNL     1      44.078  49.044   8.462  1.00  0.00    -0.000 C 
BRANCH   7   8
ATOM      8  C   UNL     1      44.348  47.800   9.322  1.00  0.00    -0.003 C 
ATOM      9  C   UNL     1      45.051  46.687   8.547  1.00  0.00     0.004 C 
ENDBRANCH   7   8
ENDBRANCH   6   7
ENDBRANCH   1   6
TORSDOF 5
ENDMDL
MODEL 2
REMARK VINA RESULT:    -3.344     18.698     19.485
REMARK INTER + INTRA:          -4.395
REMARK INTER:                  -4.212
REMARK INTRA:                  -0.182
REMARK UNBOUND:                -0.073
REMARK SMILES CCCCCCC(=O)[O-]
REMARK SMILES IDX 5 1 6 2 7 3 8 4 9 5 4 6 3 7 2 8 1 9
REMARK H PARENT
REMARK Flexibility Score: inf
ROOT
ATOM      1  C   UNL     1      34.160  50.278  24.987  1.00  0.00     0.006 C 
ENDROOT
BRANCH   1   2
ATOM      2  C   UNL     1      34.970  49.396  25.943  1.00  0.00     0.053 C 
BRANCH   2   3
ATOM      3  C   UNL     1      34.960  47.975  25.478  1.00  0.00     0.041 C 
ATOM      4  O   UNL     1      33.876  47.419  25.160  1.00  0.00    -0.550 OA
ATOM      5  O   UNL     1      36.142  47.245  25.444  1.00  0.00    -0.550 OA
ENDBRANCH   2   3
ENDBRANCH   1   2
BRANCH   1   6
ATOM      6  C   UNL     1      33.765  51.599  25.660  1.00  0.00     0.000 C 
BRANCH   6   7
ATOM      7  C   UNL     1      32.344  52.017  25.257  1.00  0.00    -0.000 C 
BRANCH   7   8
ATOM      8  C   UNL     1      31.620  50.936  24.439  1.00  0.00    -0.003 C 
ATOM      9  C   UNL     1      30.512  51.507  23.554  1.00  0.00     0.004 C 
ENDBRANCH   7   8
ENDBRANCH   6   7
ENDBRANCH   1   6
TORSDOF 5
ENDMDL
MODEL 3
REMARK VINA RESULT:    -3.262     18.642     19.600
REMARK INTER + INTRA:          -4.288
REMARK INTER:                  -4.089
REMARK INTRA:                  -0.199
REMARK UNBOUND:                -0.073
REMARK SMILES CCCCCCC(=O)[O-]
REMARK SMILES IDX 5 1 6 2 7 3 8 4 9 5 4 6 3 7 2 8 1 9
REMARK H PARENT
REMARK Flexibility Score: inf
ROOT
ATOM      1  C   UNL     1      33.270  49.821  24.593  1.00  0.00     0.006 C 
ENDROOT
BRANCH   1   2
ATOM      2  C   UNL     1      34.609  49.561  25.290  1.00  0.00     0.053 C 
BRANCH   2   3
ATOM      3  C   UNL     1      34.903  48.094  25.327  1.00  0.00     0.041 C 
ATOM      4  O   UNL     1      36.095  47.687  25.332  1.00  0.00    -0.550 OA
ATOM      5  O   UNL     1      33.862  47.175  25.306  1.00  0.00    -0.550 OA
ENDBRANCH   2   3
ENDBRANCH   1   2
BRANCH   1   6
ATOM      6  C   UNL     1      32.432  50.841  25.375  1.00  0.00     0.000 C 
BRANCH   6   7
ATOM      7  C   UNL     1      31.488  51.609  24.439  1.00  0.00    -0.000 C 
BRANCH   7   8
ATOM      8  C   UNL     1      31.551  53.129  24.654  1.00  0.00    -0.003 C 
ATOM      9  C   UNL     1      32.795  53.567  25.426  1.00  0.00     0.004 C 
ENDBRANCH   7   8
ENDBRANCH   6   7
ENDBRANCH   1   6
TORSDOF 5
ENDMDL
MODEL 4
REMARK VINA RESULT:    -3.110     10.819     12.257
REMARK INTER + INTRA:          -4.091
REMARK INTER:                  -3.771
REMARK INTRA:                  -0.321
REMARK UNBOUND:                -0.073
REMARK SMILES CCCCCCC(=O)[O-]
REMARK SMILES IDX 5 1 6 2 7 3 8 4 9 5 4 6 3 7 2 8 1 9
REMARK H PARENT
REMARK Flexibility Score: inf
ROOT
ATOM      1  C   UNL     1      31.707  48.414   7.259  1.00  0.00     0.006 C 
ENDROOT
BRANCH   1   2
ATOM      2  C   UNL     1      32.380  49.669   7.825  1.00  0.00     0.053 C 
BRANCH   2   3
ATOM      3  C   UNL     1      31.441  50.833   7.777  1.00  0.00     0.041 C 
ATOM      4  O   UNL     1      30.310  50.758   8.326  1.00  0.00    -0.550 OA
ATOM      5  O   UNL     1      31.795  51.983   7.083  1.00  0.00    -0.550 OA
ENDBRANCH   2   3
ENDBRANCH   1   2
BRANCH   1   6
ATOM      6  C   UNL     1      31.665  47.293   8.305  1.00  0.00     0.000 C 
BRANCH   6   7
ATOM      7  C   UNL     1      30.235  46.766   8.489  1.00  0.00    -0.000 C 
BRANCH   7   8
ATOM      8  C   UNL     1      29.423  47.598   9.492  1.00  0.00    -0.003 C 
ATOM      9  C   UNL     1      28.058  48.016   8.947  1.00  0.00     0.004 C 
ENDBRANCH   7   8
ENDBRANCH   6   7
ENDBRANCH   1   6
TORSDOF 5
ENDMDL
MODEL 5
REMARK VINA RESULT:    -3.092     11.800     13.220
REMARK INTER + INTRA:          -4.069
REMARK INTER:                  -3.671
REMARK INTRA:                  -0.397
REMARK UNBOUND:                -0.073
REMARK SMILES CCCCCCC(=O)[O-]
REMARK SMILES IDX 5 1 6 2 7 3 8 4 9 5 4 6 3 7 2 8 1 9
REMARK H PARENT
REMARK Flexibility Score: inf
ROOT
ATOM      1  C   UNL     1      30.179  46.756   8.556  1.00  0.00     0.006 C 
ENDROOT
BRANCH   1   2
ATOM      2  C   UNL     1      29.384  47.708   9.456  1.00  0.00     0.053 C 
BRANCH   2   3
ATOM      3  C   UNL     1      28.138  48.163   8.765  1.00  0.00     0.041 C 
ATOM      4  O   UNL     1      27.016  48.014   9.318  1.00  0.00    -0.550 OA
ATOM      5  O   UNL     1      28.208  48.705   7.488  1.00  0.00    -0.550 OA
ENDBRANCH   2   3
ENDBRANCH   1   2
BRANCH   1   6
ATOM      6  C   UNL     1      31.630  47.228   8.403  1.00  0.00     0.000 C 
BRANCH   6   7
ATOM      7  C   UNL     1      31.756  48.261   7.274  1.00  0.00    -0.000 C 
BRANCH   7   8
ATOM      8  C   UNL     1      32.276  49.619   7.770  1.00  0.00    -0.003 C 
ATOM      9  C   UNL     1      31.170  50.667   7.891  1.00  0.00     0.004 C 
ENDBRANCH   7   8
ENDBRANCH   6   7
ENDBRANCH   1   6
TORSDOF 5
ENDMDL
MODEL 6
REMARK VINA RESULT:    -3.080     11.611     12.948
REMARK INTER + INTRA:          -4.053
REMARK INTER:                  -3.608
REMARK INTRA:                  -0.445
REMARK UNBOUND:                -0.073
REMARK SMILES CCCCCCC(=O)[O-]
REMARK SMILES IDX 5 1 6 2 7 3 8 4 9 5 4 6 3 7 2 8 1 9
REMARK H PARENT
REMARK Flexibility Score: inf
ROOT
ATOM      1  C   UNL     1      29.342  47.665   9.510  1.00  0.00     0.006 C 
ENDROOT
BRANCH   1   2
ATOM      2  C   UNL     1      28.177  48.483   8.944  1.00  0.00     0.053 C 
BRANCH   2   3
ATOM      3  C   UNL     1      28.672  49.778   8.382  1.00  0.00     0.041 C 
ATOM      4  O   UNL     1      28.578  50.011   7.148  1.00  0.00    -0.550 OA
ATOM      5  O   UNL     1      29.283  50.709   9.212  1.00  0.00    -0.550 OA
ENDBRANCH   2   3
ENDBRANCH   1   2
BRANCH   1   6
ATOM      6  C   UNL     1      30.055  46.882   8.400  1.00  0.00     0.000 C 
BRANCH   6   7
ATOM      7  C   UNL     1      31.540  47.261   8.327  1.00  0.00    -0.000 C 
BRANCH   7   8
ATOM      8  C   UNL     1      31.838  48.272   7.209  1.00  0.00    -0.003 C 
ATOM      9  C   UNL     1      32.316  49.622   7.744  1.00  0.00     0.004 C 
ENDBRANCH   7   8
ENDBRANCH   6   7
ENDBRANCH   1   6
TORSDOF 5
ENDMDL
MODEL 7
REMARK VINA RESULT:    -3.065     11.476     12.920
REMARK INTER + INTRA:          -4.033
REMARK INTER:                  -3.675
REMARK INTRA:                  -0.359
REMARK UNBOUND:                -0.073
REMARK SMILES CCCCCCC(=O)[O-]
REMARK SMILES IDX 5 1 6 2 7 3 8 4 9 5 4 6 3 7 2 8 1 9
REMARK H PARENT
REMARK Flexibility Score: inf
ROOT
ATOM      1  C   UNL     1      31.670  48.390   7.282  1.00  0.00     0.006 C 
ENDROOT
BRANCH   1   2
ATOM      2  C   UNL     1      31.665  47.308   8.367  1.00  0.00     0.053 C 
BRANCH   2   3
ATOM      3  C   UNL     1      30.263  46.895   8.687  1.00  0.00     0.041 C 
ATOM      4  O   UNL     1      29.626  47.476   9.605  1.00  0.00    -0.550 OA
ATOM      5  O   UNL     1      29.677  45.835   8.007  1.00  0.00    -0.550 OA
ENDBRANCH   2   3
ENDBRANCH   1   2
BRANCH   1   6
ATOM      6  C   UNL     1      32.337  49.675   7.790  1.00  0.00     0.000 C 
BRANCH   6   7
ATOM      7  C   UNL     1      31.446  50.897   7.528  1.00  0.00    -0.000 C 
BRANCH   7   8
ATOM      8  C   UNL     1      29.948  50.559   7.584  1.00  0.00    -0.003 C 
ATOM      9  C   UNL     1      29.322  50.869   8.944  1.00  0.00     0.004 C 
ENDBRANCH   7   8
ENDBRANCH   6   7
ENDBRANCH   1   6
TORSDOF 5
ENDMDL
MODEL 8
REMARK VINA RESULT:    -3.060     18.530     19.263
REMARK INTER + INTRA:          -4.027
REMARK INTER:                  -3.851
REMARK INTRA:                  -0.176
REMARK UNBOUND:                -0.073
REMARK SMILES CCCCCCC(=O)[O-]
REMARK SMILES IDX 5 1 6 2 7 3 8 4 9 5 4 6 3 7 2 8 1 9
REMARK H PARENT
REMARK Flexibility Score: inf
ROOT
ATOM      1  C   UNL     1      32.698  51.169  25.109  1.00  0.00     0.006 C 
ENDROOT
BRANCH   1   2
ATOM      2  C   UNL     1      31.255  50.929  25.564  1.00  0.00     0.053 C 
BRANCH   2   3
ATOM      3  C   UNL     1      30.292  51.433  24.537  1.00  0.00     0.041 C 
ATOM      4  O   UNL     1      29.071  51.561  24.821  1.00  0.00    -0.550 OA
ATOM      5  O   UNL     1      30.731  51.715  23.250  1.00  0.00    -0.550 OA
ENDBRANCH   2   3
ENDBRANCH   1   2
BRANCH   1   6
ATOM      6  C   UNL     1      33.373  49.854  24.700  1.00  0.00     0.000 C 
BRANCH   6   7
ATOM      7  C   UNL     1      34.738  49.700  25.386  1.00  0.00    -0.000 C 
BRANCH   7   8
ATOM      8  C   UNL     1      35.218  48.241  25.425  1.00  0.00    -0.003 C 
ATOM      9  C   UNL     1      34.064  47.239  25.468  1.00  0.00     0.004 C 
ENDBRANCH   7   8
ENDBRANCH   6   7
ENDBRANCH   1   6
TORSDOF 5
ENDMDL
MODEL 9
REMARK VINA RESULT:    -3.059     11.553     13.241
REMARK INTER + INTRA:          -4.026
REMARK INTER:                  -3.603
REMARK INTRA:                  -0.424
REMARK UNBOUND:                -0.073
REMARK SMILES CCCCCCC(=O)[O-]
REMARK SMILES IDX 5 1 6 2 7 3 8 4 9 5 4 6 3 7 2 8 1 9
REMARK H PARENT
REMARK Flexibility Score: inf
ROOT
ATOM      1  C   UNL     1      30.096  46.801   8.511  1.00  0.00     0.006 C 
ENDROOT
BRANCH   1   2
ATOM      2  C   UNL     1      31.594  47.115   8.448  1.00  0.00     0.053 C 
BRANCH   2   3
ATOM      3  C   UNL     1      31.853  48.243   7.500  1.00  0.00     0.041 C 
ATOM      4  O   UNL     1      32.403  49.300   7.907  1.00  0.00    -0.550 OA
ATOM      5  O   UNL     1      31.442  48.147   6.177  1.00  0.00    -0.550 OA
ENDBRANCH   2   3
ENDBRANCH   1   2
BRANCH   1   6
ATOM      6  C   UNL     1      29.379  47.729   9.499  1.00  0.00     0.000 C 
BRANCH   6   7
ATOM      7  C   UNL     1      28.089  48.293   8.888  1.00  0.00    -0.000 C 
BRANCH   7   8
ATOM      8  C   UNL     1      28.313  49.632   8.167  1.00  0.00    -0.003 C 
ATOM      9  C   UNL     1      29.260  50.561   8.926  1.00  0.00     0.004 C 
ENDBRANCH   7   8
ENDBRANCH   6   7
ENDBRANCH   1   6
TORSDOF 5
ENDMDL
