MODEL 1
REMARK VINA RESULT:    -2.736      0.000      0.000
REMARK INTER + INTRA:          -3.755
REMARK INTER:                  -4.175
REMARK INTRA:                   0.420
REMARK UNBOUND:                 0.420
REMARK SMILES CC1=CCC[C@@H](C)C(=O)C[C@@H](C(C)C)C(=O)C1
REMARK SMILES IDX 8 1 9 2 6 3 7 4 5 5 4 6 3 7 2 8 1 9 10 11 11 12 15 13 16 14
REMARK SMILES IDX 17 15 12 17 13 18 14 19
REMARK H PARENT
REMARK Flexibility Score: 70.00
ROOT
ATOM      1  C   UNL     1      11.891  14.848  15.117  1.00  0.00     0.136 C 
ATOM      2  O   UNL     1      11.195  14.534  16.071  1.00  0.00    -0.299 OA
ENDROOT
BRANCH   1   3
ATOM      3  C   UNL     1      13.058  13.928  14.732  1.00  0.00     0.053 C 
ATOM      4  C   UNL     1      13.394  12.973  15.879  1.00  0.00     0.016 C 
BRANCH   3   5
ATOM      5  C   UNL     1      14.222  14.831  14.386  1.00  0.00     0.015 C 
BRANCH   5   6
ATOM      6  C   UNL     1      14.307  15.741  13.188  1.00  0.00     0.028 C 
BRANCH   6   7
ATOM      7  C   UNL     1      13.881  14.951  11.949  1.00  0.00    -0.028 C 
ATOM      8  C   UNL     1      12.827  15.184  11.091  1.00  0.00    -0.070 CG0
ATOM      9  C   UNL     1      12.749  14.288   9.876  1.00  0.00     0.039 C 
ATOM     10  G   UNL     1      11.710  16.240  11.252  1.00  0.00     0.000 G0
ENDBRANCH   6   7
ENDBRANCH   5   6
ENDBRANCH   3   5
ENDBRANCH   1   3
BRANCH   1  11
ATOM     11  C   UNL     1      11.551  16.144  14.354  1.00  0.00     0.087 C 
BRANCH  11  12
ATOM     12  C   UNL     1      10.226  16.106  13.490  1.00  0.00     0.066 C 
BRANCH  12  13
ATOM     13  C   UNL     1      10.474  15.767  12.001  1.00  0.00     0.140 C 
ATOM     14  O   UNL     1       9.655  15.088  11.398  1.00  0.00    -0.299 OA
BRANCH  13  15
ATOM     15  C   UNL     1      11.719  16.246  11.244  1.00  0.00     0.106 CG0
ATOM     16  G   UNL     1      12.825  15.178  11.086  1.00  0.00     0.000 G0
ENDBRANCH  13  15
ENDBRANCH  12  13
BRANCH  12  17
ATOM     17  C   UNL     1       9.403  17.423  13.645  1.00  0.00    -0.006 C 
ATOM     18  C   UNL     1       8.906  18.005  12.309  1.00  0.00     0.008 C 
ATOM     19  C   UNL     1       8.224  17.242  14.612  1.00  0.00     0.008 C 
ENDBRANCH  12  17
ENDBRANCH  11  12
ENDBRANCH   1  11
TORSDOF 1
ENDMDL
MODEL 2
REMARK VINA RESULT:    -2.564      1.693      4.849
REMARK INTER + INTRA:          -3.492
REMARK INTER:                  -3.800
REMARK INTRA:                   0.308
REMARK UNBOUND:                 0.420
REMARK SMILES CC1=CCC[C@@H](C)C(=O)C[C@@H](C(C)C)C(=O)C1
REMARK SMILES IDX 8 1 9 2 6 3 7 4 5 5 4 6 3 7 2 8 1 9 10 11 11 12 15 13 16 14
REMARK SMILES IDX 17 15 12 17 13 18 14 19
REMARK H PARENT
REMARK Flexibility Score: 70.00
ROOT
ATOM      1  C   UNL     1      13.155  14.999  11.183  1.00  0.00     0.136 C 
ATOM      2  O   UNL     1      13.979  14.911  10.284  1.00  0.00    -0.299 OA
ENDROOT
BRANCH   1   3
ATOM      3  C   UNL     1      11.673  14.805  10.834  1.00  0.00     0.053 C 
ATOM      4  C   UNL     1      11.479  13.554   9.976  1.00  0.00     0.016 C 
BRANCH   3   5
ATOM      5  C   UNL     1      11.233  16.062  10.114  1.00  0.00     0.015 C 
BRANCH   5   6
ATOM      6  C   UNL     1      10.738  17.326  10.768  1.00  0.00     0.028 C 
BRANCH   6   7
ATOM      7  C   UNL     1       9.752  16.946  11.874  1.00  0.00    -0.028 C 
ATOM      8  C   UNL     1       9.987  16.754  13.219  1.00  0.00    -0.070 CG0
ATOM      9  C   UNL     1       8.769  16.507  14.078  1.00  0.00     0.039 C 
ATOM     10  G   UNL     1      11.358  16.738  13.932  1.00  0.00     0.000 G0
ENDBRANCH   6   7
ENDBRANCH   5   6
ENDBRANCH   3   5
ENDBRANCH   1   3
BRANCH   1  11
ATOM     11  C   UNL     1      13.655  15.294  12.611  1.00  0.00     0.087 C 
BRANCH  11  12
ATOM     12  C   UNL     1      12.916  14.514  13.773  1.00  0.00     0.066 C 
BRANCH  12  13
ATOM     13  C   UNL     1      11.809  15.347  14.463  1.00  0.00     0.140 C 
ATOM     14  O   UNL     1      11.254  14.898  15.456  1.00  0.00    -0.299 OA
BRANCH  13  15
ATOM     15  C   UNL     1      11.373  16.723  13.946  1.00  0.00     0.106 CG0
ATOM     16  G   UNL     1       9.998  16.738  13.239  1.00  0.00     0.000 G0
ENDBRANCH  13  15
ENDBRANCH  12  13
BRANCH  12  17
ATOM     17  C   UNL     1      13.928  13.940  14.812  1.00  0.00    -0.006 C 
ATOM     18  C   UNL     1      14.745  15.018  15.547  1.00  0.00     0.008 C 
ATOM     19  C   UNL     1      13.233  13.021  15.829  1.00  0.00     0.008 C 
ENDBRANCH  12  17
ENDBRANCH  11  12
ENDBRANCH   1  11
TORSDOF 1
ENDMDL
MODEL 3
REMARK VINA RESULT:    -2.411      1.751      4.328
REMARK INTER + INTRA:          -3.259
REMARK INTER:                  -3.170
REMARK INTRA:                  -0.089
REMARK UNBOUND:                 0.420
REMARK SMILES CC1=CCC[C@@H](C)C(=O)C[C@@H](C(C)C)C(=O)C1
REMARK SMILES IDX 8 1 9 2 6 3 7 4 5 5 4 6 3 7 2 8 1 9 10 11 11 12 15 13 16 14
REMARK SMILES IDX 17 15 12 17 13 18 14 19
REMARK H PARENT
REMARK Flexibility Score: 70.00
ROOT
ATOM      1  C   UNL     1      10.204  16.360  13.270  1.00  0.00     0.136 C 
ATOM      2  O   UNL     1       9.504  16.828  14.156  1.00  0.00    -0.299 OA
ENDROOT
BRANCH   1   3
ATOM      3  C   UNL     1      10.192  17.043  11.896  1.00  0.00     0.053 C 
ATOM      4  C   UNL     1       9.240  18.241  11.895  1.00  0.00     0.016 C 
BRANCH   3   5
ATOM      5  C   UNL     1       9.776  15.987  10.894  1.00  0.00     0.015 C 
BRANCH   5   6
ATOM      6  C   UNL     1      10.689  15.284   9.924  1.00  0.00     0.028 C 
BRANCH   6   7
ATOM      7  C   UNL     1      12.028  16.023   9.895  1.00  0.00    -0.028 C 
ATOM      8  C   UNL     1      13.186  15.749  10.590  1.00  0.00    -0.070 CG0
ATOM      9  C   UNL     1      14.387  16.598  10.244  1.00  0.00     0.039 C 
ATOM     10  G   UNL     1      13.378  14.688  11.699  1.00  0.00     0.000 G0
ENDBRANCH   6   7
ENDBRANCH   5   6
ENDBRANCH   3   5
ENDBRANCH   1   3
BRANCH   1  11
ATOM     11  C   UNL     1      11.059  15.117  13.588  1.00  0.00     0.087 C 
BRANCH  11  12
ATOM     12  C   UNL     1      12.503  15.406  14.168  1.00  0.00     0.066 C 
BRANCH  12  13
ATOM     13  C   UNL     1      13.630  15.241  13.120  1.00  0.00     0.140 C 
ATOM     14  O   UNL     1      14.768  15.582  13.407  1.00  0.00    -0.299 OA
BRANCH  13  15
ATOM     15  C   UNL     1      13.374  14.668  11.721  1.00  0.00     0.106 CG0
ATOM     16  G   UNL     1      13.192  15.732  10.614  1.00  0.00     0.000 G0
ENDBRANCH  13  15
ENDBRANCH  12  13
BRANCH  12  17
ATOM     17  C   UNL     1      12.787  14.559  15.447  1.00  0.00    -0.006 C 
ATOM     18  C   UNL     1      13.028  13.065  15.163  1.00  0.00     0.008 C 
ATOM     19  C   UNL     1      13.957  15.137  16.259  1.00  0.00     0.008 C 
ENDBRANCH  12  17
ENDBRANCH  11  12
ENDBRANCH   1  11
TORSDOF 1
ENDMDL
MODEL 4
REMARK VINA RESULT:    -2.046      1.681      4.026
REMARK INTER + INTRA:          -2.702
REMARK INTER:                  -3.397
REMARK INTRA:                   0.695
REMARK UNBOUND:                 0.420
REMARK SMILES CC1=CCC[C@@H](C)C(=O)C[C@@H](C(C)C)C(=O)C1
REMARK SMILES IDX 8 1 9 2 6 3 7 4 5 5 4 6 3 7 2 8 1 9 10 11 11 12 15 13 16 14
REMARK SMILES IDX 17 15 12 17 13 18 14 19
REMARK H PARENT
REMARK Flexibility Score: 70.00
ROOT
ATOM      1  C   UNL     1      14.028  15.136  13.866  1.00  0.00     0.136 C 
ATOM      2  O   UNL     1      15.101  15.686  14.064  1.00  0.00    -0.299 OA
ENDROOT
BRANCH   1   3
ATOM      3  C   UNL     1      13.055  14.993  15.046  1.00  0.00     0.053 C 
ATOM      4  C   UNL     1      12.627  13.535  15.219  1.00  0.00     0.016 C 
BRANCH   3   5
ATOM      5  C   UNL     1      11.880  15.898  14.746  1.00  0.00     0.015 C 
BRANCH   5   6
ATOM      6  C   UNL     1      10.615  15.495  14.034  1.00  0.00     0.028 C 
BRANCH   6   7
ATOM      7  C   UNL     1       9.960  16.752  13.458  1.00  0.00    -0.028 C 
ATOM      8  C   UNL     1       9.853  17.151  12.143  1.00  0.00    -0.070 CG0
ATOM      9  C   UNL     1       9.029  18.392  11.890  1.00  0.00     0.039 C 
ATOM     10  G   UNL     1      10.505  16.483  10.911  1.00  0.00     0.000 G0
ENDBRANCH   6   7
ENDBRANCH   5   6
ENDBRANCH   3   5
ENDBRANCH   1   3
BRANCH   1  11
ATOM     11  C   UNL     1      13.714  14.626  12.446  1.00  0.00     0.087 C 
BRANCH  11  12
ATOM     12  C   UNL     1      13.017  15.668  11.480  1.00  0.00     0.066 C 
BRANCH  12  13
ATOM     13  C   UNL     1      11.515  15.379  11.246  1.00  0.00     0.140 C 
ATOM     14  O   UNL     1      11.106  14.230  11.332  1.00  0.00    -0.299 OA
BRANCH  13  15
ATOM     15  C   UNL     1      10.508  16.485  10.903  1.00  0.00     0.106 CG0
ATOM     16  G   UNL     1       9.851  17.158  12.130  1.00  0.00     0.000 G0
ENDBRANCH  13  15
ENDBRANCH  12  13
BRANCH  12  17
ATOM     17  C   UNL     1      13.788  15.802  10.130  1.00  0.00    -0.006 C 
ATOM     18  C   UNL     1      14.504  17.154   9.954  1.00  0.00     0.008 C 
ATOM     19  C   UNL     1      14.782  14.649   9.930  1.00  0.00     0.008 C 
ENDBRANCH  12  17
ENDBRANCH  11  12
ENDBRANCH   1  11
TORSDOF 1
ENDMDL
MODEL 5
REMARK VINA RESULT:    -1.887      2.004      4.354
REMARK INTER + INTRA:          -2.460
REMARK INTER:                  -2.432
REMARK INTRA:                  -0.028
REMARK UNBOUND:                 0.420
REMARK SMILES CC1=CCC[C@@H](C)C(=O)C[C@@H](C(C)C)C(=O)C1
REMARK SMILES IDX 8 1 9 2 6 3 7 4 5 5 4 6 3 7 2 8 1 9 10 11 11 12 15 13 16 14
REMARK SMILES IDX 17 15 12 17 13 18 14 19
REMARK H PARENT
REMARK Flexibility Score: 70.00
ROOT
ATOM      1  C   UNL     1       9.500  17.258  12.266  1.00  0.00     0.136 C 
ATOM      2  O   UNL     1       8.678  18.020  11.778  1.00  0.00    -0.299 OA
ENDROOT
BRANCH   1   3
ATOM      3  C   UNL     1       9.250  16.729  13.685  1.00  0.00     0.053 C 
ATOM      4  C   UNL     1       8.363  17.694  14.474  1.00  0.00     0.016 C 
BRANCH   3   5
ATOM      5  C   UNL     1      10.610  16.555  14.325  1.00  0.00     0.015 C 
BRANCH   5   6
ATOM      6  C   UNL     1      11.030  15.409  15.207  1.00  0.00     0.028 C 
BRANCH   6   7
ATOM      7  C   UNL     1      12.558  15.339  15.218  1.00  0.00    -0.028 C 
ATOM      8  C   UNL     1      13.413  14.873  14.243  1.00  0.00    -0.070 CG0
ATOM      9  C   UNL     1      14.889  15.057  14.509  1.00  0.00     0.039 C 
ATOM     10  G   UNL     1      13.025  14.163  12.925  1.00  0.00     0.000 G0
ENDBRANCH   6   7
ENDBRANCH   5   6
ENDBRANCH   3   5
ENDBRANCH   1   3
BRANCH   1  11
ATOM     11  C   UNL     1      10.733  16.872  11.425  1.00  0.00     0.087 C 
BRANCH  11  12
ATOM     12  C   UNL     1      11.114  15.336  11.430  1.00  0.00     0.066 C 
BRANCH  12  13
ATOM     13  C   UNL     1      12.599  15.073  11.780  1.00  0.00     0.140 C 
ATOM     14  O   UNL     1      13.474  15.609  11.115  1.00  0.00    -0.299 OA
BRANCH  13  15
ATOM     15  C   UNL     1      13.022  14.155  12.934  1.00  0.00     0.106 CG0
ATOM     16  G   UNL     1      13.402  14.895  14.237  1.00  0.00     0.000 G0
ENDBRANCH  13  15
ENDBRANCH  12  13
BRANCH  12  17
ATOM     17  C   UNL     1      10.714  14.642  10.091  1.00  0.00    -0.006 C 
ATOM     18  C   UNL     1      11.373  13.266   9.882  1.00  0.00     0.008 C 
ATOM     19  C   UNL     1       9.188  14.521   9.952  1.00  0.00     0.008 C 
ENDBRANCH  12  17
ENDBRANCH  11  12
ENDBRANCH   1  11
TORSDOF 1
ENDMDL
MODEL 6
REMARK VINA RESULT:    -1.548      1.673      3.767
REMARK INTER + INTRA:          -1.942
REMARK INTER:                  -2.122
REMARK INTRA:                   0.180
REMARK UNBOUND:                 0.420
REMARK SMILES CC1=CCC[C@@H](C)C(=O)C[C@@H](C(C)C)C(=O)C1
REMARK SMILES IDX 8 1 9 2 6 3 7 4 5 5 4 6 3 7 2 8 1 9 10 11 11 12 15 13 16 14
REMARK SMILES IDX 17 15 12 17 13 18 14 19
REMARK H PARENT
REMARK Flexibility Score: 70.00
ROOT
ATOM      1  C   UNL     1      11.592  15.177  11.081  1.00  0.00     0.136 C 
ATOM      2  O   UNL     1      11.371  14.494  10.091  1.00  0.00    -0.299 OA
ENDROOT
BRANCH   1   3
ATOM      3  C   UNL     1      12.986  15.798  11.241  1.00  0.00     0.053 C 
ATOM      4  C   UNL     1      13.590  16.131   9.875  1.00  0.00     0.016 C 
BRANCH   3   5
ATOM      5  C   UNL     1      13.822  14.789  12.000  1.00  0.00     0.015 C 
BRANCH   5   6
ATOM      6  C   UNL     1      14.713  15.090  13.176  1.00  0.00     0.028 C 
BRANCH   6   7
ATOM      7  C   UNL     1      14.265  14.228  14.357  1.00  0.00    -0.028 C 
ATOM      8  C   UNL     1      13.245  14.450  15.257  1.00  0.00    -0.070 CG0
ATOM      9  C   UNL     1      12.973  13.337  16.242  1.00  0.00     0.039 C 
ATOM     10  G   UNL     1      12.373  15.720  15.382  1.00  0.00     0.000 G0
ENDBRANCH   6   7
ENDBRANCH   5   6
ENDBRANCH   3   5
ENDBRANCH   1   3
BRANCH   1  11
ATOM     11  C   UNL     1      10.455  15.378  12.103  1.00  0.00     0.087 C 
BRANCH  11  12
ATOM     12  C   UNL     1      10.767  16.377  13.290  1.00  0.00     0.066 C 
BRANCH  12  13
ATOM     13  C   UNL     1      11.017  15.665  14.641  1.00  0.00     0.140 C 
ATOM     14  O   UNL     1      10.112  15.026  15.157  1.00  0.00    -0.299 OA
BRANCH  13  15
ATOM     15  C   UNL     1      12.365  15.733  15.369  1.00  0.00     0.106 CG0
ATOM     16  G   UNL     1      13.219  14.449  15.263  1.00  0.00     0.000 G0
ENDBRANCH  13  15
ENDBRANCH  12  13
BRANCH  12  17
ATOM     17  C   UNL     1       9.666  17.475  13.420  1.00  0.00    -0.006 C 
ATOM     18  C   UNL     1       9.208  18.059  12.071  1.00  0.00     0.008 C 
ATOM     19  C   UNL     1       8.453  16.967  14.214  1.00  0.00     0.008 C 
ENDBRANCH  12  17
ENDBRANCH  11  12
ENDBRANCH   1  11
TORSDOF 1
ENDMDL
MODEL 7
REMARK VINA RESULT:    -1.191      3.353      6.668
REMARK INTER + INTRA:          -1.397
REMARK INTER:                  -2.068
REMARK INTRA:                   0.670
REMARK UNBOUND:                 0.420
REMARK SMILES CC1=CCC[C@@H](C)C(=O)C[C@@H](C(C)C)C(=O)C1
REMARK SMILES IDX 8 1 9 2 6 3 7 4 5 5 4 6 3 7 2 8 1 9 10 11 11 12 15 13 16 14
REMARK SMILES IDX 17 15 12 17 13 18 14 19
REMARK H PARENT
REMARK Flexibility Score: 70.00
ROOT
ATOM      1  C   UNL     1      14.580  14.679  13.797  1.00  0.00     0.136 C 
ATOM      2  O   UNL     1      14.997  15.672  14.376  1.00  0.00    -0.299 OA
ENDROOT
BRANCH   1   3
ATOM      3  C   UNL     1      13.190  14.746  13.149  1.00  0.00     0.053 C 
ATOM      4  C   UNL     1      13.272  15.372  11.755  1.00  0.00     0.016 C 
BRANCH   3   5
ATOM      5  C   UNL     1      12.317  15.555  14.084  1.00  0.00     0.015 C 
BRANCH   5   6
ATOM      6  C   UNL     1      12.202  15.359  15.573  1.00  0.00     0.028 C 
BRANCH   6   7
ATOM      7  C   UNL     1      12.121  13.858  15.860  1.00  0.00    -0.028 C 
ATOM      8  C   UNL     1      12.957  13.074  16.627  1.00  0.00    -0.070 CG0
ATOM      9  C   UNL     1      12.531  11.638  16.818  1.00  0.00     0.039 C 
ATOM     10  G   UNL     1      14.289  13.500  17.285  1.00  0.00     0.000 G0
ENDBRANCH   6   7
ENDBRANCH   5   6
ENDBRANCH   3   5
ENDBRANCH   1   3
BRANCH   1  11
ATOM     11  C   UNL     1      15.476  13.426  13.748  1.00  0.00     0.087 C 
BRANCH  11  12
ATOM     12  C   UNL     1      15.596  12.613  15.101  1.00  0.00     0.066 C 
BRANCH  12  13
ATOM     13  C   UNL     1      15.507  13.506  16.363  1.00  0.00     0.140 C 
ATOM     14  O   UNL     1      16.437  14.251  16.635  1.00  0.00    -0.299 OA
BRANCH  13  15
ATOM     15  C   UNL     1      14.291  13.489  17.297  1.00  0.00     0.106 CG0
ATOM     16  G   UNL     1      12.964  13.079  16.619  1.00  0.00     0.000 G0
ENDBRANCH  13  15
ENDBRANCH  12  13
BRANCH  12  17
ATOM     17  C   UNL     1      16.876  11.722  15.123  1.00  0.00    -0.006 C 
ATOM     18  C   UNL     1      16.642  10.312  15.694  1.00  0.00     0.008 C 
ATOM     19  C   UNL     1      17.523  11.628  13.733  1.00  0.00     0.008 C 
ENDBRANCH  12  17
ENDBRANCH  11  12
ENDBRANCH   1  11
TORSDOF 1
ENDMDL
MODEL 8
REMARK VINA RESULT:    -0.657      2.599      4.751
REMARK INTER + INTRA:          -0.582
REMARK INTER:                  -0.972
REMARK INTRA:                   0.390
REMARK UNBOUND:                 0.420
REMARK SMILES CC1=CCC[C@@H](C)C(=O)C[C@@H](C(C)C)C(=O)C1
REMARK SMILES IDX 8 1 9 2 6 3 7 4 5 5 4 6 3 7 2 8 1 9 10 11 11 12 15 13 16 14
REMARK SMILES IDX 17 15 12 17 13 18 14 19
REMARK H PARENT
REMARK Flexibility Score: 70.00
ROOT
ATOM      1  C   UNL     1      15.463  14.777  14.815  1.00  0.00     0.136 C 
ATOM      2  O   UNL     1      15.556  15.791  15.491  1.00  0.00    -0.299 OA
ENDROOT
BRANCH   1   3
ATOM      3  C   UNL     1      16.266  13.540  15.242  1.00  0.00     0.053 C 
ATOM      4  C   UNL     1      16.038  12.384  14.267  1.00  0.00     0.016 C 
BRANCH   3   5
ATOM      5  C   UNL     1      15.814  13.198  16.645  1.00  0.00     0.015 C 
BRANCH   5   6
ATOM      6  C   UNL     1      14.681  13.851  17.391  1.00  0.00     0.028 C 
BRANCH   6   7
ATOM      7  C   UNL     1      13.540  12.840  17.523  1.00  0.00    -0.028 C 
ATOM      8  C   UNL     1      12.672  12.379  16.557  1.00  0.00    -0.070 CG0
ATOM      9  C   UNL     1      11.728  11.278  16.981  1.00  0.00     0.039 C 
ATOM     10  G   UNL     1      12.544  12.885  15.101  1.00  0.00     0.000 G0
ENDBRANCH   6   7
ENDBRANCH   5   6
ENDBRANCH   3   5
ENDBRANCH   1   3
BRANCH   1  11
ATOM     11  C   UNL     1      14.540  14.799  13.580  1.00  0.00     0.087 C 
BRANCH  11  12
ATOM     12  C   UNL     1      13.039  15.223  13.850  1.00  0.00     0.066 C 
BRANCH  12  13
ATOM     13  C   UNL     1      12.362  14.400  14.972  1.00  0.00     0.140 C 
ATOM     14  O   UNL     1      11.653  14.972  15.788  1.00  0.00    -0.299 OA
BRANCH  13  15
ATOM     15  C   UNL     1      12.548  12.884  15.107  1.00  0.00     0.106 CG0
ATOM     16  G   UNL     1      12.658  12.377  16.564  1.00  0.00     0.000 G0
ENDBRANCH  13  15
ENDBRANCH  12  13
BRANCH  12  17
ATOM     17  C   UNL     1      12.193  15.204  12.540  1.00  0.00    -0.006 C 
ATOM     18  C   UNL     1      11.024  16.206  12.540  1.00  0.00     0.008 C 
ATOM     19  C   UNL     1      13.071  15.418  11.297  1.00  0.00     0.008 C 
ENDBRANCH  12  17
ENDBRANCH  11  12
ENDBRANCH   1  11
TORSDOF 1
ENDMDL
MODEL 9
REMARK VINA RESULT:     0.155      2.327      5.614
REMARK INTER + INTRA:           0.657
REMARK INTER:                  -0.257
REMARK INTRA:                   0.914
REMARK UNBOUND:                 0.420
REMARK SMILES CC1=CCC[C@@H](C)C(=O)C[C@@H](C(C)C)C(=O)C1
REMARK SMILES IDX 8 1 9 2 6 3 7 4 5 5 4 6 3 7 2 8 1 9 10 11 11 12 15 13 16 14
REMARK SMILES IDX 17 15 12 17 13 18 14 19
REMARK H PARENT
REMARK Flexibility Score: 70.00
ROOT
ATOM      1  C   UNL     1      13.544  15.068  12.187  1.00  0.00     0.136 C 
ATOM      2  O   UNL     1      14.348  15.177  11.272  1.00  0.00    -0.299 OA
ENDROOT
BRANCH   1   3
ATOM      3  C   UNL     1      12.067  14.840  11.835  1.00  0.00     0.053 C 
ATOM      4  C   UNL     1      11.893  14.657  10.326  1.00  0.00     0.016 C 
BRANCH   3   5
ATOM      5  C   UNL     1      11.311  16.046  12.351  1.00  0.00     0.015 C 
BRANCH   5   6
ATOM      6  C   UNL     1      10.300  16.041  13.468  1.00  0.00     0.028 C 
BRANCH   6   7
ATOM      7  C   UNL     1      11.037  16.261  14.790  1.00  0.00    -0.028 C 
ATOM      8  C   UNL     1      11.761  15.360  15.542  1.00  0.00    -0.070 CG0
ATOM      9  C   UNL     1      12.479  15.924  16.746  1.00  0.00     0.039 C 
ATOM     10  G   UNL     1      11.893  13.839  15.300  1.00  0.00     0.000 G0
ENDBRANCH   6   7
ENDBRANCH   5   6
ENDBRANCH   3   5
ENDBRANCH   1   3
BRANCH   1  11
ATOM     11  C   UNL     1      14.062  15.160  13.636  1.00  0.00     0.087 C 
BRANCH  11  12
ATOM     12  C   UNL     1      14.412  13.782  14.330  1.00  0.00     0.066 C 
BRANCH  12  13
ATOM     13  C   UNL     1      13.337  13.312  15.339  1.00  0.00     0.140 C 
ATOM     14  O   UNL     1      13.633  12.480  16.184  1.00  0.00    -0.299 OA
BRANCH  13  15
ATOM     15  C   UNL     1      11.901  13.849  15.319  1.00  0.00     0.106 CG0
ATOM     16  G   UNL     1      11.781  15.374  15.546  1.00  0.00     0.000 G0
ENDBRANCH  13  15
ENDBRANCH  12  13
BRANCH  12  17
ATOM     17  C   UNL     1      15.830  13.811  14.981  1.00  0.00    -0.006 C 
ATOM     18  C   UNL     1      15.930  14.731  16.211  1.00  0.00     0.008 C 
ATOM     19  C   UNL     1      16.317  12.399  15.338  1.00  0.00     0.008 C 
ENDBRANCH  12  17
ENDBRANCH  11  12
ENDBRANCH   1  11
TORSDOF 1
ENDMDL
