MODEL 1
REMARK VINA RESULT:    -4.091      0.000      0.000
REMARK INTER + INTRA:          -4.741
REMARK INTER:                  -4.689
REMARK INTRA:                  -0.052
REMARK UNBOUND:                -0.052
REMARK SMILES O=C([O-])c1cc(O)c(O)c(O)c1
REMARK SMILES IDX 4 1 5 2 12 3 6 4 10 5 8 6 2 7 1 8 3 9 7 10 11 12 9 14
REMARK H PARENT 7 11 11 13 9 15
REMARK Flexibility Score: inf
ROOT
ATOM      1  C   UNL     1      -7.307   7.393  -5.248  1.00  0.00     0.005 A 
ATOM      2  C   UNL     1      -6.405   6.380  -5.614  1.00  0.00     0.060 A 
ATOM      3  C   UNL     1      -6.804   8.644  -4.851  1.00  0.00     0.060 A 
ATOM      4  C   UNL     1      -5.023   6.611  -5.583  1.00  0.00     0.162 A 
ATOM      5  C   UNL     1      -5.422   8.880  -4.819  1.00  0.00     0.162 A 
ATOM      6  C   UNL     1      -4.529   7.860  -5.187  1.00  0.00     0.200 A 
ENDROOT
BRANCH   1   7
ATOM      7  C   UNL     1      -8.765   7.141  -5.282  1.00  0.00     0.072 C 
ATOM      8  O   UNL     1      -9.239   6.219  -5.998  1.00  0.00    -0.545 OA
ATOM      9  O   UNL     1      -9.633   7.919  -4.525  1.00  0.00    -0.545 OA
ENDBRANCH   1   7
BRANCH   4  10
ATOM     10  O   UNL     1      -4.132   5.602  -5.947  1.00  0.00    -0.504 OA
ATOM     11  H   UNL     1      -4.456   4.679  -6.214  1.00  0.00     0.293 HD
ENDBRANCH   4  10
BRANCH   5  12
ATOM     12  O   UNL     1      -4.934  10.125  -4.423  1.00  0.00    -0.504 OA
ATOM     13  H   UNL     1      -5.074  10.476  -3.483  1.00  0.00     0.293 HD
ENDBRANCH   5  12
BRANCH   6  14
ATOM     14  O   UNL     1      -3.150   8.071  -5.163  1.00  0.00    -0.502 OA
ATOM     15  H   UNL     1      -2.494   7.328  -4.957  1.00  0.00     0.293 HD
ENDBRANCH   6  14
TORSDOF 4
ENDMDL
MODEL 2
REMARK VINA RESULT:    -4.091      0.030      2.422
REMARK INTER + INTRA:          -4.740
REMARK INTER:                  -4.689
REMARK INTRA:                  -0.052
REMARK UNBOUND:                -0.052
REMARK SMILES O=C([O-])c1cc(O)c(O)c(O)c1
REMARK SMILES IDX 4 1 5 2 12 3 6 4 10 5 8 6 2 7 1 8 3 9 7 10 11 12 9 14
REMARK H PARENT 7 11 11 13 9 15
REMARK Flexibility Score: inf
ROOT
ATOM      1  C   UNL     1      -7.315   7.391  -5.250  1.00  0.00     0.005 A 
ATOM      2  C   UNL     1      -6.818   8.642  -4.847  1.00  0.00     0.060 A 
ATOM      3  C   UNL     1      -6.406   6.381  -5.612  1.00  0.00     0.060 A 
ATOM      4  C   UNL     1      -5.438   8.882  -4.807  1.00  0.00     0.162 A 
ATOM      5  C   UNL     1      -5.025   6.616  -5.574  1.00  0.00     0.162 A 
ATOM      6  C   UNL     1      -4.539   7.871  -5.170  1.00  0.00     0.200 A 
ENDROOT
BRANCH   1   7
ATOM      7  C   UNL     1      -8.773   7.145  -5.290  1.00  0.00     0.072 C 
ATOM      8  O   UNL     1      -9.245   6.203  -5.982  1.00  0.00    -0.545 OA
ATOM      9  O   UNL     1      -9.644   7.949  -4.564  1.00  0.00    -0.545 OA
ENDBRANCH   1   7
BRANCH   4  10
ATOM     10  O   UNL     1      -4.950  10.125  -4.407  1.00  0.00    -0.504 OA
ATOM     11  H   UNL     1      -4.732  10.852  -5.080  1.00  0.00     0.293 HD
ENDBRANCH   4  10
BRANCH   5  12
ATOM     12  O   UNL     1      -4.134   5.607  -5.936  1.00  0.00    -0.504 OA
ATOM     13  H   UNL     1      -4.265   5.059  -6.779  1.00  0.00     0.293 HD
ENDBRANCH   5  12
BRANCH   6  14
ATOM     14  O   UNL     1      -3.169   8.128  -5.123  1.00  0.00    -0.502 OA
ATOM     15  H   UNL     1      -2.690   8.633  -5.858  1.00  0.00     0.293 HD
ENDBRANCH   6  14
TORSDOF 4
ENDMDL
MODEL 3
REMARK VINA RESULT:    -4.013      2.501      3.755
REMARK INTER + INTRA:          -4.651
REMARK INTER:                  -4.606
REMARK INTRA:                  -0.045
REMARK UNBOUND:                -0.052
REMARK SMILES O=C([O-])c1cc(O)c(O)c(O)c1
REMARK SMILES IDX 4 1 5 2 12 3 6 4 10 5 8 6 2 7 1 8 3 9 7 10 11 12 9 14
REMARK H PARENT 7 11 11 13 9 15
REMARK Flexibility Score: inf
ROOT
ATOM      1  C   UNL     1      -4.574   8.860  -5.284  1.00  0.00     0.005 A 
ATOM      2  C   UNL     1      -3.768   8.998  -4.141  1.00  0.00     0.060 A 
ATOM      3  C   UNL     1      -3.969   8.535  -6.510  1.00  0.00     0.060 A 
ATOM      4  C   UNL     1      -2.380   8.815  -4.221  1.00  0.00     0.162 A 
ATOM      5  C   UNL     1      -2.582   8.351  -6.596  1.00  0.00     0.162 A 
ATOM      6  C   UNL     1      -1.785   8.491  -5.447  1.00  0.00     0.200 A 
ENDROOT
BRANCH   1   7
ATOM      7  C   UNL     1      -6.038   9.056  -5.191  1.00  0.00     0.072 C 
ATOM      8  O   UNL     1      -6.569  10.122  -5.604  1.00  0.00    -0.545 OA
ATOM      9  O   UNL     1      -6.848   8.066  -4.649  1.00  0.00    -0.545 OA
ENDBRANCH   1   7
BRANCH   4  10
ATOM     10  O   UNL     1      -1.585   8.952  -3.085  1.00  0.00    -0.504 OA
ATOM     11  H   UNL     1      -0.696   8.472  -2.998  1.00  0.00     0.293 HD
ENDBRANCH   4  10
BRANCH   5  12
ATOM     12  O   UNL     1      -1.993   8.029  -7.818  1.00  0.00    -0.504 OA
ATOM     13  H   UNL     1      -2.362   7.292  -8.408  1.00  0.00     0.293 HD
ENDBRANCH   5  12
BRANCH   6  14
ATOM     14  O   UNL     1      -0.403   8.312  -5.507  1.00  0.00    -0.502 OA
ATOM     15  H   UNL     1       0.040   7.783  -6.248  1.00  0.00     0.293 HD
ENDBRANCH   6  14
TORSDOF 4
ENDMDL
MODEL 4
REMARK VINA RESULT:    -3.977      4.026      6.679
REMARK INTER + INTRA:          -4.610
REMARK INTER:                  -4.561
REMARK INTRA:                  -0.049
REMARK UNBOUND:                -0.052
REMARK SMILES O=C([O-])c1cc(O)c(O)c(O)c1
REMARK SMILES IDX 4 1 5 2 12 3 6 4 10 5 8 6 2 7 1 8 3 9 7 10 11 12 9 14
REMARK H PARENT 7 11 11 13 9 15
REMARK Flexibility Score: inf
ROOT
ATOM      1  C   UNL     1      -0.513   8.783  -6.451  1.00  0.00     0.005 A 
ATOM      2  C   UNL     1      -0.579   8.698  -5.050  1.00  0.00     0.060 A 
ATOM      3  C   UNL     1      -1.703   8.950  -7.180  1.00  0.00     0.060 A 
ATOM      4  C   UNL     1      -1.812   8.778  -4.388  1.00  0.00     0.162 A 
ATOM      5  C   UNL     1      -2.938   9.031  -6.523  1.00  0.00     0.162 A 
ATOM      6  C   UNL     1      -2.993   8.944  -5.122  1.00  0.00     0.200 A 
ENDROOT
BRANCH   1   7
ATOM      7  C   UNL     1       0.792   8.698  -7.142  1.00  0.00     0.072 C 
ATOM      8  O   UNL     1       1.641   7.829  -6.804  1.00  0.00    -0.545 OA
ATOM      9  O   UNL     1       1.101   9.574  -8.176  1.00  0.00    -0.545 OA
ENDBRANCH   1   7
BRANCH   4  10
ATOM     10  O   UNL     1      -1.872   8.693  -2.998  1.00  0.00    -0.504 OA
ATOM     11  H   UNL     1      -2.415   7.973  -2.533  1.00  0.00     0.293 HD
ENDBRANCH   4  10
BRANCH   5  12
ATOM     12  O   UNL     1      -4.112   9.196  -7.258  1.00  0.00    -0.504 OA
ATOM     13  H   UNL     1      -4.587  10.090  -7.306  1.00  0.00     0.293 HD
ENDBRANCH   5  12
BRANCH   6  14
ATOM     14  O   UNL     1      -4.211   9.022  -4.446  1.00  0.00    -0.502 OA
ATOM     15  H   UNL     1      -4.382   9.709  -3.722  1.00  0.00     0.293 HD
ENDBRANCH   6  14
TORSDOF 4
ENDMDL
MODEL 5
REMARK VINA RESULT:    -3.970      3.989      6.619
REMARK INTER + INTRA:          -4.602
REMARK INTER:                  -4.553
REMARK INTRA:                  -0.049
REMARK UNBOUND:                -0.052
REMARK SMILES O=C([O-])c1cc(O)c(O)c(O)c1
REMARK SMILES IDX 4 1 5 2 12 3 6 4 10 5 8 6 2 7 1 8 3 9 7 10 11 12 9 14
REMARK H PARENT 7 11 11 13 9 15
REMARK Flexibility Score: inf
ROOT
ATOM      1  C   UNL     1      -0.533   8.800  -6.461  1.00  0.00     0.005 A 
ATOM      2  C   UNL     1      -1.724   8.945  -7.192  1.00  0.00     0.060 A 
ATOM      3  C   UNL     1      -0.599   8.715  -5.060  1.00  0.00     0.060 A 
ATOM      4  C   UNL     1      -2.961   9.006  -6.535  1.00  0.00     0.162 A 
ATOM      5  C   UNL     1      -1.833   8.775  -4.398  1.00  0.00     0.162 A 
ATOM      6  C   UNL     1      -3.018   8.921  -5.138  1.00  0.00     0.200 A 
ENDROOT
BRANCH   1   7
ATOM      7  C   UNL     1       0.769   8.737  -7.162  1.00  0.00     0.072 C 
ATOM      8  O   UNL     1       1.640   7.892  -6.820  1.00  0.00    -0.545 OA
ATOM      9  O   UNL     1       1.050   9.607  -8.208  1.00  0.00    -0.545 OA
ENDBRANCH   1   7
BRANCH   4  10
ATOM     10  O   UNL     1      -4.140   9.151  -7.264  1.00  0.00    -0.504 OA
ATOM     11  H   UNL     1      -5.035   8.853  -6.892  1.00  0.00     0.293 HD
ENDBRANCH   4  10
BRANCH   5  12
ATOM     12  O   UNL     1      -1.885   8.690  -3.007  1.00  0.00    -0.504 OA
ATOM     13  H   UNL     1      -1.326   8.019  -2.494  1.00  0.00     0.293 HD
ENDBRANCH   5  12
BRANCH   6  14
ATOM     14  O   UNL     1      -4.258   8.983  -4.502  1.00  0.00    -0.502 OA
ATOM     15  H   UNL     1      -4.407   8.606  -3.574  1.00  0.00     0.293 HD
ENDBRANCH   6  14
TORSDOF 4
ENDMDL
MODEL 6
REMARK VINA RESULT:    -3.962      1.673      3.032
REMARK INTER + INTRA:          -4.592
REMARK INTER:                  -4.541
REMARK INTRA:                  -0.051
REMARK UNBOUND:                -0.052
REMARK SMILES O=C([O-])c1cc(O)c(O)c(O)c1
REMARK SMILES IDX 4 1 5 2 12 3 6 4 10 5 8 6 2 7 1 8 3 9 7 10 11 12 9 14
REMARK H PARENT 7 11 11 13 9 15
REMARK Flexibility Score: inf
ROOT
ATOM      1  C   UNL     1      -6.288   6.363  -6.275  1.00  0.00     0.005 A 
ATOM      2  C   UNL     1      -5.648   7.112  -5.274  1.00  0.00     0.060 A 
ATOM      3  C   UNL     1      -5.573   6.026  -7.438  1.00  0.00     0.060 A 
ATOM      4  C   UNL     1      -4.316   7.519  -5.431  1.00  0.00     0.162 A 
ATOM      5  C   UNL     1      -4.241   6.431  -7.599  1.00  0.00     0.162 A 
ATOM      6  C   UNL     1      -3.610   7.180  -6.592  1.00  0.00     0.200 A 
ENDROOT
BRANCH   1   7
ATOM      7  C   UNL     1      -7.695   5.936  -6.104  1.00  0.00     0.072 C 
ATOM      8  O   UNL     1      -8.470   6.576  -5.342  1.00  0.00    -0.545 OA
ATOM      9  O   UNL     1      -8.183   4.825  -6.780  1.00  0.00    -0.545 OA
ENDBRANCH   1   7
BRANCH   4  10
ATOM     10  O   UNL     1      -3.685   8.262  -4.434  1.00  0.00    -0.504 OA
ATOM     11  H   UNL     1      -2.724   8.082  -4.165  1.00  0.00     0.293 HD
ENDBRANCH   4  10
BRANCH   5  12
ATOM     12  O   UNL     1      -3.542   6.091  -8.757  1.00  0.00    -0.504 OA
ATOM     13  H   UNL     1      -2.860   6.718  -9.169  1.00  0.00     0.293 HD
ENDBRANCH   5  12
BRANCH   6  14
ATOM     14  O   UNL     1      -2.285   7.594  -6.729  1.00  0.00    -0.502 OA
ATOM     15  H   UNL     1      -1.560   6.976  -7.074  1.00  0.00     0.293 HD
ENDBRANCH   6  14
TORSDOF 4
ENDMDL
MODEL 7
REMARK VINA RESULT:    -3.957      1.679      2.263
REMARK INTER + INTRA:          -4.587
REMARK INTER:                  -4.535
REMARK INTRA:                  -0.052
REMARK UNBOUND:                -0.052
REMARK SMILES O=C([O-])c1cc(O)c(O)c(O)c1
REMARK SMILES IDX 4 1 5 2 12 3 6 4 10 5 8 6 2 7 1 8 3 9 7 10 11 12 9 14
REMARK H PARENT 7 11 11 13 9 15
REMARK Flexibility Score: inf
ROOT
ATOM      1  C   UNL     1      -6.286   6.363  -6.291  1.00  0.00     0.005 A 
ATOM      2  C   UNL     1      -5.572   6.027  -7.454  1.00  0.00     0.060 A 
ATOM      3  C   UNL     1      -5.646   7.113  -5.290  1.00  0.00     0.060 A 
ATOM      4  C   UNL     1      -4.239   6.433  -7.613  1.00  0.00     0.162 A 
ATOM      5  C   UNL     1      -4.315   7.522  -5.445  1.00  0.00     0.162 A 
ATOM      6  C   UNL     1      -3.609   7.181  -6.611  1.00  0.00     0.200 A 
ENDROOT
BRANCH   1   7
ATOM      7  C   UNL     1      -7.692   5.930  -6.129  1.00  0.00     0.072 C 
ATOM      8  O   UNL     1      -8.463   6.540  -5.341  1.00  0.00    -0.545 OA
ATOM      9  O   UNL     1      -8.183   4.845  -6.845  1.00  0.00    -0.545 OA
ENDBRANCH   1   7
BRANCH   4  10
ATOM     10  O   UNL     1      -3.534   6.098  -8.768  1.00  0.00    -0.504 OA
ATOM     11  H   UNL     1      -2.736   5.473  -8.740  1.00  0.00     0.293 HD
ENDBRANCH   4  10
BRANCH   5  12
ATOM     12  O   UNL     1      -3.690   8.266  -4.444  1.00  0.00    -0.504 OA
ATOM     13  H   UNL     1      -2.810   8.742  -4.607  1.00  0.00     0.293 HD
ENDBRANCH   5  12
BRANCH   6  14
ATOM     14  O   UNL     1      -2.283   7.576  -6.788  1.00  0.00    -0.502 OA
ATOM     15  H   UNL     1      -1.505   7.016  -6.462  1.00  0.00     0.293 HD
ENDBRANCH   6  14
TORSDOF 4
ENDMDL
MODEL 8
REMARK VINA RESULT:    -3.950      2.489      3.313
REMARK INTER + INTRA:          -4.579
REMARK INTER:                  -4.534
REMARK INTRA:                  -0.045
REMARK UNBOUND:                -0.052
REMARK SMILES O=C([O-])c1cc(O)c(O)c(O)c1
REMARK SMILES IDX 4 1 5 2 12 3 6 4 10 5 8 6 2 7 1 8 3 9 7 10 11 12 9 14
REMARK H PARENT 7 11 11 13 9 15
REMARK Flexibility Score: inf
ROOT
ATOM      1  C   UNL     1      -4.581   8.801  -5.316  1.00  0.00     0.005 A 
ATOM      2  C   UNL     1      -3.950   8.533  -6.542  1.00  0.00     0.060 A 
ATOM      3  C   UNL     1      -3.797   8.919  -4.156  1.00  0.00     0.060 A 
ATOM      4  C   UNL     1      -2.557   8.382  -6.609  1.00  0.00     0.162 A 
ATOM      5  C   UNL     1      -2.404   8.771  -4.217  1.00  0.00     0.162 A 
ATOM      6  C   UNL     1      -1.783   8.501  -5.448  1.00  0.00     0.200 A 
ENDROOT
BRANCH   1   7
ATOM      7  C   UNL     1      -6.051   8.958  -5.253  1.00  0.00     0.072 C 
ATOM      8  O   UNL     1      -6.774   8.036  -4.788  1.00  0.00    -0.545 OA
ATOM      9  O   UNL     1      -6.656  10.124  -5.706  1.00  0.00    -0.545 OA
ENDBRANCH   1   7
BRANCH   4  10
ATOM     10  O   UNL     1      -1.935   8.115  -7.827  1.00  0.00    -0.504 OA
ATOM     11  H   UNL     1      -0.971   7.805  -7.874  1.00  0.00     0.293 HD
ENDBRANCH   4  10
BRANCH   5  12
ATOM     12  O   UNL     1      -1.636   8.889  -3.060  1.00  0.00    -0.504 OA
ATOM     13  H   UNL     1      -1.330   9.792  -2.715  1.00  0.00     0.293 HD
ENDBRANCH   5  12
BRANCH   6  14
ATOM     14  O   UNL     1      -0.398   8.349  -5.535  1.00  0.00    -0.502 OA
ATOM     15  H   UNL     1       0.082   8.282  -6.423  1.00  0.00     0.293 HD
ENDBRANCH   6  14
TORSDOF 4
ENDMDL
MODEL 9
REMARK VINA RESULT:    -3.867      1.921      3.293
REMARK INTER + INTRA:          -4.484
REMARK INTER:                  -4.433
REMARK INTRA:                  -0.051
REMARK UNBOUND:                -0.052
REMARK SMILES O=C([O-])c1cc(O)c(O)c(O)c1
REMARK SMILES IDX 4 1 5 2 12 3 6 4 10 5 8 6 2 7 1 8 3 9 7 10 11 12 9 14
REMARK H PARENT 7 11 11 13 9 15
REMARK Flexibility Score: inf
ROOT
ATOM      1  C   UNL     1      -5.043   7.162  -5.913  1.00  0.00     0.005 A 
ATOM      2  C   UNL     1      -5.387   8.171  -4.999  1.00  0.00     0.060 A 
ATOM      3  C   UNL     1      -3.710   7.060  -6.349  1.00  0.00     0.060 A 
ATOM      4  C   UNL     1      -4.416   9.067  -4.528  1.00  0.00     0.162 A 
ATOM      5  C   UNL     1      -2.736   7.953  -5.880  1.00  0.00     0.162 A 
ATOM      6  C   UNL     1      -3.091   8.960  -4.966  1.00  0.00     0.200 A 
ENDROOT
BRANCH   1   7
ATOM      7  C   UNL     1      -6.072   6.220  -6.407  1.00  0.00     0.072 C 
ATOM      8  O   UNL     1      -5.920   5.625  -7.508  1.00  0.00    -0.545 OA
ATOM      9  O   UNL     1      -7.221   5.978  -5.664  1.00  0.00    -0.545 OA
ENDBRANCH   1   7
BRANCH   4  10
ATOM     10  O   UNL     1      -4.763  10.067  -3.621  1.00  0.00    -0.504 OA
ATOM     11  H   UNL     1      -4.277  10.957  -3.601  1.00  0.00     0.293 HD
ENDBRANCH   4  10
BRANCH   5  12
ATOM     12  O   UNL     1      -1.417   7.843  -6.319  1.00  0.00    -0.504 OA
ATOM     13  H   UNL     1      -0.639   8.147  -5.745  1.00  0.00     0.293 HD
ENDBRANCH   5  12
BRANCH   6  14
ATOM     14  O   UNL     1      -2.139   9.860  -4.485  1.00  0.00    -0.502 OA
ATOM     15  H   UNL     1      -2.131  10.171  -3.522  1.00  0.00     0.293 HD
ENDBRANCH   6  14
TORSDOF 4
ENDMDL
