MODEL 1
REMARK VINA RESULT:    -3.120      0.000      0.000
REMARK INTER + INTRA:          -3.624
REMARK INTER:                  -3.576
REMARK INTRA:                  -0.049
REMARK UNBOUND:                -0.049
REMARK SMILES O=C([O-])c1cc(O)c(O)c(O)c1
REMARK SMILES IDX 4 1 5 2 12 3 6 4 10 5 8 6 2 7 1 8 3 9 7 10 11 12 9 14
REMARK H PARENT 7 11 11 13 9 15
REMARK Flexibility Score: inf
ROOT
ATOM      1  C   UNL     1     -99.144  23.546 -29.468  1.00  0.00     0.005 A 
ATOM      2  C   UNL     1     -98.061  24.347 -29.866  1.00  0.00     0.060 A 
ATOM      3  C   UNL     1     -98.897  22.409 -28.680  1.00  0.00     0.060 A 
ATOM      4  C   UNL     1     -96.755  24.023 -29.486  1.00  0.00     0.162 A 
ATOM      5  C   UNL     1     -97.591  22.078 -28.295  1.00  0.00     0.162 A 
ATOM      6  C   UNL     1     -96.514  22.885 -28.698  1.00  0.00     0.200 A 
ENDROOT
BRANCH   1   7
ATOM      7  C   UNL     1    -100.523  23.897 -29.876  1.00  0.00     0.072 C 
ATOM      8  O   UNL     1    -100.771  24.252 -31.059  1.00  0.00    -0.545 OA
ATOM      9  O   UNL     1    -101.565  23.840 -28.957  1.00  0.00    -0.545 OA
ENDBRANCH   1   7
BRANCH   4  10
ATOM     10  O   UNL     1     -95.707  24.846 -29.902  1.00  0.00    -0.504 OA
ATOM     11  H   UNL     1     -95.285  25.531 -29.288  1.00  0.00     0.293 HD
ENDBRANCH   4  10
BRANCH   5  12
ATOM     12  O   UNL     1     -97.359  20.947 -27.512  1.00  0.00    -0.504 OA
ATOM     13  H   UNL     1     -97.117  21.020 -26.531  1.00  0.00     0.293 HD
ENDBRANCH   5  12
BRANCH   6  14
ATOM     14  O   UNL     1     -95.207  22.570 -28.322  1.00  0.00    -0.502 OA
ATOM     15  H   UNL     1     -94.547  23.277 -28.023  1.00  0.00     0.293 HD
ENDBRANCH   6  14
TORSDOF 4
ENDMDL
MODEL 2
REMARK VINA RESULT:    -3.106      0.059      2.602
REMARK INTER + INTRA:          -3.608
REMARK INTER:                  -3.559
REMARK INTRA:                  -0.049
REMARK UNBOUND:                -0.049
REMARK SMILES O=C([O-])c1cc(O)c(O)c(O)c1
REMARK SMILES IDX 4 1 5 2 12 3 6 4 10 5 8 6 2 7 1 8 3 9 7 10 11 12 9 14
REMARK H PARENT 7 11 11 13 9 15
REMARK Flexibility Score: inf
ROOT
ATOM      1  C   UNL     1     -99.171  23.556 -29.451  1.00  0.00     0.005 A 
ATOM      2  C   UNL     1     -98.899  22.428 -28.659  1.00  0.00     0.060 A 
ATOM      3  C   UNL     1     -98.102  24.367 -29.870  1.00  0.00     0.060 A 
ATOM      4  C   UNL     1     -97.588  22.112 -28.290  1.00  0.00     0.162 A 
ATOM      5  C   UNL     1     -96.785  24.058 -29.505  1.00  0.00     0.162 A 
ATOM      6  C   UNL     1     -96.524  22.927 -28.712  1.00  0.00     0.200 A 
ENDROOT
BRANCH   1   7
ATOM      7  C   UNL     1    -100.562  23.882 -29.836  1.00  0.00     0.072 C 
ATOM      8  O   UNL     1    -101.498  23.787 -28.998  1.00  0.00    -0.545 OA
ATOM      9  O   UNL     1    -100.856  24.298 -31.130  1.00  0.00    -0.545 OA
ENDBRANCH   1   7
BRANCH   4  10
ATOM     10  O   UNL     1     -97.361  20.983 -27.503  1.00  0.00    -0.504 OA
ATOM     11  H   UNL     1     -97.949  20.752 -26.711  1.00  0.00     0.293 HD
ENDBRANCH   4  10
BRANCH   5  12
ATOM     12  O   UNL     1     -95.734  24.871 -29.927  1.00  0.00    -0.504 OA
ATOM     13  H   UNL     1     -95.736  25.312 -30.839  1.00  0.00     0.293 HD
ENDBRANCH   5  12
BRANCH   6  14
ATOM     14  O   UNL     1     -95.218  22.604 -28.341  1.00  0.00    -0.502 OA
ATOM     15  H   UNL     1     -94.942  21.658 -28.109  1.00  0.00     0.293 HD
ENDBRANCH   6  14
TORSDOF 4
ENDMDL
MODEL 3
REMARK VINA RESULT:    -3.070      1.677      3.215
REMARK INTER + INTRA:          -3.567
REMARK INTER:                  -3.516
REMARK INTRA:                  -0.051
REMARK UNBOUND:                -0.049
REMARK SMILES O=C([O-])c1cc(O)c(O)c(O)c1
REMARK SMILES IDX 4 1 5 2 12 3 6 4 10 5 8 6 2 7 1 8 3 9 7 10 11 12 9 14
REMARK H PARENT 7 11 11 13 9 15
REMARK Flexibility Score: inf
ROOT
ATOM      1  C   UNL     1     -96.977  24.967 -29.964  1.00  0.00     0.005 A 
ATOM      2  C   UNL     1     -95.823  24.225 -29.663  1.00  0.00     0.060 A 
ATOM      3  C   UNL     1     -98.213  24.543 -29.447  1.00  0.00     0.060 A 
ATOM      4  C   UNL     1     -95.897  23.081 -28.862  1.00  0.00     0.162 A 
ATOM      5  C   UNL     1     -98.296  23.399 -28.642  1.00  0.00     0.162 A 
ATOM      6  C   UNL     1     -97.136  22.663 -28.347  1.00  0.00     0.200 A 
ENDROOT
BRANCH   1   7
ATOM      7  C   UNL     1     -96.888  26.175 -30.814  1.00  0.00     0.072 C 
ATOM      8  O   UNL     1     -95.818  26.836 -30.878  1.00  0.00    -0.545 OA
ATOM      9  O   UNL     1     -97.987  26.599 -31.554  1.00  0.00    -0.545 OA
ENDBRANCH   1   7
BRANCH   4  10
ATOM     10  O   UNL     1     -94.727  22.372 -28.587  1.00  0.00    -0.504 OA
ATOM     11  H   UNL     1     -93.808  22.775 -28.726  1.00  0.00     0.293 HD
ENDBRANCH   4  10
BRANCH   5  12
ATOM     12  O   UNL     1     -99.529  22.989 -28.135  1.00  0.00    -0.504 OA
ATOM     13  H   UNL     1    -100.012  23.520 -27.420  1.00  0.00     0.293 HD
ENDBRANCH   5  12
BRANCH   6  14
ATOM     14  O   UNL     1     -97.200  21.521 -27.547  1.00  0.00    -0.502 OA
ATOM     15  H   UNL     1     -97.992  20.890 -27.570  1.00  0.00     0.293 HD
ENDBRANCH   6  14
TORSDOF 4
ENDMDL
MODEL 4
REMARK VINA RESULT:    -3.054      1.664      3.448
REMARK INTER + INTRA:          -3.549
REMARK INTER:                  -3.498
REMARK INTRA:                  -0.051
REMARK UNBOUND:                -0.049
REMARK SMILES O=C([O-])c1cc(O)c(O)c(O)c1
REMARK SMILES IDX 4 1 5 2 12 3 6 4 10 5 8 6 2 7 1 8 3 9 7 10 11 12 9 14
REMARK H PARENT 7 11 11 13 9 15
REMARK Flexibility Score: inf
ROOT
ATOM      1  C   UNL     1     -97.014  24.996 -29.909  1.00  0.00     0.005 A 
ATOM      2  C   UNL     1     -98.247  24.550 -29.406  1.00  0.00     0.060 A 
ATOM      3  C   UNL     1     -95.852  24.262 -29.613  1.00  0.00     0.060 A 
ATOM      4  C   UNL     1     -98.324  23.395 -28.622  1.00  0.00     0.162 A 
ATOM      5  C   UNL     1     -95.921  23.103 -28.828  1.00  0.00     0.162 A 
ATOM      6  C   UNL     1     -97.159  22.665 -28.329  1.00  0.00     0.200 A 
ENDROOT
BRANCH   1   7
ATOM      7  C   UNL     1     -96.942  26.220 -30.738  1.00  0.00     0.072 C 
ATOM      8  O   UNL     1     -95.880  26.895 -30.795  1.00  0.00    -0.545 OA
ATOM      9  O   UNL     1     -98.050  26.643 -31.465  1.00  0.00    -0.545 OA
ENDBRANCH   1   7
BRANCH   4  10
ATOM     10  O   UNL     1     -99.569  22.986 -28.142  1.00  0.00    -0.504 OA
ATOM     11  H   UNL     1     -99.683  22.147 -27.586  1.00  0.00     0.293 HD
ENDBRANCH   4  10
BRANCH   5  12
ATOM     12  O   UNL     1     -94.761  22.384 -28.542  1.00  0.00    -0.504 OA
ATOM     13  H   UNL     1     -94.791  21.400 -28.299  1.00  0.00     0.293 HD
ENDBRANCH   5  12
BRANCH   6  14
ATOM     14  O   UNL     1     -97.245  21.513 -27.547  1.00  0.00    -0.502 OA
ATOM     15  H   UNL     1     -96.944  20.607 -27.886  1.00  0.00     0.293 HD
ENDBRANCH   6  14
TORSDOF 4
ENDMDL
MODEL 5
REMARK VINA RESULT:    -3.003      2.055      3.951
REMARK INTER + INTRA:          -3.490
REMARK INTER:                  -3.441
REMARK INTRA:                  -0.049
REMARK UNBOUND:                -0.049
REMARK SMILES O=C([O-])c1cc(O)c(O)c(O)c1
REMARK SMILES IDX 4 1 5 2 12 3 6 4 10 5 8 6 2 7 1 8 3 9 7 10 11 12 9 14
REMARK H PARENT 7 11 11 13 9 15
REMARK Flexibility Score: inf
ROOT
ATOM      1  C   UNL     1     -95.910  25.188 -29.858  1.00  0.00     0.005 A 
ATOM      2  C   UNL     1     -94.993  24.152 -29.612  1.00  0.00     0.060 A 
ATOM      3  C   UNL     1     -97.211  25.082 -29.339  1.00  0.00     0.060 A 
ATOM      4  C   UNL     1     -95.365  23.030 -28.864  1.00  0.00     0.162 A 
ATOM      5  C   UNL     1     -97.592  23.962 -28.588  1.00  0.00     0.162 A 
ATOM      6  C   UNL     1     -96.668  22.931 -28.348  1.00  0.00     0.200 A 
ENDROOT
BRANCH   1   7
ATOM      7  C   UNL     1     -95.506  26.370 -30.651  1.00  0.00     0.072 C 
ATOM      8  O   UNL     1     -94.779  26.240 -31.671  1.00  0.00    -0.545 OA
ATOM      9  O   UNL     1     -95.925  27.644 -30.279  1.00  0.00    -0.545 OA
ENDBRANCH   1   7
BRANCH   4  10
ATOM     10  O   UNL     1     -94.424  22.024 -28.643  1.00  0.00    -0.504 OA
ATOM     11  H   UNL     1     -93.867  21.984 -27.799  1.00  0.00     0.293 HD
ENDBRANCH   4  10
BRANCH   5  12
ATOM     12  O   UNL     1     -98.887  23.869 -28.079  1.00  0.00    -0.504 OA
ATOM     13  H   UNL     1     -99.075  23.945 -27.086  1.00  0.00     0.293 HD
ENDBRANCH   5  12
BRANCH   6  14
ATOM     14  O   UNL     1     -97.031  21.809 -27.602  1.00  0.00    -0.502 OA
ATOM     15  H   UNL     1     -96.392  21.041 -27.437  1.00  0.00     0.293 HD
ENDBRANCH   6  14
TORSDOF 4
ENDMDL
MODEL 6
REMARK VINA RESULT:    -2.889      1.828      3.102
REMARK INTER + INTRA:          -3.360
REMARK INTER:                  -3.307
REMARK INTRA:                  -0.053
REMARK UNBOUND:                -0.049
REMARK SMILES O=C([O-])c1cc(O)c(O)c(O)c1
REMARK SMILES IDX 4 1 5 2 12 3 6 4 10 5 8 6 2 7 1 8 3 9 7 10 11 12 9 14
REMARK H PARENT 7 11 11 13 9 15
REMARK Flexibility Score: inf
ROOT
ATOM      1  C   UNL     1     -97.643  25.007 -29.012  1.00  0.00     0.005 A 
ATOM      2  C   UNL     1     -97.872  23.794 -28.343  1.00  0.00     0.060 A 
ATOM      3  C   UNL     1     -96.380  25.244 -29.580  1.00  0.00     0.060 A 
ATOM      4  C   UNL     1     -96.861  22.832 -28.241  1.00  0.00     0.162 A 
ATOM      5  C   UNL     1     -95.362  24.286 -29.483  1.00  0.00     0.162 A 
ATOM      6  C   UNL     1     -95.600  23.075 -28.811  1.00  0.00     0.200 A 
ENDROOT
BRANCH   1   7
ATOM      7  C   UNL     1     -98.719  26.019 -29.114  1.00  0.00     0.072 C 
ATOM      8  O   UNL     1     -98.571  27.042 -29.835  1.00  0.00    -0.545 OA
ATOM      9  O   UNL     1     -99.910  25.854 -28.415  1.00  0.00    -0.545 OA
ENDBRANCH   1   7
BRANCH   4  10
ATOM     10  O   UNL     1     -97.130  21.639 -27.568  1.00  0.00    -0.504 OA
ATOM     11  H   UNL     1     -96.486  20.858 -27.581  1.00  0.00     0.293 HD
ENDBRANCH   4  10
BRANCH   5  12
ATOM     12  O   UNL     1     -94.112  24.534 -30.051  1.00  0.00    -0.504 OA
ATOM     13  H   UNL     1     -93.934  24.371 -31.035  1.00  0.00     0.293 HD
ENDBRANCH   5  12
BRANCH   6  14
ATOM     14  O   UNL     1     -94.598  22.109 -28.706  1.00  0.00    -0.502 OA
ATOM     15  H   UNL     1     -93.788  22.105 -29.313  1.00  0.00     0.293 HD
ENDBRANCH   6  14
TORSDOF 4
ENDMDL
MODEL 7
REMARK VINA RESULT:    -2.870      9.535     11.125
REMARK INTER + INTRA:          -3.338
REMARK INTER:                  -3.291
REMARK INTRA:                  -0.048
REMARK UNBOUND:                -0.049
REMARK SMILES O=C([O-])c1cc(O)c(O)c(O)c1
REMARK SMILES IDX 4 1 5 2 12 3 6 4 10 5 8 6 2 7 1 8 3 9 7 10 11 12 9 14
REMARK H PARENT 7 11 11 13 9 15
REMARK Flexibility Score: inf
ROOT
ATOM      1  C   UNL     1     -95.382  25.262 -38.917  1.00  0.00     0.005 A 
ATOM      2  C   UNL     1     -94.912  26.448 -39.506  1.00  0.00     0.060 A 
ATOM      3  C   UNL     1     -96.700  25.218 -38.433  1.00  0.00     0.060 A 
ATOM      4  C   UNL     1     -95.740  27.571 -39.611  1.00  0.00     0.162 A 
ATOM      5  C   UNL     1     -97.537  26.338 -38.536  1.00  0.00     0.162 A 
ATOM      6  C   UNL     1     -97.058  27.520 -39.126  1.00  0.00     0.200 A 
ENDROOT
BRANCH   1   7
ATOM      7  C   UNL     1     -94.498  24.080 -38.810  1.00  0.00     0.072 C 
ATOM      8  O   UNL     1     -93.875  23.652 -39.818  1.00  0.00    -0.545 OA
ATOM      9  O   UNL     1     -94.343  23.424 -37.593  1.00  0.00    -0.545 OA
ENDBRANCH   1   7
BRANCH   4  10
ATOM     10  O   UNL     1     -95.235  28.729 -40.203  1.00  0.00    -0.504 OA
ATOM     11  H   UNL     1     -94.701  28.705 -41.063  1.00  0.00     0.293 HD
ENDBRANCH   4  10
BRANCH   5  12
ATOM     12  O   UNL     1     -98.843  26.280 -38.051  1.00  0.00    -0.504 OA
ATOM     13  H   UNL     1     -99.139  25.560 -37.403  1.00  0.00     0.293 HD
ENDBRANCH   5  12
BRANCH   6  14
ATOM     14  O   UNL     1     -97.878  28.644 -39.236  1.00  0.00    -0.502 OA
ATOM     15  H   UNL     1     -98.314  28.909 -40.110  1.00  0.00     0.293 HD
ENDBRANCH   6  14
TORSDOF 4
ENDMDL
MODEL 8
REMARK VINA RESULT:    -2.832      9.711     10.472
REMARK INTER + INTRA:          -3.295
REMARK INTER:                  -3.242
REMARK INTRA:                  -0.053
REMARK UNBOUND:                -0.049
REMARK SMILES O=C([O-])c1cc(O)c(O)c(O)c1
REMARK SMILES IDX 4 1 5 2 12 3 6 4 10 5 8 6 2 7 1 8 3 9 7 10 11 12 9 14
REMARK H PARENT 7 11 11 13 9 15
REMARK Flexibility Score: inf
ROOT
ATOM      1  C   UNL     1     -98.209  26.966 -38.524  1.00  0.00     0.005 A 
ATOM      2  C   UNL     1     -97.744  28.244 -38.879  1.00  0.00     0.060 A 
ATOM      3  C   UNL     1     -97.293  25.902 -38.460  1.00  0.00     0.060 A 
ATOM      4  C   UNL     1     -96.393  28.459 -39.167  1.00  0.00     0.162 A 
ATOM      5  C   UNL     1     -95.937  26.109 -38.747  1.00  0.00     0.162 A 
ATOM      6  C   UNL     1     -95.482  27.390 -39.102  1.00  0.00     0.200 A 
ENDROOT
BRANCH   1   7
ATOM      7  C   UNL     1     -99.641  26.749 -38.221  1.00  0.00     0.072 C 
ATOM      8  O   UNL     1    -100.095  25.583 -38.072  1.00  0.00    -0.545 OA
ATOM      9  O   UNL     1    -100.507  27.830 -38.099  1.00  0.00    -0.545 OA
ENDBRANCH   1   7
BRANCH   4  10
ATOM     10  O   UNL     1     -95.972  29.743 -39.515  1.00  0.00    -0.504 OA
ATOM     11  H   UNL     1     -95.593  30.388 -38.834  1.00  0.00     0.293 HD
ENDBRANCH   4  10
BRANCH   5  12
ATOM     12  O   UNL     1     -95.038  25.044 -38.681  1.00  0.00    -0.504 OA
ATOM     13  H   UNL     1     -94.287  24.940 -39.352  1.00  0.00     0.293 HD
ENDBRANCH   5  12
BRANCH   6  14
ATOM     14  O   UNL     1     -94.135  27.614 -39.389  1.00  0.00    -0.502 OA
ATOM     15  H   UNL     1     -93.470  26.856 -39.483  1.00  0.00     0.293 HD
ENDBRANCH   6  14
TORSDOF 4
ENDMDL
