MODEL 1
REMARK VINA RESULT:    -3.041      0.000      0.000
REMARK INTER + INTRA:          -5.512
REMARK INTER:                  -4.108
REMARK INTRA:                  -1.404
REMARK UNBOUND:                -1.404
REMARK SMILES CC(=O)CCC=C(C)CCC=C(C)C
REMARK SMILES IDX 7 1 6 2 8 3 9 4 10 5 11 6 13 7 12 8 14 9 5 10 4 11 2 12 3 13
REMARK SMILES IDX 1 14
REMARK H PARENT
REMARK Flexibility Score: inf
ROOT
ATOM      1  C   UNL     1      22.474  44.293  92.784  1.00  0.00    -0.077 C 
ATOM      2  C   UNL     1      22.248  44.044  91.474  1.00  0.00    -0.028 C 
ATOM      3  C   UNL     1      22.634  45.726  93.221  1.00  0.00     0.039 C 
ENDROOT
BRANCH   1   4
ATOM      4  C   UNL     1      22.495  43.207  93.841  1.00  0.00     0.034 C 
BRANCH   4   5
ATOM      5  C   UNL     1      21.362  43.416  94.850  1.00  0.00     0.032 C 
BRANCH   5   6
ATOM      6  C   UNL     1      20.141  42.624  94.454  1.00  0.00    -0.028 C 
ATOM      7  C   UNL     1      20.713  40.692  95.943  1.00  0.00     0.039 C 
ATOM      8  C   UNL     1      19.855  41.384  94.914  1.00  0.00    -0.080 C 
ATOM      9  C   UNL     1      18.619  40.671  94.427  1.00  0.00     0.039 C 
ENDBRANCH   5   6
ENDBRANCH   4   5
ENDBRANCH   1   4
BRANCH   2  10
ATOM     10  C   UNL     1      22.075  42.668  90.874  1.00  0.00     0.035 C 
BRANCH  10  11
ATOM     11  C   UNL     1      20.595  42.290  90.719  1.00  0.00     0.079 C 
BRANCH  11  12
ATOM     12  C   UNL     1      20.351  40.842  91.061  1.00  0.00     0.130 C 
ATOM     13  O   UNL     1      19.312  40.305  90.706  1.00  0.00    -0.300 OA
ATOM     14  C   UNL     1      21.366  40.036  91.816  1.00  0.00     0.087 C 
ENDBRANCH  11  12
ENDBRANCH  10  11
ENDBRANCH   2  10
TORSDOF 6
ENDMDL
MODEL 2
REMARK VINA RESULT:    -2.989      2.491      4.932
REMARK INTER + INTRA:          -5.442
REMARK INTER:                  -4.353
REMARK INTRA:                  -1.089
REMARK UNBOUND:                -1.404
REMARK SMILES CC(=O)CCC=C(C)CCC=C(C)C
REMARK SMILES IDX 7 1 6 2 8 3 9 4 10 5 11 6 13 7 12 8 14 9 5 10 4 11 2 12 3 13
REMARK SMILES IDX 1 14
REMARK H PARENT
REMARK Flexibility Score: inf
ROOT
ATOM      1  C   UNL     1      21.591  42.434  89.797  1.00  0.00    -0.077 C 
ATOM      2  C   UNL     1      20.927  42.375  90.974  1.00  0.00    -0.028 C 
ATOM      3  C   UNL     1      21.296  43.584  88.868  1.00  0.00     0.039 C 
ENDROOT
BRANCH   1   4
ATOM      4  C   UNL     1      22.671  41.446  89.405  1.00  0.00     0.034 C 
BRANCH   4   5
ATOM      5  C   UNL     1      22.243  40.641  88.174  1.00  0.00     0.032 C 
BRANCH   5   6
ATOM      6  C   UNL     1      20.922  39.956  88.416  1.00  0.00    -0.028 C 
ATOM      7  C   UNL     1      21.960  38.025  89.628  1.00  0.00     0.039 C 
ATOM      8  C   UNL     1      20.784  38.763  89.040  1.00  0.00    -0.080 C 
ATOM      9  C   UNL     1      19.414  38.156  89.202  1.00  0.00     0.039 C 
ENDBRANCH   5   6
ENDBRANCH   4   5
ENDBRANCH   1   4
BRANCH   2  10
ATOM     10  C   UNL     1      21.100  41.288  92.009  1.00  0.00     0.035 C 
BRANCH  10  11
ATOM     11  C   UNL     1      19.763  40.637  92.389  1.00  0.00     0.079 C 
BRANCH  11  12
ATOM     12  C   UNL     1      19.308  41.061  93.764  1.00  0.00     0.130 C 
ATOM     13  O   UNL     1      19.851  42.007  94.313  1.00  0.00    -0.300 OA
ATOM     14  C   UNL     1      18.187  40.353  94.467  1.00  0.00     0.087 C 
ENDBRANCH  11  12
ENDBRANCH  10  11
ENDBRANCH   2  10
TORSDOF 6
ENDMDL
MODEL 3
REMARK VINA RESULT:    -2.971      2.244      4.424
REMARK INTER + INTRA:          -5.417
REMARK INTER:                  -3.749
REMARK INTRA:                  -1.668
REMARK UNBOUND:                -1.404
REMARK SMILES CC(=O)CCC=C(C)CCC=C(C)C
REMARK SMILES IDX 7 1 6 2 8 3 9 4 10 5 11 6 13 7 12 8 14 9 5 10 4 11 2 12 3 13
REMARK SMILES IDX 1 14
REMARK H PARENT
REMARK Flexibility Score: inf
ROOT
ATOM      1  C   UNL     1      20.817  41.639  92.867  1.00  0.00    -0.077 C 
ATOM      2  C   UNL     1      19.759  40.870  92.520  1.00  0.00    -0.028 C 
ATOM      3  C   UNL     1      20.549  42.976  93.509  1.00  0.00     0.039 C 
ENDROOT
BRANCH   1   4
ATOM      4  C   UNL     1      22.255  41.186  92.711  1.00  0.00     0.034 C 
BRANCH   4   5
ATOM      5  C   UNL     1      22.955  41.985  91.608  1.00  0.00     0.032 C 
BRANCH   5   6
ATOM      6  C   UNL     1      22.704  41.364  90.257  1.00  0.00    -0.028 C 
ATOM      7  C   UNL     1      21.284  43.269  89.465  1.00  0.00     0.039 C 
ATOM      8  C   UNL     1      21.927  41.916  89.296  1.00  0.00    -0.080 C 
ATOM      9  C   UNL     1      21.722  41.191  87.991  1.00  0.00     0.039 C 
ENDBRANCH   5   6
ENDBRANCH   4   5
ENDBRANCH   1   4
BRANCH   2  10
ATOM     10  C   UNL     1      19.856  39.514  91.862  1.00  0.00     0.035 C 
BRANCH  10  11
ATOM     11  C   UNL     1      19.357  39.542  90.410  1.00  0.00     0.079 C 
BRANCH  11  12
ATOM     12  C   UNL     1      19.870  38.363  89.621  1.00  0.00     0.130 C 
ATOM     13  O   UNL     1      19.125  37.792  88.838  1.00  0.00    -0.300 OA
ATOM     14  C   UNL     1      21.284  37.884  89.765  1.00  0.00     0.087 C 
ENDBRANCH  11  12
ENDBRANCH  10  11
ENDBRANCH   2  10
TORSDOF 6
ENDMDL
MODEL 4
REMARK VINA RESULT:    -2.936      1.933      4.154
REMARK INTER + INTRA:          -5.370
REMARK INTER:                  -4.086
REMARK INTRA:                  -1.284
REMARK UNBOUND:                -1.404
REMARK SMILES CC(=O)CCC=C(C)CCC=C(C)C
REMARK SMILES IDX 7 1 6 2 8 3 9 4 10 5 11 6 13 7 12 8 14 9 5 10 4 11 2 12 3 13
REMARK SMILES IDX 1 14
REMARK H PARENT
REMARK Flexibility Score: inf
ROOT
ATOM      1  C   UNL     1      20.611  42.589  94.693  1.00  0.00    -0.077 C 
ATOM      2  C   UNL     1      20.420  41.358  95.220  1.00  0.00    -0.028 C 
ATOM      3  C   UNL     1      21.420  43.586  95.482  1.00  0.00     0.039 C 
ENDROOT
BRANCH   1   4
ATOM      4  C   UNL     1      20.119  42.985  93.315  1.00  0.00     0.034 C 
BRANCH   4   5
ATOM      5  C   UNL     1      21.185  42.685  92.256  1.00  0.00     0.032 C 
BRANCH   5   6
ATOM      6  C   UNL     1      20.610  41.848  91.141  1.00  0.00    -0.028 C 
ATOM      7  C   UNL     1      21.961  39.827  91.744  1.00  0.00     0.039 C 
ATOM      8  C   UNL     1      20.975  40.572  90.879  1.00  0.00    -0.080 C 
ATOM      9  C   UNL     1      20.355  39.838  89.718  1.00  0.00     0.039 C 
ENDBRANCH   5   6
ENDBRANCH   4   5
ENDBRANCH   1   4
BRANCH   2  10
ATOM     10  C   UNL     1      19.629  40.251  94.563  1.00  0.00     0.035 C 
BRANCH  10  11
ATOM     11  C   UNL     1      18.130  40.348  94.879  1.00  0.00     0.079 C 
BRANCH  11  12
ATOM     12  C   UNL     1      17.294  39.647  93.838  1.00  0.00     0.130 C 
ATOM     13  O   UNL     1      16.119  39.407  94.071  1.00  0.00    -0.300 OA
ATOM     14  C   UNL     1      17.871  39.251  92.511  1.00  0.00     0.087 C 
ENDBRANCH  11  12
ENDBRANCH  10  11
ENDBRANCH   2  10
TORSDOF 6
ENDMDL
MODEL 5
REMARK VINA RESULT:    -2.918      2.278      4.614
REMARK INTER + INTRA:          -5.346
REMARK INTER:                  -4.006
REMARK INTRA:                  -1.340
REMARK UNBOUND:                -1.404
REMARK SMILES CC(=O)CCC=C(C)CCC=C(C)C
REMARK SMILES IDX 7 1 6 2 8 3 9 4 10 5 11 6 13 7 12 8 14 9 5 10 4 11 2 12 3 13
REMARK SMILES IDX 1 14
REMARK H PARENT
REMARK Flexibility Score: inf
ROOT
ATOM      1  C   UNL     1      21.058  39.949  88.600  1.00  0.00    -0.077 C 
ATOM      2  C   UNL     1      20.144  38.979  88.833  1.00  0.00    -0.028 C 
ATOM      3  C   UNL     1      21.255  40.419  87.182  1.00  0.00     0.039 C 
ENDROOT
BRANCH   1   4
ATOM      4  C   UNL     1      21.835  40.637  89.705  1.00  0.00     0.034 C 
BRANCH   4   5
ATOM      5  C   UNL     1      21.454  42.118  89.789  1.00  0.00     0.032 C 
BRANCH   5   6
ATOM      6  C   UNL     1      20.590  42.380  90.997  1.00  0.00    -0.028 C 
ATOM      7  C   UNL     1      22.543  42.847  92.494  1.00  0.00     0.039 C 
ATOM      8  C   UNL     1      21.068  42.677  92.227  1.00  0.00    -0.080 C 
ATOM      9  C   UNL     1      20.111  42.892  93.372  1.00  0.00     0.039 C 
ENDBRANCH   5   6
ENDBRANCH   4   5
ENDBRANCH   1   4
BRANCH   2  10
ATOM     10  C   UNL     1      19.834  38.393  90.190  1.00  0.00     0.035 C 
BRANCH  10  11
ATOM     11  C   UNL     1      18.672  39.123  90.880  1.00  0.00     0.079 C 
BRANCH  11  12
ATOM     12  C   UNL     1      18.959  39.372  92.340  1.00  0.00     0.130 C 
ATOM     13  O   UNL     1      18.064  39.770  93.071  1.00  0.00    -0.300 OA
ATOM     14  C   UNL     1      20.320  39.125  92.922  1.00  0.00     0.087 C 
ENDBRANCH  11  12
ENDBRANCH  10  11
ENDBRANCH   2  10
TORSDOF 6
ENDMDL
MODEL 6
REMARK VINA RESULT:    -2.913      2.499      4.858
REMARK INTER + INTRA:          -5.338
REMARK INTER:                  -4.442
REMARK INTRA:                  -0.896
REMARK UNBOUND:                -1.404
REMARK SMILES CC(=O)CCC=C(C)CCC=C(C)C
REMARK SMILES IDX 7 1 6 2 8 3 9 4 10 5 11 6 13 7 12 8 14 9 5 10 4 11 2 12 3 13
REMARK SMILES IDX 1 14
REMARK H PARENT
REMARK Flexibility Score: inf
ROOT
ATOM      1  C   UNL     1      21.474  43.077  90.442  1.00  0.00    -0.077 C 
ATOM      2  C   UNL     1      22.501  43.655  91.106  1.00  0.00    -0.028 C 
ATOM      3  C   UNL     1      21.324  43.364  88.970  1.00  0.00     0.039 C 
ENDROOT
BRANCH   1   4
ATOM      4  C   UNL     1      20.516  42.097  91.090  1.00  0.00     0.034 C 
BRANCH   4   5
ATOM      5  C   UNL     1      21.171  40.719  91.231  1.00  0.00     0.032 C 
BRANCH   5   6
ATOM      6  C   UNL     1      20.284  39.644  90.654  1.00  0.00    -0.028 C 
ATOM      7  C   UNL     1      21.456  39.641  88.440  1.00  0.00     0.039 C 
ATOM      8  C   UNL     1      20.381  39.174  89.389  1.00  0.00    -0.080 C 
ATOM      9  C   UNL     1      19.421  38.116  88.908  1.00  0.00     0.039 C 
ENDBRANCH   5   6
ENDBRANCH   4   5
ENDBRANCH   1   4
BRANCH   2  10
ATOM     10  C   UNL     1      22.784  43.478  92.579  1.00  0.00     0.035 C 
BRANCH  10  11
ATOM     11  C   UNL     1      22.043  44.514  93.437  1.00  0.00     0.079 C 
BRANCH  11  12
ATOM     12  C   UNL     1      21.542  43.914  94.727  1.00  0.00     0.130 C 
ATOM     13  O   UNL     1      21.976  44.328  95.792  1.00  0.00    -0.300 OA
ATOM     14  C   UNL     1      20.508  42.828  94.733  1.00  0.00     0.087 C 
ENDBRANCH  11  12
ENDBRANCH  10  11
ENDBRANCH   2  10
TORSDOF 6
ENDMDL
MODEL 7
REMARK VINA RESULT:    -2.896      3.733      6.298
REMARK INTER + INTRA:          -5.316
REMARK INTER:                  -4.353
REMARK INTRA:                  -0.962
REMARK UNBOUND:                -1.404
REMARK SMILES CC(=O)CCC=C(C)CCC=C(C)C
REMARK SMILES IDX 7 1 6 2 8 3 9 4 10 5 11 6 13 7 12 8 14 9 5 10 4 11 2 12 3 13
REMARK SMILES IDX 1 14
REMARK H PARENT
REMARK Flexibility Score: inf
ROOT
ATOM      1  C   UNL     1      17.258  36.979  89.611  1.00  0.00    -0.077 C 
ATOM      2  C   UNL     1      18.391  37.116  88.884  1.00  0.00    -0.028 C 
ATOM      3  C   UNL     1      15.996  36.568  88.897  1.00  0.00     0.039 C 
ENDROOT
BRANCH   1   4
ATOM      4  C   UNL     1      17.217  37.142  91.117  1.00  0.00     0.034 C 
BRANCH   4   5
ATOM      5  C   UNL     1      16.650  38.514  91.495  1.00  0.00     0.032 C 
BRANCH   5   6
ATOM      6  C   UNL     1      17.512  39.180  92.538  1.00  0.00    -0.028 C 
ATOM      7  C   UNL     1      15.697  39.190  94.264  1.00  0.00     0.039 C 
ATOM      8  C   UNL     1      17.086  39.520  93.776  1.00  0.00    -0.080 C 
ATOM      9  C   UNL     1      18.027  40.210  94.730  1.00  0.00     0.039 C 
ENDBRANCH   5   6
ENDBRANCH   4   5
ENDBRANCH   1   4
BRANCH   2  10
ATOM     10  C   UNL     1      19.731  37.528  89.444  1.00  0.00     0.035 C 
BRANCH  10  11
ATOM     11  C   UNL     1      20.102  38.965  89.051  1.00  0.00     0.079 C 
BRANCH  11  12
ATOM     12  C   UNL     1      20.527  39.779  90.247  1.00  0.00     0.130 C 
ATOM     13  O   UNL     1      20.492  40.999  90.189  1.00  0.00    -0.300 OA
ATOM     14  C   UNL     1      20.978  39.122  91.518  1.00  0.00     0.087 C 
ENDBRANCH  11  12
ENDBRANCH  10  11
ENDBRANCH   2  10
TORSDOF 6
ENDMDL
MODEL 8
REMARK VINA RESULT:    -2.878      2.665      4.802
REMARK INTER + INTRA:          -5.291
REMARK INTER:                  -3.744
REMARK INTRA:                  -1.547
REMARK UNBOUND:                -1.404
REMARK SMILES CC(=O)CCC=C(C)CCC=C(C)C
REMARK SMILES IDX 7 1 6 2 8 3 9 4 10 5 11 6 13 7 12 8 14 9 5 10 4 11 2 12 3 13
REMARK SMILES IDX 1 14
REMARK H PARENT
REMARK Flexibility Score: inf
ROOT
ATOM      1  C   UNL     1      21.572  40.592  88.389  1.00  0.00    -0.077 C 
ATOM      2  C   UNL     1      21.583  41.851  88.886  1.00  0.00    -0.028 C 
ATOM      3  C   UNL     1      21.342  40.409  86.911  1.00  0.00     0.039 C 
ENDROOT
BRANCH   1   4
ATOM      4  C   UNL     1      21.858  39.367  89.235  1.00  0.00     0.034 C 
BRANCH   4   5
ATOM      5  C   UNL     1      20.700  38.368  89.144  1.00  0.00     0.032 C 
BRANCH   5   6
ATOM      6  C   UNL     1      19.467  38.916  89.819  1.00  0.00    -0.028 C 
ATOM      7  C   UNL     1      19.778  37.522  91.876  1.00  0.00     0.039 C 
ATOM      8  C   UNL     1      19.024  38.519  91.034  1.00  0.00    -0.080 C 
ATOM      9  C   UNL     1      17.760  39.114  91.601  1.00  0.00     0.039 C 
ENDBRANCH   5   6
ENDBRANCH   4   5
ENDBRANCH   1   4
BRANCH   2  10
ATOM     10  C   UNL     1      21.791  42.203  90.340  1.00  0.00     0.035 C 
BRANCH  10  11
ATOM     11  C   UNL     1      20.464  42.278  91.109  1.00  0.00     0.079 C 
BRANCH  11  12
ATOM     12  C   UNL     1      20.566  41.618  92.461  1.00  0.00     0.130 C 
ATOM     13  O   UNL     1      19.748  41.891  93.328  1.00  0.00    -0.300 OA
ATOM     14  C   UNL     1      21.643  40.618  92.763  1.00  0.00     0.087 C 
ENDBRANCH  11  12
ENDBRANCH  10  11
ENDBRANCH   2  10
TORSDOF 6
ENDMDL
MODEL 9
REMARK VINA RESULT:    -2.878      2.767      5.260
REMARK INTER + INTRA:          -5.291
REMARK INTER:                  -3.515
REMARK INTRA:                  -1.775
REMARK UNBOUND:                -1.404
REMARK SMILES CC(=O)CCC=C(C)CCC=C(C)C
REMARK SMILES IDX 7 1 6 2 8 3 9 4 10 5 11 6 13 7 12 8 14 9 5 10 4 11 2 12 3 13
REMARK SMILES IDX 1 14
REMARK H PARENT
REMARK Flexibility Score: inf
ROOT
ATOM      1  C   UNL     1      19.918  38.018  89.687  1.00  0.00    -0.077 C 
ATOM      2  C   UNL     1      20.194  39.262  89.231  1.00  0.00    -0.028 C 
ATOM      3  C   UNL     1      19.083  37.109  88.821  1.00  0.00     0.039 C 
ENDROOT
BRANCH   1   4
ATOM      4  C   UNL     1      20.472  37.472  90.987  1.00  0.00     0.034 C 
BRANCH   4   5
ATOM      5  C   UNL     1      19.336  37.008  91.904  1.00  0.00     0.032 C 
BRANCH   5   6
ATOM      6  C   UNL     1      19.058  38.037  92.972  1.00  0.00    -0.028 C 
ATOM      7  C   UNL     1      17.064  38.971  91.777  1.00  0.00     0.039 C 
ATOM      8  C   UNL     1      18.059  38.947  92.910  1.00  0.00    -0.080 C 
ATOM      9  C   UNL     1      17.890  39.950  94.023  1.00  0.00     0.039 C 
ENDBRANCH   5   6
ENDBRANCH   4   5
ENDBRANCH   1   4
BRANCH   2  10
ATOM     10  C   UNL     1      21.006  40.294  89.977  1.00  0.00     0.035 C 
BRANCH  10  11
ATOM     11  C   UNL     1      20.118  41.247  90.790  1.00  0.00     0.079 C 
BRANCH  11  12
ATOM     12  C   UNL     1      20.687  41.504  92.163  1.00  0.00     0.130 C 
ATOM     13  O   UNL     1      20.280  42.453  92.816  1.00  0.00    -0.300 OA
ATOM     14  C   UNL     1      21.734  40.606  92.755  1.00  0.00     0.087 C 
ENDBRANCH  11  12
ENDBRANCH  10  11
ENDBRANCH   2  10
TORSDOF 6
ENDMDL
