MODEL 1
REMARK VINA RESULT:    -5.274      0.000      0.000
REMARK INTER + INTRA:          -5.784
REMARK INTER:                  -5.582
REMARK INTRA:                  -0.201
REMARK UNBOUND:                -0.201
REMARK SMILES CC1=CC[C@@]23[C@@H]([C@@H]12)[C@H](C(C)C)CC[C@@H]3C
REMARK SMILES IDX 15 1 14 2 13 3 12 4 8 5 6 6 5 7 7 8 2 9 3 10 4 11 1 12 9 13
REMARK SMILES IDX 10 14 11 15
REMARK H PARENT
REMARK Flexibility Score: inf
ROOT
ATOM      1  C   UNL     1     135.027 135.933 135.626  1.00  0.00     0.008 C 
ATOM      2  C   UNL     1     133.962 136.135 134.533  1.00  0.00    -0.007 C 
ATOM      3  C   UNL     1     133.400 137.570 134.593  1.00  0.00     0.004 C 
ATOM      4  C   UNL     1     134.339 138.583 133.934  1.00  0.00     0.004 C 
ATOM      5  C   UNL     1     134.445 138.337 132.415  1.00  0.00    -0.004 C 
ATOM      6  C   UNL     1     134.848 136.865 132.119  1.00  0.00     0.007 C 
ATOM      7  C   UNL     1     134.537 135.760 133.141  1.00  0.00    -0.013 C 
ATOM      8  C   UNL     1     133.629 135.954 131.927  1.00  0.00     0.025 C 
ATOM      9  C   UNL     1     133.858 134.742 131.091  1.00  0.00    -0.073 C 
ATOM     10  C   UNL     1     134.718 133.895 131.639  1.00  0.00    -0.027 C 
ATOM     11  C   UNL     1     135.225 134.393 132.947  1.00  0.00     0.035 C 
ATOM     12  C   UNL     1     133.200 134.509 129.767  1.00  0.00     0.039 C 
ENDROOT
BRANCH   5  13
ATOM     13  C   UNL     1     135.445 139.314 131.717  1.00  0.00    -0.014 C 
ATOM     14  C   UNL     1     134.727 140.176 130.660  1.00  0.00     0.007 C 
ATOM     15  C   UNL     1     136.159 140.253 132.708  1.00  0.00     0.007 C 
ENDBRANCH   5  13
TORSDOF 1
ENDMDL
MODEL 2
REMARK VINA RESULT:    -5.263      1.363      4.941
REMARK INTER + INTRA:          -5.772
REMARK INTER:                  -5.429
REMARK INTRA:                  -0.343
REMARK UNBOUND:                -0.201
REMARK SMILES CC1=CC[C@@]23[C@@H]([C@@H]12)[C@H](C(C)C)CC[C@@H]3C
REMARK SMILES IDX 15 1 14 2 13 3 12 4 8 5 6 6 5 7 7 8 2 9 3 10 4 11 1 12 9 13
REMARK SMILES IDX 10 14 11 15
REMARK H PARENT
REMARK Flexibility Score: inf
ROOT
ATOM      1  C   UNL     1     134.138 136.863 129.352  1.00  0.00     0.008 C 
ATOM      2  C   UNL     1     133.350 136.399 130.590  1.00  0.00    -0.007 C 
ATOM      3  C   UNL     1     133.046 134.890 130.497  1.00  0.00     0.004 C 
ATOM      4  C   UNL     1     134.255 134.036 130.886  1.00  0.00     0.004 C 
ATOM      5  C   UNL     1     134.599 134.208 132.380  1.00  0.00    -0.004 C 
ATOM      6  C   UNL     1     134.787 135.709 132.735  1.00  0.00     0.007 C 
ATOM      7  C   UNL     1     134.101 136.794 131.889  1.00  0.00    -0.013 C 
ATOM      8  C   UNL     1     133.485 136.362 133.220  1.00  0.00     0.025 C 
ATOM      9  C   UNL     1     133.652 137.544 134.111  1.00  0.00    -0.073 C 
ATOM     10  C   UNL     1     134.232 138.568 133.502  1.00  0.00    -0.027 C 
ATOM     11  C   UNL     1     134.563 138.252 132.086  1.00  0.00     0.035 C 
ATOM     12  C   UNL     1     133.223 137.570 135.545  1.00  0.00     0.039 C 
ENDROOT
BRANCH   5  13
ATOM     13  C   UNL     1     135.868 133.398 132.801  1.00  0.00    -0.014 C 
ATOM     14  C   UNL     1     136.832 133.227 131.610  1.00  0.00     0.007 C 
ATOM     15  C   UNL     1     136.639 134.050 133.963  1.00  0.00     0.007 C 
ENDBRANCH   5  13
TORSDOF 1
ENDMDL
MODEL 3
REMARK VINA RESULT:    -5.259      4.194      6.471
REMARK INTER + INTRA:          -5.768
REMARK INTER:                  -5.566
REMARK INTRA:                  -0.202
REMARK UNBOUND:                -0.201
REMARK SMILES CC1=CC[C@@]23[C@@H]([C@@H]12)[C@H](C(C)C)CC[C@@H]3C
REMARK SMILES IDX 15 1 14 2 13 3 12 4 8 5 6 6 5 7 7 8 2 9 3 10 4 11 1 12 9 13
REMARK SMILES IDX 10 14 11 15
REMARK H PARENT
REMARK Flexibility Score: inf
ROOT
ATOM      1  C   UNL     1     138.784 137.812 135.587  1.00  0.00     0.008 C 
ATOM      2  C   UNL     1     139.834 137.633 134.477  1.00  0.00    -0.007 C 
ATOM      3  C   UNL     1     140.418 136.206 134.518  1.00  0.00     0.004 C 
ATOM      4  C   UNL     1     139.484 135.184 133.867  1.00  0.00     0.004 C 
ATOM      5  C   UNL     1     139.351 135.438 132.351  1.00  0.00    -0.004 C 
ATOM      6  C   UNL     1     138.921 136.906 132.072  1.00  0.00     0.007 C 
ATOM      7  C   UNL     1     139.232 138.009 133.097  1.00  0.00    -0.013 C 
ATOM      8  C   UNL     1     140.124 137.837 131.867  1.00  0.00     0.025 C 
ATOM      9  C   UNL     1     139.863 139.051 131.044  1.00  0.00    -0.073 C 
ATOM     10  C   UNL     1     139.000 139.881 131.611  1.00  0.00    -0.027 C 
ATOM     11  C   UNL     1     138.521 139.366 132.923  1.00  0.00     0.035 C 
ATOM     12  C   UNL     1     140.498 139.302 129.711  1.00  0.00     0.039 C 
ENDROOT
BRANCH   5  13
ATOM     13  C   UNL     1     138.354 134.451 131.662  1.00  0.00    -0.014 C 
ATOM     14  C   UNL     1     139.076 133.583 130.612  1.00  0.00     0.007 C 
ATOM     15  C   UNL     1     137.645 133.519 132.661  1.00  0.00     0.007 C 
ENDBRANCH   5  13
TORSDOF 1
ENDMDL
MODEL 4
REMARK VINA RESULT:    -5.235      3.560      5.502
REMARK INTER + INTRA:          -5.742
REMARK INTER:                  -5.399
REMARK INTRA:                  -0.343
REMARK UNBOUND:                -0.201
REMARK SMILES CC1=CC[C@@]23[C@@H]([C@@H]12)[C@H](C(C)C)CC[C@@H]3C
REMARK SMILES IDX 15 1 14 2 13 3 12 4 8 5 6 6 5 7 7 8 2 9 3 10 4 11 1 12 9 13
REMARK SMILES IDX 10 14 11 15
REMARK H PARENT
REMARK Flexibility Score: inf
ROOT
ATOM      1  C   UNL     1     136.780 134.243 129.342  1.00  0.00     0.008 C 
ATOM      2  C   UNL     1     137.248 133.435 130.565  1.00  0.00    -0.007 C 
ATOM      3  C   UNL     1     138.755 133.126 130.456  1.00  0.00     0.004 C 
ATOM      4  C   UNL     1     139.618 134.324 130.856  1.00  0.00     0.004 C 
ATOM      5  C   UNL     1     139.460 134.649 132.355  1.00  0.00    -0.004 C 
ATOM      6  C   UNL     1     137.962 134.840 132.724  1.00  0.00     0.007 C 
ATOM      7  C   UNL     1     136.867 134.171 131.878  1.00  0.00    -0.013 C 
ATOM      8  C   UNL     1     137.306 133.535 133.196  1.00  0.00     0.025 C 
ATOM      9  C   UNL     1     136.131 133.695 134.098  1.00  0.00    -0.073 C 
ATOM     10  C   UNL     1     135.106 134.289 133.505  1.00  0.00    -0.027 C 
ATOM     11  C   UNL     1     135.413 134.638 132.092  1.00  0.00     0.035 C 
ATOM     12  C   UNL     1     136.114 133.247 135.526  1.00  0.00     0.039 C 
ENDROOT
BRANCH   5  13
ATOM     13  C   UNL     1     140.279 135.908 132.787  1.00  0.00    -0.014 C 
ATOM     14  C   UNL     1     140.449 136.886 131.609  1.00  0.00     0.007 C 
ATOM     15  C   UNL     1     139.639 136.667 133.964  1.00  0.00     0.007 C 
ENDBRANCH   5  13
TORSDOF 1
ENDMDL
MODEL 5
REMARK VINA RESULT:    -5.233      1.986      5.499
REMARK INTER + INTRA:          -5.740
REMARK INTER:                  -5.407
REMARK INTRA:                  -0.333
REMARK UNBOUND:                -0.201
REMARK SMILES CC1=CC[C@@]23[C@@H]([C@@H]12)[C@H](C(C)C)CC[C@@H]3C
REMARK SMILES IDX 15 1 14 2 13 3 12 4 8 5 6 6 5 7 7 8 2 9 3 10 4 11 1 12 9 13
REMARK SMILES IDX 10 14 11 15
REMARK H PARENT
REMARK Flexibility Score: inf
ROOT
ATOM      1  C   UNL     1     137.278 139.552 129.387  1.00  0.00     0.008 C 
ATOM      2  C   UNL     1     136.716 140.385 130.552  1.00  0.00    -0.007 C 
ATOM      3  C   UNL     1     135.247 140.767 130.277  1.00  0.00     0.004 C 
ATOM      4  C   UNL     1     134.288 139.613 130.575  1.00  0.00     0.004 C 
ATOM      5  C   UNL     1     134.263 139.285 132.083  1.00  0.00    -0.004 C 
ATOM      6  C   UNL     1     135.700 139.024 132.616  1.00  0.00     0.007 C 
ATOM      7  C   UNL     1     136.912 139.636 131.897  1.00  0.00    -0.013 C 
ATOM      8  C   UNL     1     136.361 140.296 133.160  1.00  0.00     0.025 C 
ATOM      9  C   UNL     1     137.419 140.082 134.187  1.00  0.00    -0.073 C 
ATOM     10  C   UNL     1     138.474 139.438 133.710  1.00  0.00    -0.027 C 
ATOM     11  C   UNL     1     138.310 139.100 132.271  1.00  0.00     0.035 C 
ATOM     12  C   UNL     1     137.299 140.534 135.610  1.00  0.00     0.039 C 
ENDROOT
BRANCH   5  13
ATOM     13  C   UNL     1     133.340 138.069 132.418  1.00  0.00    -0.014 C 
ATOM     14  C   UNL     1     133.552 136.923 131.409  1.00  0.00     0.007 C 
ATOM     15  C   UNL     1     133.566 137.517 133.837  1.00  0.00     0.007 C 
ENDBRANCH   5  13
TORSDOF 1
ENDMDL
MODEL 6
REMARK VINA RESULT:    -5.227      2.875      4.526
REMARK INTER + INTRA:          -5.734
REMARK INTER:                  -5.532
REMARK INTRA:                  -0.201
REMARK UNBOUND:                -0.201
REMARK SMILES CC1=CC[C@@]23[C@@H]([C@@H]12)[C@H](C(C)C)CC[C@@H]3C
REMARK SMILES IDX 15 1 14 2 13 3 12 4 8 5 6 6 5 7 7 8 2 9 3 10 4 11 1 12 9 13
REMARK SMILES IDX 10 14 11 15
REMARK H PARENT
REMARK Flexibility Score: inf
ROOT
ATOM      1  C   UNL     1     137.726 135.026 135.634  1.00  0.00     0.008 C 
ATOM      2  C   UNL     1     137.537 133.967 134.534  1.00  0.00    -0.007 C 
ATOM      3  C   UNL     1     136.104 133.399 134.579  1.00  0.00     0.004 C 
ATOM      4  C   UNL     1     135.093 134.338 133.917  1.00  0.00     0.004 C 
ATOM      5  C   UNL     1     135.351 134.453 132.401  1.00  0.00    -0.004 C 
ATOM      6  C   UNL     1     136.823 134.864 132.120  1.00  0.00     0.007 C 
ATOM      7  C   UNL     1     137.921 134.552 133.148  1.00  0.00    -0.013 C 
ATOM      8  C   UNL     1     137.742 133.650 131.928  1.00  0.00     0.025 C 
ATOM      9  C   UNL     1     138.959 133.890 131.103  1.00  0.00    -0.073 C 
ATOM     10  C   UNL     1     139.797 134.749 131.663  1.00  0.00    -0.027 C 
ATOM     11  C   UNL     1     139.287 135.247 132.969  1.00  0.00     0.035 C 
ATOM     12  C   UNL     1     139.206 133.239 129.777  1.00  0.00     0.039 C 
ENDROOT
BRANCH   5  13
ATOM     13  C   UNL     1     134.375 135.453 131.700  1.00  0.00    -0.014 C 
ATOM     14  C   UNL     1     133.513 134.734 130.645  1.00  0.00     0.007 C 
ATOM     15  C   UNL     1     133.438 136.170 132.689  1.00  0.00     0.007 C 
ENDBRANCH   5  13
TORSDOF 1
ENDMDL
MODEL 7
REMARK VINA RESULT:    -5.222      4.332      6.108
REMARK INTER + INTRA:          -5.729
REMARK INTER:                  -5.385
REMARK INTRA:                  -0.344
REMARK UNBOUND:                -0.201
REMARK SMILES CC1=CC[C@@]23[C@@H]([C@@H]12)[C@H](C(C)C)CC[C@@H]3C
REMARK SMILES IDX 15 1 14 2 13 3 12 4 8 5 6 6 5 7 7 8 2 9 3 10 4 11 1 12 9 13
REMARK SMILES IDX 10 14 11 15
REMARK H PARENT
REMARK Flexibility Score: inf
ROOT
ATOM      1  C   UNL     1     139.653 136.631 129.651  1.00  0.00     0.008 C 
ATOM      2  C   UNL     1     140.404 137.337 130.794  1.00  0.00    -0.007 C 
ATOM      3  C   UNL     1     140.591 138.833 130.467  1.00  0.00     0.004 C 
ATOM      4  C   UNL     1     139.320 139.642 130.735  1.00  0.00     0.004 C 
ATOM      5  C   UNL     1     138.990 139.676 132.242  1.00  0.00    -0.004 C 
ATOM      6  C   UNL     1     138.917 138.237 132.825  1.00  0.00     0.007 C 
ATOM      7  C   UNL     1     139.684 137.091 132.147  1.00  0.00    -0.013 C 
ATOM      8  C   UNL     1     140.265 137.767 133.388  1.00  0.00     0.025 C 
ATOM      9  C   UNL     1     140.189 136.727 134.452  1.00  0.00    -0.073 C 
ATOM     10  C   UNL     1     139.690 135.580 134.013  1.00  0.00    -0.027 C 
ATOM     11  C   UNL     1     139.335 135.649 132.570  1.00  0.00     0.035 C 
ATOM     12  C   UNL     1     140.619 136.953 135.868  1.00  0.00     0.039 C 
ENDROOT
BRANCH   5  13
ATOM     13  C   UNL     1     137.663 140.443 132.548  1.00  0.00    -0.014 C 
ATOM     14  C   UNL     1     136.735 140.452 131.318  1.00  0.00     0.007 C 
ATOM     15  C   UNL     1     136.888 139.851 133.740  1.00  0.00     0.007 C 
ENDBRANCH   5  13
TORSDOF 1
ENDMDL
MODEL 8
REMARK VINA RESULT:    -5.215      2.896      4.515
REMARK INTER + INTRA:          -5.721
REMARK INTER:                  -5.521
REMARK INTRA:                  -0.201
REMARK UNBOUND:                -0.201
REMARK SMILES CC1=CC[C@@]23[C@@H]([C@@H]12)[C@H](C(C)C)CC[C@@H]3C
REMARK SMILES IDX 15 1 14 2 13 3 12 4 8 5 6 6 5 7 7 8 2 9 3 10 4 11 1 12 9 13
REMARK SMILES IDX 10 14 11 15
REMARK H PARENT
REMARK Flexibility Score: inf
ROOT
ATOM      1  C   UNL     1     135.781 138.785 135.704  1.00  0.00     0.008 C 
ATOM      2  C   UNL     1     136.032 139.806 134.580  1.00  0.00    -0.007 C 
ATOM      3  C   UNL     1     137.468 140.361 134.674  1.00  0.00     0.004 C 
ATOM      4  C   UNL     1     138.498 139.392 134.090  1.00  0.00     0.004 C 
ATOM      5  C   UNL     1     138.310 139.230 132.568  1.00  0.00    -0.004 C 
ATOM      6  C   UNL     1     136.847 138.824 132.232  1.00  0.00     0.007 C 
ATOM      7  C   UNL     1     135.706 139.180 133.198  1.00  0.00    -0.013 C 
ATOM      8  C   UNL     1     135.952 140.040 131.958  1.00  0.00     0.025 C 
ATOM      9  C   UNL     1     134.771 139.786 131.086  1.00  0.00    -0.073 C 
ATOM     10  C   UNL     1     133.899 138.953 131.634  1.00  0.00    -0.027 C 
ATOM     11  C   UNL     1     134.343 138.493 132.978  1.00  0.00     0.035 C 
ATOM     12  C   UNL     1     134.594 140.395 129.730  1.00  0.00     0.039 C 
ENDROOT
BRANCH   5  13
ATOM     13  C   UNL     1     139.305 138.198 131.946  1.00  0.00    -0.014 C 
ATOM     14  C   UNL     1     140.163 138.854 130.846  1.00  0.00     0.007 C 
ATOM     15  C   UNL     1     140.248 137.568 132.989  1.00  0.00     0.007 C 
ENDBRANCH   5  13
TORSDOF 1
ENDMDL
MODEL 9
REMARK VINA RESULT:    -5.122      1.473      5.079
REMARK INTER + INTRA:          -5.622
REMARK INTER:                  -5.295
REMARK INTRA:                  -0.327
REMARK UNBOUND:                -0.201
REMARK SMILES CC1=CC[C@@]23[C@@H]([C@@H]12)[C@H](C(C)C)CC[C@@H]3C
REMARK SMILES IDX 15 1 14 2 13 3 12 4 8 5 6 6 5 7 7 8 2 9 3 10 4 11 1 12 9 13
REMARK SMILES IDX 10 14 11 15
REMARK H PARENT
REMARK Flexibility Score: inf
ROOT
ATOM      1  C   UNL     1     134.485 138.865 130.987  1.00  0.00     0.008 C 
ATOM      2  C   UNL     1     133.668 138.522 132.246  1.00  0.00    -0.007 C 
ATOM      3  C   UNL     1     132.822 137.256 132.005  1.00  0.00     0.004 C 
ATOM      4  C   UNL     1     133.652 135.976 132.135  1.00  0.00     0.004 C 
ATOM      5  C   UNL     1     134.137 135.773 133.584  1.00  0.00    -0.004 C 
ATOM      6  C   UNL     1     134.893 137.031 134.096  1.00  0.00     0.007 C 
ATOM      7  C   UNL     1     134.601 138.409 133.482  1.00  0.00    -0.013 C 
ATOM      8  C   UNL     1     133.963 138.018 134.814  1.00  0.00     0.025 C 
ATOM      9  C   UNL     1     134.617 138.905 135.817  1.00  0.00    -0.073 C 
ATOM     10  C   UNL     1     135.491 139.738 135.272  1.00  0.00    -0.027 C 
ATOM     11  C   UNL     1     135.583 139.555 133.799  1.00  0.00     0.035 C 
ATOM     12  C   UNL     1     134.329 138.852 137.285  1.00  0.00     0.039 C 
ENDROOT
BRANCH   5  13
ATOM     13  C   UNL     1     135.041 134.508 133.742  1.00  0.00    -0.014 C 
ATOM     14  C   UNL     1     135.147 133.736 132.412  1.00  0.00     0.007 C 
ATOM     15  C   UNL     1     136.464 134.842 134.227  1.00  0.00     0.007 C 
ENDBRANCH   5  13
TORSDOF 1
ENDMDL
