MODEL 1
REMARK VINA RESULT:    -3.251      0.000      0.000
REMARK INTER + INTRA:          -3.660
REMARK INTER:                  -3.631
REMARK INTRA:                  -0.029
REMARK UNBOUND:                -0.029
REMARK SMILES CC(C)CC=O
REMARK SMILES IDX 4 1 2 2 1 3 3 4 5 5 6 6
REMARK H PARENT
REMARK Flexibility Score: inf
ROOT
ATOM      1  C   UNL     1      24.463  57.607  -8.031  1.00  0.00     0.075 C 
ENDROOT
BRANCH   1   2
ATOM      2  C   UNL     1      24.459  56.089  -7.754  1.00  0.00    -0.010 C 
ATOM      3  C   UNL     1      23.481  55.714  -6.629  1.00  0.00     0.008 C 
ATOM      4  C   UNL     1      25.872  55.617  -7.390  1.00  0.00     0.008 C 
ENDBRANCH   1   2
BRANCH   1   5
ATOM      5  C   UNL     1      25.829  58.122  -8.385  1.00  0.00     0.224 C 
ATOM      6  O   UNL     1      26.014  59.310  -8.591  1.00  0.00    -0.303 OA
ENDBRANCH   1   5
TORSDOF 2
ENDMDL
MODEL 2
REMARK VINA RESULT:    -3.041     15.565     16.831
REMARK INTER + INTRA:          -3.426
REMARK INTER:                  -3.395
REMARK INTRA:                  -0.030
REMARK UNBOUND:                -0.029
REMARK SMILES CC(C)CC=O
REMARK SMILES IDX 4 1 2 2 1 3 3 4 5 5 6 6
REMARK H PARENT
REMARK Flexibility Score: inf
ROOT
ATOM      1  C   UNL     1      19.374  43.279   0.613  1.00  0.00     0.075 C 
ENDROOT
BRANCH   1   2
ATOM      2  C   UNL     1      18.914  44.622   1.219  1.00  0.00    -0.010 C 
ATOM      3  C   UNL     1      19.300  45.814   0.329  1.00  0.00     0.008 C 
ATOM      4  C   UNL     1      19.517  44.802   2.617  1.00  0.00     0.008 C 
ENDBRANCH   1   2
BRANCH   1   5
ATOM      5  C   UNL     1      20.805  42.963   0.942  1.00  0.00     0.224 C 
ATOM      6  O   UNL     1      21.482  42.281   0.190  1.00  0.00    -0.303 OA
ENDBRANCH   1   5
TORSDOF 2
ENDMDL
MODEL 3
REMARK VINA RESULT:    -2.915     15.430     16.851
REMARK INTER + INTRA:          -3.284
REMARK INTER:                  -3.245
REMARK INTRA:                  -0.039
REMARK UNBOUND:                -0.029
REMARK SMILES CC(C)CC=O
REMARK SMILES IDX 4 1 2 2 1 3 3 4 5 5 6 6
REMARK H PARENT
REMARK Flexibility Score: inf
ROOT
ATOM      1  C   UNL     1      19.177  44.245   2.096  1.00  0.00     0.075 C 
ENDROOT
BRANCH   1   2
ATOM      2  C   UNL     1      18.554  44.813   0.803  1.00  0.00    -0.010 C 
ATOM      3  C   UNL     1      19.299  46.064   0.309  1.00  0.00     0.008 C 
ATOM      4  C   UNL     1      17.076  45.149   1.034  1.00  0.00     0.008 C 
ENDBRANCH   1   2
BRANCH   1   5
ATOM      5  C   UNL     1      20.360  43.362   1.822  1.00  0.00     0.224 C 
ATOM      6  O   UNL     1      20.477  42.792   0.749  1.00  0.00    -0.303 OA
ENDBRANCH   1   5
TORSDOF 2
ENDMDL
MODEL 4
REMARK VINA RESULT:    -2.889     15.314     16.231
REMARK INTER + INTRA:          -3.256
REMARK INTER:                  -3.229
REMARK INTRA:                  -0.027
REMARK UNBOUND:                -0.029
REMARK SMILES CC(C)CC=O
REMARK SMILES IDX 4 1 2 2 1 3 3 4 5 5 6 6
REMARK H PARENT
REMARK Flexibility Score: inf
ROOT
ATOM      1  C   UNL     1      19.032  45.719   0.355  1.00  0.00     0.075 C 
ENDROOT
BRANCH   1   2
ATOM      2  C   UNL     1      19.600  44.451   1.028  1.00  0.00    -0.010 C 
ATOM      3  C   UNL     1      18.905  43.175   0.526  1.00  0.00     0.008 C 
ATOM      4  C   UNL     1      19.456  44.554   2.551  1.00  0.00     0.008 C 
ENDBRANCH   1   2
BRANCH   1   5
ATOM      5  C   UNL     1      17.531  45.708   0.289  1.00  0.00     0.224 C 
ATOM      6  O   UNL     1      16.935  46.477  -0.447  1.00  0.00    -0.303 OA
ENDBRANCH   1   5
TORSDOF 2
ENDMDL
MODEL 5
REMARK VINA RESULT:    -2.887     15.857     17.246
REMARK INTER + INTRA:          -3.253
REMARK INTER:                  -3.197
REMARK INTRA:                  -0.057
REMARK UNBOUND:                -0.029
REMARK SMILES CC(C)CC=O
REMARK SMILES IDX 4 1 2 2 1 3 3 4 5 5 6 6
REMARK H PARENT
REMARK Flexibility Score: inf
ROOT
ATOM      1  C   UNL     1      19.597  43.167   0.754  1.00  0.00     0.075 C 
ENDROOT
BRANCH   1   2
ATOM      2  C   UNL     1      18.952  44.468   1.275  1.00  0.00    -0.010 C 
ATOM      3  C   UNL     1      19.366  45.689   0.438  1.00  0.00     0.008 C 
ATOM      4  C   UNL     1      19.333  44.693   2.744  1.00  0.00     0.008 C 
ENDBRANCH   1   2
BRANCH   1   5
ATOM      5  C   UNL     1      18.626  42.310  -0.006  1.00  0.00     0.224 C 
ATOM      6  O   UNL     1      17.450  42.626  -0.092  1.00  0.00    -0.303 OA
ENDBRANCH   1   5
TORSDOF 2
ENDMDL
MODEL 6
REMARK VINA RESULT:    -2.844     15.595     16.879
REMARK INTER + INTRA:          -3.206
REMARK INTER:                  -3.139
REMARK INTRA:                  -0.066
REMARK UNBOUND:                -0.029
REMARK SMILES CC(C)CC=O
REMARK SMILES IDX 4 1 2 2 1 3 3 4 5 5 6 6
REMARK H PARENT
REMARK Flexibility Score: inf
ROOT
ATOM      1  C   UNL     1      17.685  44.106   0.912  1.00  0.00     0.075 C 
ENDROOT
BRANCH   1   2
ATOM      2  C   UNL     1      19.142  44.597   1.031  1.00  0.00    -0.010 C 
ATOM      3  C   UNL     1      19.570  44.774   2.497  1.00  0.00     0.008 C 
ATOM      4  C   UNL     1      19.314  45.923   0.278  1.00  0.00     0.008 C 
ENDBRANCH   1   2
BRANCH   1   5
ATOM      5  C   UNL     1      16.689  45.215   1.094  1.00  0.00     0.224 C 
ATOM      6  O   UNL     1      16.062  45.325   2.135  1.00  0.00    -0.303 OA
ENDBRANCH   1   5
TORSDOF 2
ENDMDL
MODEL 7
REMARK VINA RESULT:    -2.768      7.719      8.667
REMARK INTER + INTRA:          -3.120
REMARK INTER:                  -3.053
REMARK INTRA:                  -0.067
REMARK UNBOUND:                -0.029
REMARK SMILES CC(C)CC=O
REMARK SMILES IDX 4 1 2 2 1 3 3 4 5 5 6 6
REMARK H PARENT
REMARK Flexibility Score: inf
ROOT
ATOM      1  C   UNL     1      30.937  57.592 -13.009  1.00  0.00     0.075 C 
ENDROOT
BRANCH   1   2
ATOM      2  C   UNL     1      32.465  57.393 -13.079  1.00  0.00    -0.010 C 
ATOM      3  C   UNL     1      33.085  57.217 -11.683  1.00  0.00     0.008 C 
ATOM      4  C   UNL     1      33.120  58.583 -13.790  1.00  0.00     0.008 C 
ENDBRANCH   1   2
BRANCH   1   5
ATOM      5  C   UNL     1      30.558  59.012 -12.695  1.00  0.00     0.224 C 
ATOM      6  O   UNL     1      30.112  59.309 -11.599  1.00  0.00    -0.303 OA
ENDBRANCH   1   5
TORSDOF 2
ENDMDL
MODEL 8
REMARK VINA RESULT:    -2.693     17.005     17.640
REMARK INTER + INTRA:          -3.037
REMARK INTER:                  -3.012
REMARK INTRA:                  -0.024
REMARK UNBOUND:                -0.029
REMARK SMILES CC(C)CC=O
REMARK SMILES IDX 4 1 2 2 1 3 3 4 5 5 6 6
REMARK H PARENT
REMARK Flexibility Score: inf
ROOT
ATOM      1  C   UNL     1      15.180  44.026 -13.704  1.00  0.00     0.075 C 
ENDROOT
BRANCH   1   2
ATOM      2  C   UNL     1      15.241  42.572 -13.191  1.00  0.00    -0.010 C 
ATOM      3  C   UNL     1      13.891  42.108 -12.621  1.00  0.00     0.008 C 
ATOM      4  C   UNL     1      16.330  42.438 -12.119  1.00  0.00     0.008 C 
ENDBRANCH   1   2
BRANCH   1   5
ATOM      5  C   UNL     1      14.252  44.882 -12.890  1.00  0.00     0.224 C 
ATOM      6  O   UNL     1      14.124  46.071 -13.135  1.00  0.00    -0.303 OA
ENDBRANCH   1   5
TORSDOF 2
ENDMDL
MODEL 9
REMARK VINA RESULT:    -2.627     15.044     16.042
REMARK INTER + INTRA:          -2.963
REMARK INTER:                  -2.956
REMARK INTRA:                  -0.007
REMARK UNBOUND:                -0.029
REMARK SMILES CC(C)CC=O
REMARK SMILES IDX 4 1 2 2 1 3 3 4 5 5 6 6
REMARK H PARENT
REMARK Flexibility Score: inf
ROOT
ATOM      1  C   UNL     1      30.596  45.684   1.378  1.00  0.00     0.075 C 
ENDROOT
BRANCH   1   2
ATOM      2  C   UNL     1      32.130  45.645   1.220  1.00  0.00    -0.010 C 
ATOM      3  C   UNL     1      32.668  44.205   1.199  1.00  0.00     0.008 C 
ATOM      4  C   UNL     1      32.797  46.430   2.356  1.00  0.00     0.008 C 
ENDBRANCH   1   2
BRANCH   1   5
ATOM      5  C   UNL     1      29.880  45.231   0.138  1.00  0.00     0.224 C 
ATOM      6  O   UNL     1      28.753  45.626  -0.111  1.00  0.00    -0.303 OA
ENDBRANCH   1   5
TORSDOF 2
ENDMDL
