MODEL 1
REMARK VINA RESULT:    -4.518      0.000      0.000
REMARK INTER + INTRA:          -4.880
REMARK INTER:                  -4.782
REMARK INTRA:                  -0.098
REMARK UNBOUND:                -0.098
REMARK SMILES C=C(C)[C@H]1CC=C(C)C(=O)C1
REMARK SMILES IDX 8 1 7 2 6 3 5 4 4 5 11 6 9 7 10 8 2 9 1 10 3 11
REMARK H PARENT
REMARK Flexibility Score: inf
ROOT
ATOM      1  C   UNL     1      10.137  64.893 -30.494  1.00  0.00     0.048 C 
ATOM      2  C   UNL     1      11.402  65.587 -30.069  1.00  0.00    -0.012 C 
ATOM      3  C   UNL     1      12.580  65.219 -30.605  1.00  0.00    -0.019 C 
ATOM      4  C   UNL     1      13.877  65.869 -30.202  1.00  0.00     0.036 C 
ATOM      5  C   UNL     1      13.667  67.351 -29.839  1.00  0.00     0.025 C 
ATOM      6  C   UNL     1      12.586  67.487 -28.752  1.00  0.00     0.089 C 
ATOM      7  C   UNL     1      11.334  66.756 -29.157  1.00  0.00     0.158 C 
ATOM      8  O   UNL     1      10.227  67.126 -28.681  1.00  0.00    -0.295 OA
ENDROOT
BRANCH   5   9
ATOM      9  C   UNL     1      14.971  68.010 -29.412  1.00  0.00    -0.077 C 
ATOM     10  C   UNL     1      16.041  67.256 -29.113  1.00  0.00     0.008 C 
ATOM     11  C   UNL     1      15.099  69.511 -29.316  1.00  0.00     0.039 C 
ENDBRANCH   5   9
TORSDOF 1
ENDMDL
MODEL 2
REMARK VINA RESULT:    -4.477      2.238      4.364
REMARK INTER + INTRA:          -4.837
REMARK INTER:                  -4.739
REMARK INTRA:                  -0.098
REMARK UNBOUND:                -0.098
REMARK SMILES C=C(C)[C@H]1CC=C(C)C(=O)C1
REMARK SMILES IDX 8 1 7 2 6 3 5 4 4 5 11 6 9 7 10 8 2 9 1 10 3 11
REMARK H PARENT
REMARK Flexibility Score: inf
ROOT
ATOM      1  C   UNL     1      13.311  70.881 -27.473  1.00  0.00     0.048 C 
ATOM      2  C   UNL     1      13.324  69.519 -28.111  1.00  0.00    -0.012 C 
ATOM      3  C   UNL     1      12.182  68.816 -28.210  1.00  0.00    -0.019 C 
ATOM      4  C   UNL     1      12.143  67.441 -28.824  1.00  0.00     0.036 C 
ATOM      5  C   UNL     1      13.189  67.304 -29.946  1.00  0.00     0.025 C 
ATOM      6  C   UNL     1      14.589  67.666 -29.418  1.00  0.00     0.089 C 
ATOM      7  C   UNL     1      14.567  69.009 -28.741  1.00  0.00     0.158 C 
ATOM      8  O   UNL     1      15.631  69.683 -28.681  1.00  0.00    -0.295 OA
ENDROOT
BRANCH   5   9
ATOM      9  C   UNL     1      13.169  65.911 -30.559  1.00  0.00    -0.077 C 
ATOM     10  C   UNL     1      14.162  65.046 -30.299  1.00  0.00     0.008 C 
ATOM     11  C   UNL     1      12.045  65.466 -31.463  1.00  0.00     0.039 C 
ENDBRANCH   5   9
TORSDOF 1
ENDMDL
MODEL 3
REMARK VINA RESULT:    -4.187     15.537     16.779
REMARK INTER + INTRA:          -4.530
REMARK INTER:                  -4.434
REMARK INTRA:                  -0.097
REMARK UNBOUND:                -0.098
REMARK SMILES C=C(C)[C@H]1CC=C(C)C(=O)C1
REMARK SMILES IDX 8 1 7 2 6 3 5 4 4 5 11 6 9 7 10 8 2 9 1 10 3 11
REMARK H PARENT
REMARK Flexibility Score: inf
ROOT
ATOM      1  C   UNL     1       3.890  76.104 -30.034  1.00  0.00     0.048 C 
ATOM      2  C   UNL     1       2.988  77.298 -29.881  1.00  0.00    -0.012 C 
ATOM      3  C   UNL     1       3.259  78.431 -30.552  1.00  0.00    -0.019 C 
ATOM      4  C   UNL     1       2.399  79.661 -30.421  1.00  0.00     0.036 C 
ATOM      5  C   UNL     1       0.926  79.285 -30.180  1.00  0.00     0.025 C 
ATOM      6  C   UNL     1       0.803  78.356 -28.959  1.00  0.00     0.089 C 
ATOM      7  C   UNL     1       1.737  77.183 -29.091  1.00  0.00     0.158 C 
ATOM      8  O   UNL     1       1.462  76.110 -28.490  1.00  0.00    -0.295 OA
ENDROOT
BRANCH   5   9
ATOM      9  C   UNL     1       0.052  80.522 -30.028  1.00  0.00    -0.077 C 
ATOM     10  C   UNL     1       0.410  81.498 -29.178  1.00  0.00     0.008 C 
ATOM     11  C   UNL     1      -1.223  80.687 -30.818  1.00  0.00     0.039 C 
ENDBRANCH   5   9
TORSDOF 1
ENDMDL
MODEL 4
REMARK VINA RESULT:    -4.136      2.628      3.866
REMARK INTER + INTRA:          -4.476
REMARK INTER:                  -4.380
REMARK INTRA:                  -0.095
REMARK UNBOUND:                -0.098
REMARK SMILES C=C(C)[C@H]1CC=C(C)C(=O)C1
REMARK SMILES IDX 8 1 7 2 6 3 5 4 4 5 11 6 9 7 10 8 2 9 1 10 3 11
REMARK H PARENT
REMARK Flexibility Score: inf
ROOT
ATOM      1  C   UNL     1      14.036  65.535 -30.188  1.00  0.00     0.048 C 
ATOM      2  C   UNL     1      13.783  66.920 -29.660  1.00  0.00    -0.012 C 
ATOM      3  C   UNL     1      12.530  67.302 -29.358  1.00  0.00    -0.019 C 
ATOM      4  C   UNL     1      12.219  68.683 -28.842  1.00  0.00     0.036 C 
ATOM      5  C   UNL     1      13.380  69.232 -27.992  1.00  0.00     0.025 C 
ATOM      6  C   UNL     1      14.695  69.192 -28.791  1.00  0.00     0.089 C 
ATOM      7  C   UNL     1      14.926  67.816 -29.356  1.00  0.00     0.158 C 
ATOM      8  O   UNL     1      16.106  67.447 -29.605  1.00  0.00    -0.295 OA
ENDROOT
BRANCH   5   9
ATOM      9  C   UNL     1      13.082  70.636 -27.482  1.00  0.00    -0.077 C 
ATOM     10  C   UNL     1      11.860  70.937 -27.014  1.00  0.00     0.008 C 
ATOM     11  C   UNL     1      14.137  71.715 -27.487  1.00  0.00     0.039 C 
ENDBRANCH   5   9
TORSDOF 1
ENDMDL
MODEL 5
REMARK VINA RESULT:    -4.078     18.032     19.327
REMARK INTER + INTRA:          -4.415
REMARK INTER:                  -4.324
REMARK INTRA:                  -0.092
REMARK UNBOUND:                -0.098
REMARK SMILES C=C(C)[C@H]1CC=C(C)C(=O)C1
REMARK SMILES IDX 8 1 7 2 6 3 5 4 4 5 11 6 9 7 10 8 2 9 1 10 3 11
REMARK H PARENT
REMARK Flexibility Score: inf
ROOT
ATOM      1  C   UNL     1       6.655  75.005 -14.861  1.00  0.00     0.048 C 
ATOM      2  C   UNL     1       5.823  76.068 -15.523  1.00  0.00    -0.012 C 
ATOM      3  C   UNL     1       4.512  76.165 -15.240  1.00  0.00    -0.019 C 
ATOM      4  C   UNL     1       3.630  77.200 -15.889  1.00  0.00     0.036 C 
ATOM      5  C   UNL     1       4.415  78.492 -16.184  1.00  0.00     0.025 C 
ATOM      6  C   UNL     1       5.663  78.178 -17.029  1.00  0.00     0.089 C 
ATOM      7  C   UNL     1       6.473  77.083 -16.389  1.00  0.00     0.158 C 
ATOM      8  O   UNL     1       7.709  77.016 -16.627  1.00  0.00    -0.295 OA
ENDROOT
BRANCH   5   9
ATOM      9  C   UNL     1       3.536  79.536 -16.857  1.00  0.00    -0.077 C 
ATOM     10  C   UNL     1       3.865  80.836 -16.791  1.00  0.00     0.008 C 
ATOM     11  C   UNL     1       2.287  79.147 -17.609  1.00  0.00     0.039 C 
ENDBRANCH   5   9
TORSDOF 1
ENDMDL
MODEL 6
REMARK VINA RESULT:    -4.078     18.856     19.793
REMARK INTER + INTRA:          -4.414
REMARK INTER:                  -4.316
REMARK INTRA:                  -0.098
REMARK UNBOUND:                -0.098
REMARK SMILES C=C(C)[C@H]1CC=C(C)C(=O)C1
REMARK SMILES IDX 8 1 7 2 6 3 5 4 4 5 11 6 9 7 10 8 2 9 1 10 3 11
REMARK H PARENT
REMARK Flexibility Score: inf
ROOT
ATOM      1  C   UNL     1      -0.478  77.251 -21.192  1.00  0.00     0.048 C 
ATOM      2  C   UNL     1       0.302  77.656 -19.971  1.00  0.00    -0.012 C 
ATOM      3  C   UNL     1       1.148  76.783 -19.398  1.00  0.00    -0.019 C 
ATOM      4  C   UNL     1       1.939  77.132 -18.165  1.00  0.00     0.036 C 
ATOM      5  C   UNL     1       2.302  78.628 -18.142  1.00  0.00     0.025 C 
ATOM      6  C   UNL     1       1.032  79.488 -18.281  1.00  0.00     0.089 C 
ATOM      7  C   UNL     1       0.230  79.054 -19.478  1.00  0.00     0.158 C 
ATOM      8  O   UNL     1      -0.537  79.885 -20.036  1.00  0.00    -0.295 OA
ENDROOT
BRANCH   5   9
ATOM      9  C   UNL     1       3.085  78.993 -16.889  1.00  0.00    -0.077 C 
ATOM     10  C   UNL     1       3.178  78.119 -15.874  1.00  0.00     0.008 C 
ATOM     11  C   UNL     1       3.774  80.329 -16.753  1.00  0.00     0.039 C 
ENDBRANCH   5   9
TORSDOF 1
ENDMDL
MODEL 7
REMARK VINA RESULT:    -4.057     18.286     18.963
REMARK INTER + INTRA:          -4.392
REMARK INTER:                  -4.293
REMARK INTRA:                  -0.099
REMARK UNBOUND:                -0.098
REMARK SMILES C=C(C)[C@H]1CC=C(C)C(=O)C1
REMARK SMILES IDX 8 1 7 2 6 3 5 4 4 5 11 6 9 7 10 8 2 9 1 10 3 11
REMARK H PARENT
REMARK Flexibility Score: inf
ROOT
ATOM      1  C   UNL     1      -1.356  76.369 -21.971  1.00  0.00     0.048 C 
ATOM      2  C   UNL     1      -0.486  76.614 -20.769  1.00  0.00    -0.012 C 
ATOM      3  C   UNL     1       0.020  75.572 -20.086  1.00  0.00    -0.019 C 
ATOM      4  C   UNL     1       0.882  75.761 -18.865  1.00  0.00     0.036 C 
ATOM      5  C   UNL     1       1.724  77.046 -18.974  1.00  0.00     0.025 C 
ATOM      6  C   UNL     1       0.815  78.260 -19.238  1.00  0.00     0.089 C 
ATOM      7  C   UNL     1      -0.086  77.998 -20.414  1.00  0.00     0.158 C 
ATOM      8  O   UNL     1      -0.531  78.976 -21.075  1.00  0.00    -0.295 OA
ENDROOT
BRANCH   5   9
ATOM      9  C   UNL     1       2.584  77.255 -17.735  1.00  0.00    -0.077 C 
ATOM     10  C   UNL     1       2.458  78.377 -17.009  1.00  0.00     0.008 C 
ATOM     11  C   UNL     1       3.588  76.219 -17.292  1.00  0.00     0.039 C 
ENDBRANCH   5   9
TORSDOF 1
ENDMDL
MODEL 8
REMARK VINA RESULT:    -4.035     18.689     19.229
REMARK INTER + INTRA:          -4.369
REMARK INTER:                  -4.278
REMARK INTRA:                  -0.091
REMARK UNBOUND:                -0.098
REMARK SMILES C=C(C)[C@H]1CC=C(C)C(=O)C1
REMARK SMILES IDX 8 1 7 2 6 3 5 4 4 5 11 6 9 7 10 8 2 9 1 10 3 11
REMARK H PARENT
REMARK Flexibility Score: inf
ROOT
ATOM      1  C   UNL     1      -0.501  74.606 -19.436  1.00  0.00     0.048 C 
ATOM      2  C   UNL     1      -0.475  75.745 -20.418  1.00  0.00    -0.012 C 
ATOM      3  C   UNL     1      -1.218  75.681 -21.537  1.00  0.00    -0.019 C 
ATOM      4  C   UNL     1      -1.215  76.786 -22.560  1.00  0.00     0.036 C 
ATOM      5  C   UNL     1      -1.007  78.159 -21.895  1.00  0.00     0.025 C 
ATOM      6  C   UNL     1       0.276  78.152 -21.043  1.00  0.00     0.089 C 
ATOM      7  C   UNL     1       0.270  76.986 -20.091  1.00  0.00     0.158 C 
ATOM      8  O   UNL     1       0.939  77.062 -19.025  1.00  0.00    -0.295 OA
ENDROOT
BRANCH   5   9
ATOM      9  C   UNL     1      -0.983  79.280 -22.925  1.00  0.00    -0.077 C 
ATOM     10  C   UNL     1      -1.297  80.534 -22.563  1.00  0.00     0.008 C 
ATOM     11  C   UNL     1      -0.609  79.018 -24.363  1.00  0.00     0.039 C 
ENDBRANCH   5   9
TORSDOF 1
ENDMDL
MODEL 9
REMARK VINA RESULT:    -4.013      9.681     11.151
REMARK INTER + INTRA:          -4.346
REMARK INTER:                  -4.248
REMARK INTRA:                  -0.099
REMARK UNBOUND:                -0.098
REMARK SMILES C=C(C)[C@H]1CC=C(C)C(=O)C1
REMARK SMILES IDX 8 1 7 2 6 3 5 4 4 5 11 6 9 7 10 8 2 9 1 10 3 11
REMARK H PARENT
REMARK Flexibility Score: inf
ROOT
ATOM      1  C   UNL     1      10.211  74.953 -30.925  1.00  0.00     0.048 C 
ATOM      2  C   UNL     1       8.722  74.890 -30.720  1.00  0.00    -0.012 C 
ATOM      3  C   UNL     1       8.153  73.748 -30.298  1.00  0.00    -0.019 C 
ATOM      4  C   UNL     1       6.666  73.626 -30.094  1.00  0.00     0.036 C 
ATOM      5  C   UNL     1       6.057  74.964 -29.634  1.00  0.00     0.025 C 
ATOM      6  C   UNL     1       6.418  76.085 -30.626  1.00  0.00     0.089 C 
ATOM      7  C   UNL     1       7.904  76.120 -30.864  1.00  0.00     0.158 C 
ATOM      8  O   UNL     1       8.441  77.201 -31.226  1.00  0.00    -0.295 OA
ENDROOT
BRANCH   5   9
ATOM      9  C   UNL     1       4.550  74.855 -29.444  1.00  0.00    -0.077 C 
ATOM     10  C   UNL     1       3.725  75.659 -30.133  1.00  0.00     0.008 C 
ATOM     11  C   UNL     1       3.949  73.851 -28.491  1.00  0.00     0.039 C 
ENDBRANCH   5   9
TORSDOF 1
ENDMDL
