MODEL 1
REMARK VINA RESULT:    -2.997      0.000      0.000
REMARK INTER + INTRA:          -4.871
REMARK INTER:                  -4.399
REMARK INTRA:                  -0.473
REMARK UNBOUND:                -0.473
REMARK SMILES O=C([O-])CCCCCCCC(=O)[O-]
REMARK SMILES IDX 7 1 6 2 5 3 4 4 2 5 1 6 3 7 8 8 9 9 10 10 11 11 12 12 13 13
REMARK H PARENT
REMARK Flexibility Score: inf
ROOT
ATOM      1  C   UNL     1     -16.620  14.276  -7.449  1.00  0.00     0.000 C 
ENDROOT
BRANCH   1   2
ATOM      2  C   UNL     1     -16.624  15.785  -7.168  1.00  0.00     0.000 C 
BRANCH   2   3
ATOM      3  C   UNL     1     -17.018  16.576  -8.422  1.00  0.00     0.006 C 
BRANCH   3   4
ATOM      4  C   UNL     1     -15.825  17.365  -8.971  1.00  0.00     0.053 C 
BRANCH   4   5
ATOM      5  C   UNL     1     -16.207  18.085 -10.226  1.00  0.00     0.041 C 
ATOM      6  O   UNL     1     -16.569  17.437 -11.243  1.00  0.00    -0.550 OA
ATOM      7  O   UNL     1     -16.117  19.470 -10.287  1.00  0.00    -0.550 OA
ENDBRANCH   4   5
ENDBRANCH   3   4
ENDBRANCH   2   3
ENDBRANCH   1   2
BRANCH   1   8
ATOM      8  C   UNL     1     -15.305  13.598  -7.034  1.00  0.00     0.000 C 
BRANCH   8   9
ATOM      9  C   UNL     1     -14.530  13.026  -8.230  1.00  0.00     0.006 C 
BRANCH   9  10
ATOM     10  C   UNL     1     -15.295  13.250  -9.538  1.00  0.00     0.053 C 
BRANCH  10  11
ATOM     11  C   UNL     1     -14.612  12.553 -10.671  1.00  0.00     0.041 C 
ATOM     12  O   UNL     1     -14.219  11.364 -10.539  1.00  0.00    -0.550 OA
ATOM     13  O   UNL     1     -14.364  13.232 -11.857  1.00  0.00    -0.550 OA
ENDBRANCH  10  11
ENDBRANCH   9  10
ENDBRANCH   8   9
ENDBRANCH   1   8
TORSDOF 8
ENDMDL
MODEL 2
REMARK VINA RESULT:    -2.955      2.106      6.041
REMARK INTER + INTRA:          -4.809
REMARK INTER:                  -4.540
REMARK INTRA:                  -0.269
REMARK UNBOUND:                -0.473
REMARK SMILES O=C([O-])CCCCCCCC(=O)[O-]
REMARK SMILES IDX 7 1 6 2 5 3 4 4 2 5 1 6 3 7 8 8 9 9 10 10 11 11 12 12 13 13
REMARK H PARENT
REMARK Flexibility Score: inf
ROOT
ATOM      1  C   UNL     1     -15.594  17.043  -8.864  1.00  0.00     0.000 C 
ENDROOT
BRANCH   1   2
ATOM      2  C   UNL     1     -16.311  16.343  -7.700  1.00  0.00     0.000 C 
BRANCH   2   3
ATOM      3  C   UNL     1     -16.616  14.880  -8.043  1.00  0.00     0.006 C 
BRANCH   3   4
ATOM      4  C   UNL     1     -15.847  13.928  -7.123  1.00  0.00     0.053 C 
BRANCH   4   5
ATOM      5  C   UNL     1     -14.735  13.262  -7.871  1.00  0.00     0.041 C 
ATOM      6  O   UNL     1     -13.795  12.704  -7.247  1.00  0.00    -0.550 OA
ATOM      7  O   UNL     1     -14.712  13.300  -9.260  1.00  0.00    -0.550 OA
ENDBRANCH   4   5
ENDBRANCH   3   4
ENDBRANCH   2   3
ENDBRANCH   1   2
BRANCH   1   8
ATOM      8  C   UNL     1     -16.412  18.204  -9.451  1.00  0.00     0.000 C 
BRANCH   8   9
ATOM      9  C   UNL     1     -15.976  18.575 -10.876  1.00  0.00     0.006 C 
BRANCH   9  10
ATOM     10  C   UNL     1     -15.910  20.095 -11.052  1.00  0.00     0.053 C 
BRANCH  10  11
ATOM     11  C   UNL     1     -14.672  20.484 -11.796  1.00  0.00     0.041 C 
ATOM     12  O   UNL     1     -13.918  19.597 -12.277  1.00  0.00    -0.550 OA
ATOM     13  O   UNL     1     -14.324  21.823 -11.916  1.00  0.00    -0.550 OA
ENDBRANCH  10  11
ENDBRANCH   9  10
ENDBRANCH   8   9
ENDBRANCH   1   8
TORSDOF 8
ENDMDL
MODEL 3
REMARK VINA RESULT:    -2.931      2.075      3.044
REMARK INTER + INTRA:          -4.775
REMARK INTER:                  -4.431
REMARK INTRA:                  -0.344
REMARK UNBOUND:                -0.473
REMARK SMILES O=C([O-])CCCCCCCC(=O)[O-]
REMARK SMILES IDX 7 1 6 2 5 3 4 4 2 5 1 6 3 7 8 8 9 9 10 10 11 11 12 12 13 13
REMARK H PARENT
REMARK Flexibility Score: inf
ROOT
ATOM      1  C   UNL     1     -15.637  17.167  -8.784  1.00  0.00     0.000 C 
ENDROOT
BRANCH   1   2
ATOM      2  C   UNL     1     -16.394  18.357  -9.394  1.00  0.00     0.000 C 
BRANCH   2   3
ATOM      3  C   UNL     1     -16.035  18.535 -10.874  1.00  0.00     0.006 C 
BRANCH   3   4
ATOM      4  C   UNL     1     -15.619  19.979 -11.168  1.00  0.00     0.053 C 
BRANCH   4   5
ATOM      5  C   UNL     1     -14.458  20.008 -12.112  1.00  0.00     0.041 C 
ATOM      6  O   UNL     1     -14.378  19.165 -13.044  1.00  0.00    -0.550 OA
ATOM      7  O   UNL     1     -13.439  20.935 -11.932  1.00  0.00    -0.550 OA
ENDBRANCH   4   5
ENDBRANCH   3   4
ENDBRANCH   2   3
ENDBRANCH   1   2
BRANCH   1   8
ATOM      8  C   UNL     1     -16.449  16.442  -7.700  1.00  0.00     0.000 C 
BRANCH   8   9
ATOM      9  C   UNL     1     -16.441  14.916  -7.874  1.00  0.00     0.006 C 
BRANCH   9  10
ATOM     10  C   UNL     1     -15.778  14.518  -9.196  1.00  0.00     0.053 C 
BRANCH  10  11
ATOM     11  C   UNL     1     -14.871  13.346  -8.996  1.00  0.00     0.041 C 
ATOM     12  O   UNL     1     -14.547  12.622  -9.975  1.00  0.00    -0.550 OA
ATOM     13  O   UNL     1     -14.423  13.022  -7.722  1.00  0.00    -0.550 OA
ENDBRANCH  10  11
ENDBRANCH   9  10
ENDBRANCH   8   9
ENDBRANCH   1   8
TORSDOF 8
ENDMDL
MODEL 4
REMARK VINA RESULT:    -2.829      1.480      2.531
REMARK INTER + INTRA:          -4.625
REMARK INTER:                  -4.153
REMARK INTRA:                  -0.472
REMARK UNBOUND:                -0.473
REMARK SMILES O=C([O-])CCCCCCCC(=O)[O-]
REMARK SMILES IDX 7 1 6 2 5 3 4 4 2 5 1 6 3 7 8 8 9 9 10 10 11 11 12 12 13 13
REMARK H PARENT
REMARK Flexibility Score: inf
ROOT
ATOM      1  C   UNL     1     -14.497  13.237  -8.355  1.00  0.00     0.000 C 
ENDROOT
BRANCH   1   2
ATOM      2  C   UNL     1     -15.534  13.437  -7.240  1.00  0.00     0.000 C 
BRANCH   2   3
ATOM      3  C   UNL     1     -16.697  14.314  -7.723  1.00  0.00     0.006 C 
BRANCH   3   4
ATOM      4  C   UNL     1     -16.351  15.801  -7.601  1.00  0.00     0.053 C 
BRANCH   4   5
ATOM      5  C   UNL     1     -16.306  16.440  -8.953  1.00  0.00     0.041 C 
ATOM      6  O   UNL     1     -16.869  15.888  -9.934  1.00  0.00    -0.550 OA
ATOM      7  O   UNL     1     -15.598  17.621  -9.140  1.00  0.00    -0.550 OA
ENDBRANCH   4   5
ENDBRANCH   3   4
ENDBRANCH   2   3
ENDBRANCH   1   2
BRANCH   1   8
ATOM      8  C   UNL     1     -15.136  12.833  -9.693  1.00  0.00     0.000 C 
BRANCH   8   9
ATOM      9  C   UNL     1     -14.308  11.788 -10.453  1.00  0.00     0.006 C 
BRANCH   9  10
ATOM     10  C   UNL     1     -13.793  12.354 -11.780  1.00  0.00     0.053 C 
BRANCH  10  11
ATOM     11  C   UNL     1     -14.928  12.592 -12.724  1.00  0.00     0.041 C 
ATOM     12  O   UNL     1     -15.184  13.759 -13.125  1.00  0.00    -0.550 OA
ATOM     13  O   UNL     1     -15.733  11.534 -13.125  1.00  0.00    -0.550 OA
ENDBRANCH  10  11
ENDBRANCH   9  10
ENDBRANCH   8   9
ENDBRANCH   1   8
TORSDOF 8
ENDMDL
MODEL 5
REMARK VINA RESULT:    -2.816      1.004      1.380
REMARK INTER + INTRA:          -4.605
REMARK INTER:                  -3.871
REMARK INTRA:                  -0.734
REMARK UNBOUND:                -0.473
REMARK SMILES O=C([O-])CCCCCCCC(=O)[O-]
REMARK SMILES IDX 7 1 6 2 5 3 4 4 2 5 1 6 3 7 8 8 9 9 10 10 11 11 12 12 13 13
REMARK H PARENT
REMARK Flexibility Score: inf
ROOT
ATOM      1  C   UNL     1     -15.835  14.052  -8.288  1.00  0.00     0.000 C 
ENDROOT
BRANCH   1   2
ATOM      2  C   UNL     1     -16.292  15.057  -7.220  1.00  0.00     0.000 C 
BRANCH   2   3
ATOM      3  C   UNL     1     -16.834  16.337  -7.868  1.00  0.00     0.006 C 
BRANCH   3   4
ATOM      4  C   UNL     1     -15.725  17.090  -8.609  1.00  0.00     0.053 C 
BRANCH   4   5
ATOM      5  C   UNL     1     -16.223  17.591  -9.927  1.00  0.00     0.041 C 
ATOM      6  O   UNL     1     -16.792  16.806 -10.730  1.00  0.00    -0.550 OA
ATOM      7  O   UNL     1     -16.016  18.916 -10.291  1.00  0.00    -0.550 OA
ENDBRANCH   4   5
ENDBRANCH   3   4
ENDBRANCH   2   3
ENDBRANCH   1   2
BRANCH   1   8
ATOM      8  C   UNL     1     -16.993  13.558  -9.170  1.00  0.00     0.000 C 
BRANCH   8   9
ATOM      9  C   UNL     1     -16.523  13.080 -10.551  1.00  0.00     0.006 C 
BRANCH   9  10
ATOM     10  C   UNL     1     -15.090  13.540 -10.833  1.00  0.00     0.053 C 
BRANCH  10  11
ATOM     11  C   UNL     1     -14.235  12.380 -11.232  1.00  0.00     0.041 C 
ATOM     12  O   UNL     1     -14.209  11.339 -10.523  1.00  0.00    -0.550 OA
ATOM     13  O   UNL     1     -13.428  12.464 -12.360  1.00  0.00    -0.550 OA
ENDBRANCH  10  11
ENDBRANCH   9  10
ENDBRANCH   8   9
ENDBRANCH   1   8
TORSDOF 8
ENDMDL
MODEL 6
REMARK VINA RESULT:    -2.804      1.035      4.993
REMARK INTER + INTRA:          -4.588
REMARK INTER:                  -3.852
REMARK INTRA:                  -0.736
REMARK UNBOUND:                -0.473
REMARK SMILES O=C([O-])CCCCCCCC(=O)[O-]
REMARK SMILES IDX 7 1 6 2 5 3 4 4 2 5 1 6 3 7 8 8 9 9 10 10 11 11 12 12 13 13
REMARK H PARENT
REMARK Flexibility Score: inf
ROOT
ATOM      1  C   UNL     1     -15.740  13.868  -8.279  1.00  0.00     0.000 C 
ENDROOT
BRANCH   1   2
ATOM      2  C   UNL     1     -16.946  13.508  -9.159  1.00  0.00     0.000 C 
BRANCH   2   3
ATOM      3  C   UNL     1     -16.493  13.068 -10.557  1.00  0.00     0.006 C 
BRANCH   3   4
ATOM      4  C   UNL     1     -15.056  13.518 -10.836  1.00  0.00     0.053 C 
BRANCH   4   5
ATOM      5  C   UNL     1     -14.214  12.353 -11.252  1.00  0.00     0.041 C 
ATOM      6  O   UNL     1     -14.154  11.325 -10.528  1.00  0.00    -0.550 OA
ATOM      7  O   UNL     1     -13.458  12.422 -12.415  1.00  0.00    -0.550 OA
ENDBRANCH   4   5
ENDBRANCH   3   4
ENDBRANCH   2   3
ENDBRANCH   1   2
BRANCH   1   8
ATOM      8  C   UNL     1     -16.086  14.897  -7.192  1.00  0.00     0.000 C 
BRANCH   8   9
ATOM      9  C   UNL     1     -16.695  16.185  -7.766  1.00  0.00     0.006 C 
BRANCH   9  10
ATOM     10  C   UNL     1     -15.660  16.964  -8.583  1.00  0.00     0.053 C 
BRANCH  10  11
ATOM     11  C   UNL     1     -16.280  17.515  -9.828  1.00  0.00     0.041 C 
ATOM     12  O   UNL     1     -16.815  16.740 -10.664  1.00  0.00    -0.550 OA
ATOM     13  O   UNL     1     -16.225  18.878 -10.089  1.00  0.00    -0.550 OA
ENDBRANCH  10  11
ENDBRANCH   9  10
ENDBRANCH   8   9
ENDBRANCH   1   8
TORSDOF 8
ENDMDL
MODEL 7
REMARK VINA RESULT:    -2.778      3.049      5.032
REMARK INTER + INTRA:          -4.550
REMARK INTER:                  -4.204
REMARK INTRA:                  -0.345
REMARK UNBOUND:                -0.473
REMARK SMILES O=C([O-])CCCCCCCC(=O)[O-]
REMARK SMILES IDX 7 1 6 2 5 3 4 4 2 5 1 6 3 7 8 8 9 9 10 10 11 11 12 12 13 13
REMARK H PARENT
REMARK Flexibility Score: inf
ROOT
ATOM      1  C   UNL     1     -15.630  14.852  -9.574  1.00  0.00     0.000 C 
ENDROOT
BRANCH   1   2
ATOM      2  C   UNL     1     -16.501  14.738 -10.833  1.00  0.00     0.000 C 
BRANCH   2   3
ATOM      3  C   UNL     1     -16.291  13.386 -11.525  1.00  0.00     0.006 C 
BRANCH   3   4
ATOM      4  C   UNL     1     -15.120  13.449 -12.511  1.00  0.00     0.053 C 
BRANCH   4   5
ATOM      5  C   UNL     1     -14.013  12.545 -12.066  1.00  0.00     0.041 C 
ATOM      6  O   UNL     1     -12.987  12.401 -12.781  1.00  0.00    -0.550 OA
ATOM      7  O   UNL     1     -14.136  11.825 -10.885  1.00  0.00    -0.550 OA
ENDBRANCH   4   5
ENDBRANCH   3   4
ENDBRANCH   2   3
ENDBRANCH   1   2
BRANCH   1   8
ATOM      8  C   UNL     1     -16.118  15.948  -8.613  1.00  0.00     0.000 C 
BRANCH   8   9
ATOM      9  C   UNL     1     -16.940  15.388  -7.443  1.00  0.00     0.006 C 
BRANCH   9  10
ATOM     10  C   UNL     1     -17.123  13.873  -7.577  1.00  0.00     0.053 C 
BRANCH  10  11
ATOM     11  C   UNL     1     -16.388  13.157  -6.490  1.00  0.00     0.041 C 
ATOM     12  O   UNL     1     -15.128  13.131  -6.488  1.00  0.00    -0.550 OA
ATOM     13  O   UNL     1     -17.092  12.476  -5.505  1.00  0.00    -0.550 OA
ENDBRANCH  10  11
ENDBRANCH   9  10
ENDBRANCH   8   9
ENDBRANCH   1   8
TORSDOF 8
ENDMDL
MODEL 8
REMARK VINA RESULT:    -2.672      2.631      4.041
REMARK INTER + INTRA:          -4.394
REMARK INTER:                  -3.781
REMARK INTRA:                  -0.612
REMARK UNBOUND:                -0.473
REMARK SMILES O=C([O-])CCCCCCCC(=O)[O-]
REMARK SMILES IDX 7 1 6 2 5 3 4 4 2 5 1 6 3 7 8 8 9 9 10 10 11 11 12 12 13 13
REMARK H PARENT
REMARK Flexibility Score: inf
ROOT
ATOM      1  C   UNL     1     -17.114  15.486  -9.867  1.00  0.00     0.000 C 
ENDROOT
BRANCH   1   2
ATOM      2  C   UNL     1     -16.110  16.241  -8.985  1.00  0.00     0.000 C 
BRANCH   2   3
ATOM      3  C   UNL     1     -16.297  15.879  -7.506  1.00  0.00     0.006 C 
BRANCH   3   4
ATOM      4  C   UNL     1     -17.041  14.548  -7.357  1.00  0.00     0.053 C 
BRANCH   4   5
ATOM      5  C   UNL     1     -16.099  13.468  -6.929  1.00  0.00     0.041 C 
ATOM      6  O   UNL     1     -16.377  12.738  -5.942  1.00  0.00    -0.550 OA
ATOM      7  O   UNL     1     -14.889  13.298  -7.591  1.00  0.00    -0.550 OA
ENDBRANCH   4   5
ENDBRANCH   3   4
ENDBRANCH   2   3
ENDBRANCH   1   2
BRANCH   1   8
ATOM      8  C   UNL     1     -16.815  15.635 -11.367  1.00  0.00     0.000 C 
BRANCH   8   9
ATOM      9  C   UNL     1     -16.377  14.315 -12.019  1.00  0.00     0.006 C 
BRANCH   9  10
ATOM     10  C   UNL     1     -16.107  13.243 -10.959  1.00  0.00     0.053 C 
BRANCH  10  11
ATOM     11  C   UNL     1     -14.769  12.613 -11.179  1.00  0.00     0.041 C 
ATOM     12  O   UNL     1     -14.028  13.012 -12.116  1.00  0.00    -0.550 OA
ATOM     13  O   UNL     1     -14.359  11.553 -10.381  1.00  0.00    -0.550 OA
ENDBRANCH  10  11
ENDBRANCH   9  10
ENDBRANCH   8   9
ENDBRANCH   1   8
TORSDOF 8
ENDMDL
MODEL 9
REMARK VINA RESULT:    -2.386      2.556      5.195
REMARK INTER + INTRA:          -3.974
REMARK INTER:                  -3.396
REMARK INTRA:                  -0.577
REMARK UNBOUND:                -0.473
REMARK SMILES O=C([O-])CCCCCCCC(=O)[O-]
REMARK SMILES IDX 7 1 6 2 5 3 4 4 2 5 1 6 3 7 8 8 9 9 10 10 11 11 12 12 13 13
REMARK H PARENT
REMARK Flexibility Score: inf
ROOT
ATOM      1  C   UNL     1     -14.227  12.731 -11.992  1.00  0.00     0.000 C 
ENDROOT
BRANCH   1   2
ATOM      2  C   UNL     1     -14.864  11.984 -10.811  1.00  0.00     0.000 C 
BRANCH   2   3
ATOM      3  C   UNL     1     -14.635  12.739  -9.496  1.00  0.00     0.006 C 
BRANCH   3   4
ATOM      4  C   UNL     1     -15.907  13.466  -9.050  1.00  0.00     0.053 C 
BRANCH   4   5
ATOM      5  C   UNL     1     -15.753  13.984  -7.656  1.00  0.00     0.041 C 
ATOM      6  O   UNL     1     -14.978  13.409  -6.848  1.00  0.00    -0.550 OA
ATOM      7  O   UNL     1     -16.502  15.075  -7.233  1.00  0.00    -0.550 OA
ENDBRANCH   4   5
ENDBRANCH   3   4
ENDBRANCH   2   3
ENDBRANCH   1   2
BRANCH   1   8
ATOM      8  C   UNL     1     -15.246  13.088 -13.086  1.00  0.00     0.000 C 
BRANCH   8   9
ATOM      9  C   UNL     1     -15.608  14.580 -13.095  1.00  0.00     0.006 C 
BRANCH   9  10
ATOM     10  C   UNL     1     -16.879  14.841 -12.280  1.00  0.00     0.053 C 
BRANCH  10  11
ATOM     11  C   UNL     1     -16.962  16.280 -11.883  1.00  0.00     0.041 C 
ATOM     12  O   UNL     1     -17.120  17.171 -12.760  1.00  0.00    -0.550 OA
ATOM     13  O   UNL     1     -16.816  16.645 -10.551  1.00  0.00    -0.550 OA
ENDBRANCH  10  11
ENDBRANCH   9  10
ENDBRANCH   8   9
ENDBRANCH   1   8
TORSDOF 8
ENDMDL
