MODEL 1
REMARK VINA RESULT:    -7.186      0.000      0.000
REMARK INTER + INTRA:         -12.182
REMARK INTER:                 -10.547
REMARK INTRA:                  -1.635
REMARK UNBOUND:                -1.635
REMARK SMILES Cc1cc2c(C(C)C)c(O)c(O)c(C=O)c2c(O)c1-c1c(C)cc2c(C(C)C)c(O)c(O)c(C=O)c2c1O
REMARK SMILES IDX 1 1 2 2 3 3 4 4 16 5 13 6 11 7 9 8 5 9 17 10 19 11 20 12
REMARK SMILES IDX 37 13 21 14 36 15 23 16 22 17 24 18 33 19 25 20 31 21 29 22
REMARK SMILES IDX 38 23 34 25 35 26 26 27 27 28 28 29 32 30 30 32 18 34 6 36
REMARK SMILES IDX 7 37 8 38 14 39 15 40 10 41 12 43
REMARK H PARENT 38 24 32 31 30 33 18 35 10 42 12 44
REMARK Flexibility Score: inf
ROOT
ATOM      1  C   UNL     1      -9.653  30.002  -9.916  1.00  0.00     0.045 C 
ATOM      2  C   UNL     1     -10.593  29.699  -8.774  1.00  0.00    -0.039 A 
ATOM      3  C   UNL     1     -11.206  30.749  -8.090  1.00  0.00     0.013 A 
ATOM      4  C   UNL     1     -12.095  30.529  -7.020  1.00  0.00    -0.006 A 
ATOM      5  C   UNL     1     -12.277  29.193  -6.549  1.00  0.00     0.039 A 
ATOM      6  C   UNL     1     -13.035  28.975  -5.359  1.00  0.00     0.072 A 
ATOM      7  C   UNL     1     -13.618  30.069  -4.688  1.00  0.00     0.169 A 
ATOM      8  C   UNL     1     -13.519  31.361  -5.214  1.00  0.00     0.162 A 
ATOM      9  C   UNL     1     -12.800  31.612  -6.403  1.00  0.00     0.008 A 
ATOM     10  C   UNL     1     -11.712  28.114  -7.299  1.00  0.00     0.132 A 
ATOM     11  C   UNL     1     -10.876  28.376  -8.405  1.00  0.00     0.031 A 
ENDROOT
BRANCH  11  12
ATOM     12  C   UNL     1     -10.302  27.253  -9.192  1.00  0.00     0.031 A 
ATOM     13  C   UNL     1      -9.011  26.764  -8.898  1.00  0.00     0.132 A 
ATOM     14  C   UNL     1     -11.064  26.656 -10.207  1.00  0.00    -0.039 A 
ATOM     15  C   UNL     1      -8.436  25.721  -9.686  1.00  0.00     0.039 A 
ATOM     16  C   UNL     1     -10.535  25.582 -10.924  1.00  0.00     0.013 A 
ATOM     17  C   UNL     1     -12.467  27.125 -10.504  1.00  0.00     0.045 C 
ATOM     18  C   UNL     1      -9.222  25.115 -10.715  1.00  0.00    -0.006 A 
ATOM     19  C   UNL     1      -7.118  25.234  -9.448  1.00  0.00     0.072 A 
ATOM     20  C   UNL     1      -8.685  24.038 -11.489  1.00  0.00     0.008 A 
ATOM     21  C   UNL     1      -6.684  24.062 -10.088  1.00  0.00     0.169 A 
ATOM     22  C   UNL     1      -7.478  23.439 -11.055  1.00  0.00     0.162 A 
BRANCH  13  23
ATOM     23  O   UNL     1      -8.321  27.282  -7.796  1.00  0.00    -0.507 OA
ATOM     24  H   UNL     1      -8.745  27.867  -7.087  1.00  0.00     0.293 HD
ENDBRANCH  13  23
BRANCH  19  25
ATOM     25  C   UNL     1      -6.148  25.957  -8.593  1.00  0.00     0.264 C 
ATOM     26  O   UNL     1      -5.814  25.510  -7.463  1.00  0.00    -0.298 OA
ENDBRANCH  19  25
BRANCH  20  27
ATOM     27  C   UNL     1      -9.306  23.543 -12.811  1.00  0.00     0.017 C 
ATOM     28  C   UNL     1     -10.573  22.707 -12.587  1.00  0.00     0.012 C 
ATOM     29  C   UNL     1      -9.494  24.642 -13.878  1.00  0.00     0.012 C 
ENDBRANCH  20  27
BRANCH  21  30
ATOM     30  O   UNL     1      -5.430  23.527  -9.770  1.00  0.00    -0.504 OA
ATOM     31  H   UNL     1      -5.127  22.613 -10.081  1.00  0.00     0.293 HD
ENDBRANCH  21  30
BRANCH  22  32
ATOM     32  O   UNL     1      -7.027  22.217 -11.571  1.00  0.00    -0.504 OA
ATOM     33  H   UNL     1      -6.051  21.980 -11.688  1.00  0.00     0.293 HD
ENDBRANCH  22  32
ENDBRANCH  11  12
BRANCH  10  34
ATOM     34  O   UNL     1     -12.003  26.787  -6.962  1.00  0.00    -0.507 OA
ATOM     35  H   UNL     1     -12.277  26.486  -6.035  1.00  0.00     0.293 HD
ENDBRANCH  10  34
BRANCH   9  36
ATOM     36  C   UNL     1     -12.838  33.049  -6.963  1.00  0.00     0.017 C 
ATOM     37  C   UNL     1     -11.607  33.867  -6.549  1.00  0.00     0.012 C 
ATOM     38  C   UNL     1     -13.144  33.135  -8.473  1.00  0.00     0.012 C 
ENDBRANCH   9  36
BRANCH   6  39
ATOM     39  C   UNL     1     -13.168  27.635  -4.753  1.00  0.00     0.264 C 
ATOM     40  O   UNL     1     -12.403  27.273  -3.820  1.00  0.00    -0.298 OA
ENDBRANCH   6  39
BRANCH   8  41
ATOM     41  O   UNL     1     -14.131  32.420  -4.535  1.00  0.00    -0.504 OA
ATOM     42  H   UNL     1     -13.612  33.123  -4.024  1.00  0.00     0.293 HD
ENDBRANCH   8  41
BRANCH   7  43
ATOM     43  O   UNL     1     -14.294  29.908  -3.472  1.00  0.00    -0.504 OA
ATOM     44  H   UNL     1     -14.225  29.085  -2.888  1.00  0.00     0.293 HD
ENDBRANCH   7  43
TORSDOF 11
ENDMDL
MODEL 2
REMARK VINA RESULT:    -6.992      1.600      2.967
REMARK INTER + INTRA:         -11.898
REMARK INTER:                 -10.297
REMARK INTRA:                  -1.601
REMARK UNBOUND:                -1.635
REMARK SMILES Cc1cc2c(C(C)C)c(O)c(O)c(C=O)c2c(O)c1-c1c(C)cc2c(C(C)C)c(O)c(O)c(C=O)c2c1O
REMARK SMILES IDX 1 1 2 2 3 3 4 4 16 5 13 6 11 7 9 8 5 9 17 10 19 11 20 12
REMARK SMILES IDX 37 13 21 14 36 15 23 16 22 17 24 18 33 19 25 20 31 21 29 22
REMARK SMILES IDX 38 23 34 25 35 26 26 27 27 28 28 29 32 30 30 32 18 34 6 36
REMARK SMILES IDX 7 37 8 38 14 39 15 40 10 41 12 43
REMARK H PARENT 38 24 32 31 30 33 18 35 10 42 12 44
REMARK Flexibility Score: inf
ROOT
ATOM      1  C   UNL     1      -9.243  30.146  -9.928  1.00  0.00     0.045 C 
ATOM      2  C   UNL     1     -10.243  29.810  -8.848  1.00  0.00    -0.039 A 
ATOM      3  C   UNL     1     -10.998  30.829  -8.269  1.00  0.00     0.013 A 
ATOM      4  C   UNL     1     -11.950  30.577  -7.261  1.00  0.00    -0.006 A 
ATOM      5  C   UNL     1     -12.053  29.252  -6.737  1.00  0.00     0.039 A 
ATOM      6  C   UNL     1     -12.884  29.019  -5.600  1.00  0.00     0.072 A 
ATOM      7  C   UNL     1     -13.612  30.083  -5.033  1.00  0.00     0.169 A 
ATOM      8  C   UNL     1     -13.584  31.355  -5.615  1.00  0.00     0.162 A 
ATOM      9  C   UNL     1     -12.794  31.618  -6.756  1.00  0.00     0.008 A 
ATOM     10  C   UNL     1     -11.337  28.197  -7.385  1.00  0.00     0.132 A 
ATOM     11  C   UNL     1     -10.439  28.484  -8.435  1.00  0.00     0.031 A 
ENDROOT
BRANCH  11  12
ATOM     12  C   UNL     1      -9.707  27.384  -9.117  1.00  0.00     0.031 A 
ATOM     13  C   UNL     1     -10.278  26.732 -10.230  1.00  0.00     0.132 A 
ATOM     14  C   UNL     1      -8.428  27.022  -8.671  1.00  0.00    -0.039 A 
ATOM     15  C   UNL     1      -9.600  25.641 -10.854  1.00  0.00     0.039 A 
ATOM     16  C   UNL     1      -7.729  26.011  -9.331  1.00  0.00     0.013 A 
ATOM     17  C   UNL     1      -7.774  27.742  -7.517  1.00  0.00     0.045 C 
ATOM     18  C   UNL     1      -8.295  25.280 -10.396  1.00  0.00    -0.006 A 
ATOM     19  C   UNL     1     -10.166  24.928 -11.950  1.00  0.00     0.072 A 
ATOM     20  C   UNL     1      -7.576  24.220 -11.033  1.00  0.00     0.008 A 
ATOM     21  C   UNL     1      -9.374  24.024 -12.676  1.00  0.00     0.169 A 
ATOM     22  C   UNL     1      -8.076  23.715 -12.258  1.00  0.00     0.162 A 
BRANCH  13  23
ATOM     23  O   UNL     1     -11.494  27.197 -10.743  1.00  0.00    -0.507 OA
ATOM     24  H   UNL     1     -12.292  26.603 -10.931  1.00  0.00     0.293 HD
ENDBRANCH  13  23
BRANCH  19  25
ATOM     25  C   UNL     1     -11.595  25.051 -12.324  1.00  0.00     0.264 C 
ATOM     26  O   UNL     1     -11.948  25.690 -13.352  1.00  0.00    -0.298 OA
ENDBRANCH  19  25
BRANCH  20  27
ATOM     27  C   UNL     1      -6.330  23.546 -10.425  1.00  0.00     0.017 C 
ATOM     28  C   UNL     1      -6.522  22.038 -10.216  1.00  0.00     0.012 C 
ATOM     29  C   UNL     1      -5.006  23.888 -11.141  1.00  0.00     0.012 C 
ENDBRANCH  20  27
BRANCH  21  30
ATOM     30  O   UNL     1      -9.900  23.407 -13.816  1.00  0.00    -0.504 OA
ATOM     31  H   UNL     1     -10.653  22.731 -13.779  1.00  0.00     0.293 HD
ENDBRANCH  21  30
BRANCH  22  32
ATOM     32  O   UNL     1      -7.310  22.888 -13.089  1.00  0.00    -0.504 OA
ATOM     33  H   UNL     1      -6.507  23.206 -13.615  1.00  0.00     0.293 HD
ENDBRANCH  22  32
ENDBRANCH  11  12
BRANCH  10  34
ATOM     34  O   UNL     1     -11.537  26.865  -7.004  1.00  0.00    -0.507 OA
ATOM     35  H   UNL     1     -11.006  26.086  -7.371  1.00  0.00     0.293 HD
ENDBRANCH  10  34
BRANCH   9  36
ATOM     36  C   UNL     1     -12.911  33.019  -7.390  1.00  0.00     0.017 C 
ATOM     37  C   UNL     1     -11.831  33.982  -6.877  1.00  0.00     0.012 C 
ATOM     38  C   UNL     1     -13.036  33.013  -8.929  1.00  0.00     0.012 C 
ENDBRANCH   9  36
BRANCH   6  39
ATOM     39  C   UNL     1     -12.949  27.700  -4.938  1.00  0.00     0.264 C 
ATOM     40  O   UNL     1     -12.251  27.459  -3.917  1.00  0.00    -0.298 OA
ENDBRANCH   6  39
BRANCH   8  41
ATOM     41  O   UNL     1     -14.339  32.383  -5.041  1.00  0.00    -0.504 OA
ATOM     42  H   UNL     1     -13.951  33.061  -4.396  1.00  0.00     0.293 HD
ENDBRANCH   8  41
BRANCH   7  43
ATOM     43  O   UNL     1     -14.369  29.916  -3.867  1.00  0.00    -0.504 OA
ATOM     44  H   UNL     1     -14.607  30.667  -3.232  1.00  0.00     0.293 HD
ENDBRANCH   7  43
TORSDOF 11
ENDMDL
MODEL 3
REMARK VINA RESULT:    -6.736      1.061      8.884
REMARK INTER + INTRA:         -11.522
REMARK INTER:                  -9.890
REMARK INTRA:                  -1.632
REMARK UNBOUND:                -1.635
REMARK SMILES Cc1cc2c(C(C)C)c(O)c(O)c(C=O)c2c(O)c1-c1c(C)cc2c(C(C)C)c(O)c(O)c(C=O)c2c1O
REMARK SMILES IDX 1 1 2 2 3 3 4 4 16 5 13 6 11 7 9 8 5 9 17 10 19 11 20 12
REMARK SMILES IDX 37 13 21 14 36 15 23 16 22 17 24 18 33 19 25 20 31 21 29 22
REMARK SMILES IDX 38 23 34 25 35 26 26 27 27 28 28 29 32 30 30 32 18 34 6 36
REMARK SMILES IDX 7 37 8 38 14 39 15 40 10 41 12 43
REMARK H PARENT 38 24 32 31 30 33 18 35 10 42 12 44
REMARK Flexibility Score: inf
ROOT
ATOM      1  C   UNL     1     -11.846  27.344 -10.005  1.00  0.00     0.045 C 
ATOM      2  C   UNL     1     -10.436  27.096  -9.527  1.00  0.00    -0.039 A 
ATOM      3  C   UNL     1      -9.688  26.067 -10.097  1.00  0.00     0.013 A 
ATOM      4  C   UNL     1      -8.365  25.790  -9.698  1.00  0.00    -0.006 A 
ATOM      5  C   UNL     1      -7.823  26.513  -8.591  1.00  0.00     0.039 A 
ATOM      6  C   UNL     1      -6.554  26.124  -8.064  1.00  0.00     0.072 A 
ATOM      7  C   UNL     1      -5.843  25.063  -8.659  1.00  0.00     0.169 A 
ATOM      8  C   UNL     1      -6.336  24.429  -9.804  1.00  0.00     0.162 A 
ATOM      9  C   UNL     1      -7.575  24.803 -10.369  1.00  0.00     0.008 A 
ATOM     10  C   UNL     1      -8.559  27.618  -8.062  1.00  0.00     0.132 A 
ATOM     11  C   UNL     1      -9.859  27.902  -8.534  1.00  0.00     0.031 A 
ENDROOT
BRANCH  11  12
ATOM     12  C   UNL     1     -10.617  29.060  -7.993  1.00  0.00     0.031 A 
ATOM     13  C   UNL     1     -11.420  28.911  -6.842  1.00  0.00     0.132 A 
ATOM     14  C   UNL     1     -10.503  30.314  -8.611  1.00  0.00    -0.039 A 
ATOM     15  C   UNL     1     -12.190  30.008  -6.351  1.00  0.00     0.039 A 
ATOM     16  C   UNL     1     -11.190  31.407  -8.083  1.00  0.00     0.013 A 
ATOM     17  C   UNL     1      -9.607  30.511  -9.810  1.00  0.00     0.045 C 
ATOM     18  C   UNL     1     -12.064  31.284  -6.984  1.00  0.00    -0.006 A 
ATOM     19  C   UNL     1     -13.048  29.882  -5.220  1.00  0.00     0.072 A 
ATOM     20  C   UNL     1     -12.791  32.410  -6.483  1.00  0.00     0.008 A 
ATOM     21  C   UNL     1     -13.602  31.032  -4.635  1.00  0.00     0.169 A 
ATOM     22  C   UNL     1     -13.430  32.288  -5.225  1.00  0.00     0.162 A 
BRANCH  13  23
ATOM     23  O   UNL     1     -11.415  27.688  -6.162  1.00  0.00    -0.507 OA
ATOM     24  H   UNL     1     -12.253  27.183  -5.901  1.00  0.00     0.293 HD
ENDBRANCH  13  23
BRANCH  19  25
ATOM     25  C   UNL     1     -13.440  28.565  -4.664  1.00  0.00     0.264 C 
ATOM     26  O   UNL     1     -12.980  28.158  -3.563  1.00  0.00    -0.298 OA
ENDBRANCH  19  25
BRANCH  20  27
ATOM     27  C   UNL     1     -12.981  33.722  -7.269  1.00  0.00     0.017 C 
ATOM     28  C   UNL     1     -11.876  34.746  -6.977  1.00  0.00     0.012 C 
ATOM     29  C   UNL     1     -13.237  33.530  -8.779  1.00  0.00     0.012 C 
ENDBRANCH  20  27
BRANCH  21  30
ATOM     30  O   UNL     1     -14.355  30.915  -3.461  1.00  0.00    -0.504 OA
ATOM     31  H   UNL     1     -15.342  31.132  -3.418  1.00  0.00     0.293 HD
ENDBRANCH  21  30
BRANCH  22  32
ATOM     32  O   UNL     1     -13.920  33.400  -4.530  1.00  0.00    -0.504 OA
ATOM     33  H   UNL     1     -14.826  33.817  -4.698  1.00  0.00     0.293 HD
ENDBRANCH  22  32
ENDBRANCH  11  12
BRANCH  10  34
ATOM     34  O   UNL     1      -7.992  28.448  -7.088  1.00  0.00    -0.507 OA
ATOM     35  H   UNL     1      -7.003  28.473  -6.872  1.00  0.00     0.293 HD
ENDBRANCH  10  34
BRANCH   9  36
ATOM     36  C   UNL     1      -7.983  24.123 -11.692  1.00  0.00     0.017 C 
ATOM     37  C   UNL     1      -9.186  23.184 -11.516  1.00  0.00     0.012 C 
ATOM     38  C   UNL     1      -8.139  25.091 -12.884  1.00  0.00     0.012 C 
ENDBRANCH   9  36
BRANCH   6  39
ATOM     39  C   UNL     1      -5.987  26.751  -6.854  1.00  0.00     0.264 C 
ATOM     40  O   UNL     1      -6.122  26.208  -5.726  1.00  0.00    -0.298 OA
ENDBRANCH   6  39
BRANCH   8  41
ATOM     41  O   UNL     1      -5.592  23.395 -10.383  1.00  0.00    -0.504 OA
ATOM     42  H   UNL     1      -5.973  22.758 -11.072  1.00  0.00     0.293 HD
ENDBRANCH   8  41
BRANCH   7  43
ATOM     43  O   UNL     1      -4.639  24.594  -8.120  1.00  0.00    -0.504 OA
ATOM     44  H   UNL     1      -4.504  24.364  -7.144  1.00  0.00     0.293 HD
ENDBRANCH   7  43
TORSDOF 11
ENDMDL
MODEL 4
REMARK VINA RESULT:    -6.716      6.278      9.627
REMARK INTER + INTRA:         -11.493
REMARK INTER:                  -9.730
REMARK INTRA:                  -1.763
REMARK UNBOUND:                -1.635
REMARK SMILES Cc1cc2c(C(C)C)c(O)c(O)c(C=O)c2c(O)c1-c1c(C)cc2c(C(C)C)c(O)c(O)c(C=O)c2c1O
REMARK SMILES IDX 1 1 2 2 3 3 4 4 16 5 13 6 11 7 9 8 5 9 17 10 19 11 20 12
REMARK SMILES IDX 37 13 21 14 36 15 23 16 22 17 24 18 33 19 25 20 31 21 29 22
REMARK SMILES IDX 38 23 34 25 35 26 26 27 27 28 28 29 32 30 30 32 18 34 6 36
REMARK SMILES IDX 7 37 8 38 14 39 15 40 10 41 12 43
REMARK H PARENT 38 24 32 31 30 33 18 35 10 42 12 44
REMARK Flexibility Score: inf
ROOT
ATOM      1  C   UNL     1     -16.591  24.533 -11.910  1.00  0.00     0.045 C 
ATOM      2  C   UNL     1     -16.447  25.321 -13.190  1.00  0.00    -0.039 A 
ATOM      3  C   UNL     1     -17.335  25.092 -14.242  1.00  0.00     0.013 A 
ATOM      4  C   UNL     1     -17.254  25.799 -15.458  1.00  0.00    -0.006 A 
ATOM      5  C   UNL     1     -16.155  26.690 -15.656  1.00  0.00     0.039 A 
ATOM      6  C   UNL     1     -15.964  27.277 -16.943  1.00  0.00     0.072 A 
ATOM      7  C   UNL     1     -16.873  27.000 -17.984  1.00  0.00     0.169 A 
ATOM      8  C   UNL     1     -18.002  26.209 -17.750  1.00  0.00     0.162 A 
ATOM      9  C   UNL     1     -18.239  25.631 -16.484  1.00  0.00     0.008 A 
ATOM     10  C   UNL     1     -15.295  26.982 -14.552  1.00  0.00     0.132 A 
ATOM     11  C   UNL     1     -15.449  26.296 -13.328  1.00  0.00     0.031 A 
ENDROOT
BRANCH  11  12
ATOM     12  C   UNL     1     -14.563  26.611 -12.176  1.00  0.00     0.031 A 
ATOM     13  C   UNL     1     -13.301  25.992 -12.058  1.00  0.00     0.132 A 
ATOM     14  C   UNL     1     -14.973  27.556 -11.224  1.00  0.00    -0.039 A 
ATOM     15  C   UNL     1     -12.471  26.253 -10.926  1.00  0.00     0.039 A 
ATOM     16  C   UNL     1     -14.127  27.874 -10.161  1.00  0.00     0.013 A 
ATOM     17  C   UNL     1     -16.295  28.272 -11.358  1.00  0.00     0.045 C 
ATOM     18  C   UNL     1     -12.894  27.220  -9.963  1.00  0.00    -0.006 A 
ATOM     19  C   UNL     1     -11.211  25.611 -10.749  1.00  0.00     0.072 A 
ATOM     20  C   UNL     1     -12.060  27.533  -8.843  1.00  0.00     0.008 A 
ATOM     21  C   UNL     1     -10.332  26.066  -9.753  1.00  0.00     0.169 A 
ATOM     22  C   UNL     1     -10.728  27.053  -8.846  1.00  0.00     0.162 A 
BRANCH  13  23
ATOM     23  O   UNL     1     -12.853  25.155 -13.087  1.00  0.00    -0.507 OA
ATOM     24  H   UNL     1     -12.874  25.405 -14.068  1.00  0.00     0.293 HD
ENDBRANCH  13  23
BRANCH  19  25
ATOM     25  C   UNL     1     -10.807  24.424 -11.540  1.00  0.00     0.264 C 
ATOM     26  O   UNL     1      -9.957  24.515 -12.466  1.00  0.00    -0.298 OA
ENDBRANCH  19  25
BRANCH  20  27
ATOM     27  C   UNL     1     -12.552  28.299  -7.599  1.00  0.00     0.017 C 
ATOM     28  C   UNL     1     -12.412  27.477  -6.310  1.00  0.00     0.012 C 
ATOM     29  C   UNL     1     -11.984  29.728  -7.462  1.00  0.00     0.012 C 
ENDBRANCH  20  27
BRANCH  21  30
ATOM     30  O   UNL     1      -9.054  25.505  -9.653  1.00  0.00    -0.504 OA
ATOM     31  H   UNL     1      -8.836  24.740  -9.028  1.00  0.00     0.293 HD
ENDBRANCH  21  30
BRANCH  22  32
ATOM     32  O   UNL     1      -9.764  27.531  -7.950  1.00  0.00    -0.504 OA
ATOM     33  H   UNL     1      -9.623  28.510  -7.742  1.00  0.00     0.293 HD
ENDBRANCH  22  32
ENDBRANCH  11  12
BRANCH  10  34
ATOM     34  O   UNL     1     -14.309  27.968 -14.662  1.00  0.00    -0.507 OA
ATOM     35  H   UNL     1     -14.141  28.681 -13.963  1.00  0.00     0.293 HD
ENDBRANCH  10  34
BRANCH   9  36
ATOM     36  C   UNL     1     -19.564  24.865 -16.292  1.00  0.00     0.017 C 
ATOM     37  C   UNL     1     -19.347  23.350 -16.170  1.00  0.00     0.012 C 
ATOM     38  C   UNL     1     -20.477  25.438 -15.187  1.00  0.00     0.012 C 
ENDBRANCH   9  36
BRANCH   6  39
ATOM     39  C   UNL     1     -14.787  28.115 -17.251  1.00  0.00     0.264 C 
ATOM     40  O   UNL     1     -14.914  29.353 -17.447  1.00  0.00    -0.298 OA
ENDBRANCH   6  39
BRANCH   8  41
ATOM     41  O   UNL     1     -18.897  25.974 -18.800  1.00  0.00    -0.504 OA
ATOM     42  H   UNL     1     -19.775  25.484 -18.679  1.00  0.00     0.293 HD
ENDBRANCH   8  41
BRANCH   7  43
ATOM     43  O   UNL     1     -16.673  27.486 -19.282  1.00  0.00    -0.504 OA
ATOM     44  H   UNL     1     -17.414  27.819 -19.884  1.00  0.00     0.293 HD
ENDBRANCH   7  43
TORSDOF 11
ENDMDL
MODEL 5
REMARK VINA RESULT:    -6.659      6.398      9.058
REMARK INTER + INTRA:         -11.408
REMARK INTER:                  -9.858
REMARK INTRA:                  -1.550
REMARK UNBOUND:                -1.635
REMARK SMILES Cc1cc2c(C(C)C)c(O)c(O)c(C=O)c2c(O)c1-c1c(C)cc2c(C(C)C)c(O)c(O)c(C=O)c2c1O
REMARK SMILES IDX 1 1 2 2 3 3 4 4 16 5 13 6 11 7 9 8 5 9 17 10 19 11 20 12
REMARK SMILES IDX 37 13 21 14 36 15 23 16 22 17 24 18 33 19 25 20 31 21 29 22
REMARK SMILES IDX 38 23 34 25 35 26 26 27 27 28 28 29 32 30 30 32 18 34 6 36
REMARK SMILES IDX 7 37 8 38 14 39 15 40 10 41 12 43
REMARK H PARENT 38 24 32 31 30 33 18 35 10 42 12 44
REMARK Flexibility Score: inf
ROOT
ATOM      1  C   UNL     1     -16.242  28.523 -11.494  1.00  0.00     0.045 C 
ATOM      2  C   UNL     1     -14.992  27.687 -11.355  1.00  0.00    -0.039 A 
ATOM      3  C   UNL     1     -14.122  27.924 -10.291  1.00  0.00     0.013 A 
ATOM      4  C   UNL     1     -12.943  27.174 -10.105  1.00  0.00    -0.006 A 
ATOM      5  C   UNL     1     -12.575  26.225 -11.108  1.00  0.00     0.039 A 
ATOM      6  C   UNL     1     -11.301  25.587 -11.023  1.00  0.00     0.072 A 
ATOM      7  C   UNL     1     -10.443  25.873  -9.941  1.00  0.00     0.169 A 
ATOM      8  C   UNL     1     -10.856  26.725  -8.912  1.00  0.00     0.162 A 
ATOM      9  C   UNL     1     -12.119  27.355  -8.949  1.00  0.00     0.008 A 
ATOM     10  C   UNL     1     -13.505  25.929 -12.153  1.00  0.00     0.132 A 
ATOM     11  C   UNL     1     -14.706  26.661 -12.267  1.00  0.00     0.031 A 
ENDROOT
BRANCH  11  12
ATOM     12  C   UNL     1     -15.679  26.342 -13.345  1.00  0.00     0.031 A 
ATOM     13  C   UNL     1     -15.603  27.001 -14.590  1.00  0.00     0.132 A 
ATOM     14  C   UNL     1     -16.651  25.354 -13.132  1.00  0.00    -0.039 A 
ATOM     15  C   UNL     1     -16.567  26.735 -15.609  1.00  0.00     0.039 A 
ATOM     16  C   UNL     1     -17.543  25.034 -14.156  1.00  0.00     0.013 A 
ATOM     17  C   UNL     1     -16.717  24.597 -11.828  1.00  0.00     0.045 C 
ATOM     18  C   UNL     1     -17.553  25.723 -15.385  1.00  0.00    -0.006 A 
ATOM     19  C   UNL     1     -16.551  27.414 -16.861  1.00  0.00     0.072 A 
ATOM     20  C   UNL     1     -18.503  25.406 -16.407  1.00  0.00     0.008 A 
ATOM     21  C   UNL     1     -17.366  26.960 -17.910  1.00  0.00     0.169 A 
ATOM     22  C   UNL     1     -18.291  25.933 -17.704  1.00  0.00     0.162 A 
BRANCH  13  23
ATOM     23  O   UNL     1     -14.544  27.884 -14.831  1.00  0.00    -0.507 OA
ATOM     24  H   UNL     1     -14.301  28.239 -15.748  1.00  0.00     0.293 HD
ENDBRANCH  13  23
BRANCH  19  25
ATOM     25  C   UNL     1     -15.747  28.639 -17.089  1.00  0.00     0.264 C 
ATOM     26  O   UNL     1     -14.690  28.607 -17.773  1.00  0.00    -0.298 OA
ENDBRANCH  19  25
BRANCH  20  27
ATOM     27  C   UNL     1     -19.784  24.585 -16.157  1.00  0.00     0.017 C 
ATOM     28  C   UNL     1     -19.497  23.089 -15.974  1.00  0.00     0.012 C 
ATOM     29  C   UNL     1     -20.704  25.158 -15.058  1.00  0.00     0.012 C 
ENDBRANCH  20  27
BRANCH  21  30
ATOM     30  O   UNL     1     -17.269  27.562 -19.170  1.00  0.00    -0.504 OA
ATOM     31  H   UNL     1     -17.006  27.053 -20.004  1.00  0.00     0.293 HD
ENDBRANCH  21  30
BRANCH  22  32
ATOM     32  O   UNL     1     -18.992  25.461 -18.821  1.00  0.00    -0.504 OA
ATOM     33  H   UNL     1     -19.631  24.678 -18.796  1.00  0.00     0.293 HD
ENDBRANCH  22  32
ENDBRANCH  11  12
BRANCH  10  34
ATOM     34  O   UNL     1     -13.249  24.893 -13.058  1.00  0.00    -0.507 OA
ATOM     35  H   UNL     1     -12.401  24.341 -13.061  1.00  0.00     0.293 HD
ENDBRANCH  10  34
BRANCH   9  36
ATOM     36  C   UNL     1     -12.530  28.190  -7.718  1.00  0.00     0.017 C 
ATOM     37  C   UNL     1     -12.471  27.376  -6.418  1.00  0.00     0.012 C 
ATOM     38  C   UNL     1     -11.820  29.557  -7.611  1.00  0.00     0.012 C 
ENDBRANCH   9  36
BRANCH   6  39
ATOM     39  C   UNL     1     -10.808  24.683 -12.082  1.00  0.00     0.264 C 
ATOM     40  O   UNL     1     -10.630  23.458 -11.849  1.00  0.00    -0.298 OA
ENDBRANCH   6  39
BRANCH   8  41
ATOM     41  O   UNL     1      -9.989  26.968  -7.841  1.00  0.00    -0.504 OA
ATOM     42  H   UNL     1     -10.232  27.560  -7.056  1.00  0.00     0.293 HD
ENDBRANCH   8  41
BRANCH   7  43
ATOM     43  O   UNL     1      -9.152  25.336  -9.866  1.00  0.00    -0.504 OA
ATOM     44  H   UNL     1      -8.948  24.384  -9.590  1.00  0.00     0.293 HD
ENDBRANCH   7  43
TORSDOF 11
ENDMDL
MODEL 6
REMARK VINA RESULT:    -6.650      6.048      8.753
REMARK INTER + INTRA:         -11.395
REMARK INTER:                  -9.921
REMARK INTRA:                  -1.474
REMARK UNBOUND:                -1.635
REMARK SMILES Cc1cc2c(C(C)C)c(O)c(O)c(C=O)c2c(O)c1-c1c(C)cc2c(C(C)C)c(O)c(O)c(C=O)c2c1O
REMARK SMILES IDX 1 1 2 2 3 3 4 4 16 5 13 6 11 7 9 8 5 9 17 10 19 11 20 12
REMARK SMILES IDX 37 13 21 14 36 15 23 16 22 17 24 18 33 19 25 20 31 21 29 22
REMARK SMILES IDX 38 23 34 25 35 26 26 27 27 28 28 29 32 30 30 32 18 34 6 36
REMARK SMILES IDX 7 37 8 38 14 39 15 40 10 41 12 43
REMARK H PARENT 38 24 32 31 30 33 18 35 10 42 12 44
REMARK Flexibility Score: inf
ROOT
ATOM      1  C   UNL     1     -16.245  28.304 -11.770  1.00  0.00     0.045 C 
ATOM      2  C   UNL     1     -14.966  27.569 -11.451  1.00  0.00    -0.039 A 
ATOM      3  C   UNL     1     -14.171  28.000 -10.389  1.00  0.00     0.013 A 
ATOM      4  C   UNL     1     -12.970  27.353 -10.040  1.00  0.00    -0.006 A 
ATOM      5  C   UNL     1     -12.497  26.295 -10.877  1.00  0.00     0.039 A 
ATOM      6  C   UNL     1     -11.201  25.749 -10.637  1.00  0.00     0.072 A 
ATOM      7  C   UNL     1     -10.422  26.232  -9.566  1.00  0.00     0.169 A 
ATOM      8  C   UNL     1     -10.935  27.195  -8.691  1.00  0.00     0.162 A 
ATOM      9  C   UNL     1     -12.224  27.740  -8.880  1.00  0.00     0.008 A 
ATOM     10  C   UNL     1     -13.350  25.804 -11.914  1.00  0.00     0.132 A 
ATOM     11  C   UNL     1     -14.577  26.443 -12.191  1.00  0.00     0.031 A 
ENDROOT
BRANCH  11  12
ATOM     12  C   UNL     1     -15.469  25.922 -13.261  1.00  0.00     0.031 A 
ATOM     13  C   UNL     1     -16.487  24.995 -12.950  1.00  0.00     0.132 A 
ATOM     14  C   UNL     1     -15.318  26.383 -14.577  1.00  0.00    -0.039 A 
ATOM     15  C   UNL     1     -17.310  24.452 -13.982  1.00  0.00     0.039 A 
ATOM     16  C   UNL     1     -16.176  25.916 -15.573  1.00  0.00     0.013 A 
ATOM     17  C   UNL     1     -14.272  27.415 -14.923  1.00  0.00     0.045 C 
ATOM     18  C   UNL     1     -17.152  24.932 -15.320  1.00  0.00    -0.006 A 
ATOM     19  C   UNL     1     -18.316  23.480 -13.714  1.00  0.00     0.072 A 
ATOM     20  C   UNL     1     -17.996  24.437 -16.365  1.00  0.00     0.008 A 
ATOM     21  C   UNL     1     -19.249  23.150 -14.710  1.00  0.00     0.169 A 
ATOM     22  C   UNL     1     -19.126  23.664 -16.004  1.00  0.00     0.162 A 
BRANCH  13  23
ATOM     23  O   UNL     1     -16.709  24.650 -11.612  1.00  0.00    -0.507 OA
ATOM     24  H   UNL     1     -15.986  24.314 -10.987  1.00  0.00     0.293 HD
ENDBRANCH  13  23
BRANCH  19  25
ATOM     25  C   UNL     1     -18.383  22.742 -12.430  1.00  0.00     0.264 C 
ATOM     26  O   UNL     1     -19.196  23.076 -11.527  1.00  0.00    -0.298 OA
ENDBRANCH  19  25
BRANCH  20  27
ATOM     27  C   UNL     1     -17.701  24.634 -17.866  1.00  0.00     0.017 C 
ATOM     28  C   UNL     1     -17.975  26.070 -18.334  1.00  0.00     0.012 C 
ATOM     29  C   UNL     1     -16.323  24.108 -18.320  1.00  0.00     0.012 C 
ENDBRANCH  20  27
BRANCH  21  30
ATOM     30  O   UNL     1     -20.300  22.276 -14.409  1.00  0.00    -0.504 OA
ATOM     31  H   UNL     1     -21.032  22.503 -13.747  1.00  0.00     0.293 HD
ENDBRANCH  21  30
BRANCH  22  32
ATOM     32  O   UNL     1     -20.151  23.377 -16.913  1.00  0.00    -0.504 OA
ATOM     33  H   UNL     1     -20.004  22.921 -17.804  1.00  0.00     0.293 HD
ENDBRANCH  22  32
ENDBRANCH  11  12
BRANCH  10  34
ATOM     34  O   UNL     1     -12.992  24.668 -12.648  1.00  0.00    -0.507 OA
ATOM     35  H   UNL     1     -13.586  23.857 -12.761  1.00  0.00     0.293 HD
ENDBRANCH  10  34
BRANCH   9  36
ATOM     36  C   UNL     1     -12.745  28.714  -7.804  1.00  0.00     0.017 C 
ATOM     37  C   UNL     1     -12.646  28.124  -6.390  1.00  0.00     0.012 C 
ATOM     38  C   UNL     1     -12.172  30.143  -7.906  1.00  0.00     0.012 C 
ENDBRANCH   9  36
BRANCH   6  39
ATOM     39  C   UNL     1     -10.603  24.736 -11.531  1.00  0.00     0.264 C 
ATOM     40  O   UNL     1     -10.485  23.540 -11.156  1.00  0.00    -0.298 OA
ENDBRANCH   6  39
BRANCH   8  41
ATOM     41  O   UNL     1     -10.145  27.634  -7.623  1.00  0.00    -0.504 OA
ATOM     42  H   UNL     1     -10.047  27.117  -6.758  1.00  0.00     0.293 HD
ENDBRANCH   8  41
BRANCH   7  43
ATOM     43  O   UNL     1      -9.113  25.785  -9.351  1.00  0.00    -0.504 OA
ATOM     44  H   UNL     1      -8.630  25.846  -8.464  1.00  0.00     0.293 HD
ENDBRANCH   7  43
TORSDOF 11
ENDMDL
MODEL 7
REMARK VINA RESULT:    -6.570      4.536      9.253
REMARK INTER + INTRA:         -11.278
REMARK INTER:                  -9.782
REMARK INTRA:                  -1.496
REMARK UNBOUND:                -1.635
REMARK SMILES Cc1cc2c(C(C)C)c(O)c(O)c(C=O)c2c(O)c1-c1c(C)cc2c(C(C)C)c(O)c(O)c(C=O)c2c1O
REMARK SMILES IDX 1 1 2 2 3 3 4 4 16 5 13 6 11 7 9 8 5 9 17 10 19 11 20 12
REMARK SMILES IDX 37 13 21 14 36 15 23 16 22 17 24 18 33 19 25 20 31 21 29 22
REMARK SMILES IDX 38 23 34 25 35 26 26 27 27 28 28 29 32 30 30 32 18 34 6 36
REMARK SMILES IDX 7 37 8 38 14 39 15 40 10 41 12 43
REMARK H PARENT 38 24 32 31 30 33 18 35 10 42 12 44
REMARK Flexibility Score: inf
ROOT
ATOM      1  C   UNL     1      -9.615  26.472 -14.774  1.00  0.00     0.045 C 
ATOM      2  C   UNL     1      -9.094  25.443 -13.800  1.00  0.00    -0.039 A 
ATOM      3  C   UNL     1      -7.720  25.325 -13.594  1.00  0.00     0.013 A 
ATOM      4  C   UNL     1      -7.174  24.388 -12.695  1.00  0.00    -0.006 A 
ATOM      5  C   UNL     1      -8.054  23.453 -12.067  1.00  0.00     0.039 A 
ATOM      6  C   UNL     1      -7.498  22.391 -11.293  1.00  0.00     0.072 A 
ATOM      7  C   UNL     1      -6.101  22.297 -11.130  1.00  0.00     0.169 A 
ATOM      8  C   UNL     1      -5.255  23.274 -11.664  1.00  0.00     0.162 A 
ATOM      9  C   UNL     1      -5.770  24.354 -12.414  1.00  0.00     0.008 A 
ATOM     10  C   UNL     1      -9.465  23.627 -12.217  1.00  0.00     0.132 A 
ATOM     11  C   UNL     1      -9.973  24.621 -13.081  1.00  0.00     0.031 A 
ENDROOT
BRANCH  11  12
ATOM     12  C   UNL     1     -11.441  24.810 -13.224  1.00  0.00     0.031 A 
ATOM     13  C   UNL     1     -12.130  25.701 -12.375  1.00  0.00     0.132 A 
ATOM     14  C   UNL     1     -12.134  24.124 -14.232  1.00  0.00    -0.039 A 
ATOM     15  C   UNL     1     -13.548  25.845 -12.475  1.00  0.00     0.039 A 
ATOM     16  C   UNL     1     -13.506  24.326 -14.386  1.00  0.00     0.013 A 
ATOM     17  C   UNL     1     -11.409  23.207 -15.188  1.00  0.00     0.045 C 
ATOM     18  C   UNL     1     -14.245  25.146 -13.509  1.00  0.00    -0.006 A 
ATOM     19  C   UNL     1     -14.284  26.700 -11.605  1.00  0.00     0.072 A 
ATOM     20  C   UNL     1     -15.659  25.308 -13.660  1.00  0.00     0.008 A 
ATOM     21  C   UNL     1     -15.629  26.988 -11.886  1.00  0.00     0.169 A 
ATOM     22  C   UNL     1     -16.294  26.344 -12.933  1.00  0.00     0.162 A 
BRANCH  13  23
ATOM     23  O   UNL     1     -11.403  26.477 -11.465  1.00  0.00    -0.507 OA
ATOM     24  H   UNL     1     -11.826  27.094 -10.783  1.00  0.00     0.293 HD
ENDBRANCH  13  23
BRANCH  19  25
ATOM     25  C   UNL     1     -13.702  27.256 -10.360  1.00  0.00     0.264 C 
ATOM     26  O   UNL     1     -13.375  28.470 -10.279  1.00  0.00    -0.298 OA
ENDBRANCH  19  25
BRANCH  20  27
ATOM     27  C   UNL     1     -16.541  24.371 -14.509  1.00  0.00     0.017 C 
ATOM     28  C   UNL     1     -17.699  23.766 -13.704  1.00  0.00     0.012 C 
ATOM     29  C   UNL     1     -16.996  24.971 -15.856  1.00  0.00     0.012 C 
ENDBRANCH  20  27
BRANCH  21  30
ATOM     30  O   UNL     1     -16.317  27.912 -11.091  1.00  0.00    -0.504 OA
ATOM     31  H   UNL     1     -16.896  27.640 -10.308  1.00  0.00     0.293 HD
ENDBRANCH  21  30
BRANCH  22  32
ATOM     32  O   UNL     1     -17.600  26.759 -13.221  1.00  0.00    -0.504 OA
ATOM     33  H   UNL     1     -17.926  27.711 -13.115  1.00  0.00     0.293 HD
ENDBRANCH  22  32
ENDBRANCH  11  12
BRANCH  10  34
ATOM     34  O   UNL     1     -10.359  22.833 -11.490  1.00  0.00    -0.507 OA
ATOM     35  H   UNL     1     -10.146  22.419 -10.592  1.00  0.00     0.293 HD
ENDBRANCH  10  34
BRANCH   9  36
ATOM     36  C   UNL     1      -4.772  25.440 -12.868  1.00  0.00     0.017 C 
ATOM     37  C   UNL     1      -4.278  25.210 -14.304  1.00  0.00     0.012 C 
ATOM     38  C   UNL     1      -5.246  26.887 -12.614  1.00  0.00     0.012 C 
ENDBRANCH   9  36
BRANCH   6  39
ATOM     39  C   UNL     1      -8.340  21.325 -10.712  1.00  0.00     0.264 C 
ATOM     40  O   UNL     1      -7.962  20.124 -10.735  1.00  0.00    -0.298 OA
ENDBRANCH   6  39
BRANCH   8  41
ATOM     41  O   UNL     1      -3.875  23.163 -11.462  1.00  0.00    -0.504 OA
ATOM     42  H   UNL     1      -3.215  23.032 -12.218  1.00  0.00     0.293 HD
ENDBRANCH   8  41
BRANCH   7  43
ATOM     43  O   UNL     1      -5.512  21.222 -10.453  1.00  0.00    -0.504 OA
ATOM     44  H   UNL     1      -5.000  21.310  -9.585  1.00  0.00     0.293 HD
ENDBRANCH   7  43
TORSDOF 11
ENDMDL
MODEL 8
REMARK VINA RESULT:    -6.511      2.894      9.569
REMARK INTER + INTRA:         -11.192
REMARK INTER:                  -9.552
REMARK INTRA:                  -1.639
REMARK UNBOUND:                -1.635
REMARK SMILES Cc1cc2c(C(C)C)c(O)c(O)c(C=O)c2c(O)c1-c1c(C)cc2c(C(C)C)c(O)c(O)c(C=O)c2c1O
REMARK SMILES IDX 1 1 2 2 3 3 4 4 16 5 13 6 11 7 9 8 5 9 17 10 19 11 20 12
REMARK SMILES IDX 37 13 21 14 36 15 23 16 22 17 24 18 33 19 25 20 31 21 29 22
REMARK SMILES IDX 38 23 34 25 35 26 26 27 27 28 28 29 32 30 30 32 18 34 6 36
REMARK SMILES IDX 7 37 8 38 14 39 15 40 10 41 12 43
REMARK H PARENT 38 24 32 31 30 33 18 35 10 42 12 44
REMARK Flexibility Score: inf
ROOT
ATOM      1  C   UNL     1      -8.152  26.891 -13.996  1.00  0.00     0.045 C 
ATOM      2  C   UNL     1      -7.651  25.565 -13.476  1.00  0.00    -0.039 A 
ATOM      3  C   UNL     1      -6.891  24.744 -14.309  1.00  0.00     0.013 A 
ATOM      4  C   UNL     1      -6.391  23.499 -13.880  1.00  0.00    -0.006 A 
ATOM      5  C   UNL     1      -6.778  23.016 -12.592  1.00  0.00     0.039 A 
ATOM      6  C   UNL     1      -6.424  21.685 -12.216  1.00  0.00     0.072 A 
ATOM      7  C   UNL     1      -5.674  20.882 -13.099  1.00  0.00     0.169 A 
ATOM      8  C   UNL     1      -5.214  21.399 -14.314  1.00  0.00     0.162 A 
ATOM      9  C   UNL     1      -5.522  22.719 -14.709  1.00  0.00     0.008 A 
ATOM     10  C   UNL     1      -7.488  23.892 -11.712  1.00  0.00     0.132 A 
ATOM     11  C   UNL     1      -7.917  25.159 -12.161  1.00  0.00     0.031 A 
ENDROOT
BRANCH  11  12
ATOM     12  C   UNL     1      -8.643  26.073 -11.240  1.00  0.00     0.031 A 
ATOM     13  C   UNL     1      -7.942  27.068 -10.526  1.00  0.00     0.132 A 
ATOM     14  C   UNL     1     -10.035  25.967 -11.112  1.00  0.00    -0.039 A 
ATOM     15  C   UNL     1      -8.627  27.913  -9.601  1.00  0.00     0.039 A 
ATOM     16  C   UNL     1     -10.719  26.847 -10.271  1.00  0.00     0.013 A 
ATOM     17  C   UNL     1     -10.814  24.948 -11.907  1.00  0.00     0.045 C 
ATOM     18  C   UNL     1     -10.048  27.801  -9.480  1.00  0.00    -0.006 A 
ATOM     19  C   UNL     1      -7.946  28.896  -8.828  1.00  0.00     0.072 A 
ATOM     20  C   UNL     1     -10.764  28.667  -8.594  1.00  0.00     0.008 A 
ATOM     21  C   UNL     1      -8.683  29.852  -8.112  1.00  0.00     0.169 A 
ATOM     22  C   UNL     1     -10.077  29.774  -8.040  1.00  0.00     0.162 A 
BRANCH  13  23
ATOM     23  O   UNL     1      -6.575  27.246 -10.768  1.00  0.00    -0.507 OA
ATOM     24  H   UNL     1      -5.855  27.114 -10.069  1.00  0.00     0.293 HD
ENDBRANCH  13  23
BRANCH  19  25
ATOM     25  C   UNL     1      -6.470  28.915  -8.691  1.00  0.00     0.264 C 
ATOM     26  O   UNL     1      -5.779  29.839  -9.198  1.00  0.00    -0.298 OA
ENDBRANCH  19  25
BRANCH  20  27
ATOM     27  C   UNL     1     -12.219  28.419  -8.149  1.00  0.00     0.017 C 
ATOM     28  C   UNL     1     -13.201  28.414  -9.328  1.00  0.00     0.012 C 
ATOM     29  C   UNL     1     -12.402  27.206  -7.211  1.00  0.00     0.012 C 
ENDBRANCH  20  27
BRANCH  21  30
ATOM     30  O   UNL     1      -8.012  30.881  -7.441  1.00  0.00    -0.504 OA
ATOM     31  H   UNL     1      -8.372  31.319  -6.603  1.00  0.00     0.293 HD
ENDBRANCH  21  30
BRANCH  22  32
ATOM     32  O   UNL     1     -10.751  30.821  -7.399  1.00  0.00    -0.504 OA
ATOM     33  H   UNL     1     -11.609  30.703  -6.877  1.00  0.00     0.293 HD
ENDBRANCH  22  32
ENDBRANCH  11  12
BRANCH  10  34
ATOM     34  O   UNL     1      -7.743  23.514 -10.389  1.00  0.00    -0.507 OA
ATOM     35  H   UNL     1      -8.570  23.012 -10.093  1.00  0.00     0.293 HD
ENDBRANCH  10  34
BRANCH   9  36
ATOM     36  C   UNL     1      -4.879  23.236 -16.013  1.00  0.00     0.017 C 
ATOM     37  C   UNL     1      -5.924  23.525 -17.100  1.00  0.00     0.012 C 
ATOM     38  C   UNL     1      -3.875  24.391 -15.814  1.00  0.00     0.012 C 
ENDBRANCH   9  36
BRANCH   6  39
ATOM     39  C   UNL     1      -6.888  21.083 -10.950  1.00  0.00     0.264 C 
ATOM     40  O   UNL     1      -6.082  20.879 -10.003  1.00  0.00    -0.298 OA
ENDBRANCH   6  39
BRANCH   8  41
ATOM     41  O   UNL     1      -4.451  20.581 -15.155  1.00  0.00    -0.504 OA
ATOM     42  H   UNL     1      -3.499  20.798 -15.423  1.00  0.00     0.293 HD
ENDBRANCH   8  41
BRANCH   7  43
ATOM     43  O   UNL     1      -5.382  19.544 -12.805  1.00  0.00    -0.504 OA
ATOM     44  H   UNL     1      -5.225  19.189 -11.871  1.00  0.00     0.293 HD
ENDBRANCH   7  43
TORSDOF 11
ENDMDL
MODEL 9
REMARK VINA RESULT:    -6.468      3.583      6.114
REMARK INTER + INTRA:         -11.128
REMARK INTER:                  -9.614
REMARK INTRA:                  -1.514
REMARK UNBOUND:                -1.635
REMARK SMILES Cc1cc2c(C(C)C)c(O)c(O)c(C=O)c2c(O)c1-c1c(C)cc2c(C(C)C)c(O)c(O)c(C=O)c2c1O
REMARK SMILES IDX 1 1 2 2 3 3 4 4 16 5 13 6 11 7 9 8 5 9 17 10 19 11 20 12
REMARK SMILES IDX 37 13 21 14 36 15 23 16 22 17 24 18 33 19 25 20 31 21 29 22
REMARK SMILES IDX 38 23 34 25 35 26 26 27 27 28 28 29 32 30 30 32 18 34 6 36
REMARK SMILES IDX 7 37 8 38 14 39 15 40 10 41 12 43
REMARK H PARENT 38 24 32 31 30 33 18 35 10 42 12 44
REMARK Flexibility Score: inf
ROOT
ATOM      1  C   UNL     1      -8.683  25.958  -9.908  1.00  0.00     0.045 C 
ATOM      2  C   UNL     1      -9.984  25.947 -10.674  1.00  0.00    -0.039 A 
ATOM      3  C   UNL     1     -11.089  26.628 -10.163  1.00  0.00     0.013 A 
ATOM      4  C   UNL     1     -12.327  26.659 -10.834  1.00  0.00    -0.006 A 
ATOM      5  C   UNL     1     -12.483  25.868 -12.014  1.00  0.00     0.039 A 
ATOM      6  C   UNL     1     -13.777  25.751 -12.603  1.00  0.00     0.072 A 
ATOM      7  C   UNL     1     -14.870  26.439 -12.039  1.00  0.00     0.169 A 
ATOM      8  C   UNL     1     -14.687  27.291 -10.946  1.00  0.00     0.162 A 
ATOM      9  C   UNL     1     -13.417  27.452 -10.351  1.00  0.00     0.008 A 
ATOM     10  C   UNL     1     -11.330  25.237 -12.578  1.00  0.00     0.132 A 
ATOM     11  C   UNL     1     -10.091  25.283 -11.904  1.00  0.00     0.031 A 
ENDROOT
BRANCH  11  12
ATOM     12  C   UNL     1      -8.890  24.639 -12.500  1.00  0.00     0.031 A 
ATOM     13  C   UNL     1      -8.602  23.284 -12.231  1.00  0.00     0.132 A 
ATOM     14  C   UNL     1      -8.063  25.375 -13.361  1.00  0.00    -0.039 A 
ATOM     15  C   UNL     1      -7.422  22.678 -12.759  1.00  0.00     0.039 A 
ATOM     16  C   UNL     1      -6.955  24.760 -13.944  1.00  0.00     0.013 A 
ATOM     17  C   UNL     1      -8.382  26.809 -13.707  1.00  0.00     0.045 C 
ATOM     18  C   UNL     1      -6.587  23.434 -13.640  1.00  0.00    -0.006 A 
ATOM     19  C   UNL     1      -7.073  21.326 -12.471  1.00  0.00     0.072 A 
ATOM     20  C   UNL     1      -5.423  22.835 -14.218  1.00  0.00     0.008 A 
ATOM     21  C   UNL     1      -6.040  20.706 -13.191  1.00  0.00     0.169 A 
ATOM     22  C   UNL     1      -5.260  21.434 -14.094  1.00  0.00     0.162 A 
BRANCH  13  23
ATOM     23  O   UNL     1      -9.510  22.530 -11.480  1.00  0.00    -0.507 OA
ATOM     24  H   UNL     1      -9.281  22.079 -10.602  1.00  0.00     0.293 HD
ENDBRANCH  13  23
BRANCH  19  25
ATOM     25  C   UNL     1      -7.720  20.555 -11.384  1.00  0.00     0.264 C 
ATOM     26  O   UNL     1      -7.053  20.119 -10.407  1.00  0.00    -0.298 OA
ENDBRANCH  19  25
BRANCH  20  27
ATOM     27  C   UNL     1      -4.299  23.639 -14.902  1.00  0.00     0.017 C 
ATOM     28  C   UNL     1      -4.581  23.895 -16.388  1.00  0.00     0.012 C 
ATOM     29  C   UNL     1      -3.875  24.915 -14.143  1.00  0.00     0.012 C 
ENDBRANCH  20  27
BRANCH  21  30
ATOM     30  O   UNL     1      -5.772  19.348 -12.982  1.00  0.00    -0.504 OA
ATOM     31  H   UNL     1      -4.834  18.969 -12.963  1.00  0.00     0.293 HD
ENDBRANCH  21  30
BRANCH  22  32
ATOM     32  O   UNL     1      -4.319  20.726 -14.852  1.00  0.00    -0.504 OA
ATOM     33  H   UNL     1      -3.817  21.118 -15.638  1.00  0.00     0.293 HD
ENDBRANCH  22  32
ENDBRANCH  11  12
BRANCH  10  34
ATOM     34  O   UNL     1     -11.410  24.590 -13.816  1.00  0.00    -0.507 OA
ATOM     35  H   UNL     1     -12.237  24.112 -14.152  1.00  0.00     0.293 HD
ENDBRANCH  10  34
BRANCH   9  36
ATOM     36  C   UNL     1     -13.292  28.495  -9.221  1.00  0.00     0.017 C 
ATOM     37  C   UNL     1     -12.828  27.866  -7.899  1.00  0.00     0.012 C 
ATOM     38  C   UNL     1     -12.492  29.758  -9.605  1.00  0.00     0.012 C 
ENDBRANCH   9  36
BRANCH   6  39
ATOM     39  C   UNL     1     -14.033  24.861 -13.754  1.00  0.00     0.264 C 
ATOM     40  O   UNL     1     -14.236  25.338 -14.902  1.00  0.00    -0.298 OA
ENDBRANCH   6  39
BRANCH   8  41
ATOM     41  O   UNL     1     -15.790  27.978 -10.426  1.00  0.00    -0.504 OA
ATOM     42  H   UNL     1     -16.660  27.521 -10.180  1.00  0.00     0.293 HD
ENDBRANCH   8  41
BRANCH   7  43
ATOM     43  O   UNL     1     -16.171  26.281 -12.534  1.00  0.00    -0.504 OA
ATOM     44  H   UNL     1     -16.521  25.429 -12.951  1.00  0.00     0.293 HD
ENDBRANCH   7  43
TORSDOF 11
ENDMDL
