MODEL 1
REMARK VINA RESULT:    -3.648      0.000      0.000
REMARK INTER + INTRA:          -4.554
REMARK INTER:                  -4.502
REMARK INTRA:                  -0.052
REMARK UNBOUND:                -0.052
REMARK SMILES CCCCCC(=O)[O-]
REMARK SMILES IDX 4 1 5 2 6 3 7 4 8 5 3 6 2 7 1 8
REMARK H PARENT
REMARK Flexibility Score: inf
ROOT
ATOM      1  C   UNL     1       4.948 -35.079  20.630  1.00  0.00     0.006 C 
ENDROOT
BRANCH   1   2
ATOM      2  C   UNL     1       5.056 -36.365  19.799  1.00  0.00     0.053 C 
BRANCH   2   3
ATOM      3  C   UNL     1       3.792 -36.645  19.045  1.00  0.00     0.041 C 
ATOM      4  O   UNL     1       3.781 -36.601  17.786  1.00  0.00    -0.550 OA
ATOM      5  O   UNL     1       2.634 -36.985  19.732  1.00  0.00    -0.550 OA
ENDBRANCH   2   3
ENDBRANCH   1   2
BRANCH   1   6
ATOM      6  C   UNL     1       5.973 -35.035  21.771  1.00  0.00     0.000 C 
BRANCH   6   7
ATOM      7  C   UNL     1       5.354 -34.444  23.043  1.00  0.00    -0.003 C 
ATOM      8  C   UNL     1       5.954 -35.078  24.294  1.00  0.00     0.004 C 
ENDBRANCH   6   7
ENDBRANCH   1   6
TORSDOF 4
ENDMDL
MODEL 2
REMARK VINA RESULT:    -3.581      1.204      1.883
REMARK INTER + INTRA:          -4.471
REMARK INTER:                  -4.391
REMARK INTRA:                  -0.080
REMARK UNBOUND:                -0.052
REMARK SMILES CCCCCC(=O)[O-]
REMARK SMILES IDX 4 1 5 2 6 3 7 4 8 5 3 6 2 7 1 8
REMARK H PARENT
REMARK Flexibility Score: inf
ROOT
ATOM      1  C   UNL     1       6.123 -35.104  21.808  1.00  0.00     0.006 C 
ENDROOT
BRANCH   1   2
ATOM      2  C   UNL     1       5.315 -35.016  20.506  1.00  0.00     0.053 C 
BRANCH   2   3
ATOM      3  C   UNL     1       4.995 -36.375  19.961  1.00  0.00     0.041 C 
ATOM      4  O   UNL     1       5.371 -37.409  20.573  1.00  0.00    -0.550 OA
ATOM      5  O   UNL     1       4.254 -36.497  18.793  1.00  0.00    -0.550 OA
ENDBRANCH   2   3
ENDBRANCH   1   2
BRANCH   1   6
ATOM      6  C   UNL     1       5.325 -34.614  23.024  1.00  0.00     0.000 C 
BRANCH   6   7
ATOM      7  C   UNL     1       6.125 -34.800  24.318  1.00  0.00    -0.003 C 
ATOM      8  C   UNL     1       5.613 -35.996  25.115  1.00  0.00     0.004 C 
ENDBRANCH   6   7
ENDBRANCH   1   6
TORSDOF 4
ENDMDL
MODEL 3
REMARK VINA RESULT:    -3.500      2.950      5.608
REMARK INTER + INTRA:          -4.371
REMARK INTER:                  -4.290
REMARK INTRA:                  -0.081
REMARK UNBOUND:                -0.052
REMARK SMILES CCCCCC(=O)[O-]
REMARK SMILES IDX 4 1 5 2 6 3 7 4 8 5 3 6 2 7 1 8
REMARK H PARENT
REMARK Flexibility Score: inf
ROOT
ATOM      1  C   UNL     1       3.557 -36.479  17.248  1.00  0.00     0.006 C 
ENDROOT
BRANCH   1   2
ATOM      2  C   UNL     1       3.292 -36.823  18.720  1.00  0.00     0.053 C 
BRANCH   2   3
ATOM      3  C   UNL     1       4.458 -36.464  19.591  1.00  0.00     0.041 C 
ATOM      4  O   UNL     1       5.445 -37.240  19.682  1.00  0.00    -0.550 OA
ATOM      5  O   UNL     1       4.465 -35.257  20.278  1.00  0.00    -0.550 OA
ENDBRANCH   2   3
ENDBRANCH   1   2
BRANCH   1   6
ATOM      6  C   UNL     1       2.271 -36.105  16.497  1.00  0.00     0.000 C 
BRANCH   6   7
ATOM      7  C   UNL     1       2.571 -35.754  15.036  1.00  0.00    -0.003 C 
ATOM      8  C   UNL     1       3.834 -36.456  14.548  1.00  0.00     0.004 C 
ENDBRANCH   6   7
ENDBRANCH   1   6
TORSDOF 4
ENDMDL
MODEL 4
REMARK VINA RESULT:    -3.354      1.847      2.838
REMARK INTER + INTRA:          -4.190
REMARK INTER:                  -4.124
REMARK INTRA:                  -0.066
REMARK UNBOUND:                -0.052
REMARK SMILES CCCCCC(=O)[O-]
REMARK SMILES IDX 4 1 5 2 6 3 7 4 8 5 3 6 2 7 1 8
REMARK H PARENT
REMARK Flexibility Score: inf
ROOT
ATOM      1  C   UNL     1       5.989 -35.583  22.978  1.00  0.00     0.006 C 
ENDROOT
BRANCH   1   2
ATOM      2  C   UNL     1       5.801 -34.663  21.764  1.00  0.00     0.053 C 
BRANCH   2   3
ATOM      3  C   UNL     1       5.531 -35.444  20.514  1.00  0.00     0.041 C 
ATOM      4  O   UNL     1       5.398 -36.695  20.564  1.00  0.00    -0.550 OA
ATOM      5  O   UNL     1       5.395 -34.785  19.299  1.00  0.00    -0.550 OA
ENDBRANCH   2   3
ENDBRANCH   1   2
BRANCH   1   6
ATOM      6  C   UNL     1       5.746 -34.853  24.306  1.00  0.00     0.000 C 
BRANCH   6   7
ATOM      7  C   UNL     1       6.125 -35.739  25.498  1.00  0.00    -0.003 C 
ATOM      8  C   UNL     1       5.114 -36.865  25.691  1.00  0.00     0.004 C 
ENDBRANCH   6   7
ENDBRANCH   1   6
TORSDOF 4
ENDMDL
MODEL 5
REMARK VINA RESULT:    -3.242      2.793      4.647
REMARK INTER + INTRA:          -4.052
REMARK INTER:                  -3.966
REMARK INTRA:                  -0.086
REMARK UNBOUND:                -0.052
REMARK SMILES CCCCCC(=O)[O-]
REMARK SMILES IDX 4 1 5 2 6 3 7 4 8 5 3 6 2 7 1 8
REMARK H PARENT
REMARK Flexibility Score: inf
ROOT
ATOM      1  C   UNL     1       4.933 -35.033  20.391  1.00  0.00     0.006 C 
ENDROOT
BRANCH   1   2
ATOM      2  C   UNL     1       6.125 -34.762  21.319  1.00  0.00     0.053 C 
BRANCH   2   3
ATOM      3  C   UNL     1       5.788 -35.046  22.751  1.00  0.00     0.041 C 
ATOM      4  O   UNL     1       5.988 -36.192  23.234  1.00  0.00    -0.550 OA
ATOM      5  O   UNL     1       5.282 -34.037  23.559  1.00  0.00    -0.550 OA
ENDBRANCH   2   3
ENDBRANCH   1   2
BRANCH   1   6
ATOM      6  C   UNL     1       4.971 -36.445  19.791  1.00  0.00     0.000 C 
BRANCH   6   7
ATOM      7  C   UNL     1       3.599 -36.843  19.237  1.00  0.00    -0.003 C 
ATOM      8  C   UNL     1       3.502 -36.553  17.742  1.00  0.00     0.004 C 
ENDBRANCH   6   7
ENDBRANCH   1   6
TORSDOF 4
ENDMDL
MODEL 6
REMARK VINA RESULT:    -3.241      2.671      5.293
REMARK INTER + INTRA:          -4.052
REMARK INTER:                  -4.000
REMARK INTRA:                  -0.052
REMARK UNBOUND:                -0.052
REMARK SMILES CCCCCC(=O)[O-]
REMARK SMILES IDX 4 1 5 2 6 3 7 4 8 5 3 6 2 7 1 8
REMARK H PARENT
REMARK Flexibility Score: inf
ROOT
ATOM      1  C   UNL     1       4.301 -36.054  18.403  1.00  0.00     0.006 C 
ENDROOT
BRANCH   1   2
ATOM      2  C   UNL     1       4.377 -36.427  19.890  1.00  0.00     0.053 C 
BRANCH   2   3
ATOM      3  C   UNL     1       5.429 -35.636  20.606  1.00  0.00     0.041 C 
ATOM      4  O   UNL     1       5.723 -35.905  21.801  1.00  0.00    -0.550 OA
ATOM      5  O   UNL     1       6.107 -34.621  19.943  1.00  0.00    -0.550 OA
ENDBRANCH   2   3
ENDBRANCH   1   2
BRANCH   1   6
ATOM      6  C   UNL     1       3.140 -36.757  17.685  1.00  0.00     0.000 C 
BRANCH   6   7
ATOM      7  C   UNL     1       3.239 -36.569  16.167  1.00  0.00    -0.003 C 
ATOM      8  C   UNL     1       2.167 -35.609  15.660  1.00  0.00     0.004 C 
ENDBRANCH   6   7
ENDBRANCH   1   6
TORSDOF 4
ENDMDL
MODEL 7
REMARK VINA RESULT:    -3.229      2.563      3.880
REMARK INTER + INTRA:          -4.037
REMARK INTER:                  -3.917
REMARK INTRA:                  -0.120
REMARK UNBOUND:                -0.052
REMARK SMILES CCCCCC(=O)[O-]
REMARK SMILES IDX 4 1 5 2 6 3 7 4 8 5 3 6 2 7 1 8
REMARK H PARENT
REMARK Flexibility Score: inf
ROOT
ATOM      1  C   UNL     1       2.741 -36.865  18.072  1.00  0.00     0.006 C 
ENDROOT
BRANCH   1   2
ATOM      2  C   UNL     1       3.686 -36.200  17.062  1.00  0.00     0.053 C 
BRANCH   2   3
ATOM      3  C   UNL     1       3.011 -35.959  15.747  1.00  0.00     0.041 C 
ATOM      4  O   UNL     1       1.804 -35.601  15.709  1.00  0.00    -0.550 OA
ATOM      5  O   UNL     1       3.724 -36.101  14.563  1.00  0.00    -0.550 OA
ENDBRANCH   2   3
ENDBRANCH   1   2
BRANCH   1   6
ATOM      6  C   UNL     1       3.292 -36.821  19.503  1.00  0.00     0.000 C 
BRANCH   6   7
ATOM      7  C   UNL     1       4.751 -36.350  19.516  1.00  0.00    -0.003 C 
ATOM      8  C   UNL     1       4.985 -35.310  20.607  1.00  0.00     0.004 C 
ENDBRANCH   6   7
ENDBRANCH   1   6
TORSDOF 4
ENDMDL
MODEL 8
REMARK VINA RESULT:    -2.982      4.036      6.148
REMARK INTER + INTRA:          -3.731
REMARK INTER:                  -3.666
REMARK INTRA:                  -0.065
REMARK UNBOUND:                -0.052
REMARK SMILES CCCCCC(=O)[O-]
REMARK SMILES IDX 4 1 5 2 6 3 7 4 8 5 3 6 2 7 1 8
REMARK H PARENT
REMARK Flexibility Score: inf
ROOT
ATOM      1  C   UNL     1       2.601 -35.632  16.260  1.00  0.00     0.006 C 
ENDROOT
BRANCH   1   2
ATOM      2  C   UNL     1       3.509 -36.485  17.156  1.00  0.00     0.053 C 
BRANCH   2   3
ATOM      3  C   UNL     1       2.827 -36.862  18.436  1.00  0.00     0.041 C 
ATOM      4  O   UNL     1       1.626 -37.240  18.429  1.00  0.00    -0.550 OA
ATOM      5  O   UNL     1       3.529 -36.825  19.634  1.00  0.00    -0.550 OA
ENDBRANCH   2   3
ENDBRANCH   1   2
BRANCH   1   6
ATOM      6  C   UNL     1       2.567 -36.142  14.812  1.00  0.00     0.000 C 
BRANCH   6   7
ATOM      7  C   UNL     1       3.933 -35.976  14.139  1.00  0.00    -0.003 C 
ATOM      8  C   UNL     1       4.586 -37.330  13.875  1.00  0.00     0.004 C 
ENDBRANCH   6   7
ENDBRANCH   1   6
TORSDOF 4
ENDMDL
MODEL 9
REMARK VINA RESULT:    -2.883      3.490      5.298
REMARK INTER + INTRA:          -3.610
REMARK INTER:                  -3.488
REMARK INTRA:                  -0.122
REMARK UNBOUND:                -0.052
REMARK SMILES CCCCCC(=O)[O-]
REMARK SMILES IDX 4 1 5 2 6 3 7 4 8 5 3 6 2 7 1 8
REMARK H PARENT
REMARK Flexibility Score: inf
ROOT
ATOM      1  C   UNL     1       6.123 -34.835  24.060  1.00  0.00     0.006 C 
ENDROOT
BRANCH   1   2
ATOM      2  C   UNL     1       5.318 -35.391  25.243  1.00  0.00     0.053 C 
BRANCH   2   3
ATOM      3  C   UNL     1       5.630 -36.835  25.494  1.00  0.00     0.041 C 
ATOM      4  O   UNL     1       6.118 -37.196  26.598  1.00  0.00    -0.550 OA
ATOM      5  O   UNL     1       5.351 -37.785  24.521  1.00  0.00    -0.550 OA
ENDBRANCH   2   3
ENDBRANCH   1   2
BRANCH   1   6
ATOM      6  C   UNL     1       5.274 -34.705  22.787  1.00  0.00     0.000 C 
BRANCH   6   7
ATOM      7  C   UNL     1       5.903 -35.483  21.626  1.00  0.00    -0.003 C 
ATOM      8  C   UNL     1       5.612 -34.810  20.289  1.00  0.00     0.004 C 
ENDBRANCH   6   7
ENDBRANCH   1   6
TORSDOF 4
ENDMDL
