MODEL 1
REMARK VINA RESULT:     1.770      0.000      0.000
REMARK INTER + INTRA:           2.333
REMARK INTER:                   3.116
REMARK INTRA:                  -0.783
REMARK UNBOUND:                -0.783
REMARK SMILES CCCCCCCCCCCCCCC(=O)[O-]
REMARK SMILES IDX 9 1 10 2 11 3 12 4 13 5 14 6 15 7 16 8 17 9 8 10 7 11 6 12
REMARK SMILES IDX 5 13 4 14 3 15 2 16 1 17
REMARK H PARENT
REMARK Flexibility Score: inf
ROOT
ATOM      1  C   UNL     1      33.083  22.752  29.143  1.00  0.00     0.000 C 
ENDROOT
BRANCH   1   2
ATOM      2  C   UNL     1      33.969  23.649  28.262  1.00  0.00     0.000 C 
BRANCH   2   3
ATOM      3  C   UNL     1      35.275  24.062  28.959  1.00  0.00     0.000 C 
BRANCH   3   4
ATOM      4  C   UNL     1      36.470  23.929  28.003  1.00  0.00     0.000 C 
BRANCH   4   5
ATOM      5  C   UNL     1      36.220  22.912  26.877  1.00  0.00     0.006 C 
BRANCH   5   6
ATOM      6  C   UNL     1      37.090  21.656  27.010  1.00  0.00     0.053 C 
BRANCH   6   7
ATOM      7  C   UNL     1      36.240  20.426  26.984  1.00  0.00     0.041 C 
ATOM      8  O   UNL     1      36.766  19.289  27.105  1.00  0.00    -0.550 OA
ATOM      9  O   UNL     1      34.860  20.537  26.875  1.00  0.00    -0.550 OA
ENDBRANCH   6   7
ENDBRANCH   5   6
ENDBRANCH   4   5
ENDBRANCH   3   4
ENDBRANCH   2   3
ENDBRANCH   1   2
BRANCH   1  10
ATOM     10  C   UNL     1      32.445  21.595  28.354  1.00  0.00     0.000 C 
BRANCH  10  11
ATOM     11  C   UNL     1      31.777  22.067  27.053  1.00  0.00    -0.000 C 
BRANCH  11  12
ATOM     12  C   UNL     1      30.243  22.134  27.161  1.00  0.00    -0.000 C 
BRANCH  12  13
ATOM     13  C   UNL     1      29.770  22.372  28.611  1.00  0.00    -0.000 C 
BRANCH  13  14
ATOM     14  C   UNL     1      29.567  23.857  28.955  1.00  0.00    -0.000 C 
BRANCH  14  15
ATOM     15  C   UNL     1      29.534  24.121  30.470  1.00  0.00    -0.000 C 
BRANCH  15  16
ATOM     16  C   UNL     1      30.736  23.504  31.201  1.00  0.00    -0.003 C 
ATOM     17  C   UNL     1      30.785  23.885  32.680  1.00  0.00     0.004 C 
ENDBRANCH  15  16
ENDBRANCH  14  15
ENDBRANCH  13  14
ENDBRANCH  12  13
ENDBRANCH  11  12
ENDBRANCH  10  11
ENDBRANCH   1  10
TORSDOF 13
ENDMDL
