MODEL 1
REMARK VINA RESULT:    -5.757      0.000      0.000
REMARK INTER + INTRA:         -14.487
REMARK INTER:                 -13.161
REMARK INTRA:                  -1.326
REMARK UNBOUND:                -1.326
REMARK SMILES CCCCCCCCCCCCCCCCCCCCCCCC(=O)[O-]
REMARK SMILES IDX 13 1 14 2 15 3 16 4 17 5 18 6 19 7 20 8 21 9 22 10 23 11
REMARK SMILES IDX 24 12 25 13 26 14 12 15 11 16 10 17 9 18 8 19 7 20 6 21 5 22
REMARK SMILES IDX 4 23 3 24 2 25 1 26
REMARK H PARENT
REMARK Flexibility Score: inf
ROOT
ATOM      1  C   UNL     1      23.546 -17.896  18.707  1.00  0.00     0.000 C 
ENDROOT
BRANCH   1   2
ATOM      2  C   UNL     1      23.178 -16.930  19.846  1.00  0.00     0.000 C 
BRANCH   2   3
ATOM      3  C   UNL     1      22.881 -15.506  19.344  1.00  0.00     0.000 C 
BRANCH   3   4
ATOM      4  C   UNL     1      22.542 -14.535  20.485  1.00  0.00     0.000 C 
BRANCH   4   5
ATOM      5  C   UNL     1      21.320 -13.656  20.170  1.00  0.00     0.000 C 
BRANCH   5   6
ATOM      6  C   UNL     1      20.977 -12.685  21.311  1.00  0.00     0.000 C 
BRANCH   6   7
ATOM      7  C   UNL     1      22.187 -11.859  21.769  1.00  0.00     0.000 C 
BRANCH   7   8
ATOM      8  C   UNL     1      21.742 -10.596  22.520  1.00  0.00     0.000 C 
BRANCH   8   9
ATOM      9  C   UNL     1      21.108 -10.930  23.886  1.00  0.00     0.000 C 
BRANCH   9  10
ATOM     10  C   UNL     1      20.587  -9.699  24.650  1.00  0.00     0.006 C 
BRANCH  10  11
ATOM     11  C   UNL     1      21.222  -8.368  24.204  1.00  0.00     0.053 C 
BRANCH  11  12
ATOM     12  C   UNL     1      21.784  -7.579  25.350  1.00  0.00     0.041 C 
ATOM     13  O   UNL     1      23.020  -7.349  25.417  1.00  0.00    -0.550 OA
ATOM     14  O   UNL     1      20.937  -7.046  26.313  1.00  0.00    -0.550 OA
ENDBRANCH  11  12
ENDBRANCH  10  11
ENDBRANCH   9  10
ENDBRANCH   8   9
ENDBRANCH   7   8
ENDBRANCH   6   7
ENDBRANCH   5   6
ENDBRANCH   4   5
ENDBRANCH   3   4
ENDBRANCH   2   3
ENDBRANCH   1   2
BRANCH   1  15
ATOM     15  C   UNL     1      22.996 -17.440  17.345  1.00  0.00     0.000 C 
BRANCH  15  16
ATOM     16  C   UNL     1      23.022 -18.560  16.293  1.00  0.00     0.000 C 
BRANCH  16  17
ATOM     17  C   UNL     1      22.614 -19.925  16.868  1.00  0.00     0.000 C 
BRANCH  17  18
ATOM     18  C   UNL     1      21.121 -20.194  16.630  1.00  0.00    -0.000 C 
BRANCH  18  19
ATOM     19  C   UNL     1      20.423 -20.829  17.846  1.00  0.00    -0.000 C 
BRANCH  19  20
ATOM     20  C   UNL     1      18.885 -20.925  17.752  1.00  0.00    -0.000 C 
BRANCH  20  21
ATOM     21  C   UNL     1      18.329 -22.320  17.404  1.00  0.00    -0.000 C 
BRANCH  21  22
ATOM     22  C   UNL     1      17.458 -22.357  16.128  1.00  0.00    -0.000 C 
BRANCH  22  23
ATOM     23  C   UNL     1      18.266 -22.547  14.833  1.00  0.00    -0.000 C 
BRANCH  23  24
ATOM     24  C   UNL     1      18.569 -21.218  14.121  1.00  0.00    -0.000 C 
BRANCH  24  25
ATOM     25  C   UNL     1      18.956 -21.414  12.647  1.00  0.00    -0.003 C 
ATOM     26  C   UNL     1      18.758 -20.148  11.814  1.00  0.00     0.004 C 
ENDBRANCH  24  25
ENDBRANCH  23  24
ENDBRANCH  22  23
ENDBRANCH  21  22
ENDBRANCH  20  21
ENDBRANCH  19  20
ENDBRANCH  18  19
ENDBRANCH  17  18
ENDBRANCH  16  17
ENDBRANCH  15  16
ENDBRANCH   1  15
TORSDOF 22
ENDMDL
MODEL 2
REMARK VINA RESULT:    -5.725      5.710     13.041
REMARK INTER + INTRA:         -14.414
REMARK INTER:                 -13.128
REMARK INTRA:                  -1.286
REMARK UNBOUND:                -1.326
REMARK SMILES CCCCCCCCCCCCCCCCCCCCCCCC(=O)[O-]
REMARK SMILES IDX 13 1 14 2 15 3 16 4 17 5 18 6 19 7 20 8 21 9 22 10 23 11
REMARK SMILES IDX 24 12 25 13 26 14 12 15 11 16 10 17 9 18 8 19 7 20 6 21 5 22
REMARK SMILES IDX 4 23 3 24 2 25 1 26
REMARK H PARENT
REMARK Flexibility Score: inf
ROOT
ATOM      1  C   UNL     1      22.990 -16.906  17.607  1.00  0.00     0.000 C 
ENDROOT
BRANCH   1   2
ATOM      2  C   UNL     1      22.700 -18.081  16.658  1.00  0.00     0.000 C 
BRANCH   2   3
ATOM      3  C   UNL     1      23.488 -19.351  17.027  1.00  0.00     0.000 C 
BRANCH   3   4
ATOM      4  C   UNL     1      22.573 -20.527  17.401  1.00  0.00     0.000 C 
BRANCH   4   5
ATOM      5  C   UNL     1      21.172 -20.407  16.775  1.00  0.00     0.000 C 
BRANCH   5   6
ATOM      6  C   UNL     1      20.047 -20.492  17.819  1.00  0.00     0.000 C 
BRANCH   6   7
ATOM      7  C   UNL     1      18.810 -21.238  17.298  1.00  0.00     0.000 C 
BRANCH   7   8
ATOM      8  C   UNL     1      19.205 -22.332  16.297  1.00  0.00     0.000 C 
BRANCH   8   9
ATOM      9  C   UNL     1      18.396 -22.237  14.987  1.00  0.00     0.000 C 
BRANCH   9  10
ATOM     10  C   UNL     1      18.984 -21.251  13.961  1.00  0.00     0.006 C 
BRANCH  10  11
ATOM     11  C   UNL     1      17.941 -20.654  12.996  1.00  0.00     0.053 C 
BRANCH  11  12
ATOM     12  C   UNL     1      18.352 -20.766  11.556  1.00  0.00     0.041 C 
ATOM     13  O   UNL     1      19.183 -19.957  11.068  1.00  0.00    -0.550 OA
ATOM     14  O   UNL     1      17.864 -21.802  10.770  1.00  0.00    -0.550 OA
ENDBRANCH  11  12
ENDBRANCH  10  11
ENDBRANCH   9  10
ENDBRANCH   8   9
ENDBRANCH   7   8
ENDBRANCH   6   7
ENDBRANCH   5   6
ENDBRANCH   4   5
ENDBRANCH   3   4
ENDBRANCH   2   3
ENDBRANCH   1   2
BRANCH   1  15
ATOM     15  C   UNL     1      23.481 -17.371  18.990  1.00  0.00     0.000 C 
BRANCH  15  16
ATOM     16  C   UNL     1      22.975 -16.471  20.128  1.00  0.00     0.000 C 
BRANCH  16  17
ATOM     17  C   UNL     1      22.758 -15.016  19.685  1.00  0.00     0.000 C 
BRANCH  17  18
ATOM     18  C   UNL     1      22.621 -14.090  20.903  1.00  0.00    -0.000 C 
BRANCH  18  19
ATOM     19  C   UNL     1      21.349 -13.224  20.860  1.00  0.00    -0.000 C 
BRANCH  19  20
ATOM     20  C   UNL     1      21.283 -12.090  21.906  1.00  0.00    -0.000 C 
BRANCH  20  21
ATOM     21  C   UNL     1      22.537 -11.197  21.992  1.00  0.00    -0.000 C 
BRANCH  21  22
ATOM     22  C   UNL     1      22.238  -9.709  22.285  1.00  0.00    -0.000 C 
BRANCH  22  23
ATOM     23  C   UNL     1      21.346  -9.490  23.520  1.00  0.00    -0.000 C 
BRANCH  23  24
ATOM     24  C   UNL     1      21.569  -8.119  24.178  1.00  0.00    -0.000 C 
BRANCH  24  25
ATOM     25  C   UNL     1      20.505  -7.795  25.239  1.00  0.00    -0.003 C 
ATOM     26  C   UNL     1      21.111  -7.508  26.612  1.00  0.00     0.004 C 
ENDBRANCH  24  25
ENDBRANCH  23  24
ENDBRANCH  22  23
ENDBRANCH  21  22
ENDBRANCH  20  21
ENDBRANCH  19  20
ENDBRANCH  18  19
ENDBRANCH  17  18
ENDBRANCH  16  17
ENDBRANCH  15  16
ENDBRANCH   1  15
TORSDOF 22
ENDMDL
MODEL 3
REMARK VINA RESULT:    -5.615      1.058      1.978
REMARK INTER + INTRA:         -14.162
REMARK INTER:                 -13.028
REMARK INTRA:                  -1.134
REMARK UNBOUND:                -1.326
REMARK SMILES CCCCCCCCCCCCCCCCCCCCCCCC(=O)[O-]
REMARK SMILES IDX 13 1 14 2 15 3 16 4 17 5 18 6 19 7 20 8 21 9 22 10 23 11
REMARK SMILES IDX 24 12 25 13 26 14 12 15 11 16 10 17 9 18 8 19 7 20 6 21 5 22
REMARK SMILES IDX 4 23 3 24 2 25 1 26
REMARK H PARENT
REMARK Flexibility Score: inf
ROOT
ATOM      1  C   UNL     1      23.038 -16.381  20.305  1.00  0.00     0.000 C 
ENDROOT
BRANCH   1   2
ATOM      2  C   UNL     1      23.052 -14.940  20.843  1.00  0.00     0.000 C 
BRANCH   2   3
ATOM      3  C   UNL     1      21.956 -14.061  20.213  1.00  0.00     0.000 C 
BRANCH   3   4
ATOM      4  C   UNL     1      21.499 -12.928  21.144  1.00  0.00     0.000 C 
BRANCH   4   5
ATOM      5  C   UNL     1      22.674 -12.083  21.667  1.00  0.00     0.000 C 
BRANCH   5   6
ATOM      6  C   UNL     1      22.222 -10.736  22.253  1.00  0.00     0.000 C 
BRANCH   6   7
ATOM      7  C   UNL     1      21.004 -10.872  23.179  1.00  0.00     0.000 C 
BRANCH   7   8
ATOM      8  C   UNL     1      20.991  -9.764  24.241  1.00  0.00     0.000 C 
BRANCH   8   9
ATOM      9  C   UNL     1      21.512  -8.423  23.683  1.00  0.00     0.000 C 
BRANCH   9  10
ATOM     10  C   UNL     1      20.592  -7.224  23.978  1.00  0.00     0.006 C 
BRANCH  10  11
ATOM     11  C   UNL     1      20.086  -7.163  25.432  1.00  0.00     0.053 C 
BRANCH  11  12
ATOM     12  C   UNL     1      21.132  -6.670  26.390  1.00  0.00     0.041 C 
ATOM     13  O   UNL     1      21.321  -7.263  27.484  1.00  0.00    -0.550 OA
ATOM     14  O   UNL     1      21.938  -5.593  26.048  1.00  0.00    -0.550 OA
ENDBRANCH  11  12
ENDBRANCH  10  11
ENDBRANCH   9  10
ENDBRANCH   8   9
ENDBRANCH   7   8
ENDBRANCH   6   7
ENDBRANCH   5   6
ENDBRANCH   4   5
ENDBRANCH   3   4
ENDBRANCH   2   3
ENDBRANCH   1   2
BRANCH   1  15
ATOM     15  C   UNL     1      23.023 -16.438  18.768  1.00  0.00     0.000 C 
BRANCH  15  16
ATOM     16  C   UNL     1      23.182 -17.868  18.229  1.00  0.00     0.000 C 
BRANCH  16  17
ATOM     17  C   UNL     1      22.777 -17.997  16.753  1.00  0.00     0.000 C 
BRANCH  17  18
ATOM     18  C   UNL     1      22.310 -19.425  16.437  1.00  0.00    -0.000 C 
BRANCH  18  19
ATOM     19  C   UNL     1      21.500 -20.059  17.583  1.00  0.00    -0.000 C 
BRANCH  19  20
ATOM     20  C   UNL     1      20.095 -20.571  17.197  1.00  0.00    -0.000 C 
BRANCH  20  21
ATOM     21  C   UNL     1      19.924 -20.984  15.721  1.00  0.00    -0.000 C 
BRANCH  21  22
ATOM     22  C   UNL     1      18.689 -21.873  15.450  1.00  0.00    -0.000 C 
BRANCH  22  23
ATOM     23  C   UNL     1      18.330 -21.993  13.959  1.00  0.00    -0.000 C 
BRANCH  23  24
ATOM     24  C   UNL     1      17.920 -20.648  13.336  1.00  0.00    -0.000 C 
BRANCH  24  25
ATOM     25  C   UNL     1      18.698 -20.332  12.049  1.00  0.00    -0.003 C 
ATOM     26  C   UNL     1      18.323 -21.258  10.893  1.00  0.00     0.004 C 
ENDBRANCH  24  25
ENDBRANCH  23  24
ENDBRANCH  22  23
ENDBRANCH  21  22
ENDBRANCH  20  21
ENDBRANCH  19  20
ENDBRANCH  18  19
ENDBRANCH  17  18
ENDBRANCH  16  17
ENDBRANCH  15  16
ENDBRANCH   1  15
TORSDOF 22
ENDMDL
MODEL 4
REMARK VINA RESULT:    -5.562      5.868     14.580
REMARK INTER + INTRA:         -14.042
REMARK INTER:                 -12.840
REMARK INTRA:                  -1.202
REMARK UNBOUND:                -1.326
REMARK SMILES CCCCCCCCCCCCCCCCCCCCCCCC(=O)[O-]
REMARK SMILES IDX 13 1 14 2 15 3 16 4 17 5 18 6 19 7 20 8 21 9 22 10 23 11
REMARK SMILES IDX 24 12 25 13 26 14 12 15 11 16 10 17 9 18 8 19 7 20 6 21 5 22
REMARK SMILES IDX 4 23 3 24 2 25 1 26
REMARK H PARENT
REMARK Flexibility Score: inf
ROOT
ATOM      1  C   UNL     1      20.794  -9.074  24.701  1.00  0.00     0.000 C 
ENDROOT
BRANCH   1   2
ATOM      2  C   UNL     1      21.515  -8.784  23.374  1.00  0.00     0.000 C 
BRANCH   2   3
ATOM      3  C   UNL     1      22.146 -10.043  22.753  1.00  0.00     0.000 C 
BRANCH   3   4
ATOM      4  C   UNL     1      21.170 -11.227  22.696  1.00  0.00     0.000 C 
BRANCH   4   5
ATOM      5  C   UNL     1      21.537 -12.243  21.600  1.00  0.00     0.000 C 
BRANCH   5   6
ATOM      6  C   UNL     1      23.028 -12.618  21.614  1.00  0.00     0.000 C 
BRANCH   6   7
ATOM      7  C   UNL     1      23.278 -14.068  21.176  1.00  0.00     0.000 C 
BRANCH   7   8
ATOM      8  C   UNL     1      22.249 -14.514  20.128  1.00  0.00     0.000 C 
BRANCH   8   9
ATOM      9  C   UNL     1      22.841 -15.536  19.136  1.00  0.00     0.000 C 
BRANCH   9  10
ATOM     10  C   UNL     1      23.040 -16.943  19.732  1.00  0.00     0.006 C 
BRANCH  10  11
ATOM     11  C   UNL     1      23.641 -17.963  18.746  1.00  0.00     0.053 C 
BRANCH  11  12
ATOM     12  C   UNL     1      22.626 -18.504  17.780  1.00  0.00     0.041 C 
ATOM     13  O   UNL     1      22.537 -18.026  16.620  1.00  0.00    -0.550 OA
ATOM     14  O   UNL     1      21.821 -19.576  18.142  1.00  0.00    -0.550 OA
ENDBRANCH  11  12
ENDBRANCH  10  11
ENDBRANCH   9  10
ENDBRANCH   8   9
ENDBRANCH   7   8
ENDBRANCH   6   7
ENDBRANCH   5   6
ENDBRANCH   4   5
ENDBRANCH   3   4
ENDBRANCH   2   3
ENDBRANCH   1   2
BRANCH   1  15
ATOM     15  C   UNL     1      20.785  -7.861  25.647  1.00  0.00     0.000 C 
BRANCH  15  16
ATOM     16  C   UNL     1      19.615  -6.905  25.370  1.00  0.00     0.000 C 
BRANCH  16  17
ATOM     17  C   UNL     1      20.043  -5.648  24.598  1.00  0.00     0.000 C 
BRANCH  17  18
ATOM     18  C   UNL     1      19.200  -5.474  23.326  1.00  0.00    -0.000 C 
BRANCH  18  19
ATOM     19  C   UNL     1      18.905  -4.000  22.996  1.00  0.00    -0.000 C 
BRANCH  19  20
ATOM     20  C   UNL     1      18.121  -3.223  24.076  1.00  0.00    -0.000 C 
BRANCH  20  21
ATOM     21  C   UNL     1      16.611  -3.530  24.146  1.00  0.00    -0.000 C 
BRANCH  21  22
ATOM     22  C   UNL     1      16.239  -4.673  25.117  1.00  0.00    -0.000 C 
BRANCH  22  23
ATOM     23  C   UNL     1      14.728  -4.793  25.380  1.00  0.00    -0.000 C 
BRANCH  23  24
ATOM     24  C   UNL     1      14.317  -4.231  26.751  1.00  0.00    -0.000 C 
BRANCH  24  25
ATOM     25  C   UNL     1      12.801  -4.308  26.989  1.00  0.00    -0.003 C 
ATOM     26  C   UNL     1      12.449  -4.959  28.326  1.00  0.00     0.004 C 
ENDBRANCH  24  25
ENDBRANCH  23  24
ENDBRANCH  22  23
ENDBRANCH  21  22
ENDBRANCH  20  21
ENDBRANCH  19  20
ENDBRANCH  18  19
ENDBRANCH  17  18
ENDBRANCH  16  17
ENDBRANCH  15  16
ENDBRANCH   1  15
TORSDOF 22
ENDMDL
MODEL 5
REMARK VINA RESULT:    -5.558      4.936     13.249
REMARK INTER + INTRA:         -14.033
REMARK INTER:                 -12.819
REMARK INTRA:                  -1.214
REMARK UNBOUND:                -1.326
REMARK SMILES CCCCCCCCCCCCCCCCCCCCCCCC(=O)[O-]
REMARK SMILES IDX 13 1 14 2 15 3 16 4 17 5 18 6 19 7 20 8 21 9 22 10 23 11
REMARK SMILES IDX 24 12 25 13 26 14 12 15 11 16 10 17 9 18 8 19 7 20 6 21 5 22
REMARK SMILES IDX 4 23 3 24 2 25 1 26
REMARK H PARENT
REMARK Flexibility Score: inf
ROOT
ATOM      1  C   UNL     1      21.401 -13.741  20.208  1.00  0.00     0.000 C 
ENDROOT
BRANCH   1   2
ATOM      2  C   UNL     1      22.681 -14.537  20.513  1.00  0.00     0.000 C 
BRANCH   2   3
ATOM      3  C   UNL     1      22.949 -15.648  19.481  1.00  0.00     0.000 C 
BRANCH   3   4
ATOM      4  C   UNL     1      22.667 -15.197  18.040  1.00  0.00     0.000 C 
BRANCH   4   5
ATOM      5  C   UNL     1      22.896 -16.321  17.014  1.00  0.00     0.000 C 
BRANCH   5   6
ATOM      6  C   UNL     1      23.437 -17.609  17.655  1.00  0.00     0.000 C 
BRANCH   6   7
ATOM      7  C   UNL     1      23.523 -18.775  16.660  1.00  0.00     0.000 C 
BRANCH   7   8
ATOM      8  C   UNL     1      22.132 -19.350  16.360  1.00  0.00     0.000 C 
BRANCH   8   9
ATOM      9  C   UNL     1      21.523 -20.059  17.588  1.00  0.00     0.000 C 
BRANCH   9  10
ATOM     10  C   UNL     1      21.463 -21.592  17.457  1.00  0.00     0.006 C 
BRANCH  10  11
ATOM     11  C   UNL     1      20.100 -22.202  17.836  1.00  0.00     0.053 C 
BRANCH  11  12
ATOM     12  C   UNL     1      18.945 -21.321  17.458  1.00  0.00     0.041 C 
ATOM     13  O   UNL     1      18.575 -21.239  16.258  1.00  0.00    -0.550 OA
ATOM     14  O   UNL     1      18.239 -20.638  18.439  1.00  0.00    -0.550 OA
ENDBRANCH  11  12
ENDBRANCH  10  11
ENDBRANCH   9  10
ENDBRANCH   8   9
ENDBRANCH   7   8
ENDBRANCH   6   7
ENDBRANCH   5   6
ENDBRANCH   4   5
ENDBRANCH   3   4
ENDBRANCH   2   3
ENDBRANCH   1   2
BRANCH   1  15
ATOM     15  C   UNL     1      21.064 -12.720  21.309  1.00  0.00     0.000 C 
BRANCH  15  16
ATOM     16  C   UNL     1      22.306 -11.973  21.820  1.00  0.00     0.000 C 
BRANCH  16  17
ATOM     17  C   UNL     1      21.954 -10.701  22.606  1.00  0.00     0.000 C 
BRANCH  17  18
ATOM     18  C   UNL     1      20.648 -10.889  23.393  1.00  0.00    -0.000 C 
BRANCH  18  19
ATOM     19  C   UNL     1      20.643 -10.140  24.737  1.00  0.00    -0.000 C 
BRANCH  19  20
ATOM     20  C   UNL     1      21.048  -8.651  24.669  1.00  0.00    -0.000 C 
BRANCH  20  21
ATOM     21  C   UNL     1      20.507  -7.765  25.809  1.00  0.00    -0.000 C 
BRANCH  21  22
ATOM     22  C   UNL     1      21.045  -6.317  25.798  1.00  0.00    -0.000 C 
BRANCH  22  23
ATOM     23  C   UNL     1      20.725  -5.548  24.506  1.00  0.00    -0.000 C 
BRANCH  23  24
ATOM     24  C   UNL     1      19.235  -5.190  24.381  1.00  0.00    -0.000 C 
BRANCH  24  25
ATOM     25  C   UNL     1      18.823  -4.872  22.934  1.00  0.00    -0.003 C 
ATOM     26  C   UNL     1      18.292  -3.449  22.773  1.00  0.00     0.004 C 
ENDBRANCH  24  25
ENDBRANCH  23  24
ENDBRANCH  22  23
ENDBRANCH  21  22
ENDBRANCH  20  21
ENDBRANCH  19  20
ENDBRANCH  18  19
ENDBRANCH  17  18
ENDBRANCH  16  17
ENDBRANCH  15  16
ENDBRANCH   1  15
TORSDOF 22
ENDMDL
MODEL 6
REMARK VINA RESULT:    -5.442      2.118      6.399
REMARK INTER + INTRA:         -13.767
REMARK INTER:                 -12.108
REMARK INTRA:                  -1.658
REMARK UNBOUND:                -1.326
REMARK SMILES CCCCCCCCCCCCCCCCCCCCCCCC(=O)[O-]
REMARK SMILES IDX 13 1 14 2 15 3 16 4 17 5 18 6 19 7 20 8 21 9 22 10 23 11
REMARK SMILES IDX 24 12 25 13 26 14 12 15 11 16 10 17 9 18 8 19 7 20 6 21 5 22
REMARK SMILES IDX 4 23 3 24 2 25 1 26
REMARK H PARENT
REMARK Flexibility Score: inf
ROOT
ATOM      1  C   UNL     1      21.746 -11.081  22.369  1.00  0.00     0.000 C 
ENDROOT
BRANCH   1   2
ATOM      2  C   UNL     1      20.678 -11.131  23.474  1.00  0.00     0.000 C 
BRANCH   2   3
ATOM      3  C   UNL     1      20.747  -9.921  24.422  1.00  0.00     0.000 C 
BRANCH   3   4
ATOM      4  C   UNL     1      21.427  -8.703  23.780  1.00  0.00     0.000 C 
BRANCH   4   5
ATOM      5  C   UNL     1      21.938  -7.694  24.822  1.00  0.00     0.000 C 
BRANCH   5   6
ATOM      6  C   UNL     1      21.149  -7.751  26.140  1.00  0.00     0.000 C 
BRANCH   6   7
ATOM      7  C   UNL     1      21.593  -6.676  27.143  1.00  0.00     0.000 C 
BRANCH   7   8
ATOM      8  C   UNL     1      22.553  -5.672  26.489  1.00  0.00     0.000 C 
BRANCH   8   9
ATOM      9  C   UNL     1      22.267  -4.224  26.938  1.00  0.00     0.000 C 
BRANCH   9  10
ATOM     10  C   UNL     1      21.521  -3.380  25.887  1.00  0.00     0.006 C 
BRANCH  10  11
ATOM     11  C   UNL     1      21.504  -4.004  24.478  1.00  0.00     0.053 C 
BRANCH  11  12
ATOM     12  C   UNL     1      20.116  -4.313  23.997  1.00  0.00     0.041 C 
ATOM     13  O   UNL     1      19.387  -5.117  24.634  1.00  0.00    -0.550 OA
ATOM     14  O   UNL     1      19.605  -3.665  22.879  1.00  0.00    -0.550 OA
ENDBRANCH  11  12
ENDBRANCH  10  11
ENDBRANCH   9  10
ENDBRANCH   8   9
ENDBRANCH   7   8
ENDBRANCH   6   7
ENDBRANCH   5   6
ENDBRANCH   4   5
ENDBRANCH   3   4
ENDBRANCH   2   3
ENDBRANCH   1   2
BRANCH   1  15
ATOM     15  C   UNL     1      21.833 -12.393  21.570  1.00  0.00     0.000 C 
BRANCH  15  16
ATOM     16  C   UNL     1      23.233 -13.023  21.621  1.00  0.00     0.000 C 
BRANCH  16  17
ATOM     17  C   UNL     1      23.246 -14.484  21.147  1.00  0.00     0.000 C 
BRANCH  17  18
ATOM     18  C   UNL     1      22.345 -14.667  19.917  1.00  0.00    -0.000 C 
BRANCH  18  19
ATOM     19  C   UNL     1      22.890 -15.706  18.921  1.00  0.00    -0.000 C 
BRANCH  19  20
ATOM     20  C   UNL     1      23.238 -17.084  19.525  1.00  0.00    -0.000 C 
BRANCH  20  21
ATOM     21  C   UNL     1      23.558 -18.193  18.502  1.00  0.00    -0.000 C 
BRANCH  21  22
ATOM     22  C   UNL     1      23.150 -17.855  17.051  1.00  0.00    -0.000 C 
BRANCH  22  23
ATOM     23  C   UNL     1      22.249 -18.917  16.399  1.00  0.00    -0.000 C 
BRANCH  23  24
ATOM     24  C   UNL     1      21.870 -20.051  17.367  1.00  0.00    -0.000 C 
BRANCH  24  25
ATOM     25  C   UNL     1      20.410 -20.502  17.205  1.00  0.00    -0.003 C 
ATOM     26  C   UNL     1      20.181 -21.304  15.924  1.00  0.00     0.004 C 
ENDBRANCH  24  25
ENDBRANCH  23  24
ENDBRANCH  22  23
ENDBRANCH  21  22
ENDBRANCH  20  21
ENDBRANCH  19  20
ENDBRANCH  18  19
ENDBRANCH  17  18
ENDBRANCH  16  17
ENDBRANCH  15  16
ENDBRANCH   1  15
TORSDOF 22
ENDMDL
MODEL 7
REMARK VINA RESULT:    -5.394      4.917     13.923
REMARK INTER + INTRA:         -13.658
REMARK INTER:                 -11.901
REMARK INTRA:                  -1.757
REMARK UNBOUND:                -1.326
REMARK SMILES CCCCCCCCCCCCCCCCCCCCCCCC(=O)[O-]
REMARK SMILES IDX 13 1 14 2 15 3 16 4 17 5 18 6 19 7 20 8 21 9 22 10 23 11
REMARK SMILES IDX 24 12 25 13 26 14 12 15 11 16 10 17 9 18 8 19 7 20 6 21 5 22
REMARK SMILES IDX 4 23 3 24 2 25 1 26
REMARK H PARENT
REMARK Flexibility Score: inf
ROOT
ATOM      1  C   UNL     1      21.219 -11.690  22.282  1.00  0.00     0.000 C 
ENDROOT
BRANCH   1   2
ATOM      2  C   UNL     1      22.619 -11.706  21.647  1.00  0.00     0.000 C 
BRANCH   2   3
ATOM      3  C   UNL     1      23.159 -13.131  21.434  1.00  0.00     0.000 C 
BRANCH   3   4
ATOM      4  C   UNL     1      22.188 -14.020  20.644  1.00  0.00     0.000 C 
BRANCH   4   5
ATOM      5  C   UNL     1      22.913 -14.991  19.696  1.00  0.00     0.000 C 
BRANCH   5   6
ATOM      6  C   UNL     1      23.070 -16.398  20.293  1.00  0.00     0.000 C 
BRANCH   6   7
ATOM      7  C   UNL     1      23.384 -17.461  19.230  1.00  0.00     0.000 C 
BRANCH   7   8
ATOM      8  C   UNL     1      22.904 -17.014  17.842  1.00  0.00     0.000 C 
BRANCH   8   9
ATOM      9  C   UNL     1      22.741 -18.206  16.876  1.00  0.00     0.000 C 
BRANCH   9  10
ATOM     10  C   UNL     1      22.174 -19.475  17.540  1.00  0.00     0.006 C 
BRANCH  10  11
ATOM     11  C   UNL     1      21.098 -20.193  16.704  1.00  0.00     0.053 C 
BRANCH  11  12
ATOM     12  C   UNL     1      20.200 -21.062  17.537  1.00  0.00     0.041 C 
ATOM     13  O   UNL     1      20.552 -22.231  17.841  1.00  0.00    -0.550 OA
ATOM     14  O   UNL     1      19.002 -20.559  18.028  1.00  0.00    -0.550 OA
ENDBRANCH  11  12
ENDBRANCH  10  11
ENDBRANCH   9  10
ENDBRANCH   8   9
ENDBRANCH   7   8
ENDBRANCH   6   7
ENDBRANCH   5   6
ENDBRANCH   4   5
ENDBRANCH   3   4
ENDBRANCH   2   3
ENDBRANCH   1   2
BRANCH   1  15
ATOM     15  C   UNL     1      21.097 -10.663  23.421  1.00  0.00     0.000 C 
BRANCH  15  16
ATOM     16  C   UNL     1      21.921  -9.393  23.159  1.00  0.00     0.000 C 
BRANCH  16  17
ATOM     17  C   UNL     1      21.306  -8.141  23.805  1.00  0.00     0.000 C 
BRANCH  17  18
ATOM     18  C   UNL     1      20.407  -8.524  24.990  1.00  0.00    -0.000 C 
BRANCH  18  19
ATOM     19  C   UNL     1      20.388  -7.457  26.099  1.00  0.00    -0.000 C 
BRANCH  19  20
ATOM     20  C   UNL     1      21.751  -7.168  26.765  1.00  0.00    -0.000 C 
BRANCH  20  21
ATOM     21  C   UNL     1      22.128  -5.678  26.879  1.00  0.00    -0.000 C 
BRANCH  21  22
ATOM     22  C   UNL     1      22.604  -5.040  25.554  1.00  0.00    -0.000 C 
BRANCH  22  23
ATOM     23  C   UNL     1      21.724  -3.870  25.081  1.00  0.00    -0.000 C 
BRANCH  23  24
ATOM     24  C   UNL     1      20.898  -4.216  23.831  1.00  0.00    -0.000 C 
BRANCH  24  25
ATOM     25  C   UNL     1      19.444  -4.584  24.167  1.00  0.00    -0.003 C 
ATOM     26  C   UNL     1      18.501  -4.402  22.979  1.00  0.00     0.004 C 
ENDBRANCH  24  25
ENDBRANCH  23  24
ENDBRANCH  22  23
ENDBRANCH  21  22
ENDBRANCH  20  21
ENDBRANCH  19  20
ENDBRANCH  18  19
ENDBRANCH  17  18
ENDBRANCH  16  17
ENDBRANCH  15  16
ENDBRANCH   1  15
TORSDOF 22
ENDMDL
MODEL 8
REMARK VINA RESULT:    -5.350      1.689      3.788
REMARK INTER + INTRA:         -13.558
REMARK INTER:                 -11.866
REMARK INTRA:                  -1.692
REMARK UNBOUND:                -1.326
REMARK SMILES CCCCCCCCCCCCCCCCCCCCCCCC(=O)[O-]
REMARK SMILES IDX 13 1 14 2 15 3 16 4 17 5 18 6 19 7 20 8 21 9 22 10 23 11
REMARK SMILES IDX 24 12 25 13 26 14 12 15 11 16 10 17 9 18 8 19 7 20 6 21 5 22
REMARK SMILES IDX 4 23 3 24 2 25 1 26
REMARK H PARENT
REMARK Flexibility Score: inf
ROOT
ATOM      1  C   UNL     1      23.110 -20.222  17.012  1.00  0.00     0.000 C 
ENDROOT
BRANCH   1   2
ATOM      2  C   UNL     1      23.907 -18.929  16.768  1.00  0.00     0.000 C 
BRANCH   2   3
ATOM      3  C   UNL     1      23.000 -17.708  16.535  1.00  0.00     0.000 C 
BRANCH   3   4
ATOM      4  C   UNL     1      23.030 -16.716  17.707  1.00  0.00     0.000 C 
BRANCH   4   5
ATOM      5  C   UNL     1      23.147 -17.417  19.072  1.00  0.00     0.000 C 
BRANCH   5   6
ATOM      6  C   UNL     1      23.080 -16.433  20.251  1.00  0.00     0.000 C 
BRANCH   6   7
ATOM      7  C   UNL     1      22.686 -15.014  19.817  1.00  0.00     0.000 C 
BRANCH   7   8
ATOM      8  C   UNL     1      22.657 -14.057  21.017  1.00  0.00     0.000 C 
BRANCH   8   9
ATOM      9  C   UNL     1      21.515 -13.026  20.906  1.00  0.00     0.000 C 
BRANCH   9  10
ATOM     10  C   UNL     1      21.788 -11.709  21.656  1.00  0.00     0.006 C 
BRANCH  10  11
ATOM     11  C   UNL     1      20.940 -11.524  22.929  1.00  0.00     0.053 C 
BRANCH  11  12
ATOM     12  C   UNL     1      21.052 -10.143  23.506  1.00  0.00     0.041 C 
ATOM     13  O   UNL     1      20.523  -9.874  24.616  1.00  0.00    -0.550 OA
ATOM     14  O   UNL     1      21.793  -9.170  22.848  1.00  0.00    -0.550 OA
ENDBRANCH  11  12
ENDBRANCH  10  11
ENDBRANCH   9  10
ENDBRANCH   8   9
ENDBRANCH   7   8
ENDBRANCH   6   7
ENDBRANCH   5   6
ENDBRANCH   4   5
ENDBRANCH   3   4
ENDBRANCH   2   3
ENDBRANCH   1   2
BRANCH   1  15
ATOM     15  C   UNL     1      21.619 -20.072  16.664  1.00  0.00     0.000 C 
BRANCH  15  16
ATOM     16  C   UNL     1      20.702 -20.734  17.704  1.00  0.00     0.000 C 
BRANCH  16  17
ATOM     17  C   UNL     1      19.229 -20.758  17.268  1.00  0.00     0.000 C 
BRANCH  17  18
ATOM     18  C   UNL     1      18.901 -22.061  16.523  1.00  0.00    -0.000 C 
BRANCH  18  19
ATOM     19  C   UNL     1      18.107 -21.829  15.226  1.00  0.00    -0.000 C 
BRANCH  19  20
ATOM     20  C   UNL     1      18.859 -22.161  13.919  1.00  0.00    -0.000 C 
BRANCH  20  21
ATOM     21  C   UNL     1      19.258 -20.945  13.059  1.00  0.00    -0.000 C 
BRANCH  21  22
ATOM     22  C   UNL     1      18.108 -20.366  12.205  1.00  0.00    -0.000 C 
BRANCH  22  23
ATOM     23  C   UNL     1      17.701 -21.266  11.025  1.00  0.00    -0.000 C 
BRANCH  23  24
ATOM     24  C   UNL     1      16.279 -21.831  11.171  1.00  0.00    -0.000 C 
BRANCH  24  25
ATOM     25  C   UNL     1      15.403 -20.988  12.113  1.00  0.00    -0.003 C 
ATOM     26  C   UNL     1      14.825 -21.807  13.267  1.00  0.00     0.004 C 
ENDBRANCH  24  25
ENDBRANCH  23  24
ENDBRANCH  22  23
ENDBRANCH  21  22
ENDBRANCH  20  21
ENDBRANCH  19  20
ENDBRANCH  18  19
ENDBRANCH  17  18
ENDBRANCH  16  17
ENDBRANCH  15  16
ENDBRANCH   1  15
TORSDOF 22
ENDMDL
MODEL 9
REMARK VINA RESULT:    -5.256      5.738     13.374
REMARK INTER + INTRA:         -13.343
REMARK INTER:                 -12.544
REMARK INTRA:                  -0.799
REMARK UNBOUND:                -1.326
REMARK SMILES CCCCCCCCCCCCCCCCCCCCCCCC(=O)[O-]
REMARK SMILES IDX 13 1 14 2 15 3 16 4 17 5 18 6 19 7 20 8 21 9 22 10 23 11
REMARK SMILES IDX 24 12 25 13 26 14 12 15 11 16 10 17 9 18 8 19 7 20 6 21 5 22
REMARK SMILES IDX 4 23 3 24 2 25 1 26
REMARK H PARENT
REMARK Flexibility Score: inf
ROOT
ATOM      1  C   UNL     1      22.708 -17.694  17.122  1.00  0.00     0.000 C 
ENDROOT
BRANCH   1   2
ATOM      2  C   UNL     1      22.286 -18.998  16.423  1.00  0.00     0.000 C 
BRANCH   2   3
ATOM      3  C   UNL     1      21.724 -20.042  17.405  1.00  0.00     0.000 C 
BRANCH   3   4
ATOM      4  C   UNL     1      20.264 -20.412  17.104  1.00  0.00     0.000 C 
BRANCH   4   5
ATOM      5  C   UNL     1      20.137 -21.439  15.966  1.00  0.00     0.000 C 
BRANCH   5   6
ATOM      6  C   UNL     1      18.770 -21.380  15.264  1.00  0.00     0.000 C 
BRANCH   6   7
ATOM      7  C   UNL     1      18.867 -21.650  13.755  1.00  0.00     0.000 C 
BRANCH   7   8
ATOM      8  C   UNL     1      17.482 -21.915  13.151  1.00  0.00     0.000 C 
BRANCH   8   9
ATOM      9  C   UNL     1      17.315 -21.244  11.772  1.00  0.00     0.000 C 
BRANCH   9  10
ATOM     10  C   UNL     1      15.848 -21.067  11.337  1.00  0.00     0.006 C 
BRANCH  10  11
ATOM     11  C   UNL     1      14.875 -20.800  12.501  1.00  0.00     0.053 C 
BRANCH  11  12
ATOM     12  C   UNL     1      14.115 -19.516  12.339  1.00  0.00     0.041 C 
ATOM     13  O   UNL     1      14.716 -18.412  12.394  1.00  0.00    -0.550 OA
ATOM     14  O   UNL     1      12.753 -19.541  12.067  1.00  0.00    -0.550 OA
ENDBRANCH  11  12
ENDBRANCH  10  11
ENDBRANCH   9  10
ENDBRANCH   8   9
ENDBRANCH   7   8
ENDBRANCH   6   7
ENDBRANCH   5   6
ENDBRANCH   4   5
ENDBRANCH   3   4
ENDBRANCH   2   3
ENDBRANCH   1   2
BRANCH   1  15
ATOM     15  C   UNL     1      23.554 -17.946  18.382  1.00  0.00     0.000 C 
BRANCH  15  16
ATOM     16  C   UNL     1      23.000 -17.223  19.619  1.00  0.00     0.000 C 
BRANCH  16  17
ATOM     17  C   UNL     1      22.918 -15.700  19.431  1.00  0.00     0.000 C 
BRANCH  17  18
ATOM     18  C   UNL     1      22.976 -14.979  20.785  1.00  0.00    -0.000 C 
BRANCH  18  19
ATOM     19  C   UNL     1      22.150 -13.680  20.811  1.00  0.00    -0.000 C 
BRANCH  19  20
ATOM     20  C   UNL     1      22.758 -12.524  21.634  1.00  0.00    -0.000 C 
BRANCH  20  21
ATOM     21  C   UNL     1      21.746 -11.495  22.176  1.00  0.00    -0.000 C 
BRANCH  21  22
ATOM     22  C   UNL     1      22.373 -10.146  22.594  1.00  0.00    -0.000 C 
BRANCH  22  23
ATOM     23  C   UNL     1      21.337  -9.051  22.901  1.00  0.00    -0.000 C 
BRANCH  23  24
ATOM     24  C   UNL     1      21.013  -8.942  24.400  1.00  0.00    -0.000 C 
BRANCH  24  25
ATOM     25  C   UNL     1      21.775  -7.797  25.086  1.00  0.00    -0.003 C 
ATOM     26  C   UNL     1      21.225  -7.474  26.474  1.00  0.00     0.004 C 
ENDBRANCH  24  25
ENDBRANCH  23  24
ENDBRANCH  22  23
ENDBRANCH  21  22
ENDBRANCH  20  21
ENDBRANCH  19  20
ENDBRANCH  18  19
ENDBRANCH  17  18
ENDBRANCH  16  17
ENDBRANCH  15  16
ENDBRANCH   1  15
TORSDOF 22
ENDMDL
