MODEL 1
REMARK VINA RESULT:     6.655      0.000      0.000
REMARK INTER + INTRA:          12.064
REMARK INTER:                  12.102
REMARK INTRA:                  -0.038
REMARK UNBOUND:                -0.038
REMARK SMILES CCCCCCCCCCCCCCCC(=O)[O-]
REMARK SMILES IDX 9 1 10 2 11 3 12 4 13 5 14 6 15 7 16 8 17 9 18 10 8 11 7 12
REMARK SMILES IDX 6 13 5 14 4 15 3 16 2 17 1 18
REMARK H PARENT
REMARK Flexibility Score: inf
ROOT
ATOM      1  C   UNL     1      -8.686  30.141 -15.215  1.00  0.00     0.000 C 
ENDROOT
BRANCH   1   2
ATOM      2  C   UNL     1      -7.894  28.928 -15.736  1.00  0.00     0.000 C 
BRANCH   2   3
ATOM      3  C   UNL     1      -7.632  28.987 -17.251  1.00  0.00     0.000 C 
BRANCH   3   4
ATOM      4  C   UNL     1      -6.224  28.548 -17.683  1.00  0.00     0.000 C 
BRANCH   4   5
ATOM      5  C   UNL     1      -6.073  28.249 -19.184  1.00  0.00     0.000 C 
BRANCH   5   6
ATOM      6  C   UNL     1      -7.082  29.012 -20.071  1.00  0.00     0.006 C 
BRANCH   6   7
ATOM      7  C   UNL     1      -6.558  29.232 -21.497  1.00  0.00     0.053 C 
BRANCH   7   8
ATOM      8  C   UNL     1      -5.808  28.028 -21.980  1.00  0.00     0.041 C 
ATOM      9  O   UNL     1      -5.965  26.914 -21.412  1.00  0.00    -0.550 OA
ATOM     10  O   UNL     1      -4.928  28.137 -23.050  1.00  0.00    -0.550 OA
ENDBRANCH   7   8
ENDBRANCH   6   7
ENDBRANCH   5   6
ENDBRANCH   4   5
ENDBRANCH   3   4
ENDBRANCH   2   3
ENDBRANCH   1   2
BRANCH   1  11
ATOM     11  C   UNL     1      -9.363  30.928 -16.348  1.00  0.00     0.000 C 
BRANCH  11  12
ATOM     12  C   UNL     1      -8.935  32.405 -16.374  1.00  0.00    -0.000 C 
BRANCH  12  13
ATOM     13  C   UNL     1      -8.624  32.914 -14.961  1.00  0.00    -0.000 C 
BRANCH  13  14
ATOM     14  C   UNL     1      -7.803  34.212 -15.010  1.00  0.00    -0.000 C 
BRANCH  14  15
ATOM     15  C   UNL     1      -6.807  34.245 -16.186  1.00  0.00    -0.000 C 
BRANCH  15  16
ATOM     16  C   UNL     1      -5.878  35.478 -16.221  1.00  0.00    -0.000 C 
BRANCH  16  17
ATOM     17  C   UNL     1      -5.130  35.691 -17.546  1.00  0.00    -0.003 C 
ATOM     18  C   UNL     1      -5.956  36.451 -18.579  1.00  0.00     0.004 C 
ENDBRANCH  16  17
ENDBRANCH  15  16
ENDBRANCH  14  15
ENDBRANCH  13  14
ENDBRANCH  12  13
ENDBRANCH  11  12
ENDBRANCH   1  11
TORSDOF 14
ENDMDL
MODEL 2
REMARK VINA RESULT:     6.986      0.922      1.642
REMARK INTER + INTRA:          12.665
REMARK INTER:                  13.207
REMARK INTRA:                  -0.542
REMARK UNBOUND:                -0.038
REMARK SMILES CCCCCCCCCCCCCCCC(=O)[O-]
REMARK SMILES IDX 9 1 10 2 11 3 12 4 13 5 14 6 15 7 16 8 17 9 18 10 8 11 7 12
REMARK SMILES IDX 6 13 5 14 4 15 3 16 2 17 1 18
REMARK H PARENT
REMARK Flexibility Score: inf
ROOT
ATOM      1  C   UNL     1      -7.791  29.142 -15.798  1.00  0.00     0.000 C 
ENDROOT
BRANCH   1   2
ATOM      2  C   UNL     1      -7.868  28.822 -17.301  1.00  0.00     0.000 C 
BRANCH   2   3
ATOM      3  C   UNL     1      -6.556  28.244 -17.861  1.00  0.00     0.000 C 
BRANCH   3   4
ATOM      4  C   UNL     1      -6.025  28.944 -19.122  1.00  0.00     0.000 C 
BRANCH   4   5
ATOM      5  C   UNL     1      -6.574  28.391 -20.447  1.00  0.00     0.000 C 
BRANCH   5   6
ATOM      6  C   UNL     1      -5.998  29.094 -21.696  1.00  0.00     0.006 C 
BRANCH   6   7
ATOM      7  C   UNL     1      -5.003  28.208 -22.460  1.00  0.00     0.053 C 
BRANCH   7   8
ATOM      8  C   UNL     1      -5.662  26.946 -22.924  1.00  0.00     0.041 C 
ATOM      9  O   UNL     1      -6.906  26.917 -23.125  1.00  0.00    -0.550 OA
ATOM     10  O   UNL     1      -4.906  25.797 -23.124  1.00  0.00    -0.550 OA
ENDBRANCH   7   8
ENDBRANCH   6   7
ENDBRANCH   5   6
ENDBRANCH   4   5
ENDBRANCH   3   4
ENDBRANCH   2   3
ENDBRANCH   1   2
BRANCH   1  11
ATOM     11  C   UNL     1      -8.844  30.173 -15.363  1.00  0.00     0.000 C 
BRANCH  11  12
ATOM     12  C   UNL     1      -9.526  30.857 -16.561  1.00  0.00    -0.000 C 
BRANCH  12  13
ATOM     13  C   UNL     1      -9.123  32.335 -16.653  1.00  0.00    -0.000 C 
BRANCH  13  14
ATOM     14  C   UNL     1      -8.634  32.859 -15.294  1.00  0.00    -0.000 C 
BRANCH  14  15
ATOM     15  C   UNL     1      -7.911  34.216 -15.402  1.00  0.00    -0.000 C 
BRANCH  15  16
ATOM     16  C   UNL     1      -6.522  34.164 -16.074  1.00  0.00    -0.000 C 
BRANCH  16  17
ATOM     17  C   UNL     1      -5.804  35.519 -16.187  1.00  0.00    -0.003 C 
ATOM     18  C   UNL     1      -5.760  36.049 -17.617  1.00  0.00     0.004 C 
ENDBRANCH  16  17
ENDBRANCH  15  16
ENDBRANCH  14  15
ENDBRANCH  13  14
ENDBRANCH  12  13
ENDBRANCH  11  12
ENDBRANCH   1  11
TORSDOF 14
ENDMDL
MODEL 3
REMARK VINA RESULT:     7.825      2.795      4.024
REMARK INTER + INTRA:          14.192
REMARK INTER:                  15.066
REMARK INTRA:                  -0.874
REMARK UNBOUND:                -0.038
REMARK SMILES CCCCCCCCCCCCCCCC(=O)[O-]
REMARK SMILES IDX 9 1 10 2 11 3 12 4 13 5 14 6 15 7 16 8 17 9 18 10 8 11 7 12
REMARK SMILES IDX 6 13 5 14 4 15 3 16 2 17 1 18
REMARK H PARENT
REMARK Flexibility Score: inf
ROOT
ATOM      1  C   UNL     1      -9.261  31.006 -15.518  1.00  0.00     0.000 C 
ENDROOT
BRANCH   1   2
ATOM      2  C   UNL     1      -8.419  29.726 -15.664  1.00  0.00     0.000 C 
BRANCH   2   3
ATOM      3  C   UNL     1      -8.239  29.288 -17.128  1.00  0.00     0.000 C 
BRANCH   3   4
ATOM      4  C   UNL     1      -7.147  28.233 -17.360  1.00  0.00     0.000 C 
BRANCH   4   5
ATOM      5  C   UNL     1      -6.198  28.532 -18.532  1.00  0.00     0.000 C 
BRANCH   5   6
ATOM      6  C   UNL     1      -6.925  28.735 -19.880  1.00  0.00     0.006 C 
BRANCH   6   7
ATOM      7  C   UNL     1      -5.970  29.174 -21.000  1.00  0.00     0.053 C 
BRANCH   7   8
ATOM      8  C   UNL     1      -5.876  28.122 -22.062  1.00  0.00     0.041 C 
ATOM      9  O   UNL     1      -4.894  28.104 -22.851  1.00  0.00    -0.550 OA
ATOM     10  O   UNL     1      -6.879  27.169 -22.189  1.00  0.00    -0.550 OA
ENDBRANCH   7   8
ENDBRANCH   6   7
ENDBRANCH   5   6
ENDBRANCH   4   5
ENDBRANCH   3   4
ENDBRANCH   2   3
ENDBRANCH   1   2
BRANCH   1  11
ATOM     11  C   UNL     1      -8.680  32.184 -16.316  1.00  0.00     0.000 C 
BRANCH  11  12
ATOM     12  C   UNL     1      -9.692  32.776 -17.311  1.00  0.00    -0.000 C 
BRANCH  12  13
ATOM     13  C   UNL     1      -9.275  32.488 -18.759  1.00  0.00    -0.000 C 
BRANCH  13  14
ATOM     14  C   UNL     1      -9.103  33.792 -19.553  1.00  0.00    -0.000 C 
BRANCH  14  15
ATOM     15  C   UNL     1      -9.991  33.848 -20.811  1.00  0.00    -0.000 C 
BRANCH  15  16
ATOM     16  C   UNL     1     -10.010  32.556 -21.656  1.00  0.00    -0.000 C 
BRANCH  16  17
ATOM     17  C   UNL     1     -10.712  32.679 -23.017  1.00  0.00    -0.003 C 
ATOM     18  C   UNL     1     -11.958  31.805 -23.124  1.00  0.00     0.004 C 
ENDBRANCH  16  17
ENDBRANCH  15  16
ENDBRANCH  14  15
ENDBRANCH  13  14
ENDBRANCH  12  13
ENDBRANCH  11  12
ENDBRANCH   1  11
TORSDOF 14
ENDMDL
MODEL 4
REMARK VINA RESULT:     8.122      3.406      7.229
REMARK INTER + INTRA:          14.732
REMARK INTER:                  15.628
REMARK INTRA:                  -0.897
REMARK UNBOUND:                -0.038
REMARK SMILES CCCCCCCCCCCCCCCC(=O)[O-]
REMARK SMILES IDX 9 1 10 2 11 3 12 4 13 5 14 6 15 7 16 8 17 9 18 10 8 11 7 12
REMARK SMILES IDX 6 13 5 14 4 15 3 16 2 17 1 18
REMARK H PARENT
REMARK Flexibility Score: inf
ROOT
ATOM      1  C   UNL     1      -8.881  30.048 -15.620  1.00  0.00     0.000 C 
ENDROOT
BRANCH   1   2
ATOM      2  C   UNL     1      -9.381  30.907 -16.795  1.00  0.00     0.000 C 
BRANCH   2   3
ATOM      3  C   UNL     1      -9.292  32.418 -16.516  1.00  0.00     0.000 C 
BRANCH   3   4
ATOM      4  C   UNL     1      -8.973  32.791 -15.059  1.00  0.00     0.000 C 
BRANCH   4   5
ATOM      5  C   UNL     1      -7.747  33.701 -14.880  1.00  0.00     0.000 C 
BRANCH   5   6
ATOM      6  C   UNL     1      -7.125  34.171 -16.214  1.00  0.00     0.006 C 
BRANCH   6   7
ATOM      7  C   UNL     1      -5.847  34.996 -16.005  1.00  0.00     0.053 C 
BRANCH   7   8
ATOM      8  C   UNL     1      -5.665  35.985 -17.115  1.00  0.00     0.041 C 
ATOM      9  O   UNL     1      -4.882  35.730 -18.069  1.00  0.00    -0.550 OA
ATOM     10  O   UNL     1      -6.350  37.194 -17.091  1.00  0.00    -0.550 OA
ENDBRANCH   7   8
ENDBRANCH   6   7
ENDBRANCH   5   6
ENDBRANCH   4   5
ENDBRANCH   3   4
ENDBRANCH   2   3
ENDBRANCH   1   2
BRANCH   1  11
ATOM     11  C   UNL     1      -7.822  29.022 -16.053  1.00  0.00     0.000 C 
BRANCH  11  12
ATOM     12  C   UNL     1      -7.581  29.031 -17.572  1.00  0.00    -0.000 C 
BRANCH  12  13
ATOM     13  C   UNL     1      -6.314  28.246 -17.933  1.00  0.00    -0.000 C 
BRANCH  13  14
ATOM     14  C   UNL     1      -5.875  28.541 -19.376  1.00  0.00    -0.000 C 
BRANCH  14  15
ATOM     15  C   UNL     1      -6.990  28.277 -20.406  1.00  0.00    -0.000 C 
BRANCH  15  16
ATOM     16  C   UNL     1      -6.634  28.645 -21.863  1.00  0.00    -0.000 C 
BRANCH  16  17
ATOM     17  C   UNL     1      -5.205  28.280 -22.295  1.00  0.00    -0.003 C 
ATOM     18  C   UNL     1      -5.116  26.904 -22.948  1.00  0.00     0.004 C 
ENDBRANCH  16  17
ENDBRANCH  15  16
ENDBRANCH  14  15
ENDBRANCH  13  14
ENDBRANCH  12  13
ENDBRANCH  11  12
ENDBRANCH   1  11
TORSDOF 14
ENDMDL
MODEL 5
REMARK VINA RESULT:     8.358      3.633      6.447
REMARK INTER + INTRA:          15.160
REMARK INTER:                  16.084
REMARK INTRA:                  -0.924
REMARK UNBOUND:                -0.038
REMARK SMILES CCCCCCCCCCCCCCCC(=O)[O-]
REMARK SMILES IDX 9 1 10 2 11 3 12 4 13 5 14 6 15 7 16 8 17 9 18 10 8 11 7 12
REMARK SMILES IDX 6 13 5 14 4 15 3 16 2 17 1 18
REMARK H PARENT
REMARK Flexibility Score: inf
ROOT
ATOM      1  C   UNL     1      -9.281  30.158 -16.691  1.00  0.00     0.000 C 
ENDROOT
BRANCH   1   2
ATOM      2  C   UNL     1      -9.428  31.598 -16.170  1.00  0.00     0.000 C 
BRANCH   2   3
ATOM      3  C   UNL     1      -9.003  32.657 -17.202  1.00  0.00     0.000 C 
BRANCH   3   4
ATOM      4  C   UNL     1      -9.261  32.275 -18.668  1.00  0.00     0.000 C 
BRANCH   4   5
ATOM      5  C   UNL     1      -9.195  33.446 -19.662  1.00  0.00     0.000 C 
BRANCH   5   6
ATOM      6  C   UNL     1     -10.359  33.461 -20.677  1.00  0.00     0.006 C 
BRANCH   6   7
ATOM      7  C   UNL     1     -10.051  32.635 -21.934  1.00  0.00     0.053 C 
BRANCH   7   8
ATOM      8  C   UNL     1     -11.284  32.445 -22.762  1.00  0.00     0.041 C 
ATOM      9  O   UNL     1     -11.964  33.442 -23.124  1.00  0.00    -0.550 OA
ATOM     10  O   UNL     1     -11.691  31.167 -23.125  1.00  0.00    -0.550 OA
ENDBRANCH   7   8
ENDBRANCH   6   7
ENDBRANCH   5   6
ENDBRANCH   4   5
ENDBRANCH   3   4
ENDBRANCH   2   3
ENDBRANCH   1   2
BRANCH   1  11
ATOM     11  C   UNL     1      -8.286  29.333 -15.860  1.00  0.00     0.000 C 
BRANCH  11  12
ATOM     12  C   UNL     1      -7.160  28.733 -16.718  1.00  0.00    -0.000 C 
BRANCH  12  13
ATOM     13  C   UNL     1      -7.228  29.254 -18.160  1.00  0.00    -0.000 C 
BRANCH  13  14
ATOM     14  C   UNL     1      -6.698  28.206 -19.151  1.00  0.00    -0.000 C 
BRANCH  14  15
ATOM     15  C   UNL     1      -5.975  28.836 -20.357  1.00  0.00    -0.000 C 
BRANCH  15  16
ATOM     16  C   UNL     1      -6.684  28.646 -21.716  1.00  0.00    -0.000 C 
BRANCH  16  17
ATOM     17  C   UNL     1      -5.805  28.058 -22.831  1.00  0.00    -0.003 C 
ATOM     18  C   UNL     1      -4.898  26.934 -22.342  1.00  0.00     0.004 C 
ENDBRANCH  16  17
ENDBRANCH  15  16
ENDBRANCH  14  15
ENDBRANCH  13  14
ENDBRANCH  12  13
ENDBRANCH  11  12
ENDBRANCH   1  11
TORSDOF 14
ENDMDL
MODEL 6
REMARK VINA RESULT:     9.071      3.126      6.566
REMARK INTER + INTRA:          16.457
REMARK INTER:                  16.677
REMARK INTRA:                  -0.220
REMARK UNBOUND:                -0.038
REMARK SMILES CCCCCCCCCCCCCCCC(=O)[O-]
REMARK SMILES IDX 9 1 10 2 11 3 12 4 13 5 14 6 15 7 16 8 17 9 18 10 8 11 7 12
REMARK SMILES IDX 6 13 5 14 4 15 3 16 2 17 1 18
REMARK H PARENT
REMARK Flexibility Score: inf
ROOT
ATOM      1  C   UNL     1      -9.306  30.185 -18.063  1.00  0.00     0.000 C 
ENDROOT
BRANCH   1   2
ATOM      2  C   UNL     1      -9.415  31.666 -17.660  1.00  0.00     0.000 C 
BRANCH   2   3
ATOM      3  C   UNL     1      -9.068  31.914 -16.181  1.00  0.00     0.000 C 
BRANCH   3   4
ATOM      4  C   UNL     1      -9.548  30.822 -15.211  1.00  0.00     0.000 C 
BRANCH   4   5
ATOM      5  C   UNL     1      -8.490  30.346 -14.201  1.00  0.00     0.000 C 
BRANCH   5   6
ATOM      6  C   UNL     1      -7.882  28.969 -14.547  1.00  0.00     0.006 C 
BRANCH   6   7
ATOM      7  C   UNL     1      -7.476  28.862 -16.024  1.00  0.00     0.053 C 
BRANCH   7   8
ATOM      8  C   UNL     1      -6.603  27.667 -16.252  1.00  0.00     0.041 C 
ATOM      9  O   UNL     1      -5.735  27.681 -17.164  1.00  0.00    -0.550 OA
ATOM     10  O   UNL     1      -6.756  26.532 -15.465  1.00  0.00    -0.550 OA
ENDBRANCH   7   8
ENDBRANCH   6   7
ENDBRANCH   5   6
ENDBRANCH   4   5
ENDBRANCH   3   4
ENDBRANCH   2   3
ENDBRANCH   1   2
BRANCH   1  11
ATOM     11  C   UNL     1      -8.652  30.000 -19.441  1.00  0.00     0.000 C 
BRANCH  11  12
ATOM     12  C   UNL     1      -8.093  28.581 -19.641  1.00  0.00    -0.000 C 
BRANCH  12  13
ATOM     13  C   UNL     1      -6.560  28.581 -19.587  1.00  0.00    -0.000 C 
BRANCH  13  14
ATOM     14  C   UNL     1      -5.976  29.666 -20.505  1.00  0.00    -0.000 C 
BRANCH  14  15
ATOM     15  C   UNL     1      -5.951  29.246 -21.987  1.00  0.00    -0.000 C 
BRANCH  15  16
ATOM     16  C   UNL     1      -4.912  28.161 -22.342  1.00  0.00    -0.000 C 
BRANCH  16  17
ATOM     17  C   UNL     1      -5.472  26.948 -23.102  1.00  0.00    -0.003 C 
ATOM     18  C   UNL     1      -6.997  26.914 -23.124  1.00  0.00     0.004 C 
ENDBRANCH  16  17
ENDBRANCH  15  16
ENDBRANCH  14  15
ENDBRANCH  13  14
ENDBRANCH  12  13
ENDBRANCH  11  12
ENDBRANCH   1  11
TORSDOF 14
ENDMDL
MODEL 7
REMARK VINA RESULT:     9.229      3.746      7.420
REMARK INTER + INTRA:          16.744
REMARK INTER:                  14.677
REMARK INTRA:                   2.067
REMARK UNBOUND:                -0.038
REMARK SMILES CCCCCCCCCCCCCCCC(=O)[O-]
REMARK SMILES IDX 9 1 10 2 11 3 12 4 13 5 14 6 15 7 16 8 17 9 18 10 8 11 7 12
REMARK SMILES IDX 6 13 5 14 4 15 3 16 2 17 1 18
REMARK H PARENT
REMARK Flexibility Score: inf
ROOT
ATOM      1  C   UNL     1      -6.775  28.087 -17.058  1.00  0.00     0.000 C 
ENDROOT
BRANCH   1   2
ATOM      2  C   UNL     1      -7.478  29.436 -17.291  1.00  0.00     0.000 C 
BRANCH   2   3
ATOM      3  C   UNL     1      -8.575  29.365 -18.367  1.00  0.00     0.000 C 
BRANCH   3   4
ATOM      4  C   UNL     1     -10.009  29.549 -17.845  1.00  0.00     0.000 C 
BRANCH   4   5
ATOM      5  C   UNL     1     -10.122  30.350 -16.537  1.00  0.00     0.000 C 
BRANCH   5   6
ATOM      6  C   UNL     1      -8.919  30.156 -15.588  1.00  0.00     0.006 C 
BRANCH   6   7
ATOM      7  C   UNL     1      -8.844  31.246 -14.509  1.00  0.00     0.053 C 
BRANCH   7   8
ATOM      8  C   UNL     1      -8.763  32.606 -15.131  1.00  0.00     0.041 C 
ATOM      9  O   UNL     1      -8.955  32.750 -16.367  1.00  0.00    -0.550 OA
ATOM     10  O   UNL     1      -8.463  33.715 -14.347  1.00  0.00    -0.550 OA
ENDBRANCH   7   8
ENDBRANCH   6   7
ENDBRANCH   5   6
ENDBRANCH   4   5
ENDBRANCH   3   4
ENDBRANCH   2   3
ENDBRANCH   1   2
BRANCH   1  11
ATOM     11  C   UNL     1      -5.552  27.899 -17.969  1.00  0.00     0.000 C 
BRANCH  11  12
ATOM     12  C   UNL     1      -5.939  27.745 -19.449  1.00  0.00    -0.000 C 
BRANCH  12  13
ATOM     13  C   UNL     1      -5.806  29.079 -20.195  1.00  0.00    -0.000 C 
BRANCH  13  14
ATOM     14  C   UNL     1      -6.909  29.232 -21.254  1.00  0.00    -0.000 C 
BRANCH  14  15
ATOM     15  C   UNL     1      -6.436  28.854 -22.670  1.00  0.00    -0.000 C 
BRANCH  15  16
ATOM     16  C   UNL     1      -4.991  28.314 -22.754  1.00  0.00    -0.000 C 
BRANCH  16  17
ATOM     17  C   UNL     1      -4.876  26.811 -23.054  1.00  0.00    -0.003 C 
ATOM     18  C   UNL     1      -6.230  26.113 -23.124  1.00  0.00     0.004 C 
ENDBRANCH  16  17
ENDBRANCH  15  16
ENDBRANCH  14  15
ENDBRANCH  13  14
ENDBRANCH  12  13
ENDBRANCH  11  12
ENDBRANCH   1  11
TORSDOF 14
ENDMDL
MODEL 8
REMARK VINA RESULT:     9.254      2.953      6.560
REMARK INTER + INTRA:          16.790
REMARK INTER:                  17.394
REMARK INTRA:                  -0.604
REMARK UNBOUND:                -0.038
REMARK SMILES CCCCCCCCCCCCCCCC(=O)[O-]
REMARK SMILES IDX 9 1 10 2 11 3 12 4 13 5 14 6 15 7 16 8 17 9 18 10 8 11 7 12
REMARK SMILES IDX 6 13 5 14 4 15 3 16 2 17 1 18
REMARK H PARENT
REMARK Flexibility Score: inf
ROOT
ATOM      1  C   UNL     1      -7.941  28.619 -15.852  1.00  0.00     0.000 C 
ENDROOT
BRANCH   1   2
ATOM      2  C   UNL     1      -8.615  29.727 -16.680  1.00  0.00     0.000 C 
BRANCH   2   3
ATOM      3  C   UNL     1      -9.579  30.595 -15.852  1.00  0.00     0.000 C 
BRANCH   3   4
ATOM      4  C   UNL     1      -8.998  31.935 -15.375  1.00  0.00     0.000 C 
BRANCH   4   5
ATOM      5  C   UNL     1      -8.536  32.876 -16.500  1.00  0.00     0.000 C 
BRANCH   5   6
ATOM      6  C   UNL     1      -9.538  32.976 -17.672  1.00  0.00     0.006 C 
BRANCH   6   7
ATOM      7  C   UNL     1      -9.051  32.230 -18.922  1.00  0.00     0.053 C 
BRANCH   7   8
ATOM      8  C   UNL     1      -9.214  33.079 -20.146  1.00  0.00     0.041 C 
ATOM      9  O   UNL     1      -8.869  32.637 -21.274  1.00  0.00    -0.550 OA
ATOM     10  O   UNL     1      -9.735  34.363 -20.039  1.00  0.00    -0.550 OA
ENDBRANCH   7   8
ENDBRANCH   6   7
ENDBRANCH   5   6
ENDBRANCH   4   5
ENDBRANCH   3   4
ENDBRANCH   2   3
ENDBRANCH   1   2
BRANCH   1  11
ATOM     11  C   UNL     1      -6.654  28.097 -16.509  1.00  0.00     0.000 C 
BRANCH  11  12
ATOM     12  C   UNL     1      -6.274  28.892 -17.770  1.00  0.00    -0.000 C 
BRANCH  12  13
ATOM     13  C   UNL     1      -6.796  28.199 -19.035  1.00  0.00    -0.000 C 
BRANCH  13  14
ATOM     14  C   UNL     1      -6.002  28.641 -20.274  1.00  0.00    -0.000 C 
BRANCH  14  15
ATOM     15  C   UNL     1      -6.898  28.888 -21.503  1.00  0.00    -0.000 C 
BRANCH  15  16
ATOM     16  C   UNL     1      -6.230  28.609 -22.866  1.00  0.00    -0.000 C 
BRANCH  16  17
ATOM     17  C   UNL     1      -4.876  27.884 -22.791  1.00  0.00    -0.003 C 
ATOM     18  C   UNL     1      -4.996  26.379 -23.007  1.00  0.00     0.004 C 
ENDBRANCH  16  17
ENDBRANCH  15  16
ENDBRANCH  14  15
ENDBRANCH  13  14
ENDBRANCH  12  13
ENDBRANCH  11  12
ENDBRANCH   1  11
TORSDOF 14
ENDMDL
