MODEL 1
REMARK VINA RESULT:    -5.267      0.000      0.000
REMARK INTER + INTRA:          -6.456
REMARK INTER:                  -6.191
REMARK INTRA:                  -0.264
REMARK UNBOUND:                -0.264
REMARK SMILES O=c1cc(-c2ccc(O)c(O)c2)oc2cc(O)cc(O)c12
REMARK SMILES IDX 4 1 3 2 2 3 1 4 21 5 19 6 18 7 16 8 15 9 14 10 13 11 5 12
REMARK SMILES IDX 6 13 7 14 8 15 12 16 10 17 9 18 11 20 20 22 17 24
REMARK H PARENT 9 19 11 21 20 23 17 25
REMARK Flexibility Score: inf
ROOT
ATOM      1  C   UNL     1      13.729  58.067  16.292  1.00  0.00     0.138 A 
ATOM      2  C   UNL     1      12.416  57.632  16.522  1.00  0.00     0.100 A 
ATOM      3  C   UNL     1      12.103  56.985  17.718  1.00  0.00     0.197 A 
ATOM      4  O   UNL     1      10.903  56.663  17.921  1.00  0.00    -0.289 OA
ATOM      5  C   UNL     1      13.117  56.747  18.676  1.00  0.00     0.107 A 
ATOM      6  C   UNL     1      12.922  56.062  19.912  1.00  0.00     0.134 A 
ATOM      7  C   UNL     1      13.974  55.986  20.833  1.00  0.00     0.093 A 
ATOM      8  C   UNL     1      15.229  56.518  20.539  1.00  0.00     0.123 A 
ATOM      9  C   UNL     1      15.446  57.143  19.310  1.00  0.00     0.094 A 
ATOM     10  C   UNL     1      14.407  57.264  18.384  1.00  0.00     0.146 A 
ATOM     11  O   UNL     1      14.651  57.879  17.232  1.00  0.00    -0.456 OA
ENDROOT
BRANCH   1  12
ATOM     12  C   UNL     1      14.118  58.759  15.038  1.00  0.00     0.021 A 
ATOM     13  C   UNL     1      14.164  60.163  15.007  1.00  0.00     0.016 A 
ATOM     14  C   UNL     1      14.535  60.836  13.841  1.00  0.00     0.051 A 
ATOM     15  C   UNL     1      14.875  60.123  12.689  1.00  0.00     0.157 A 
ATOM     16  C   UNL     1      14.474  58.042  13.878  1.00  0.00     0.062 A 
ATOM     17  C   UNL     1      14.847  58.719  12.706  1.00  0.00     0.158 A 
BRANCH  15  18
ATOM     18  O   UNL     1      15.239  60.823  11.539  1.00  0.00    -0.504 OA
ATOM     19  H   UNL     1      15.952  60.484  10.906  1.00  0.00     0.293 HD
ENDBRANCH  15  18
BRANCH  17  20
ATOM     20  O   UNL     1      15.196  58.000  11.564  1.00  0.00    -0.504 OA
ATOM     21  H   UNL     1      14.738  57.130  11.322  1.00  0.00     0.293 HD
ENDBRANCH  17  20
ENDBRANCH   1  12
BRANCH   6  22
ATOM     22  O   UNL     1      11.732  55.420  20.270  1.00  0.00    -0.507 OA
ATOM     23  H   UNL     1      10.829  55.864  20.317  1.00  0.00     0.293 HD
ENDBRANCH   6  22
BRANCH   8  24
ATOM     24  O   UNL     1      16.257  56.411  21.473  1.00  0.00    -0.508 OA
ATOM     25  H   UNL     1      16.847  55.588  21.520  1.00  0.00     0.293 HD
ENDBRANCH   8  24
TORSDOF 5
ENDMDL
MODEL 2
REMARK VINA RESULT:    -5.213      3.158      7.957
REMARK INTER + INTRA:          -6.391
REMARK INTER:                  -6.112
REMARK INTRA:                  -0.279
REMARK UNBOUND:                -0.264
REMARK SMILES O=c1cc(-c2ccc(O)c(O)c2)oc2cc(O)cc(O)c12
REMARK SMILES IDX 4 1 3 2 2 3 1 4 21 5 19 6 18 7 16 8 15 9 14 10 13 11 5 12
REMARK SMILES IDX 6 13 7 14 8 15 12 16 10 17 9 18 11 20 20 22 17 24
REMARK H PARENT 9 19 11 21 20 23 17 25
REMARK Flexibility Score: inf
ROOT
ATOM      1  C   UNL     1      14.288  56.025  20.578  1.00  0.00     0.138 A 
ATOM      2  C   UNL     1      14.960  57.174  20.136  1.00  0.00     0.100 A 
ATOM      3  C   UNL     1      14.433  57.917  19.079  1.00  0.00     0.197 A 
ATOM      4  O   UNL     1      15.025  58.977  18.747  1.00  0.00    -0.289 OA
ATOM      5  C   UNL     1      13.243  57.491  18.444  1.00  0.00     0.107 A 
ATOM      6  C   UNL     1      12.636  58.148  17.331  1.00  0.00     0.134 A 
ATOM      7  C   UNL     1      11.396  57.700  16.858  1.00  0.00     0.093 A 
ATOM      8  C   UNL     1      10.771  56.587  17.416  1.00  0.00     0.123 A 
ATOM      9  C   UNL     1      11.381  55.904  18.470  1.00  0.00     0.094 A 
ATOM     10  C   UNL     1      12.601  56.346  18.986  1.00  0.00     0.146 A 
ATOM     11  O   UNL     1      13.143  55.677  19.999  1.00  0.00    -0.456 OA
ENDROOT
BRANCH   1  12
ATOM     12  C   UNL     1      14.804  55.196  21.696  1.00  0.00     0.021 A 
ATOM     13  C   UNL     1      15.005  55.782  22.957  1.00  0.00     0.016 A 
ATOM     14  C   UNL     1      15.482  55.022  24.026  1.00  0.00     0.051 A 
ATOM     15  C   UNL     1      15.759  53.662  23.861  1.00  0.00     0.157 A 
ATOM     16  C   UNL     1      15.071  53.822  21.536  1.00  0.00     0.062 A 
ATOM     17  C   UNL     1      15.550  53.057  22.611  1.00  0.00     0.158 A 
BRANCH  15  18
ATOM     18  O   UNL     1      16.236  52.929  24.947  1.00  0.00    -0.504 OA
ATOM     19  H   UNL     1      16.121  51.924  25.010  1.00  0.00     0.293 HD
ENDBRANCH  15  18
BRANCH  17  20
ATOM     20  O   UNL     1      15.813  51.699  22.441  1.00  0.00    -0.504 OA
ATOM     21  H   UNL     1      16.229  51.340  21.590  1.00  0.00     0.293 HD
ENDBRANCH  17  20
ENDBRANCH   1  12
BRANCH   6  22
ATOM     22  O   UNL     1      13.217  59.218  16.644  1.00  0.00    -0.507 OA
ATOM     23  H   UNL     1      14.197  59.299  16.426  1.00  0.00     0.293 HD
ENDBRANCH   6  22
BRANCH   8  24
ATOM     24  O   UNL     1       9.545  56.161  16.910  1.00  0.00    -0.508 OA
ATOM     25  H   UNL     1       9.388  55.195  16.645  1.00  0.00     0.293 HD
ENDBRANCH   8  24
TORSDOF 5
ENDMDL
MODEL 3
REMARK VINA RESULT:    -5.175      3.841      5.363
REMARK INTER + INTRA:          -6.347
REMARK INTER:                  -6.084
REMARK INTRA:                  -0.263
REMARK UNBOUND:                -0.264
REMARK SMILES O=c1cc(-c2ccc(O)c(O)c2)oc2cc(O)cc(O)c12
REMARK SMILES IDX 4 1 3 2 2 3 1 4 21 5 19 6 18 7 16 8 15 9 14 10 13 11 5 12
REMARK SMILES IDX 6 13 7 14 8 15 12 16 10 17 9 18 11 20 20 22 17 24
REMARK H PARENT 9 19 11 21 20 23 17 25
REMARK Flexibility Score: inf
ROOT
ATOM      1  C   UNL     1      13.711  55.782  20.047  1.00  0.00     0.138 A 
ATOM      2  C   UNL     1      13.373  55.506  21.380  1.00  0.00     0.100 A 
ATOM      3  C   UNL     1      14.246  54.761  22.173  1.00  0.00     0.197 A 
ATOM      4  O   UNL     1      13.944  54.584  23.381  1.00  0.00    -0.289 OA
ATOM      5  C   UNL     1      15.450  54.264  21.619  1.00  0.00     0.107 A 
ATOM      6  C   UNL     1      16.396  53.459  22.321  1.00  0.00     0.134 A 
ATOM      7  C   UNL     1      17.607  53.122  21.705  1.00  0.00     0.093 A 
ATOM      8  C   UNL     1      17.881  53.508  20.395  1.00  0.00     0.123 A 
ATOM      9  C   UNL     1      16.940  54.250  19.679  1.00  0.00     0.094 A 
ATOM     10  C   UNL     1      15.737  54.631  20.277  1.00  0.00     0.146 A 
ATOM     11  O   UNL     1      14.873  55.350  19.567  1.00  0.00    -0.456 OA
ENDROOT
BRANCH   1  12
ATOM     12  C   UNL     1      12.820  56.569  19.158  1.00  0.00     0.021 A 
ATOM     13  C   UNL     1      13.090  57.929  18.935  1.00  0.00     0.016 A 
ATOM     14  C   UNL     1      12.271  58.688  18.097  1.00  0.00     0.051 A 
ATOM     15  C   UNL     1      11.174  58.104  17.459  1.00  0.00     0.157 A 
ATOM     16  C   UNL     1      11.720  55.978  18.503  1.00  0.00     0.062 A 
ATOM     17  C   UNL     1      10.897  56.741  17.660  1.00  0.00     0.158 A 
BRANCH  15  18
ATOM     18  O   UNL     1      10.373  58.888  16.630  1.00  0.00    -0.504 OA
ATOM     19  H   UNL     1       9.957  59.755  16.946  1.00  0.00     0.293 HD
ENDBRANCH  15  18
BRANCH  17  20
ATOM     20  O   UNL     1       9.812  56.148  17.018  1.00  0.00    -0.504 OA
ATOM     21  H   UNL     1       9.844  55.901  16.036  1.00  0.00     0.293 HD
ENDBRANCH  17  20
ENDBRANCH   1  12
BRANCH   6  22
ATOM     22  O   UNL     1      16.185  52.947  23.605  1.00  0.00    -0.507 OA
ATOM     23  H   UNL     1      16.871  52.940  24.343  1.00  0.00     0.293 HD
ENDBRANCH   6  22
BRANCH   8  24
ATOM     24  O   UNL     1      19.091  53.142  19.809  1.00  0.00    -0.508 OA
ATOM     25  H   UNL     1      19.146  52.865  18.835  1.00  0.00     0.293 HD
ENDBRANCH   8  24
TORSDOF 5
ENDMDL
MODEL 4
REMARK VINA RESULT:    -5.148      1.587      7.289
REMARK INTER + INTRA:          -6.315
REMARK INTER:                  -6.050
REMARK INTRA:                  -0.266
REMARK UNBOUND:                -0.264
REMARK SMILES O=c1cc(-c2ccc(O)c(O)c2)oc2cc(O)cc(O)c12
REMARK SMILES IDX 4 1 3 2 2 3 1 4 21 5 19 6 18 7 16 8 15 9 14 10 13 11 5 12
REMARK SMILES IDX 6 13 7 14 8 15 12 16 10 17 9 18 11 20 20 22 17 24
REMARK H PARENT 9 19 11 21 20 23 17 25
REMARK Flexibility Score: inf
ROOT
ATOM      1  C   UNL     1      14.775  57.845  17.608  1.00  0.00     0.138 A 
ATOM      2  C   UNL     1      15.254  59.140  17.853  1.00  0.00     0.100 A 
ATOM      3  C   UNL     1      15.494  60.001  16.782  1.00  0.00     0.197 A 
ATOM      4  O   UNL     1      15.864  61.177  17.037  1.00  0.00    -0.289 OA
ATOM      5  C   UNL     1      15.281  59.553  15.457  1.00  0.00     0.107 A 
ATOM      6  C   UNL     1      15.531  60.330  14.286  1.00  0.00     0.134 A 
ATOM      7  C   UNL     1      15.174  59.821  13.031  1.00  0.00     0.093 A 
ATOM      8  C   UNL     1      14.633  58.544  12.899  1.00  0.00     0.123 A 
ATOM      9  C   UNL     1      14.434  57.753  14.032  1.00  0.00     0.094 A 
ATOM     10  C   UNL     1      14.749  58.246  15.301  1.00  0.00     0.146 A 
ATOM     11  O   UNL     1      14.531  57.468  16.356  1.00  0.00    -0.456 OA
ENDROOT
BRANCH   1  12
ATOM     12  C   UNL     1      14.504  56.887  18.709  1.00  0.00     0.021 A 
ATOM     13  C   UNL     1      15.563  56.144  19.256  1.00  0.00     0.016 A 
ATOM     14  C   UNL     1      15.335  55.243  20.297  1.00  0.00     0.051 A 
ATOM     15  C   UNL     1      14.050  55.072  20.818  1.00  0.00     0.157 A 
ATOM     16  C   UNL     1      13.211  56.723  19.244  1.00  0.00     0.062 A 
ATOM     17  C   UNL     1      12.981  55.817  20.291  1.00  0.00     0.158 A 
BRANCH  15  18
ATOM     18  O   UNL     1      13.852  54.163  21.856  1.00  0.00    -0.504 OA
ATOM     19  H   UNL     1      14.549  54.007  22.575  1.00  0.00     0.293 HD
ENDBRANCH  15  18
BRANCH  17  20
ATOM     20  O   UNL     1      11.699  55.661  20.813  1.00  0.00    -0.504 OA
ATOM     21  H   UNL     1      10.909  55.425  20.223  1.00  0.00     0.293 HD
ENDBRANCH  17  20
ENDBRANCH   1  12
BRANCH   6  22
ATOM     22  O   UNL     1      16.146  61.585  14.298  1.00  0.00    -0.507 OA
ATOM     23  H   UNL     1      17.034  61.788  14.730  1.00  0.00     0.293 HD
ENDBRANCH   6  22
BRANCH   8  24
ATOM     24  O   UNL     1      14.304  58.064  11.633  1.00  0.00    -0.508 OA
ATOM     25  H   UNL     1      13.551  58.473  11.090  1.00  0.00     0.293 HD
ENDBRANCH   8  24
TORSDOF 5
ENDMDL
MODEL 5
REMARK VINA RESULT:    -4.913      1.256      2.793
REMARK INTER + INTRA:          -6.039
REMARK INTER:                  -5.774
REMARK INTRA:                  -0.265
REMARK UNBOUND:                -0.264
REMARK SMILES O=c1cc(-c2ccc(O)c(O)c2)oc2cc(O)cc(O)c12
REMARK SMILES IDX 4 1 3 2 2 3 1 4 21 5 19 6 18 7 16 8 15 9 14 10 13 11 5 12
REMARK SMILES IDX 6 13 7 14 8 15 12 16 10 17 9 18 11 20 20 22 17 24
REMARK H PARENT 9 19 11 21 20 23 17 25
REMARK Flexibility Score: inf
ROOT
ATOM      1  C   UNL     1      15.325  58.274  16.245  1.00  0.00     0.138 A 
ATOM      2  C   UNL     1      16.593  57.958  16.755  1.00  0.00     0.100 A 
ATOM      3  C   UNL     1      16.699  57.267  17.962  1.00  0.00     0.197 A 
ATOM      4  O   UNL     1      17.847  56.944  18.362  1.00  0.00    -0.289 OA
ATOM      5  C   UNL     1      15.529  56.916  18.677  1.00  0.00     0.107 A 
ATOM      6  C   UNL     1      15.517  56.247  19.937  1.00  0.00     0.134 A 
ATOM      7  C   UNL     1      14.296  55.848  20.495  1.00  0.00     0.093 A 
ATOM      8  C   UNL     1      13.086  56.147  19.871  1.00  0.00     0.123 A 
ATOM      9  C   UNL     1      13.083  56.849  18.665  1.00  0.00     0.094 A 
ATOM     10  C   UNL     1      14.286  57.230  18.065  1.00  0.00     0.146 A 
ATOM     11  O   UNL     1      14.242  57.884  16.910  1.00  0.00    -0.456 OA
ENDROOT
BRANCH   1  12
ATOM     12  C   UNL     1      15.154  59.009  14.967  1.00  0.00     0.021 A 
ATOM     13  C   UNL     1      15.175  60.414  14.969  1.00  0.00     0.016 A 
ATOM     14  C   UNL     1      15.024  61.128  13.778  1.00  0.00     0.051 A 
ATOM     15  C   UNL     1      14.859  60.456  12.565  1.00  0.00     0.157 A 
ATOM     16  C   UNL     1      15.000  58.333  13.740  1.00  0.00     0.062 A 
ATOM     17  C   UNL     1      14.849  59.051  12.543  1.00  0.00     0.158 A 
BRANCH  15  18
ATOM     18  O   UNL     1      14.708  61.196  11.393  1.00  0.00    -0.504 OA
ATOM     19  H   UNL     1      14.466  62.179  11.404  1.00  0.00     0.293 HD
ENDBRANCH  15  18
BRANCH  17  20
ATOM     20  O   UNL     1      14.696  58.373  11.336  1.00  0.00    -0.504 OA
ATOM     21  H   UNL     1      13.929  57.730  11.180  1.00  0.00     0.293 HD
ENDBRANCH  17  20
ENDBRANCH   1  12
BRANCH   6  22
ATOM     22  O   UNL     1      16.665  55.975  20.688  1.00  0.00    -0.507 OA
ATOM     23  H   UNL     1      17.379  56.649  20.915  1.00  0.00     0.293 HD
ENDBRANCH   6  22
BRANCH   8  24
ATOM     24  O   UNL     1      11.890  55.748  20.463  1.00  0.00    -0.508 OA
ATOM     25  H   UNL     1      11.733  54.787  20.746  1.00  0.00     0.293 HD
ENDBRANCH   8  24
TORSDOF 5
ENDMDL
MODEL 6
REMARK VINA RESULT:    -4.901      1.502      3.031
REMARK INTER + INTRA:          -6.025
REMARK INTER:                  -5.745
REMARK INTRA:                  -0.281
REMARK UNBOUND:                -0.264
REMARK SMILES O=c1cc(-c2ccc(O)c(O)c2)oc2cc(O)cc(O)c12
REMARK SMILES IDX 4 1 3 2 2 3 1 4 21 5 19 6 18 7 16 8 15 9 14 10 13 11 5 12
REMARK SMILES IDX 6 13 7 14 8 15 12 16 10 17 9 18 11 20 20 22 17 24
REMARK H PARENT 9 19 11 21 20 23 17 25
REMARK Flexibility Score: inf
ROOT
ATOM      1  C   UNL     1      14.337  58.687  15.800  1.00  0.00     0.138 A 
ATOM      2  C   UNL     1      15.082  59.289  16.824  1.00  0.00     0.100 A 
ATOM      3  C   UNL     1      14.822  58.958  18.154  1.00  0.00     0.197 A 
ATOM      4  O   UNL     1      15.549  59.467  19.045  1.00  0.00    -0.289 OA
ATOM      5  C   UNL     1      13.789  58.040  18.461  1.00  0.00     0.107 A 
ATOM      6  C   UNL     1      13.409  57.658  19.782  1.00  0.00     0.134 A 
ATOM      7  C   UNL     1      12.449  56.654  19.961  1.00  0.00     0.093 A 
ATOM      8  C   UNL     1      11.814  56.062  18.871  1.00  0.00     0.123 A 
ATOM      9  C   UNL     1      12.140  56.466  17.575  1.00  0.00     0.094 A 
ATOM     10  C   UNL     1      13.117  57.440  17.363  1.00  0.00     0.146 A 
ATOM     11  O   UNL     1      13.409  57.787  16.114  1.00  0.00    -0.456 OA
ENDROOT
BRANCH   1  12
ATOM     12  C   UNL     1      14.570  59.004  14.369  1.00  0.00     0.021 A 
ATOM     13  C   UNL     1      14.557  57.967  13.420  1.00  0.00     0.016 A 
ATOM     14  C   UNL     1      14.767  58.241  12.067  1.00  0.00     0.051 A 
ATOM     15  C   UNL     1      14.983  59.551  11.634  1.00  0.00     0.157 A 
ATOM     16  C   UNL     1      14.775  60.326  13.928  1.00  0.00     0.062 A 
ATOM     17  C   UNL     1      14.985  60.601  12.568  1.00  0.00     0.158 A 
BRANCH  15  18
ATOM     18  O   UNL     1      15.191  59.793  10.276  1.00  0.00    -0.504 OA
ATOM     19  H   UNL     1      15.320  59.042   9.609  1.00  0.00     0.293 HD
ENDBRANCH  15  18
BRANCH  17  20
ATOM     20  O   UNL     1      15.188  61.912  12.142  1.00  0.00    -0.504 OA
ATOM     21  H   UNL     1      14.541  62.655  12.379  1.00  0.00     0.293 HD
ENDBRANCH  17  20
ENDBRANCH   1  12
BRANCH   6  22
ATOM     22  O   UNL     1      13.919  58.247  20.943  1.00  0.00    -0.507 OA
ATOM     23  H   UNL     1      14.713  58.867  20.974  1.00  0.00     0.293 HD
ENDBRANCH   6  22
BRANCH   8  24
ATOM     24  O   UNL     1      10.853  55.077  19.087  1.00  0.00    -0.508 OA
ATOM     25  H   UNL     1      10.269  55.078  19.915  1.00  0.00     0.293 HD
ENDBRANCH   8  24
TORSDOF 5
ENDMDL
MODEL 7
REMARK VINA RESULT:    -4.827      2.575      7.400
REMARK INTER + INTRA:          -5.938
REMARK INTER:                  -5.674
REMARK INTRA:                  -0.264
REMARK UNBOUND:                -0.264
REMARK SMILES O=c1cc(-c2ccc(O)c(O)c2)oc2cc(O)cc(O)c12
REMARK SMILES IDX 4 1 3 2 2 3 1 4 21 5 19 6 18 7 16 8 15 9 14 10 13 11 5 12
REMARK SMILES IDX 6 13 7 14 8 15 12 16 10 17 9 18 11 20 20 22 17 24
REMARK H PARENT 9 19 11 21 20 23 17 25
REMARK Flexibility Score: inf
ROOT
ATOM      1  C   UNL     1      13.568  55.728  20.054  1.00  0.00     0.138 A 
ATOM      2  C   UNL     1      12.252  55.415  19.683  1.00  0.00     0.100 A 
ATOM      3  C   UNL     1      11.648  56.109  18.634  1.00  0.00     0.197 A 
ATOM      4  O   UNL     1      10.489  55.763  18.284  1.00  0.00    -0.289 OA
ATOM      5  C   UNL     1      12.354  57.141  17.973  1.00  0.00     0.107 A 
ATOM      6  C   UNL     1      11.824  57.942  16.918  1.00  0.00     0.134 A 
ATOM      7  C   UNL     1      12.656  58.857  16.262  1.00  0.00     0.093 A 
ATOM      8  C   UNL     1      13.978  59.044  16.660  1.00  0.00     0.123 A 
ATOM      9  C   UNL     1      14.492  58.304  17.726  1.00  0.00     0.094 A 
ATOM     10  C   UNL     1      13.698  57.359  18.379  1.00  0.00     0.146 A 
ATOM     11  O   UNL     1      14.228  56.665  19.381  1.00  0.00    -0.456 OA
ENDROOT
BRANCH   1  12
ATOM     12  C   UNL     1      14.259  55.023  21.163  1.00  0.00     0.021 A 
ATOM     13  C   UNL     1      14.145  55.517  22.474  1.00  0.00     0.016 A 
ATOM     14  C   UNL     1      14.780  54.868  23.534  1.00  0.00     0.051 A 
ATOM     15  C   UNL     1      15.531  53.711  23.310  1.00  0.00     0.157 A 
ATOM     16  C   UNL     1      15.006  53.849  20.942  1.00  0.00     0.062 A 
ATOM     17  C   UNL     1      15.643  53.196  22.008  1.00  0.00     0.158 A 
BRANCH  15  18
ATOM     18  O   UNL     1      16.154  53.086  24.389  1.00  0.00    -0.504 OA
ATOM     19  H   UNL     1      16.577  52.169  24.309  1.00  0.00     0.293 HD
ENDBRANCH  15  18
BRANCH  17  20
ATOM     20  O   UNL     1      16.380  52.036  21.778  1.00  0.00    -0.504 OA
ATOM     21  H   UNL     1      16.779  51.500  22.539  1.00  0.00     0.293 HD
ENDBRANCH  17  20
ENDBRANCH   1  12
BRANCH   6  22
ATOM     22  O   UNL     1      10.492  57.897  16.497  1.00  0.00    -0.507 OA
ATOM     23  H   UNL     1      10.145  58.292  15.637  1.00  0.00     0.293 HD
ENDBRANCH   6  22
BRANCH   8  24
ATOM     24  O   UNL     1      14.773  59.974  15.994  1.00  0.00    -0.508 OA
ATOM     25  H   UNL     1      14.366  60.710  15.428  1.00  0.00     0.293 HD
ENDBRANCH   8  24
TORSDOF 5
ENDMDL
MODEL 8
REMARK VINA RESULT:    -4.640      3.741      5.154
REMARK INTER + INTRA:          -5.718
REMARK INTER:                  -5.424
REMARK INTRA:                  -0.294
REMARK UNBOUND:                -0.264
REMARK SMILES O=c1cc(-c2ccc(O)c(O)c2)oc2cc(O)cc(O)c12
REMARK SMILES IDX 4 1 3 2 2 3 1 4 21 5 19 6 18 7 16 8 15 9 14 10 13 11 5 12
REMARK SMILES IDX 6 13 7 14 8 15 12 16 10 17 9 18 11 20 20 22 17 24
REMARK H PARENT 9 19 11 21 20 23 17 25
REMARK Flexibility Score: inf
ROOT
ATOM      1  C   UNL     1      14.600  56.561  18.985  1.00  0.00     0.138 A 
ATOM      2  C   UNL     1      15.939  56.877  18.709  1.00  0.00     0.100 A 
ATOM      3  C   UNL     1      16.957  56.080  19.232  1.00  0.00     0.197 A 
ATOM      4  O   UNL     1      18.144  56.352  18.916  1.00  0.00    -0.289 OA
ATOM      5  C   UNL     1      16.634  54.978  20.059  1.00  0.00     0.107 A 
ATOM      6  C   UNL     1      17.591  54.121  20.680  1.00  0.00     0.134 A 
ATOM      7  C   UNL     1      17.152  52.992  21.384  1.00  0.00     0.093 A 
ATOM      8  C   UNL     1      15.794  52.724  21.540  1.00  0.00     0.123 A 
ATOM      9  C   UNL     1      14.848  53.586  20.983  1.00  0.00     0.094 A 
ATOM     10  C   UNL     1      15.254  54.701  20.247  1.00  0.00     0.146 A 
ATOM     11  O   UNL     1      14.323  55.489  19.720  1.00  0.00    -0.456 OA
ENDROOT
BRANCH   1  12
ATOM     12  C   UNL     1      13.477  57.375  18.456  1.00  0.00     0.021 A 
ATOM     13  C   UNL     1      13.564  58.778  18.488  1.00  0.00     0.016 A 
ATOM     14  C   UNL     1      12.524  59.565  17.990  1.00  0.00     0.051 A 
ATOM     15  C   UNL     1      11.384  58.971  17.443  1.00  0.00     0.157 A 
ATOM     16  C   UNL     1      12.332  56.779  17.892  1.00  0.00     0.062 A 
ATOM     17  C   UNL     1      11.287  57.570  17.391  1.00  0.00     0.158 A 
BRANCH  15  18
ATOM     18  O   UNL     1      10.361  59.783  16.956  1.00  0.00    -0.504 OA
ATOM     19  H   UNL     1      10.499  60.769  16.769  1.00  0.00     0.293 HD
ENDBRANCH  15  18
BRANCH  17  20
ATOM     20  O   UNL     1      10.159  56.969  16.836  1.00  0.00    -0.504 OA
ATOM     21  H   UNL     1       9.982  56.988  15.839  1.00  0.00     0.293 HD
ENDBRANCH  17  20
ENDBRANCH   1  12
BRANCH   6  22
ATOM     22  O   UNL     1      18.971  54.344  20.658  1.00  0.00    -0.507 OA
ATOM     23  H   UNL     1      19.425  55.180  20.992  1.00  0.00     0.293 HD
ENDBRANCH   6  22
BRANCH   8  24
ATOM     24  O   UNL     1      15.393  51.600  22.260  1.00  0.00    -0.508 OA
ATOM     25  H   UNL     1      14.905  50.832  21.815  1.00  0.00     0.293 HD
ENDBRANCH   8  24
TORSDOF 5
ENDMDL
MODEL 9
REMARK VINA RESULT:    -4.154      8.956     10.359
REMARK INTER + INTRA:          -5.147
REMARK INTER:                  -4.829
REMARK INTRA:                  -0.318
REMARK UNBOUND:                -0.264
REMARK SMILES O=c1cc(-c2ccc(O)c(O)c2)oc2cc(O)cc(O)c12
REMARK SMILES IDX 4 1 3 2 2 3 1 4 21 5 19 6 18 7 16 8 15 9 14 10 13 11 5 12
REMARK SMILES IDX 6 13 7 14 8 15 12 16 10 17 9 18 11 20 20 22 17 24
REMARK H PARENT 9 19 11 21 20 23 17 25
REMARK Flexibility Score: inf
ROOT
ATOM      1  C   UNL     1       4.254  60.575  19.127  1.00  0.00     0.138 A 
ATOM      2  C   UNL     1       2.946  60.992  19.414  1.00  0.00     0.100 A 
ATOM      3  C   UNL     1       2.345  60.603  20.611  1.00  0.00     0.197 A 
ATOM      4  O   UNL     1       1.195  61.045  20.868  1.00  0.00    -0.289 OA
ATOM      5  C   UNL     1       3.047  59.767  21.512  1.00  0.00     0.107 A 
ATOM      6  C   UNL     1       2.519  59.274  22.742  1.00  0.00     0.134 A 
ATOM      7  C   UNL     1       3.347  58.548  23.608  1.00  0.00     0.093 A 
ATOM      8  C   UNL     1       4.662  58.246  23.261  1.00  0.00     0.123 A 
ATOM      9  C   UNL     1       5.173  58.676  22.036  1.00  0.00     0.094 A 
ATOM     10  C   UNL     1       4.383  59.431  21.166  1.00  0.00     0.146 A 
ATOM     11  O   UNL     1       4.911  59.835  20.015  1.00  0.00    -0.456 OA
ENDROOT
BRANCH   1  12
ATOM     12  C   UNL     1       4.942  60.958  17.868  1.00  0.00     0.021 A 
ATOM     13  C   UNL     1       4.254  61.720  16.908  1.00  0.00     0.016 A 
ATOM     14  C   UNL     1       4.881  62.099  15.720  1.00  0.00     0.051 A 
ATOM     15  C   UNL     1       6.207  61.734  15.470  1.00  0.00     0.157 A 
ATOM     16  C   UNL     1       6.282  60.602  17.619  1.00  0.00     0.062 A 
ATOM     17  C   UNL     1       6.913  60.983  16.425  1.00  0.00     0.158 A 
BRANCH  15  18
ATOM     18  O   UNL     1       6.806  62.125  14.274  1.00  0.00    -0.504 OA
ATOM     19  H   UNL     1       6.755  63.077  13.932  1.00  0.00     0.293 HD
ENDBRANCH  15  18
BRANCH  17  20
ATOM     20  O   UNL     1       8.239  60.625  16.189  1.00  0.00    -0.504 OA
ATOM     21  H   UNL     1       8.485  59.719  15.807  1.00  0.00     0.293 HD
ENDBRANCH  17  20
ENDBRANCH   1  12
BRANCH   6  22
ATOM     22  O   UNL     1       1.191  59.447  23.147  1.00  0.00    -0.507 OA
ATOM     23  H   UNL     1       0.806  59.115  24.018  1.00  0.00     0.293 HD
ENDBRANCH   6  22
BRANCH   8  24
ATOM     24  O   UNL     1       5.452  57.509  24.140  1.00  0.00    -0.508 OA
ATOM     25  H   UNL     1       5.046  56.839  24.783  1.00  0.00     0.293 HD
ENDBRANCH   8  24
TORSDOF 5
ENDMDL
