MODEL 1
REMARK VINA RESULT:    -3.078      0.000      0.000
REMARK INTER + INTRA:          -9.873
REMARK INTER:                  -6.676
REMARK INTRA:                  -3.196
REMARK UNBOUND:                -3.196
REMARK SMILES CCCCCCCCCCCCCCCCCCCCCC(=O)[O-]
REMARK SMILES IDX 12 1 11 2 10 3 9 4 8 5 7 6 6 7 5 8 4 9 3 10 2 11 1 12 13 13
REMARK SMILES IDX 14 14 15 15 16 16 17 17 18 18 19 19 20 20 21 21 22 22 23 23
REMARK SMILES IDX 24 24
REMARK H PARENT
REMARK Flexibility Score: inf
ROOT
ATOM      1  C   UNL     1    -116.457  35.382  -7.125  1.00  0.00     0.000 C 
ENDROOT
BRANCH   1   2
ATOM      2  C   UNL     1    -115.084  34.981  -7.685  1.00  0.00     0.000 C 
BRANCH   2   3
ATOM      3  C   UNL     1    -115.176  33.895  -8.771  1.00  0.00     0.000 C 
BRANCH   3   4
ATOM      4  C   UNL     1    -116.585  33.682  -9.360  1.00  0.00    -0.000 C 
BRANCH   4   5
ATOM      5  C   UNL     1    -116.733  34.031 -10.854  1.00  0.00    -0.000 C 
BRANCH   5   6
ATOM      6  C   UNL     1    -115.463  34.589 -11.523  1.00  0.00    -0.000 C 
BRANCH   6   7
ATOM      7  C   UNL     1    -115.773  35.565 -12.669  1.00  0.00    -0.000 C 
BRANCH   7   8
ATOM      8  C   UNL     1    -114.840  35.383 -13.880  1.00  0.00    -0.000 C 
BRANCH   8   9
ATOM      9  C   UNL     1    -114.776  33.953 -14.454  1.00  0.00    -0.000 C 
BRANCH   9  10
ATOM     10  C   UNL     1    -116.065  33.463 -15.137  1.00  0.00    -0.000 C 
BRANCH  10  11
ATOM     11  C   UNL     1    -116.786  32.371 -14.335  1.00  0.00    -0.003 C 
ATOM     12  C   UNL     1    -115.792  31.502 -13.572  1.00  0.00     0.004 C 
ENDBRANCH  10  11
ENDBRANCH   9  10
ENDBRANCH   8   9
ENDBRANCH   7   8
ENDBRANCH   6   7
ENDBRANCH   5   6
ENDBRANCH   4   5
ENDBRANCH   3   4
ENDBRANCH   2   3
ENDBRANCH   1   2
BRANCH   1  13
ATOM     13  C   UNL     1    -116.713  36.881  -7.321  1.00  0.00     0.000 C 
BRANCH  13  14
ATOM     14  C   UNL     1    -115.875  37.434  -8.484  1.00  0.00     0.000 C 
BRANCH  14  15
ATOM     15  C   UNL     1    -116.693  37.616  -9.772  1.00  0.00     0.000 C 
BRANCH  15  16
ATOM     16  C   UNL     1    -116.037  38.603 -10.755  1.00  0.00     0.000 C 
BRANCH  16  17
ATOM     17  C   UNL     1    -114.589  38.955 -10.372  1.00  0.00     0.000 C 
BRANCH  17  18
ATOM     18  C   UNL     1    -113.716  39.464 -11.533  1.00  0.00     0.000 C 
BRANCH  18  19
ATOM     19  C   UNL     1    -114.278  39.085 -12.914  1.00  0.00     0.000 C 
BRANCH  19  20
ATOM     20  C   UNL     1    -113.180  38.723 -13.931  1.00  0.00     0.006 C 
BRANCH  20  21
ATOM     21  C   UNL     1    -111.802  38.473 -13.295  1.00  0.00     0.053 C 
BRANCH  21  22
ATOM     22  C   UNL     1    -110.740  39.368 -13.855  1.00  0.00     0.041 C 
ATOM     23  O   UNL     1    -110.241  40.279 -13.143  1.00  0.00    -0.550 OA
ATOM     24  O   UNL     1    -110.321  39.219 -15.171  1.00  0.00    -0.550 OA
ENDBRANCH  21  22
ENDBRANCH  20  21
ENDBRANCH  19  20
ENDBRANCH  18  19
ENDBRANCH  17  18
ENDBRANCH  16  17
ENDBRANCH  15  16
ENDBRANCH  14  15
ENDBRANCH  13  14
ENDBRANCH   1  13
TORSDOF 20
ENDMDL
MODEL 2
REMARK VINA RESULT:    -3.059      1.614      4.799
REMARK INTER + INTRA:          -9.832
REMARK INTER:                  -6.888
REMARK INTRA:                  -2.944
REMARK UNBOUND:                -3.196
REMARK SMILES CCCCCCCCCCCCCCCCCCCCCC(=O)[O-]
REMARK SMILES IDX 12 1 11 2 10 3 9 4 8 5 7 6 6 7 5 8 4 9 3 10 2 11 1 12 13 13
REMARK SMILES IDX 14 14 15 15 16 16 17 17 18 18 19 19 20 20 21 21 22 22 23 23
REMARK SMILES IDX 24 24
REMARK H PARENT
REMARK Flexibility Score: inf
ROOT
ATOM      1  C   UNL     1    -116.769  33.748 -10.598  1.00  0.00     0.000 C 
ENDROOT
BRANCH   1   2
ATOM      2  C   UNL     1    -116.541  33.514  -9.097  1.00  0.00     0.000 C 
BRANCH   2   3
ATOM      3  C   UNL     1    -115.106  33.846  -8.651  1.00  0.00     0.000 C 
BRANCH   3   4
ATOM      4  C   UNL     1    -114.998  34.956  -7.586  1.00  0.00    -0.000 C 
BRANCH   4   5
ATOM      5  C   UNL     1    -116.295  35.748  -7.328  1.00  0.00    -0.000 C 
BRANCH   5   6
ATOM      6  C   UNL     1    -116.381  37.110  -8.040  1.00  0.00    -0.000 C 
BRANCH   6   7
ATOM      7  C   UNL     1    -115.124  37.435  -8.863  1.00  0.00    -0.000 C 
BRANCH   7   8
ATOM      8  C   UNL     1    -114.860  38.946  -8.982  1.00  0.00    -0.000 C 
BRANCH   8   9
ATOM      9  C   UNL     1    -114.237  39.404 -10.317  1.00  0.00    -0.000 C 
BRANCH   9  10
ATOM     10  C   UNL     1    -115.094  40.383 -11.138  1.00  0.00    -0.000 C 
BRANCH  10  11
ATOM     11  C   UNL     1    -114.270  41.522 -11.756  1.00  0.00    -0.003 C 
ATOM     12  C   UNL     1    -112.816  41.459 -11.299  1.00  0.00     0.004 C 
ENDBRANCH  10  11
ENDBRANCH   9  10
ENDBRANCH   8   9
ENDBRANCH   7   8
ENDBRANCH   6   7
ENDBRANCH   5   6
ENDBRANCH   4   5
ENDBRANCH   3   4
ENDBRANCH   2   3
ENDBRANCH   1   2
BRANCH   1  13
ATOM     13  C   UNL     1    -115.436  33.920 -11.335  1.00  0.00     0.000 C 
BRANCH  13  14
ATOM     14  C   UNL     1    -115.578  34.909 -12.503  1.00  0.00     0.000 C 
BRANCH  14  15
ATOM     15  C   UNL     1    -116.060  36.296 -12.052  1.00  0.00     0.000 C 
BRANCH  15  16
ATOM     16  C   UNL     1    -115.799  37.385 -13.107  1.00  0.00     0.000 C 
BRANCH  16  17
ATOM     17  C   UNL     1    -114.463  37.193 -13.847  1.00  0.00     0.000 C 
BRANCH  17  18
ATOM     18  C   UNL     1    -113.643  38.480 -14.054  1.00  0.00     0.000 C 
BRANCH  18  19
ATOM     19  C   UNL     1    -112.273  38.434 -13.357  1.00  0.00     0.000 C 
BRANCH  19  20
ATOM     20  C   UNL     1    -111.098  38.339 -14.348  1.00  0.00     0.006 C 
BRANCH  20  21
ATOM     21  C   UNL     1    -110.747  39.676 -15.024  1.00  0.00     0.053 C 
BRANCH  21  22
ATOM     22  C   UNL     1    -110.191  40.679 -14.060  1.00  0.00     0.041 C 
ATOM     23  O   UNL     1    -109.433  40.306 -13.126  1.00  0.00    -0.550 OA
ATOM     24  O   UNL     1    -110.531  42.021 -14.173  1.00  0.00    -0.550 OA
ENDBRANCH  21  22
ENDBRANCH  20  21
ENDBRANCH  19  20
ENDBRANCH  18  19
ENDBRANCH  17  18
ENDBRANCH  16  17
ENDBRANCH  15  16
ENDBRANCH  14  15
ENDBRANCH  13  14
ENDBRANCH   1  13
TORSDOF 20
ENDMDL
MODEL 3
REMARK VINA RESULT:    -3.040      1.616      5.041
REMARK INTER + INTRA:          -9.790
REMARK INTER:                  -7.097
REMARK INTRA:                  -2.693
REMARK UNBOUND:                -3.196
REMARK SMILES CCCCCCCCCCCCCCCCCCCCCC(=O)[O-]
REMARK SMILES IDX 12 1 11 2 10 3 9 4 8 5 7 6 6 7 5 8 4 9 3 10 2 11 1 12 13 13
REMARK SMILES IDX 14 14 15 15 16 16 17 17 18 18 19 19 20 20 21 21 22 22 23 23
REMARK SMILES IDX 24 24
REMARK H PARENT
REMARK Flexibility Score: inf
ROOT
ATOM      1  C   UNL     1    -115.116  34.932  -7.723  1.00  0.00     0.000 C 
ENDROOT
BRANCH   1   2
ATOM      2  C   UNL     1    -116.543  35.229  -7.240  1.00  0.00     0.000 C 
BRANCH   2   3
ATOM      3  C   UNL     1    -116.953  36.698  -7.448  1.00  0.00     0.000 C 
BRANCH   3   4
ATOM      4  C   UNL     1    -116.906  37.183  -8.911  1.00  0.00    -0.000 C 
BRANCH   4   5
ATOM      5  C   UNL     1    -116.225  38.549  -9.129  1.00  0.00    -0.000 C 
BRANCH   5   6
ATOM      6  C   UNL     1    -114.690  38.505  -9.232  1.00  0.00    -0.000 C 
BRANCH   6   7
ATOM      7  C   UNL     1    -114.144  39.375 -10.376  1.00  0.00    -0.000 C 
BRANCH   7   8
ATOM      8  C   UNL     1    -114.400  38.766 -11.766  1.00  0.00    -0.000 C 
BRANCH   8   9
ATOM      9  C   UNL     1    -113.532  39.336 -12.907  1.00  0.00    -0.000 C 
BRANCH   9  10
ATOM     10  C   UNL     1    -112.030  39.016 -12.809  1.00  0.00    -0.000 C 
BRANCH  10  11
ATOM     11  C   UNL     1    -111.143  40.252 -13.017  1.00  0.00    -0.003 C 
ATOM     12  C   UNL     1    -111.856  41.522 -12.566  1.00  0.00     0.004 C 
ENDBRANCH  10  11
ENDBRANCH   9  10
ENDBRANCH   8   9
ENDBRANCH   7   8
ENDBRANCH   6   7
ENDBRANCH   5   6
ENDBRANCH   4   5
ENDBRANCH   3   4
ENDBRANCH   2   3
ENDBRANCH   1   2
BRANCH   1  13
ATOM     13  C   UNL     1    -115.119  33.853  -8.812  1.00  0.00     0.000 C 
BRANCH  13  14
ATOM     14  C   UNL     1    -116.553  33.512  -9.244  1.00  0.00     0.000 C 
BRANCH  14  15
ATOM     15  C   UNL     1    -116.788  33.724 -10.748  1.00  0.00     0.000 C 
BRANCH  15  16
ATOM     16  C   UNL     1    -115.564  34.328 -11.459  1.00  0.00     0.000 C 
BRANCH  16  17
ATOM     17  C   UNL     1    -115.877  35.661 -12.161  1.00  0.00     0.000 C 
BRANCH  17  18
ATOM     18  C   UNL     1    -115.572  35.688 -13.670  1.00  0.00     0.000 C 
BRANCH  18  19
ATOM     19  C   UNL     1    -114.542  34.626 -14.090  1.00  0.00     0.000 C 
BRANCH  19  20
ATOM     20  C   UNL     1    -113.727  35.037 -15.330  1.00  0.00     0.006 C 
BRANCH  20  21
ATOM     21  C   UNL     1    -112.871  36.298 -15.120  1.00  0.00     0.053 C 
BRANCH  21  22
ATOM     22  C   UNL     1    -111.420  36.061 -15.405  1.00  0.00     0.041 C 
ATOM     23  O   UNL     1    -110.555  36.889 -15.016  1.00  0.00    -0.550 OA
ATOM     24  O   UNL     1    -111.022  34.942 -16.125  1.00  0.00    -0.550 OA
ENDBRANCH  21  22
ENDBRANCH  20  21
ENDBRANCH  19  20
ENDBRANCH  18  19
ENDBRANCH  17  18
ENDBRANCH  16  17
ENDBRANCH  15  16
ENDBRANCH  14  15
ENDBRANCH  13  14
ENDBRANCH   1  13
TORSDOF 20
ENDMDL
MODEL 4
REMARK VINA RESULT:    -3.033      1.671      5.378
REMARK INTER + INTRA:          -9.774
REMARK INTER:                  -5.985
REMARK INTRA:                  -3.789
REMARK UNBOUND:                -3.196
REMARK SMILES CCCCCCCCCCCCCCCCCCCCCC(=O)[O-]
REMARK SMILES IDX 12 1 11 2 10 3 9 4 8 5 7 6 6 7 5 8 4 9 3 10 2 11 1 12 13 13
REMARK SMILES IDX 14 14 15 15 16 16 17 17 18 18 19 19 20 20 21 21 22 22 23 23
REMARK SMILES IDX 24 24
REMARK H PARENT
REMARK Flexibility Score: inf
ROOT
ATOM      1  C   UNL     1    -115.011  34.637  -7.769  1.00  0.00     0.000 C 
ENDROOT
BRANCH   1   2
ATOM      2  C   UNL     1    -116.356  35.260  -7.368  1.00  0.00     0.000 C 
BRANCH   2   3
ATOM      3  C   UNL     1    -116.404  36.780  -7.599  1.00  0.00     0.000 C 
BRANCH   3   4
ATOM      4  C   UNL     1    -115.701  37.264  -8.884  1.00  0.00    -0.000 C 
BRANCH   4   5
ATOM      5  C   UNL     1    -116.598  38.035  -9.873  1.00  0.00    -0.000 C 
BRANCH   5   6
ATOM      6  C   UNL     1    -115.865  39.057 -10.760  1.00  0.00    -0.000 C 
BRANCH   6   7
ATOM      7  C   UNL     1    -114.411  39.295 -10.321  1.00  0.00    -0.000 C 
BRANCH   7   8
ATOM      8  C   UNL     1    -114.096  40.781 -10.074  1.00  0.00    -0.000 C 
BRANCH   8   9
ATOM      9  C   UNL     1    -114.716  41.383  -8.796  1.00  0.00    -0.000 C 
BRANCH   9  10
ATOM     10  C   UNL     1    -114.588  40.514  -7.533  1.00  0.00    -0.000 C 
BRANCH  10  11
ATOM     11  C   UNL     1    -115.897  40.427  -6.735  1.00  0.00    -0.003 C 
ATOM     12  C   UNL     1    -117.076  40.939  -7.555  1.00  0.00     0.004 C 
ENDBRANCH  10  11
ENDBRANCH   9  10
ENDBRANCH   8   9
ENDBRANCH   7   8
ENDBRANCH   6   7
ENDBRANCH   5   6
ENDBRANCH   4   5
ENDBRANCH   3   4
ENDBRANCH   2   3
ENDBRANCH   1   2
BRANCH   1  13
ATOM     13  C   UNL     1    -115.171  33.724  -8.990  1.00  0.00     0.000 C 
BRANCH  13  14
ATOM     14  C   UNL     1    -116.652  33.570  -9.371  1.00  0.00     0.000 C 
BRANCH  14  15
ATOM     15  C   UNL     1    -116.956  34.068 -10.792  1.00  0.00     0.000 C 
BRANCH  15  16
ATOM     16  C   UNL     1    -115.692  34.525 -11.542  1.00  0.00     0.000 C 
BRANCH  16  17
ATOM     17  C   UNL     1    -115.992  35.545 -12.655  1.00  0.00     0.000 C 
BRANCH  17  18
ATOM     18  C   UNL     1    -114.826  36.487 -13.005  1.00  0.00     0.000 C 
BRANCH  18  19
ATOM     19  C   UNL     1    -115.218  37.570 -14.023  1.00  0.00     0.000 C 
BRANCH  19  20
ATOM     20  C   UNL     1    -114.034  38.464 -14.436  1.00  0.00     0.006 C 
BRANCH  20  21
ATOM     21  C   UNL     1    -112.799  38.317 -13.530  1.00  0.00     0.053 C 
BRANCH  21  22
ATOM     22  C   UNL     1    -112.107  39.622 -13.286  1.00  0.00     0.041 C 
ATOM     23  O   UNL     1    -112.757  40.700 -13.328  1.00  0.00    -0.550 OA
ATOM     24  O   UNL     1    -110.740  39.654 -13.040  1.00  0.00    -0.550 OA
ENDBRANCH  21  22
ENDBRANCH  20  21
ENDBRANCH  19  20
ENDBRANCH  18  19
ENDBRANCH  17  18
ENDBRANCH  16  17
ENDBRANCH  15  16
ENDBRANCH  14  15
ENDBRANCH  13  14
ENDBRANCH   1  13
TORSDOF 20
ENDMDL
MODEL 5
REMARK VINA RESULT:    -3.028      1.639      3.620
REMARK INTER + INTRA:          -9.764
REMARK INTER:                  -6.986
REMARK INTRA:                  -2.778
REMARK UNBOUND:                -3.196
REMARK SMILES CCCCCCCCCCCCCCCCCCCCCC(=O)[O-]
REMARK SMILES IDX 12 1 11 2 10 3 9 4 8 5 7 6 6 7 5 8 4 9 3 10 2 11 1 12 13 13
REMARK SMILES IDX 14 14 15 15 16 16 17 17 18 18 19 19 20 20 21 21 22 22 23 23
REMARK SMILES IDX 24 24
REMARK H PARENT
REMARK Flexibility Score: inf
ROOT
ATOM      1  C   UNL     1    -115.090  39.050  -9.180  1.00  0.00     0.000 C 
ENDROOT
BRANCH   1   2
ATOM      2  C   UNL     1    -115.042  37.617  -8.629  1.00  0.00     0.000 C 
BRANCH   2   3
ATOM      3  C   UNL     1    -116.369  37.178  -7.985  1.00  0.00     0.000 C 
BRANCH   3   4
ATOM      4  C   UNL     1    -116.410  35.709  -7.520  1.00  0.00    -0.000 C 
BRANCH   4   5
ATOM      5  C   UNL     1    -115.051  34.982  -7.518  1.00  0.00    -0.000 C 
BRANCH   5   6
ATOM      6  C   UNL     1    -114.905  33.863  -8.565  1.00  0.00    -0.000 C 
BRANCH   6   7
ATOM      7  C   UNL     1    -116.138  33.734  -9.475  1.00  0.00    -0.000 C 
BRANCH   7   8
ATOM      8  C   UNL     1    -115.825  34.029 -10.953  1.00  0.00    -0.000 C 
BRANCH   8   9
ATOM      9  C   UNL     1    -116.007  35.499 -11.384  1.00  0.00    -0.000 C 
BRANCH   9  10
ATOM     10  C   UNL     1    -116.189  35.720 -12.896  1.00  0.00    -0.000 C 
BRANCH  10  11
ATOM     11  C   UNL     1    -114.873  36.061 -13.610  1.00  0.00    -0.003 C 
ATOM     12  C   UNL     1    -115.109  37.034 -14.761  1.00  0.00     0.004 C 
ENDBRANCH  10  11
ENDBRANCH   9  10
ENDBRANCH   8   9
ENDBRANCH   7   8
ENDBRANCH   6   7
ENDBRANCH   5   6
ENDBRANCH   4   5
ENDBRANCH   3   4
ENDBRANCH   2   3
ENDBRANCH   1   2
BRANCH   1  13
ATOM     13  C   UNL     1    -115.969  39.126 -10.433  1.00  0.00     0.000 C 
BRANCH  13  14
ATOM     14  C   UNL     1    -115.109  39.237 -11.702  1.00  0.00     0.000 C 
BRANCH  14  15
ATOM     15  C   UNL     1    -113.630  39.522 -11.395  1.00  0.00     0.000 C 
BRANCH  15  16
ATOM     16  C   UNL     1    -112.971  40.430 -12.448  1.00  0.00     0.000 C 
BRANCH  16  17
ATOM     17  C   UNL     1    -112.567  39.671 -13.724  1.00  0.00     0.000 C 
BRANCH  17  18
ATOM     18  C   UNL     1    -111.866  38.322 -13.483  1.00  0.00     0.000 C 
BRANCH  18  19
ATOM     19  C   UNL     1    -111.092  37.822 -14.714  1.00  0.00     0.000 C 
BRANCH  19  20
ATOM     20  C   UNL     1    -110.581  38.967 -15.608  1.00  0.00     0.006 C 
BRANCH  20  21
ATOM     21  C   UNL     1    -109.048  39.023 -15.730  1.00  0.00     0.053 C 
BRANCH  21  22
ATOM     22  C   UNL     1    -108.427  39.950 -14.731  1.00  0.00     0.041 C 
ATOM     23  O   UNL     1    -109.150  40.566 -13.904  1.00  0.00    -0.550 OA
ATOM     24  O   UNL     1    -107.053  40.157 -14.730  1.00  0.00    -0.550 OA
ENDBRANCH  21  22
ENDBRANCH  20  21
ENDBRANCH  19  20
ENDBRANCH  18  19
ENDBRANCH  17  18
ENDBRANCH  16  17
ENDBRANCH  15  16
ENDBRANCH  14  15
ENDBRANCH  13  14
ENDBRANCH   1  13
TORSDOF 20
ENDMDL
MODEL 6
REMARK VINA RESULT:    -3.025      2.761      6.513
REMARK INTER + INTRA:          -9.759
REMARK INTER:                  -7.033
REMARK INTRA:                  -2.725
REMARK UNBOUND:                -3.196
REMARK SMILES CCCCCCCCCCCCCCCCCCCCCC(=O)[O-]
REMARK SMILES IDX 12 1 11 2 10 3 9 4 8 5 7 6 6 7 5 8 4 9 3 10 2 11 1 12 13 13
REMARK SMILES IDX 14 14 15 15 16 16 17 17 18 18 19 19 20 20 21 21 22 22 23 23
REMARK SMILES IDX 24 24
REMARK H PARENT
REMARK Flexibility Score: inf
ROOT
ATOM      1  C   UNL     1    -115.730  34.757 -11.478  1.00  0.00     0.000 C 
ENDROOT
BRANCH   1   2
ATOM      2  C   UNL     1    -115.929  36.183 -12.012  1.00  0.00     0.000 C 
BRANCH   2   3
ATOM      3  C   UNL     1    -115.051  36.490 -13.238  1.00  0.00     0.000 C 
BRANCH   3   4
ATOM      4  C   UNL     1    -114.246  37.803 -13.148  1.00  0.00    -0.000 C 
BRANCH   4   5
ATOM      5  C   UNL     1    -113.171  37.991 -14.237  1.00  0.00    -0.000 C 
BRANCH   5   6
ATOM      6  C   UNL     1    -111.746  38.243 -13.713  1.00  0.00    -0.000 C 
BRANCH   6   7
ATOM      7  C   UNL     1    -110.721  38.439 -14.841  1.00  0.00    -0.000 C 
BRANCH   7   8
ATOM      8  C   UNL     1    -109.949  39.766 -14.724  1.00  0.00    -0.000 C 
BRANCH   8   9
ATOM      9  C   UNL     1    -110.173  40.547 -13.413  1.00  0.00    -0.000 C 
BRANCH   9  10
ATOM     10  C   UNL     1    -110.853  41.917 -13.575  1.00  0.00    -0.000 C 
BRANCH  10  11
ATOM     11  C   UNL     1    -112.362  41.870 -13.300  1.00  0.00    -0.003 C 
ATOM     12  C   UNL     1    -112.649  41.365 -11.890  1.00  0.00     0.004 C 
ENDBRANCH  10  11
ENDBRANCH   9  10
ENDBRANCH   8   9
ENDBRANCH   7   8
ENDBRANCH   6   7
ENDBRANCH   5   6
ENDBRANCH   4   5
ENDBRANCH   3   4
ENDBRANCH   2   3
ENDBRANCH   1   2
BRANCH   1  13
ATOM     13  C   UNL     1    -116.987  34.263 -10.751  1.00  0.00     0.000 C 
BRANCH  13  14
ATOM     14  C   UNL     1    -116.621  33.579  -9.425  1.00  0.00     0.000 C 
BRANCH  14  15
ATOM     15  C   UNL     1    -115.168  33.843  -9.000  1.00  0.00     0.000 C 
BRANCH  15  16
ATOM     16  C   UNL     1    -115.071  34.648  -7.692  1.00  0.00     0.000 C 
BRANCH  16  17
ATOM     17  C   UNL     1    -116.414  35.271  -7.271  1.00  0.00     0.000 C 
BRANCH  17  18
ATOM     18  C   UNL     1    -116.436  36.810  -7.241  1.00  0.00     0.000 C 
BRANCH  18  19
ATOM     19  C   UNL     1    -116.252  37.437  -8.633  1.00  0.00     0.000 C 
BRANCH  19  20
ATOM     20  C   UNL     1    -114.827  37.971  -8.869  1.00  0.00     0.006 C 
BRANCH  20  21
ATOM     21  C   UNL     1    -114.778  39.259  -9.708  1.00  0.00     0.053 C 
BRANCH  21  22
ATOM     22  C   UNL     1    -114.925  40.494  -8.873  1.00  0.00     0.041 C 
ATOM     23  O   UNL     1    -114.382  40.559  -7.739  1.00  0.00    -0.550 OA
ATOM     24  O   UNL     1    -115.684  41.563  -9.333  1.00  0.00    -0.550 OA
ENDBRANCH  21  22
ENDBRANCH  20  21
ENDBRANCH  19  20
ENDBRANCH  18  19
ENDBRANCH  17  18
ENDBRANCH  16  17
ENDBRANCH  15  16
ENDBRANCH  14  15
ENDBRANCH  13  14
ENDBRANCH   1  13
TORSDOF 20
ENDMDL
MODEL 7
REMARK VINA RESULT:    -2.997      1.592      2.610
REMARK INTER + INTRA:          -9.697
REMARK INTER:                  -6.811
REMARK INTRA:                  -2.887
REMARK UNBOUND:                -3.196
REMARK SMILES CCCCCCCCCCCCCCCCCCCCCC(=O)[O-]
REMARK SMILES IDX 12 1 11 2 10 3 9 4 8 5 7 6 6 7 5 8 4 9 3 10 2 11 1 12 13 13
REMARK SMILES IDX 14 14 15 15 16 16 17 17 18 18 19 19 20 20 21 21 22 22 23 23
REMARK SMILES IDX 24 24
REMARK H PARENT
REMARK Flexibility Score: inf
ROOT
ATOM      1  C   UNL     1    -115.035  35.000  -7.750  1.00  0.00     0.000 C 
ENDROOT
BRANCH   1   2
ATOM      2  C   UNL     1    -115.140  33.850  -8.762  1.00  0.00     0.000 C 
BRANCH   2   3
ATOM      3  C   UNL     1    -116.532  33.750  -9.411  1.00  0.00     0.000 C 
BRANCH   3   4
ATOM      4  C   UNL     1    -116.546  33.905 -10.945  1.00  0.00    -0.000 C 
BRANCH   4   5
ATOM      5  C   UNL     1    -115.164  33.835 -11.625  1.00  0.00    -0.000 C 
BRANCH   5   6
ATOM      6  C   UNL     1    -115.196  33.616 -13.149  1.00  0.00    -0.000 C 
BRANCH   6   7
ATOM      7  C   UNL     1    -115.931  34.738 -13.898  1.00  0.00    -0.000 C 
BRANCH   7   8
ATOM      8  C   UNL     1    -115.050  35.433 -14.951  1.00  0.00    -0.000 C 
BRANCH   8   9
ATOM      9  C   UNL     1    -113.574  34.985 -14.976  1.00  0.00    -0.000 C 
BRANCH   9  10
ATOM     10  C   UNL     1    -112.654  35.813 -15.890  1.00  0.00    -0.000 C 
BRANCH  10  11
ATOM     11  C   UNL     1    -111.235  35.967 -15.324  1.00  0.00    -0.003 C 
ATOM     12  C   UNL     1    -110.281  34.955 -15.950  1.00  0.00     0.004 C 
ENDBRANCH  10  11
ENDBRANCH   9  10
ENDBRANCH   8   9
ENDBRANCH   7   8
ENDBRANCH   6   7
ENDBRANCH   5   6
ENDBRANCH   4   5
ENDBRANCH   3   4
ENDBRANCH   2   3
ENDBRANCH   1   2
BRANCH   1  13
ATOM     13  C   UNL     1    -116.399  35.662  -7.526  1.00  0.00     0.000 C 
BRANCH  13  14
ATOM     14  C   UNL     1    -116.323  37.176  -7.775  1.00  0.00     0.000 C 
BRANCH  14  15
ATOM     15  C   UNL     1    -115.388  37.541  -8.939  1.00  0.00     0.000 C 
BRANCH  15  16
ATOM     16  C   UNL     1    -116.156  37.947 -10.210  1.00  0.00     0.000 C 
BRANCH  16  17
ATOM     17  C   UNL     1    -115.490  37.438 -11.500  1.00  0.00     0.000 C 
BRANCH  17  18
ATOM     18  C   UNL     1    -115.367  38.483 -12.624  1.00  0.00     0.000 C 
BRANCH  18  19
ATOM     19  C   UNL     1    -114.008  38.431 -13.342  1.00  0.00     0.000 C 
BRANCH  19  20
ATOM     20  C   UNL     1    -112.861  39.025 -12.503  1.00  0.00     0.006 C 
BRANCH  20  21
ATOM     21  C   UNL     1    -111.467  38.817 -13.121  1.00  0.00     0.053 C 
BRANCH  21  22
ATOM     22  C   UNL     1    -111.072  39.935 -14.036  1.00  0.00     0.041 C 
ATOM     23  O   UNL     1    -111.323  39.863 -15.267  1.00  0.00    -0.550 OA
ATOM     24  O   UNL     1    -110.401  41.044 -13.536  1.00  0.00    -0.550 OA
ENDBRANCH  21  22
ENDBRANCH  20  21
ENDBRANCH  19  20
ENDBRANCH  18  19
ENDBRANCH  17  18
ENDBRANCH  16  17
ENDBRANCH  15  16
ENDBRANCH  14  15
ENDBRANCH  13  14
ENDBRANCH   1  13
TORSDOF 20
ENDMDL
MODEL 8
REMARK VINA RESULT:    -2.948      1.325      2.716
REMARK INTER + INTRA:          -9.590
REMARK INTER:                  -6.352
REMARK INTRA:                  -3.238
REMARK UNBOUND:                -3.196
REMARK SMILES CCCCCCCCCCCCCCCCCCCCCC(=O)[O-]
REMARK SMILES IDX 12 1 11 2 10 3 9 4 8 5 7 6 6 7 5 8 4 9 3 10 2 11 1 12 13 13
REMARK SMILES IDX 14 14 15 15 16 16 17 17 18 18 19 19 20 20 21 21 22 22 23 23
REMARK SMILES IDX 24 24
REMARK H PARENT
REMARK Flexibility Score: inf
ROOT
ATOM      1  C   UNL     1    -115.033  34.995  -7.599  1.00  0.00     0.000 C 
ENDROOT
BRANCH   1   2
ATOM      2  C   UNL     1    -115.065  33.877  -8.652  1.00  0.00     0.000 C 
BRANCH   2   3
ATOM      3  C   UNL     1    -116.484  33.582  -9.169  1.00  0.00     0.000 C 
BRANCH   3   4
ATOM      4  C   UNL     1    -116.632  33.597 -10.704  1.00  0.00    -0.000 C 
BRANCH   4   5
ATOM      5  C   UNL     1    -115.336  33.893 -11.486  1.00  0.00    -0.000 C 
BRANCH   5   6
ATOM      6  C   UNL     1    -115.539  34.568 -12.855  1.00  0.00    -0.000 C 
BRANCH   6   7
ATOM      7  C   UNL     1    -114.732  33.895 -13.977  1.00  0.00    -0.000 C 
BRANCH   7   8
ATOM      8  C   UNL     1    -114.011  34.906 -14.886  1.00  0.00    -0.000 C 
BRANCH   8   9
ATOM      9  C   UNL     1    -114.000  36.362 -14.375  1.00  0.00    -0.000 C 
BRANCH   9  10
ATOM     10  C   UNL     1    -114.379  37.425 -15.420  1.00  0.00    -0.000 C 
BRANCH  10  11
ATOM     11  C   UNL     1    -115.819  37.933 -15.258  1.00  0.00    -0.003 C 
ATOM     12  C   UNL     1    -115.848  39.442 -15.036  1.00  0.00     0.004 C 
ENDBRANCH  10  11
ENDBRANCH   9  10
ENDBRANCH   8   9
ENDBRANCH   7   8
ENDBRANCH   6   7
ENDBRANCH   5   6
ENDBRANCH   4   5
ENDBRANCH   3   4
ENDBRANCH   2   3
ENDBRANCH   1   2
BRANCH   1  13
ATOM     13  C   UNL     1    -116.416  35.638  -7.439  1.00  0.00     0.000 C 
BRANCH  13  14
ATOM     14  C   UNL     1    -116.380  37.123  -7.831  1.00  0.00     0.000 C 
BRANCH  14  15
ATOM     15  C   UNL     1    -115.481  37.396  -9.047  1.00  0.00     0.000 C 
BRANCH  15  16
ATOM     16  C   UNL     1    -116.244  37.301 -10.380  1.00  0.00     0.000 C 
BRANCH  16  17
ATOM     17  C   UNL     1    -115.516  38.005 -11.538  1.00  0.00     0.000 C 
BRANCH  17  18
ATOM     18  C   UNL     1    -115.238  39.503 -11.315  1.00  0.00     0.000 C 
BRANCH  18  19
ATOM     19  C   UNL     1    -113.737  39.836 -11.294  1.00  0.00     0.000 C 
BRANCH  19  20
ATOM     20  C   UNL     1    -112.956  39.165 -12.438  1.00  0.00     0.006 C 
BRANCH  20  21
ATOM     21  C   UNL     1    -112.507  40.141 -13.540  1.00  0.00     0.053 C 
BRANCH  21  22
ATOM     22  C   UNL     1    -111.125  40.670 -13.311  1.00  0.00     0.041 C 
ATOM     23  O   UNL     1    -110.221  39.909 -12.877  1.00  0.00    -0.550 OA
ATOM     24  O   UNL     1    -110.841  42.008 -13.548  1.00  0.00    -0.550 OA
ENDBRANCH  21  22
ENDBRANCH  20  21
ENDBRANCH  19  20
ENDBRANCH  18  19
ENDBRANCH  17  18
ENDBRANCH  16  17
ENDBRANCH  15  16
ENDBRANCH  14  15
ENDBRANCH  13  14
ENDBRANCH   1  13
TORSDOF 20
ENDMDL
MODEL 9
REMARK VINA RESULT:    -2.937      2.412      4.447
REMARK INTER + INTRA:          -9.567
REMARK INTER:                  -6.402
REMARK INTRA:                  -3.165
REMARK UNBOUND:                -3.196
REMARK SMILES CCCCCCCCCCCCCCCCCCCCCC(=O)[O-]
REMARK SMILES IDX 12 1 11 2 10 3 9 4 8 5 7 6 6 7 5 8 4 9 3 10 2 11 1 12 13 13
REMARK SMILES IDX 14 14 15 15 16 16 17 17 18 18 19 19 20 20 21 21 22 22 23 23
REMARK SMILES IDX 24 24
REMARK H PARENT
REMARK Flexibility Score: inf
ROOT
ATOM      1  C   UNL     1    -115.046  33.875  -8.631  1.00  0.00     0.000 C 
ENDROOT
BRANCH   1   2
ATOM      2  C   UNL     1    -116.383  33.550  -9.312  1.00  0.00     0.000 C 
BRANCH   2   3
ATOM      3  C   UNL     1    -116.297  33.587 -10.848  1.00  0.00     0.000 C 
BRANCH   3   4
ATOM      4  C   UNL     1    -115.645  34.857 -11.432  1.00  0.00    -0.000 C 
BRANCH   4   5
ATOM      5  C   UNL     1    -116.616  36.017 -11.728  1.00  0.00    -0.000 C 
BRANCH   5   6
ATOM      6  C   UNL     1    -116.205  36.932 -12.897  1.00  0.00    -0.000 C 
BRANCH   6   7
ATOM      7  C   UNL     1    -114.893  36.491 -13.566  1.00  0.00    -0.000 C 
BRANCH   7   8
ATOM      8  C   UNL     1    -114.193  37.635 -14.322  1.00  0.00    -0.000 C 
BRANCH   8   9
ATOM      9  C   UNL     1    -112.654  37.654 -14.212  1.00  0.00    -0.000 C 
BRANCH   9  10
ATOM     10  C   UNL     1    -111.991  39.001 -14.545  1.00  0.00    -0.000 C 
BRANCH  10  11
ATOM     11  C   UNL     1    -110.814  39.331 -13.616  1.00  0.00    -0.003 C 
ATOM     12  C   UNL     1    -110.128  40.627 -14.035  1.00  0.00     0.004 C 
ENDBRANCH  10  11
ENDBRANCH   9  10
ENDBRANCH   8   9
ENDBRANCH   7   8
ENDBRANCH   6   7
ENDBRANCH   5   6
ENDBRANCH   4   5
ENDBRANCH   3   4
ENDBRANCH   2   3
ENDBRANCH   1   2
BRANCH   1  13
ATOM     13  C   UNL     1    -115.227  34.943  -7.547  1.00  0.00     0.000 C 
BRANCH  13  14
ATOM     14  C   UNL     1    -116.587  35.646  -7.689  1.00  0.00     0.000 C 
BRANCH  14  15
ATOM     15  C   UNL     1    -116.453  37.125  -8.086  1.00  0.00     0.000 C 
BRANCH  15  16
ATOM     16  C   UNL     1    -115.081  37.451  -8.700  1.00  0.00     0.000 C 
BRANCH  16  17
ATOM     17  C   UNL     1    -114.873  38.958  -8.935  1.00  0.00     0.000 C 
BRANCH  17  18
ATOM     18  C   UNL     1    -115.209  39.446 -10.356  1.00  0.00     0.000 C 
BRANCH  18  19
ATOM     19  C   UNL     1    -113.969  39.552 -11.260  1.00  0.00     0.000 C 
BRANCH  19  20
ATOM     20  C   UNL     1    -113.780  40.958 -11.858  1.00  0.00     0.006 C 
BRANCH  20  21
ATOM     21  C   UNL     1    -112.522  41.685 -11.352  1.00  0.00     0.053 C 
BRANCH  21  22
ATOM     22  C   UNL     1    -112.820  42.637 -10.235  1.00  0.00     0.041 C 
ATOM     23  O   UNL     1    -112.630  43.872 -10.390  1.00  0.00    -0.550 OA
ATOM     24  O   UNL     1    -113.279  42.161  -9.014  1.00  0.00    -0.550 OA
ENDBRANCH  21  22
ENDBRANCH  20  21
ENDBRANCH  19  20
ENDBRANCH  18  19
ENDBRANCH  17  18
ENDBRANCH  16  17
ENDBRANCH  15  16
ENDBRANCH  14  15
ENDBRANCH  13  14
ENDBRANCH   1  13
TORSDOF 20
ENDMDL
