MODEL 1
REMARK VINA RESULT:    -4.241      0.000      0.000
REMARK INTER + INTRA:          -6.303
REMARK INTER:                  -5.976
REMARK INTRA:                  -0.327
REMARK UNBOUND:                -0.327
REMARK SMILES CCCCCCCCC(=O)[O-]
REMARK SMILES IDX 6 1 7 2 8 3 9 4 10 5 11 6 5 7 4 8 3 9 2 10 1 11
REMARK H PARENT
REMARK Flexibility Score: inf
ROOT
ATOM      1  C   UNL     1      28.356  25.773 -17.311  1.00  0.00     0.000 C 
ENDROOT
BRANCH   1   2
ATOM      2  C   UNL     1      27.148  24.886 -17.651  1.00  0.00     0.006 C 
BRANCH   2   3
ATOM      3  C   UNL     1      27.475  23.824 -18.709  1.00  0.00     0.053 C 
BRANCH   3   4
ATOM      4  C   UNL     1      26.816  24.163 -20.009  1.00  0.00     0.041 C 
ATOM      5  O   UNL     1      27.092  23.509 -21.049  1.00  0.00    -0.550 OA
ATOM      6  O   UNL     1      25.861  25.170 -20.063  1.00  0.00    -0.550 OA
ENDBRANCH   3   4
ENDBRANCH   2   3
ENDBRANCH   1   2
BRANCH   1   7
ATOM      7  C   UNL     1      27.948  27.110 -16.674  1.00  0.00     0.000 C 
BRANCH   7   8
ATOM      8  C   UNL     1      29.097  28.124 -16.743  1.00  0.00    -0.000 C 
BRANCH   8   9
ATOM      9  C   UNL     1      28.676  29.381 -17.514  1.00  0.00    -0.000 C 
BRANCH   9  10
ATOM     10  C   UNL     1      27.152  29.551 -17.499  1.00  0.00    -0.003 C 
ATOM     11  C   UNL     1      26.653  30.164 -18.803  1.00  0.00     0.004 C 
ENDBRANCH   9  10
ENDBRANCH   8   9
ENDBRANCH   7   8
ENDBRANCH   1   7
TORSDOF 7
ENDMDL
MODEL 2
REMARK VINA RESULT:    -3.888      0.811      1.316
REMARK INTER + INTRA:          -5.807
REMARK INTER:                  -5.336
REMARK INTRA:                  -0.470
REMARK UNBOUND:                -0.327
REMARK SMILES CCCCCCCCC(=O)[O-]
REMARK SMILES IDX 6 1 7 2 8 3 9 4 10 5 11 6 5 7 4 8 3 9 2 10 1 11
REMARK H PARENT
REMARK Flexibility Score: inf
ROOT
ATOM      1  C   UNL     1      29.393  25.325 -17.147  1.00  0.00     0.000 C 
ENDROOT
BRANCH   1   2
ATOM      2  C   UNL     1      29.026  24.421 -18.334  1.00  0.00     0.006 C 
BRANCH   2   3
ATOM      3  C   UNL     1      27.599  23.868 -18.236  1.00  0.00     0.053 C 
BRANCH   3   4
ATOM      4  C   UNL     1      26.780  24.328 -19.401  1.00  0.00     0.041 C 
ATOM      5  O   UNL     1      27.029  23.900 -20.559  1.00  0.00    -0.550 OA
ATOM      6  O   UNL     1      25.710  25.191 -19.201  1.00  0.00    -0.550 OA
ENDBRANCH   3   4
ENDBRANCH   2   3
ENDBRANCH   1   2
BRANCH   1   7
ATOM      7  C   UNL     1      28.174  25.699 -16.289  1.00  0.00     0.000 C 
BRANCH   7   8
ATOM      8  C   UNL     1      27.783  27.166 -16.501  1.00  0.00    -0.000 C 
BRANCH   8   9
ATOM      9  C   UNL     1      29.023  28.037 -16.739  1.00  0.00    -0.000 C 
BRANCH   9  10
ATOM     10  C   UNL     1      28.638  29.383 -17.364  1.00  0.00    -0.003 C 
ATOM     11  C   UNL     1      27.143  29.446 -17.661  1.00  0.00     0.004 C 
ENDBRANCH   9  10
ENDBRANCH   8   9
ENDBRANCH   7   8
ENDBRANCH   1   7
TORSDOF 7
ENDMDL
MODEL 3
REMARK VINA RESULT:    -3.807      2.905      4.987
REMARK INTER + INTRA:          -5.692
REMARK INTER:                  -5.328
REMARK INTRA:                  -0.363
REMARK UNBOUND:                -0.327
REMARK SMILES CCCCCCCCC(=O)[O-]
REMARK SMILES IDX 6 1 7 2 8 3 9 4 10 5 11 6 5 7 4 8 3 9 2 10 1 11
REMARK H PARENT
REMARK Flexibility Score: inf
ROOT
ATOM      1  C   UNL     1      29.536  26.061 -16.857  1.00  0.00     0.000 C 
ENDROOT
BRANCH   1   2
ATOM      2  C   UNL     1      29.446  27.583 -16.669  1.00  0.00     0.006 C 
BRANCH   2   3
ATOM      3  C   UNL     1      28.006  28.105 -16.767  1.00  0.00     0.053 C 
BRANCH   3   4
ATOM      4  C   UNL     1      27.970  29.398 -17.520  1.00  0.00     0.041 C 
ATOM      5  O   UNL     1      28.968  29.768 -18.191  1.00  0.00    -0.550 OA
ATOM      6  O   UNL     1      26.815  30.170 -17.519  1.00  0.00    -0.550 OA
ENDBRANCH   3   4
ENDBRANCH   2   3
ENDBRANCH   1   2
BRANCH   1   7
ATOM      7  C   UNL     1      28.164  25.372 -16.786  1.00  0.00     0.000 C 
BRANCH   7   8
ATOM      8  C   UNL     1      27.843  24.652 -18.101  1.00  0.00    -0.000 C 
BRANCH   8   9
ATOM      9  C   UNL     1      26.355  24.778 -18.448  1.00  0.00    -0.000 C 
BRANCH   9  10
ATOM     10  C   UNL     1      26.151  24.904 -19.962  1.00  0.00    -0.003 C 
ATOM     11  C   UNL     1      26.998  23.886 -20.719  1.00  0.00     0.004 C 
ENDBRANCH   9  10
ENDBRANCH   8   9
ENDBRANCH   7   8
ENDBRANCH   1   7
TORSDOF 7
ENDMDL
MODEL 4
REMARK VINA RESULT:    -3.801      2.875      5.106
REMARK INTER + INTRA:          -5.684
REMARK INTER:                  -5.188
REMARK INTRA:                  -0.495
REMARK UNBOUND:                -0.327
REMARK SMILES CCCCCCCCC(=O)[O-]
REMARK SMILES IDX 6 1 7 2 8 3 9 4 10 5 11 6 5 7 4 8 3 9 2 10 1 11
REMARK H PARENT
REMARK Flexibility Score: inf
ROOT
ATOM      1  C   UNL     1      28.292  27.818 -16.524  1.00  0.00     0.000 C 
ENDROOT
BRANCH   1   2
ATOM      2  C   UNL     1      28.294  29.065 -17.422  1.00  0.00     0.006 C 
BRANCH   2   3
ATOM      3  C   UNL     1      26.883  29.489 -17.847  1.00  0.00     0.053 C 
BRANCH   3   4
ATOM      4  C   UNL     1      26.952  30.534 -18.916  1.00  0.00     0.041 C 
ATOM      5  O   UNL     1      26.050  31.409 -19.006  1.00  0.00    -0.550 OA
ATOM      6  O   UNL     1      28.037  30.573 -19.782  1.00  0.00    -0.550 OA
ENDBRANCH   3   4
ENDBRANCH   2   3
ENDBRANCH   1   2
BRANCH   1   7
ATOM      7  C   UNL     1      29.151  26.678 -17.093  1.00  0.00     0.000 C 
BRANCH   7   8
ATOM      8  C   UNL     1      28.438  25.329 -16.946  1.00  0.00    -0.000 C 
BRANCH   8   9
ATOM      9  C   UNL     1      26.916  25.498 -17.039  1.00  0.00    -0.000 C 
BRANCH   9  10
ATOM     10  C   UNL     1      26.415  25.207 -18.458  1.00  0.00    -0.003 C 
ATOM     11  C   UNL     1      27.198  24.064 -19.096  1.00  0.00     0.004 C 
ENDBRANCH   9  10
ENDBRANCH   8   9
ENDBRANCH   7   8
ENDBRANCH   1   7
TORSDOF 7
ENDMDL
MODEL 5
REMARK VINA RESULT:    -3.757      1.543      2.510
REMARK INTER + INTRA:          -5.622
REMARK INTER:                  -5.098
REMARK INTRA:                  -0.524
REMARK UNBOUND:                -0.327
REMARK SMILES CCCCCCCCC(=O)[O-]
REMARK SMILES IDX 6 1 7 2 8 3 9 4 10 5 11 6 5 7 4 8 3 9 2 10 1 11
REMARK H PARENT
REMARK Flexibility Score: inf
ROOT
ATOM      1  C   UNL     1      27.121  25.217 -16.189  1.00  0.00     0.000 C 
ENDROOT
BRANCH   1   2
ATOM      2  C   UNL     1      26.905  25.405 -17.698  1.00  0.00     0.006 C 
BRANCH   2   3
ATOM      3  C   UNL     1      27.292  24.161 -18.509  1.00  0.00     0.053 C 
BRANCH   3   4
ATOM      4  C   UNL     1      26.809  24.288 -19.920  1.00  0.00     0.041 C 
ATOM      5  O   UNL     1      27.292  23.555 -20.823  1.00  0.00    -0.550 OA
ATOM      6  O   UNL     1      25.791  25.181 -20.230  1.00  0.00    -0.550 OA
ENDBRANCH   3   4
ENDBRANCH   2   3
ENDBRANCH   1   2
BRANCH   1   7
ATOM      7  C   UNL     1      27.951  26.350 -15.564  1.00  0.00     0.000 C 
BRANCH   7   8
ATOM      8  C   UNL     1      28.003  27.568 -16.494  1.00  0.00    -0.000 C 
BRANCH   8   9
ATOM      9  C   UNL     1      29.451  27.929 -16.847  1.00  0.00    -0.000 C 
BRANCH   9  10
ATOM     10  C   UNL     1      30.440  27.003 -16.130  1.00  0.00    -0.003 C 
ATOM     11  C   UNL     1      31.293  26.228 -17.130  1.00  0.00     0.004 C 
ENDBRANCH   9  10
ENDBRANCH   8   9
ENDBRANCH   7   8
ENDBRANCH   1   7
TORSDOF 7
ENDMDL
MODEL 6
REMARK VINA RESULT:    -3.687      1.715      2.982
REMARK INTER + INTRA:          -5.523
REMARK INTER:                  -4.834
REMARK INTRA:                  -0.689
REMARK UNBOUND:                -0.327
REMARK SMILES CCCCCCCCC(=O)[O-]
REMARK SMILES IDX 6 1 7 2 8 3 9 4 10 5 11 6 5 7 4 8 3 9 2 10 1 11
REMARK H PARENT
REMARK Flexibility Score: inf
ROOT
ATOM      1  C   UNL     1      27.831  26.414 -15.740  1.00  0.00     0.000 C 
ENDROOT
BRANCH   1   2
ATOM      2  C   UNL     1      27.217  25.166 -16.392  1.00  0.00     0.006 C 
BRANCH   2   3
ATOM      3  C   UNL     1      27.886  24.807 -17.725  1.00  0.00     0.053 C 
BRANCH   3   4
ATOM      4  C   UNL     1      26.852  24.479 -18.756  1.00  0.00     0.041 C 
ATOM      5  O   UNL     1      27.134  23.713 -19.715  1.00  0.00    -0.550 OA
ATOM      6  O   UNL     1      25.562  24.979 -18.630  1.00  0.00    -0.550 OA
ENDBRANCH   3   4
ENDBRANCH   2   3
ENDBRANCH   1   2
BRANCH   1   7
ATOM      7  C   UNL     1      28.151  27.519 -16.760  1.00  0.00     0.000 C 
BRANCH   7   8
ATOM      8  C   UNL     1      29.624  27.934 -16.675  1.00  0.00    -0.000 C 
BRANCH   8   9
ATOM      9  C   UNL     1      30.325  27.239 -15.500  1.00  0.00    -0.000 C 
BRANCH   9  10
ATOM     10  C   UNL     1      31.616  26.552 -15.958  1.00  0.00    -0.003 C 
ATOM     11  C   UNL     1      31.521  26.114 -17.416  1.00  0.00     0.004 C 
ENDBRANCH   9  10
ENDBRANCH   8   9
ENDBRANCH   7   8
ENDBRANCH   1   7
TORSDOF 7
ENDMDL
MODEL 7
REMARK VINA RESULT:    -3.685      2.703      4.859
REMARK INTER + INTRA:          -5.520
REMARK INTER:                  -4.969
REMARK INTRA:                  -0.550
REMARK UNBOUND:                -0.327
REMARK SMILES CCCCCCCCC(=O)[O-]
REMARK SMILES IDX 6 1 7 2 8 3 9 4 10 5 11 6 5 7 4 8 3 9 2 10 1 11
REMARK H PARENT
REMARK Flexibility Score: inf
ROOT
ATOM      1  C   UNL     1      29.660  25.130 -17.115  1.00  0.00     0.000 C 
ENDROOT
BRANCH   1   2
ATOM      2  C   UNL     1      28.315  25.398 -16.422  1.00  0.00     0.006 C 
BRANCH   2   3
ATOM      3  C   UNL     1      28.277  26.758 -15.712  1.00  0.00     0.053 C 
BRANCH   3   4
ATOM      4  C   UNL     1      28.333  27.870 -16.712  1.00  0.00     0.041 C 
ATOM      5  O   UNL     1      27.302  28.193 -17.359  1.00  0.00    -0.550 OA
ATOM      6  O   UNL     1      29.511  28.582 -16.895  1.00  0.00    -0.550 OA
ENDBRANCH   3   4
ENDBRANCH   2   3
ENDBRANCH   1   2
BRANCH   1   7
ATOM      7  C   UNL     1      29.526  24.193 -18.326  1.00  0.00     0.000 C 
BRANCH   7   8
ATOM      8  C   UNL     1      28.071  23.748 -18.516  1.00  0.00    -0.000 C 
BRANCH   8   9
ATOM      9  C   UNL     1      27.735  23.586 -20.004  1.00  0.00    -0.000 C 
BRANCH   9  10
ATOM     10  C   UNL     1      26.520  24.437 -20.389  1.00  0.00    -0.003 C 
ATOM     11  C   UNL     1      25.918  25.125 -19.168  1.00  0.00     0.004 C 
ENDBRANCH   9  10
ENDBRANCH   8   9
ENDBRANCH   7   8
ENDBRANCH   1   7
TORSDOF 7
ENDMDL
MODEL 8
REMARK VINA RESULT:    -3.551      1.755      2.496
REMARK INTER + INTRA:          -5.332
REMARK INTER:                  -4.558
REMARK INTRA:                  -0.774
REMARK UNBOUND:                -0.327
REMARK SMILES CCCCCCCCC(=O)[O-]
REMARK SMILES IDX 6 1 7 2 8 3 9 4 10 5 11 6 5 7 4 8 3 9 2 10 1 11
REMARK H PARENT
REMARK Flexibility Score: inf
ROOT
ATOM      1  C   UNL     1      30.577  24.775 -17.080  1.00  0.00     0.000 C 
ENDROOT
BRANCH   1   2
ATOM      2  C   UNL     1      29.616  24.455 -18.235  1.00  0.00     0.006 C 
BRANCH   2   3
ATOM      3  C   UNL     1      28.266  23.912 -17.747  1.00  0.00     0.053 C 
BRANCH   3   4
ATOM      4  C   UNL     1      27.207  24.146 -18.778  1.00  0.00     0.041 C 
ATOM      5  O   UNL     1      27.318  23.640 -19.926  1.00  0.00    -0.550 OA
ATOM      6  O   UNL     1      26.074  24.882 -18.456  1.00  0.00    -0.550 OA
ENDBRANCH   3   4
ENDBRANCH   2   3
ENDBRANCH   1   2
BRANCH   1   7
ATOM      7  C   UNL     1      31.114  26.214 -17.137  1.00  0.00     0.000 C 
BRANCH   7   8
ATOM      8  C   UNL     1      30.418  27.100 -16.097  1.00  0.00    -0.000 C 
BRANCH   8   9
ATOM      9  C   UNL     1      29.390  28.024 -16.762  1.00  0.00    -0.000 C 
BRANCH   9  10
ATOM     10  C   UNL     1      27.973  27.453 -16.636  1.00  0.00    -0.003 C 
ATOM     11  C   UNL     1      27.818  26.639 -15.355  1.00  0.00     0.004 C 
ENDBRANCH   9  10
ENDBRANCH   8   9
ENDBRANCH   7   8
ENDBRANCH   1   7
TORSDOF 7
ENDMDL
MODEL 9
REMARK VINA RESULT:    -3.538      3.137      4.885
REMARK INTER + INTRA:          -5.313
REMARK INTER:                  -4.716
REMARK INTRA:                  -0.597
REMARK UNBOUND:                -0.327
REMARK SMILES CCCCCCCCC(=O)[O-]
REMARK SMILES IDX 6 1 7 2 8 3 9 4 10 5 11 6 5 7 4 8 3 9 2 10 1 11
REMARK H PARENT
REMARK Flexibility Score: inf
ROOT
ATOM      1  C   UNL     1      29.097  26.382 -16.831  1.00  0.00     0.000 C 
ENDROOT
BRANCH   1   2
ATOM      2  C   UNL     1      27.653  26.465 -16.311  1.00  0.00     0.006 C 
BRANCH   2   3
ATOM      3  C   UNL     1      27.562  26.290 -14.790  1.00  0.00     0.053 C 
BRANCH   3   4
ATOM      4  C   UNL     1      26.595  25.200 -14.448  1.00  0.00     0.041 C 
ATOM      5  O   UNL     1      25.785  24.777 -15.314  1.00  0.00    -0.550 OA
ATOM      6  O   UNL     1      26.621  24.618 -13.187  1.00  0.00    -0.550 OA
ENDBRANCH   3   4
ENDBRANCH   2   3
ENDBRANCH   1   2
BRANCH   1   7
ATOM      7  C   UNL     1      29.465  24.977 -17.332  1.00  0.00     0.000 C 
BRANCH   7   8
ATOM      8  C   UNL     1      28.225  24.234 -17.843  1.00  0.00    -0.000 C 
BRANCH   8   9
ATOM      9  C   UNL     1      28.277  24.059 -19.366  1.00  0.00    -0.000 C 
BRANCH   9  10
ATOM     10  C   UNL     1      26.867  24.036 -19.966  1.00  0.00    -0.003 C 
ATOM     11  C   UNL     1      25.996  25.138 -19.371  1.00  0.00     0.004 C 
ENDBRANCH   9  10
ENDBRANCH   8   9
ENDBRANCH   7   8
ENDBRANCH   1   7
TORSDOF 7
ENDMDL
