MODEL 1
REMARK VINA RESULT:    -5.463      0.000      0.000
REMARK INTER + INTRA:          -6.715
REMARK INTER:                  -6.421
REMARK INTRA:                  -0.294
REMARK UNBOUND:                -0.294
REMARK SMILES O=c1c(O)c(-c2ccc(O)cc2)oc2cc(O)cc(O)c12
REMARK SMILES IDX 5 1 3 2 2 3 1 4 21 5 19 6 18 7 16 8 15 9 14 10 13 11 6 12
REMARK SMILES IDX 7 13 8 14 9 15 12 16 11 17 10 18 4 20 20 22 17 24
REMARK H PARENT 10 19 4 21 20 23 17 25
REMARK Flexibility Score: inf
ROOT
ATOM      1  C   UNL     1      -5.595  -9.484   8.051  1.00  0.00     0.180 A 
ATOM      2  C   UNL     1      -4.849 -10.348   7.231  1.00  0.00     0.208 A 
ATOM      3  C   UNL     1      -3.453 -10.389   7.377  1.00  0.00     0.238 A 
ATOM      4  O   UNL     1      -2.786 -11.125   6.605  1.00  0.00    -0.285 OA
ATOM      5  C   UNL     1      -2.823  -9.578   8.352  1.00  0.00     0.111 A 
ATOM      6  C   UNL     1      -1.420  -9.569   8.614  1.00  0.00     0.134 A 
ATOM      7  C   UNL     1      -0.891  -8.631   9.509  1.00  0.00     0.093 A 
ATOM      8  C   UNL     1      -1.722  -7.746  10.201  1.00  0.00     0.123 A 
ATOM      9  C   UNL     1      -3.098  -7.788   9.996  1.00  0.00     0.094 A 
ATOM     10  C   UNL     1      -3.653  -8.688   9.082  1.00  0.00     0.146 A 
ATOM     11  O   UNL     1      -4.969  -8.687   8.909  1.00  0.00    -0.452 OA
ENDROOT
BRANCH   1  12
ATOM     12  C   UNL     1      -7.071  -9.404   7.973  1.00  0.00     0.021 A 
ATOM     13  C   UNL     1      -7.894 -10.201   8.791  1.00  0.00     0.016 A 
ATOM     14  C   UNL     1      -9.285 -10.089   8.715  1.00  0.00     0.047 A 
ATOM     15  C   UNL     1      -9.873  -9.173   7.834  1.00  0.00     0.115 A 
ATOM     16  C   UNL     1      -7.669  -8.472   7.106  1.00  0.00     0.016 A 
ATOM     17  C   UNL     1      -9.061  -8.365   7.033  1.00  0.00     0.047 A 
BRANCH  15  18
ATOM     18  O   UNL     1     -11.258  -9.055   7.750  1.00  0.00    -0.508 OA
ATOM     19  H   UNL     1     -11.777  -9.449   6.973  1.00  0.00     0.293 HD
ENDBRANCH  15  18
ENDBRANCH   1  12
BRANCH   2  20
ATOM     20  O   UNL     1      -5.489 -11.125   6.261  1.00  0.00    -0.502 OA
ATOM     21  H   UNL     1      -5.067 -11.955   5.863  1.00  0.00     0.293 HD
ENDBRANCH   2  20
BRANCH   6  22
ATOM     22  O   UNL     1      -0.514 -10.470   8.046  1.00  0.00    -0.507 OA
ATOM     23  H   UNL     1       0.451 -10.260   7.837  1.00  0.00     0.293 HD
ENDBRANCH   6  22
BRANCH   8  24
ATOM     24  O   UNL     1      -1.189  -6.827  11.101  1.00  0.00    -0.508 OA
ATOM     25  H   UNL     1      -0.465  -7.089  11.761  1.00  0.00     0.293 HD
ENDBRANCH   8  24
TORSDOF 5
ENDMDL
MODEL 2
REMARK VINA RESULT:    -5.179      1.487      3.205
REMARK INTER + INTRA:          -6.382
REMARK INTER:                  -6.088
REMARK INTRA:                  -0.294
REMARK UNBOUND:                -0.294
REMARK SMILES O=c1c(O)c(-c2ccc(O)cc2)oc2cc(O)cc(O)c12
REMARK SMILES IDX 5 1 3 2 2 3 1 4 21 5 19 6 18 7 16 8 15 9 14 10 13 11 6 12
REMARK SMILES IDX 7 13 8 14 9 15 12 16 11 17 10 18 4 20 20 22 17 24
REMARK H PARENT 10 19 4 21 20 23 17 25
REMARK Flexibility Score: inf
ROOT
ATOM      1  C   UNL     1      -4.919  -9.500   8.382  1.00  0.00     0.180 A 
ATOM      2  C   UNL     1      -4.380  -8.786   9.466  1.00  0.00     0.208 A 
ATOM      3  C   UNL     1      -2.988  -8.615   9.544  1.00  0.00     0.238 A 
ATOM      4  O   UNL     1      -2.508  -8.021  10.543  1.00  0.00    -0.285 OA
ATOM      5  C   UNL     1      -2.156  -9.146   8.529  1.00  0.00     0.111 A 
ATOM      6  C   UNL     1      -0.737  -8.998   8.486  1.00  0.00     0.134 A 
ATOM      7  C   UNL     1      -0.001  -9.677   7.506  1.00  0.00     0.093 A 
ATOM      8  C   UNL     1      -0.640 -10.445   6.529  1.00  0.00     0.123 A 
ATOM      9  C   UNL     1      -2.028 -10.546   6.528  1.00  0.00     0.094 A 
ATOM     10  C   UNL     1      -2.787  -9.910   7.514  1.00  0.00     0.146 A 
ATOM     11  O   UNL     1      -4.107 -10.042   7.482  1.00  0.00    -0.452 OA
ENDROOT
BRANCH   1  12
ATOM     12  C   UNL     1      -6.378  -9.699   8.218  1.00  0.00     0.021 A 
ATOM     13  C   UNL     1      -7.185  -8.728   7.596  1.00  0.00     0.016 A 
ATOM     14  C   UNL     1      -8.556  -8.951   7.432  1.00  0.00     0.047 A 
ATOM     15  C   UNL     1      -9.134 -10.149   7.871  1.00  0.00     0.115 A 
ATOM     16  C   UNL     1      -6.962 -10.907   8.637  1.00  0.00     0.016 A 
ATOM     17  C   UNL     1      -8.333 -11.125   8.471  1.00  0.00     0.047 A 
BRANCH  15  18
ATOM     18  O   UNL     1     -10.499 -10.380   7.713  1.00  0.00    -0.508 OA
ATOM     19  H   UNL     1     -11.189  -9.851   8.234  1.00  0.00     0.293 HD
ENDBRANCH  15  18
ENDBRANCH   1  12
BRANCH   2  20
ATOM     20  O   UNL     1      -5.218  -8.288  10.467  1.00  0.00    -0.502 OA
ATOM     21  H   UNL     1      -4.873  -7.729  11.238  1.00  0.00     0.293 HD
ENDBRANCH   2  20
BRANCH   6  22
ATOM     22  O   UNL     1      -0.010  -8.182   9.359  1.00  0.00    -0.507 OA
ATOM     23  H   UNL     1       0.759  -8.494   9.931  1.00  0.00     0.293 HD
ENDBRANCH   6  22
BRANCH   8  24
ATOM     24  O   UNL     1       0.099 -11.103   5.549  1.00  0.00    -0.508 OA
ATOM     25  H   UNL     1       1.052 -10.836   5.334  1.00  0.00     0.293 HD
ENDBRANCH   8  24
TORSDOF 5
ENDMDL
MODEL 3
REMARK VINA RESULT:    -5.098      1.999      6.718
REMARK INTER + INTRA:          -6.286
REMARK INTER:                  -6.187
REMARK INTRA:                  -0.099
REMARK UNBOUND:                -0.294
REMARK SMILES O=c1c(O)c(-c2ccc(O)cc2)oc2cc(O)cc(O)c12
REMARK SMILES IDX 5 1 3 2 2 3 1 4 21 5 19 6 18 7 16 8 15 9 14 10 13 11 6 12
REMARK SMILES IDX 7 13 8 14 9 15 12 16 11 17 10 18 4 20 20 22 17 24
REMARK H PARENT 10 19 4 21 20 23 17 25
REMARK Flexibility Score: inf
ROOT
ATOM      1  C   UNL     1      -4.348 -10.070   8.181  1.00  0.00     0.180 A 
ATOM      2  C   UNL     1      -4.654 -10.560   9.463  1.00  0.00     0.208 A 
ATOM      3  C   UNL     1      -5.968 -10.436   9.943  1.00  0.00     0.238 A 
ATOM      4  O   UNL     1      -6.224 -10.828  11.111  1.00  0.00    -0.285 OA
ATOM      5  C   UNL     1      -6.962  -9.841   9.129  1.00  0.00     0.111 A 
ATOM      6  C   UNL     1      -8.333  -9.700   9.498  1.00  0.00     0.134 A 
ATOM      7  C   UNL     1      -9.201  -8.977   8.670  1.00  0.00     0.093 A 
ATOM      8  C   UNL     1      -8.761  -8.446   7.454  1.00  0.00     0.123 A 
ATOM      9  C   UNL     1      -7.439  -8.629   7.059  1.00  0.00     0.094 A 
ATOM     10  C   UNL     1      -6.540  -9.315   7.881  1.00  0.00     0.146 A 
ATOM     11  O   UNL     1      -5.286  -9.457   7.470  1.00  0.00    -0.452 OA
ENDROOT
BRANCH   1  12
ATOM     12  C   UNL     1      -2.992 -10.187   7.597  1.00  0.00     0.021 A 
ATOM     13  C   UNL     1      -1.880  -9.564   8.194  1.00  0.00     0.016 A 
ATOM     14  C   UNL     1      -0.606  -9.710   7.636  1.00  0.00     0.047 A 
ATOM     15  C   UNL     1      -0.424 -10.488   6.486  1.00  0.00     0.115 A 
ATOM     16  C   UNL     1      -2.797 -10.984   6.455  1.00  0.00     0.016 A 
ATOM     17  C   UNL     1      -1.522 -11.125   5.900  1.00  0.00     0.047 A 
BRANCH  15  18
ATOM     18  O   UNL     1       0.841 -10.638   5.922  1.00  0.00    -0.508 OA
ATOM     19  H   UNL     1       1.383 -11.484   6.056  1.00  0.00     0.293 HD
ENDBRANCH  15  18
ENDBRANCH   1  12
BRANCH   2  20
ATOM     20  O   UNL     1      -3.653 -11.125  10.258  1.00  0.00    -0.502 OA
ATOM     21  H   UNL     1      -2.668 -10.948  10.101  1.00  0.00     0.293 HD
ENDBRANCH   2  20
BRANCH   6  22
ATOM     22  O   UNL     1      -8.896 -10.270  10.645  1.00  0.00    -0.507 OA
ATOM     23  H   UNL     1      -9.749 -10.807  10.659  1.00  0.00     0.293 HD
ENDBRANCH   6  22
BRANCH   8  24
ATOM     24  O   UNL     1      -9.634  -7.742   6.629  1.00  0.00    -0.508 OA
ATOM     25  H   UNL     1      -9.836  -8.050   5.685  1.00  0.00     0.293 HD
ENDBRANCH   8  24
TORSDOF 5
ENDMDL
MODEL 4
REMARK VINA RESULT:    -5.030      3.547      8.223
REMARK INTER + INTRA:          -6.207
REMARK INTER:                  -5.923
REMARK INTRA:                  -0.283
REMARK UNBOUND:                -0.294
REMARK SMILES O=c1c(O)c(-c2ccc(O)cc2)oc2cc(O)cc(O)c12
REMARK SMILES IDX 5 1 3 2 2 3 1 4 21 5 19 6 18 7 16 8 15 9 14 10 13 11 6 12
REMARK SMILES IDX 7 13 8 14 9 15 12 16 11 17 10 18 4 20 20 22 17 24
REMARK H PARENT 10 19 4 21 20 23 17 25
REMARK Flexibility Score: inf
ROOT
ATOM      1  C   UNL     1      -0.139  -7.165   9.212  1.00  0.00     0.180 A 
ATOM      2  C   UNL     1      -1.288  -7.142  10.021  1.00  0.00     0.208 A 
ATOM      3  C   UNL     1      -2.360  -7.993   9.706  1.00  0.00     0.238 A 
ATOM      4  O   UNL     1      -3.406  -7.930  10.402  1.00  0.00    -0.285 OA
ATOM      5  C   UNL     1      -2.262  -8.867   8.596  1.00  0.00     0.111 A 
ATOM      6  C   UNL     1      -3.270  -9.800   8.209  1.00  0.00     0.134 A 
ATOM      7  C   UNL     1      -3.122 -10.522   7.018  1.00  0.00     0.093 A 
ATOM      8  C   UNL     1      -1.973 -10.392   6.234  1.00  0.00     0.123 A 
ATOM      9  C   UNL     1      -0.957  -9.528   6.636  1.00  0.00     0.094 A 
ATOM     10  C   UNL     1      -1.092  -8.767   7.801  1.00  0.00     0.146 A 
ATOM     11  O   UNL     1      -0.104  -7.948   8.140  1.00  0.00    -0.452 OA
ENDROOT
BRANCH   1  12
ATOM     12  C   UNL     1       1.041  -6.316   9.496  1.00  0.00     0.021 A 
ATOM     13  C   UNL     1       2.001  -6.690  10.455  1.00  0.00     0.016 A 
ATOM     14  C   UNL     1       3.119  -5.883  10.687  1.00  0.00     0.047 A 
ATOM     15  C   UNL     1       3.300  -4.701   9.957  1.00  0.00     0.115 A 
ATOM     16  C   UNL     1       1.241  -5.139   8.753  1.00  0.00     0.016 A 
ATOM     17  C   UNL     1       2.359  -4.334   8.989  1.00  0.00     0.047 A 
BRANCH  15  18
ATOM     18  O   UNL     1       4.409  -3.889  10.181  1.00  0.00    -0.508 OA
ATOM     19  H   UNL     1       4.351  -3.066  10.770  1.00  0.00     0.293 HD
ENDBRANCH  15  18
ENDBRANCH   1  12
BRANCH   2  20
ATOM     20  O   UNL     1      -1.372  -6.257  11.099  1.00  0.00    -0.502 OA
ATOM     21  H   UNL     1      -0.585  -6.061  11.706  1.00  0.00     0.293 HD
ENDBRANCH   2  20
BRANCH   6  22
ATOM     22  O   UNL     1      -4.413 -10.074   8.967  1.00  0.00    -0.507 OA
ATOM     23  H   UNL     1      -4.643  -9.627   9.842  1.00  0.00     0.293 HD
ENDBRANCH   6  22
BRANCH   8  24
ATOM     24  O   UNL     1      -1.827 -11.124   5.059  1.00  0.00    -0.508 OA
ATOM     25  H   UNL     1      -0.935 -11.193   4.584  1.00  0.00     0.293 HD
ENDBRANCH   8  24
TORSDOF 5
ENDMDL
MODEL 5
REMARK VINA RESULT:    -4.907      2.767      4.804
REMARK INTER + INTRA:          -6.062
REMARK INTER:                  -5.817
REMARK INTRA:                  -0.245
REMARK UNBOUND:                -0.294
REMARK SMILES O=c1c(O)c(-c2ccc(O)cc2)oc2cc(O)cc(O)c12
REMARK SMILES IDX 5 1 3 2 2 3 1 4 21 5 19 6 18 7 16 8 15 9 14 10 13 11 6 12
REMARK SMILES IDX 7 13 8 14 9 15 12 16 11 17 10 18 4 20 20 22 17 24
REMARK H PARENT 10 19 4 21 20 23 17 25
REMARK Flexibility Score: inf
ROOT
ATOM      1  C   UNL     1      -1.412  -8.997   8.679  1.00  0.00     0.180 A 
ATOM      2  C   UNL     1      -0.491  -9.766   9.411  1.00  0.00     0.208 A 
ATOM      3  C   UNL     1       0.692  -9.160   9.865  1.00  0.00     0.238 A 
ATOM      4  O   UNL     1       1.537  -9.866  10.473  1.00  0.00    -0.285 OA
ATOM      5  C   UNL     1       0.930  -7.790   9.597  1.00  0.00     0.111 A 
ATOM      6  C   UNL     1       2.075  -7.065  10.043  1.00  0.00     0.134 A 
ATOM      7  C   UNL     1       2.271  -5.748   9.608  1.00  0.00     0.093 A 
ATOM      8  C   UNL     1       1.330  -5.110   8.795  1.00  0.00     0.123 A 
ATOM      9  C   UNL     1       0.181  -5.791   8.403  1.00  0.00     0.094 A 
ATOM     10  C   UNL     1      -0.025  -7.118   8.792  1.00  0.00     0.146 A 
ATOM     11  O   UNL     1      -1.129  -7.733   8.387  1.00  0.00    -0.452 OA
ENDROOT
BRANCH   1  12
ATOM     12  C   UNL     1      -2.692  -9.559   8.189  1.00  0.00     0.021 A 
ATOM     13  C   UNL     1      -3.913  -9.266   8.825  1.00  0.00     0.016 A 
ATOM     14  C   UNL     1      -5.111  -9.789   8.328  1.00  0.00     0.047 A 
ATOM     15  C   UNL     1      -5.107 -10.597   7.184  1.00  0.00     0.115 A 
ATOM     16  C   UNL     1      -2.700 -10.354   7.030  1.00  0.00     0.016 A 
ATOM     17  C   UNL     1      -3.899 -10.876   6.537  1.00  0.00     0.047 A 
BRANCH  15  18
ATOM     18  O   UNL     1      -6.294 -11.125   6.682  1.00  0.00    -0.508 OA
ATOM     19  H   UNL     1      -7.070 -10.527   6.420  1.00  0.00     0.293 HD
ENDBRANCH  15  18
ENDBRANCH   1  12
BRANCH   2  20
ATOM     20  O   UNL     1      -0.735 -11.121   9.647  1.00  0.00    -0.502 OA
ATOM     21  H   UNL     1      -0.818 -11.505  10.581  1.00  0.00     0.293 HD
ENDBRANCH   2  20
BRANCH   6  22
ATOM     22  O   UNL     1       3.028  -7.577  10.930  1.00  0.00    -0.507 OA
ATOM     23  H   UNL     1       3.902  -7.128  11.156  1.00  0.00     0.293 HD
ENDBRANCH   6  22
BRANCH   8  24
ATOM     24  O   UNL     1       1.526  -3.796   8.379  1.00  0.00    -0.508 OA
ATOM     25  H   UNL     1       1.401  -3.015   9.013  1.00  0.00     0.293 HD
ENDBRANCH   8  24
TORSDOF 5
ENDMDL
MODEL 6
REMARK VINA RESULT:    -4.905     16.607     17.557
REMARK INTER + INTRA:          -6.060
REMARK INTER:                  -5.899
REMARK INTRA:                  -0.161
REMARK UNBOUND:                -0.294
REMARK SMILES O=c1c(O)c(-c2ccc(O)cc2)oc2cc(O)cc(O)c12
REMARK SMILES IDX 5 1 3 2 2 3 1 4 21 5 19 6 18 7 16 8 15 9 14 10 13 11 6 12
REMARK SMILES IDX 7 13 8 14 9 15 12 16 11 17 10 18 4 20 20 22 17 24
REMARK H PARENT 10 19 4 21 20 23 17 25
REMARK Flexibility Score: inf
ROOT
ATOM      1  C   UNL     1       2.398  -2.632  -5.287  1.00  0.00     0.180 A 
ATOM      2  C   UNL     1       1.198  -1.932  -5.075  1.00  0.00     0.208 A 
ATOM      3  C   UNL     1       1.242  -0.688  -4.424  1.00  0.00     0.238 A 
ATOM      4  O   UNL     1       0.159  -0.091  -4.189  1.00  0.00    -0.285 OA
ATOM      5  C   UNL     1       2.486  -0.153  -4.010  1.00  0.00     0.111 A 
ATOM      6  C   UNL     1       2.651   1.117  -3.379  1.00  0.00     0.134 A 
ATOM      7  C   UNL     1       3.911   1.487  -2.894  1.00  0.00     0.093 A 
ATOM      8  C   UNL     1       5.025   0.662  -3.075  1.00  0.00     0.123 A 
ATOM      9  C   UNL     1       4.884  -0.551  -3.743  1.00  0.00     0.094 A 
ATOM     10  C   UNL     1       3.632  -0.965  -4.207  1.00  0.00     0.146 A 
ATOM     11  O   UNL     1       3.540  -2.134  -4.828  1.00  0.00    -0.452 OA
ENDROOT
BRANCH   1  12
ATOM     12  C   UNL     1       2.436  -3.936  -5.988  1.00  0.00     0.021 A 
ATOM     13  C   UNL     1       2.071  -4.053  -7.342  1.00  0.00     0.016 A 
ATOM     14  C   UNL     1       2.138  -5.291  -7.987  1.00  0.00     0.047 A 
ATOM     15  C   UNL     1       2.583  -6.424  -7.295  1.00  0.00     0.115 A 
ATOM     16  C   UNL     1       2.901  -5.074  -5.306  1.00  0.00     0.016 A 
ATOM     17  C   UNL     1       2.965  -6.311  -5.955  1.00  0.00     0.047 A 
BRANCH  15  18
ATOM     18  O   UNL     1       2.652  -7.663  -7.928  1.00  0.00    -0.508 OA
ATOM     19  H   UNL     1       3.400  -7.886  -8.574  1.00  0.00     0.293 HD
ENDBRANCH  15  18
ENDBRANCH   1  12
BRANCH   2  20
ATOM     20  O   UNL     1      -0.021  -2.488  -5.473  1.00  0.00    -0.502 OA
ATOM     21  H   UNL     1      -0.078  -3.323  -6.043  1.00  0.00     0.293 HD
ENDBRANCH   2  20
BRANCH   6  22
ATOM     22  O   UNL     1       1.624   2.054  -3.230  1.00  0.00    -0.507 OA
ATOM     23  H   UNL     1       0.780   2.074  -3.781  1.00  0.00     0.293 HD
ENDBRANCH   6  22
BRANCH   8  24
ATOM     24  O   UNL     1       6.277   1.046  -2.603  1.00  0.00    -0.508 OA
ATOM     25  H   UNL     1       6.529   0.946  -1.626  1.00  0.00     0.293 HD
ENDBRANCH   8  24
TORSDOF 5
ENDMDL
MODEL 7
REMARK VINA RESULT:    -4.857      2.045      6.798
REMARK INTER + INTRA:          -6.003
REMARK INTER:                  -5.908
REMARK INTRA:                  -0.095
REMARK UNBOUND:                -0.294
REMARK SMILES O=c1c(O)c(-c2ccc(O)cc2)oc2cc(O)cc(O)c12
REMARK SMILES IDX 5 1 3 2 2 3 1 4 21 5 19 6 18 7 16 8 15 9 14 10 13 11 6 12
REMARK SMILES IDX 7 13 8 14 9 15 12 16 11 17 10 18 4 20 20 22 17 24
REMARK H PARENT 10 19 4 21 20 23 17 25
REMARK Flexibility Score: inf
ROOT
ATOM      1  C   UNL     1      -2.018  -8.867   8.415  1.00  0.00     0.180 A 
ATOM      2  C   UNL     1      -2.187  -9.754   7.338  1.00  0.00     0.208 A 
ATOM      3  C   UNL     1      -3.461 -10.291   7.091  1.00  0.00     0.238 A 
ATOM      4  O   UNL     1      -3.595 -11.125   6.159  1.00  0.00    -0.285 OA
ATOM      5  C   UNL     1      -4.553  -9.920   7.913  1.00  0.00     0.111 A 
ATOM      6  C   UNL     1      -5.895 -10.371   7.729  1.00  0.00     0.134 A 
ATOM      7  C   UNL     1      -6.869 -10.045   8.681  1.00  0.00     0.093 A 
ATOM      8  C   UNL     1      -6.564  -9.230   9.775  1.00  0.00     0.123 A 
ATOM      9  C   UNL     1      -5.271  -8.737   9.929  1.00  0.00     0.094 A 
ATOM     10  C   UNL     1      -4.269  -9.074   9.016  1.00  0.00     0.146 A 
ATOM     11  O   UNL     1      -3.047  -8.591   9.207  1.00  0.00    -0.452 OA
ENDROOT
BRANCH   1  12
ATOM     12  C   UNL     1      -0.712  -8.241   8.722  1.00  0.00     0.021 A 
ATOM     13  C   UNL     1       0.410  -9.017   9.067  1.00  0.00     0.016 A 
ATOM     14  C   UNL     1       1.639  -8.404   9.329  1.00  0.00     0.047 A 
ATOM     15  C   UNL     1       1.767  -7.012   9.237  1.00  0.00     0.115 A 
ATOM     16  C   UNL     1      -0.570  -6.847   8.611  1.00  0.00     0.016 A 
ATOM     17  C   UNL     1       0.660  -6.238   8.875  1.00  0.00     0.047 A 
BRANCH  15  18
ATOM     18  O   UNL     1       2.986  -6.391   9.497  1.00  0.00    -0.508 OA
ATOM     19  H   UNL     1       3.069  -5.659  10.194  1.00  0.00     0.293 HD
ENDBRANCH  15  18
ENDBRANCH   1  12
BRANCH   2  20
ATOM     20  O   UNL     1      -1.092 -10.122   6.551  1.00  0.00    -0.502 OA
ATOM     21  H   UNL     1      -0.162 -10.244   6.935  1.00  0.00     0.293 HD
ENDBRANCH   2  20
BRANCH   6  22
ATOM     22  O   UNL     1      -6.325 -11.113   6.625  1.00  0.00    -0.507 OA
ATOM     23  H   UNL     1      -7.048 -11.815   6.651  1.00  0.00     0.293 HD
ENDBRANCH   6  22
BRANCH   8  24
ATOM     24  O   UNL     1      -7.543  -8.898  10.708  1.00  0.00    -0.508 OA
ATOM     25  H   UNL     1      -7.302  -8.516  11.616  1.00  0.00     0.293 HD
ENDBRANCH   8  24
TORSDOF 5
ENDMDL
MODEL 8
REMARK VINA RESULT:    -4.706     16.566     18.277
REMARK INTER + INTRA:          -5.825
REMARK INTER:                  -5.541
REMARK INTRA:                  -0.284
REMARK UNBOUND:                -0.294
REMARK SMILES O=c1c(O)c(-c2ccc(O)cc2)oc2cc(O)cc(O)c12
REMARK SMILES IDX 5 1 3 2 2 3 1 4 21 5 19 6 18 7 16 8 15 9 14 10 13 11 6 12
REMARK SMILES IDX 7 13 8 14 9 15 12 16 11 17 10 18 4 20 20 22 17 24
REMARK H PARENT 10 19 4 21 20 23 17 25
REMARK Flexibility Score: inf
ROOT
ATOM      1  C   UNL     1       1.750  -2.770  -6.118  1.00  0.00     0.180 A 
ATOM      2  C   UNL     1       0.444  -2.698  -6.633  1.00  0.00     0.208 A 
ATOM      3  C   UNL     1      -0.007  -3.716  -7.489  1.00  0.00     0.238 A 
ATOM      4  O   UNL     1      -1.158  -3.619  -7.989  1.00  0.00    -0.285 OA
ATOM      5  C   UNL     1       0.847  -4.800  -7.805  1.00  0.00     0.111 A 
ATOM      6  C   UNL     1       0.480  -5.906  -8.629  1.00  0.00     0.134 A 
ATOM      7  C   UNL     1       1.448  -6.855  -8.982  1.00  0.00     0.093 A 
ATOM      8  C   UNL     1       2.752  -6.773  -8.487  1.00  0.00     0.123 A 
ATOM      9  C   UNL     1       3.103  -5.730  -7.634  1.00  0.00     0.094 A 
ATOM     10  C   UNL     1       2.169  -4.747  -7.293  1.00  0.00     0.146 A 
ATOM     11  O   UNL     1       2.548  -3.764  -6.486  1.00  0.00    -0.452 OA
ENDROOT
BRANCH   1  12
ATOM     12  C   UNL     1       2.287  -1.748  -5.190  1.00  0.00     0.021 A 
ATOM     13  C   UNL     1       2.878  -0.563  -5.665  1.00  0.00     0.016 A 
ATOM     14  C   UNL     1       3.356   0.397  -4.768  1.00  0.00     0.047 A 
ATOM     15  C   UNL     1       3.238   0.193  -3.388  1.00  0.00     0.115 A 
ATOM     16  C   UNL     1       2.154  -1.936  -3.803  1.00  0.00     0.016 A 
ATOM     17  C   UNL     1       2.635  -0.974  -2.909  1.00  0.00     0.047 A 
BRANCH  15  18
ATOM     18  O   UNL     1       3.713   1.142  -2.485  1.00  0.00    -0.508 OA
ATOM     19  H   UNL     1       3.092   1.611  -1.835  1.00  0.00     0.293 HD
ENDBRANCH  15  18
ENDBRANCH   1  12
BRANCH   2  20
ATOM     20  O   UNL     1      -0.375  -1.608  -6.324  1.00  0.00    -0.502 OA
ATOM     21  H   UNL     1      -0.254  -0.698  -6.751  1.00  0.00     0.293 HD
ENDBRANCH   2  20
BRANCH   6  22
ATOM     22  O   UNL     1      -0.817  -6.132  -9.101  1.00  0.00    -0.507 OA
ATOM     23  H   UNL     1      -1.058  -6.795  -9.821  1.00  0.00     0.293 HD
ENDBRANCH   6  22
BRANCH   8  24
ATOM     24  O   UNL     1       3.704  -7.729  -8.831  1.00  0.00    -0.508 OA
ATOM     25  H   UNL     1       4.476  -7.511  -9.450  1.00  0.00     0.293 HD
ENDBRANCH   8  24
TORSDOF 5
ENDMDL
MODEL 9
REMARK VINA RESULT:    -4.633     11.750     13.564
REMARK INTER + INTRA:          -5.739
REMARK INTER:                  -5.879
REMARK INTRA:                   0.139
REMARK UNBOUND:                -0.294
REMARK SMILES O=c1c(O)c(-c2ccc(O)cc2)oc2cc(O)cc(O)c12
REMARK SMILES IDX 5 1 3 2 2 3 1 4 21 5 19 6 18 7 16 8 15 9 14 10 13 11 6 12
REMARK SMILES IDX 7 13 8 14 9 15 12 16 11 17 10 18 4 20 20 22 17 24
REMARK H PARENT 10 19 4 21 20 23 17 25
REMARK Flexibility Score: inf
ROOT
ATOM      1  C   UNL     1       5.055  -2.384   6.192  1.00  0.00     0.180 A 
ATOM      2  C   UNL     1       4.643  -2.602   7.518  1.00  0.00     0.208 A 
ATOM      3  C   UNL     1       4.733  -1.547   8.441  1.00  0.00     0.238 A 
ATOM      4  O   UNL     1       4.414  -1.763   9.638  1.00  0.00    -0.285 OA
ATOM      5  C   UNL     1       5.218  -0.284   8.021  1.00  0.00     0.111 A 
ATOM      6  C   UNL     1       5.313   0.866   8.862  1.00  0.00     0.134 A 
ATOM      7  C   UNL     1       5.930   2.026   8.376  1.00  0.00     0.093 A 
ATOM      8  C   UNL     1       6.395   2.098   7.061  1.00  0.00     0.123 A 
ATOM      9  C   UNL     1       6.252   1.001   6.216  1.00  0.00     0.094 A 
ATOM     10  C   UNL     1       5.673  -0.183   6.682  1.00  0.00     0.146 A 
ATOM     11  O   UNL     1       5.566  -1.209   5.846  1.00  0.00    -0.452 OA
ENDROOT
BRANCH   1  12
ATOM     12  C   UNL     1       4.966  -3.439   5.156  1.00  0.00     0.021 A 
ATOM     13  C   UNL     1       5.352  -4.766   5.425  1.00  0.00     0.016 A 
ATOM     14  C   UNL     1       5.236  -5.749   4.438  1.00  0.00     0.047 A 
ATOM     15  C   UNL     1       4.721  -5.425   3.177  1.00  0.00     0.115 A 
ATOM     16  C   UNL     1       4.431  -3.127   3.894  1.00  0.00     0.016 A 
ATOM     17  C   UNL     1       4.318  -4.113   2.910  1.00  0.00     0.047 A 
BRANCH  15  18
ATOM     18  O   UNL     1       4.603  -6.396   2.186  1.00  0.00    -0.508 OA
ATOM     19  H   UNL     1       5.263  -6.453   1.419  1.00  0.00     0.293 HD
ENDBRANCH  15  18
ENDBRANCH   1  12
BRANCH   2  20
ATOM     20  O   UNL     1       4.188  -3.862   7.915  1.00  0.00    -0.502 OA
ATOM     21  H   UNL     1       4.721  -4.709   7.755  1.00  0.00     0.293 HD
ENDBRANCH   2  20
BRANCH   6  22
ATOM     22  O   UNL     1       4.799   0.929  10.161  1.00  0.00    -0.507 OA
ATOM     23  H   UNL     1       3.817   0.917  10.390  1.00  0.00     0.293 HD
ENDBRANCH   6  22
BRANCH   8  24
ATOM     24  O   UNL     1       6.993   3.261   6.582  1.00  0.00    -0.508 OA
ATOM     25  H   UNL     1       7.681   3.236   5.838  1.00  0.00     0.293 HD
ENDBRANCH   8  24
TORSDOF 5
ENDMDL
