MODEL 1
REMARK VINA RESULT:    -2.717      0.000      0.000
REMARK INTER + INTRA:          -4.296
REMARK INTER:                  -3.908
REMARK INTRA:                  -0.388
REMARK UNBOUND:                -0.388
REMARK SMILES CCCCCCCCCO
REMARK SMILES IDX 6 1 5 2 4 3 3 4 2 5 1 6 7 7 8 8 9 9 10 10
REMARK H PARENT 10 11
REMARK Flexibility Score: inf
ROOT
ATOM      1  C   UNL     1     238.522 227.398 235.015  1.00  0.00     0.000 C 
ENDROOT
BRANCH   1   2
ATOM      2  C   UNL     1     237.200 226.882 234.435  1.00  0.00     0.000 C 
BRANCH   2   3
ATOM      3  C   UNL     1     236.493 227.972 233.623  1.00  0.00    -0.000 C 
BRANCH   3   4
ATOM      4  C   UNL     1     237.162 229.337 233.829  1.00  0.00    -0.000 C 
BRANCH   4   5
ATOM      5  C   UNL     1     236.546 230.397 232.910  1.00  0.00    -0.003 C 
ATOM      6  C   UNL     1     235.391 229.818 232.099  1.00  0.00     0.004 C 
ENDBRANCH   4   5
ENDBRANCH   3   4
ENDBRANCH   2   3
ENDBRANCH   1   2
BRANCH   1   7
ATOM      7  C   UNL     1     239.711 226.588 234.484  1.00  0.00     0.002 C 
BRANCH   7   8
ATOM      8  C   UNL     1     239.290 225.706 233.301  1.00  0.00     0.028 C 
BRANCH   8   9
ATOM      9  C   UNL     1     240.452 225.464 232.332  1.00  0.00     0.156 C 
BRANCH   9  10
ATOM     10  O   UNL     1     241.553 226.268 232.658  1.00  0.00    -0.396 OA
ATOM     11  H   UNL     1     241.258 227.211 232.558  1.00  0.00     0.210 HD
ENDBRANCH   9  10
ENDBRANCH   8   9
ENDBRANCH   7   8
ENDBRANCH   1   7
TORSDOF 8
ENDMDL
MODEL 2
REMARK VINA RESULT:    -2.700     12.172     14.738
REMARK INTER + INTRA:          -4.272
REMARK INTER:                  -3.608
REMARK INTRA:                  -0.664
REMARK UNBOUND:                -0.388
REMARK SMILES CCCCCCCCCO
REMARK SMILES IDX 6 1 5 2 4 3 3 4 2 5 1 6 7 7 8 8 9 9 10 10
REMARK H PARENT 10 11
REMARK Flexibility Score: inf
ROOT
ATOM      1  C   UNL     1     232.117 241.207 233.737  1.00  0.00     0.000 C 
ENDROOT
BRANCH   1   2
ATOM      2  C   UNL     1     231.122 241.920 234.659  1.00  0.00     0.000 C 
BRANCH   2   3
ATOM      3  C   UNL     1     229.803 242.203 233.932  1.00  0.00    -0.000 C 
BRANCH   3   4
ATOM      4  C   UNL     1     228.619 241.556 234.663  1.00  0.00    -0.000 C 
BRANCH   4   5
ATOM      5  C   UNL     1     229.091 240.794 235.906  1.00  0.00    -0.003 C 
ATOM      6  C   UNL     1     228.669 239.329 235.847  1.00  0.00     0.004 C 
ENDBRANCH   4   5
ENDBRANCH   3   4
ENDBRANCH   2   3
ENDBRANCH   1   2
BRANCH   1   7
ATOM      7  C   UNL     1     232.395 239.780 234.223  1.00  0.00     0.002 C 
BRANCH   7   8
ATOM      8  C   UNL     1     231.532 238.762 233.466  1.00  0.00     0.028 C 
BRANCH   8   9
ATOM      9  C   UNL     1     232.364 237.928 232.487  1.00  0.00     0.156 C 
BRANCH   9  10
ATOM     10  O   UNL     1     231.779 236.671 232.277  1.00  0.00    -0.396 OA
ATOM     11  H   UNL     1     231.151 236.519 233.030  1.00  0.00     0.210 HD
ENDBRANCH   9  10
ENDBRANCH   8   9
ENDBRANCH   7   8
ENDBRANCH   1   7
TORSDOF 8
ENDMDL
MODEL 3
REMARK VINA RESULT:    -2.683      9.800     11.591
REMARK INTER + INTRA:          -4.247
REMARK INTER:                  -3.871
REMARK INTRA:                  -0.377
REMARK UNBOUND:                -0.388
REMARK SMILES CCCCCCCCCO
REMARK SMILES IDX 6 1 5 2 4 3 3 4 2 5 1 6 7 7 8 8 9 9 10 10
REMARK H PARENT 10 11
REMARK Flexibility Score: inf
ROOT
ATOM      1  C   UNL     1     227.557 229.942 234.739  1.00  0.00     0.000 C 
ENDROOT
BRANCH   1   2
ATOM      2  C   UNL     1     227.362 231.174 233.848  1.00  0.00     0.000 C 
BRANCH   2   3
ATOM      3  C   UNL     1     228.546 232.139 233.976  1.00  0.00    -0.000 C 
BRANCH   3   4
ATOM      4  C   UNL     1     229.865 231.446 233.608  1.00  0.00    -0.000 C 
BRANCH   4   5
ATOM      5  C   UNL     1     230.653 232.271 232.585  1.00  0.00    -0.003 C 
ATOM      6  C   UNL     1     229.751 233.277 231.876  1.00  0.00     0.004 C 
ENDBRANCH   4   5
ENDBRANCH   3   4
ENDBRANCH   2   3
ENDBRANCH   1   2
BRANCH   1   7
ATOM      7  C   UNL     1     226.434 228.921 234.522  1.00  0.00     0.002 C 
BRANCH   7   8
ATOM      8  C   UNL     1     225.346 229.488 233.600  1.00  0.00     0.028 C 
BRANCH   8   9
ATOM      9  C   UNL     1     224.994 228.513 232.471  1.00  0.00     0.156 C 
BRANCH   9  10
ATOM     10  O   UNL     1     226.076 227.671 232.180  1.00  0.00    -0.396 OA
ATOM     11  H   UNL     1     226.843 228.260 231.956  1.00  0.00     0.210 HD
ENDBRANCH   9  10
ENDBRANCH   8   9
ENDBRANCH   7   8
ENDBRANCH   1   7
TORSDOF 8
ENDMDL
MODEL 4
REMARK VINA RESULT:    -2.681     13.369     16.164
REMARK INTER + INTRA:          -4.244
REMARK INTER:                  -3.832
REMARK INTRA:                  -0.412
REMARK UNBOUND:                -0.388
REMARK SMILES CCCCCCCCCO
REMARK SMILES IDX 6 1 5 2 4 3 3 4 2 5 1 6 7 7 8 8 9 9 10 10
REMARK H PARENT 10 11
REMARK Flexibility Score: inf
ROOT
ATOM      1  C   UNL     1     231.152 241.722 233.659  1.00  0.00     0.000 C 
ENDROOT
BRANCH   1   2
ATOM      2  C   UNL     1     232.001 241.245 234.844  1.00  0.00     0.000 C 
BRANCH   2   3
ATOM      3  C   UNL     1     232.399 239.774 234.680  1.00  0.00    -0.000 C 
BRANCH   3   4
ATOM      4  C   UNL     1     231.305 238.985 233.948  1.00  0.00    -0.000 C 
BRANCH   4   5
ATOM      5  C   UNL     1     231.908 238.079 232.870  1.00  0.00    -0.003 C 
ATOM      6  C   UNL     1     233.024 238.792 232.113  1.00  0.00     0.004 C 
ENDBRANCH   4   5
ENDBRANCH   3   4
ENDBRANCH   2   3
ENDBRANCH   1   2
BRANCH   1   7
ATOM      7  C   UNL     1     229.933 242.519 234.140  1.00  0.00     0.002 C 
BRANCH   7   8
ATOM      8  C   UNL     1     229.395 243.426 233.026  1.00  0.00     0.028 C 
BRANCH   8   9
ATOM      9  C   UNL     1     228.005 242.986 232.557  1.00  0.00     0.156 C 
BRANCH   9  10
ATOM     10  O   UNL     1     227.516 241.938 233.351  1.00  0.00    -0.396 OA
ATOM     11  H   UNL     1     227.675 242.199 234.296  1.00  0.00     0.210 HD
ENDBRANCH   9  10
ENDBRANCH   8   9
ENDBRANCH   7   8
ENDBRANCH   1   7
TORSDOF 8
ENDMDL
MODEL 5
REMARK VINA RESULT:    -2.650      2.630      4.656
REMARK INTER + INTRA:          -4.200
REMARK INTER:                  -3.457
REMARK INTRA:                  -0.743
REMARK UNBOUND:                -0.388
REMARK SMILES CCCCCCCCCO
REMARK SMILES IDX 6 1 5 2 4 3 3 4 2 5 1 6 7 7 8 8 9 9 10 10
REMARK H PARENT 10 11
REMARK Flexibility Score: inf
ROOT
ATOM      1  C   UNL     1     236.227 227.303 234.761  1.00  0.00     0.000 C 
ENDROOT
BRANCH   1   2
ATOM      2  C   UNL     1     237.353 226.864 233.818  1.00  0.00     0.000 C 
BRANCH   2   3
ATOM      3  C   UNL     1     238.389 226.009 234.557  1.00  0.00    -0.000 C 
BRANCH   3   4
ATOM      4  C   UNL     1     239.003 226.781 235.732  1.00  0.00    -0.000 C 
BRANCH   4   5
ATOM      5  C   UNL     1     239.924 227.899 235.235  1.00  0.00    -0.003 C 
ATOM      6  C   UNL     1     239.644 229.209 235.964  1.00  0.00     0.004 C 
ENDBRANCH   4   5
ENDBRANCH   3   4
ENDBRANCH   2   3
ENDBRANCH   1   2
BRANCH   1   7
ATOM      7  C   UNL     1     235.998 228.817 234.678  1.00  0.00     0.002 C 
BRANCH   7   8
ATOM      8  C   UNL     1     236.818 229.436 233.539  1.00  0.00     0.028 C 
BRANCH   8   9
ATOM      9  C   UNL     1     235.944 230.272 232.599  1.00  0.00     0.156 C 
BRANCH   9  10
ATOM     10  O   UNL     1     236.657 231.368 232.093  1.00  0.00    -0.396 OA
ATOM     11  H   UNL     1     237.070 231.823 232.872  1.00  0.00     0.210 HD
ENDBRANCH   9  10
ENDBRANCH   8   9
ENDBRANCH   7   8
ENDBRANCH   1   7
TORSDOF 8
ENDMDL
MODEL 6
REMARK VINA RESULT:    -2.645      8.697      9.764
REMARK INTER + INTRA:          -4.193
REMARK INTER:                  -3.559
REMARK INTRA:                  -0.634
REMARK UNBOUND:                -0.388
REMARK SMILES CCCCCCCCCO
REMARK SMILES IDX 6 1 5 2 4 3 3 4 2 5 1 6 7 7 8 8 9 9 10 10
REMARK H PARENT 10 11
REMARK Flexibility Score: inf
ROOT
ATOM      1  C   UNL     1     240.581 235.935 235.642  1.00  0.00     0.000 C 
ENDROOT
BRANCH   1   2
ATOM      2  C   UNL     1     239.160 236.456 235.397  1.00  0.00     0.000 C 
BRANCH   2   3
ATOM      3  C   UNL     1     238.170 235.298 235.227  1.00  0.00    -0.000 C 
BRANCH   3   4
ATOM      4  C   UNL     1     237.223 235.550 234.047  1.00  0.00    -0.000 C 
BRANCH   4   5
ATOM      5  C   UNL     1     237.941 236.287 232.912  1.00  0.00    -0.003 C 
ATOM      6  C   UNL     1     238.483 235.308 231.875  1.00  0.00     0.004 C 
ENDBRANCH   4   5
ENDBRANCH   3   4
ENDBRANCH   2   3
ENDBRANCH   1   2
BRANCH   1   7
ATOM      7  C   UNL     1     241.502 236.273 234.463  1.00  0.00     0.002 C 
BRANCH   7   8
ATOM      8  C   UNL     1     241.194 237.668 233.906  1.00  0.00     0.028 C 
BRANCH   8   9
ATOM      9  C   UNL     1     242.405 238.601 234.009  1.00  0.00     0.156 C 
BRANCH   9  10
ATOM     10  O   UNL     1     242.236 239.734 233.200  1.00  0.00    -0.396 OA
ATOM     11  H   UNL     1     241.610 239.474 232.474  1.00  0.00     0.210 HD
ENDBRANCH   9  10
ENDBRANCH   8   9
ENDBRANCH   7   8
ENDBRANCH   1   7
TORSDOF 8
ENDMDL
MODEL 7
REMARK VINA RESULT:    -2.639      9.732     11.684
REMARK INTER + INTRA:          -4.185
REMARK INTER:                  -3.821
REMARK INTRA:                  -0.364
REMARK UNBOUND:                -0.388
REMARK SMILES CCCCCCCCCO
REMARK SMILES IDX 6 1 5 2 4 3 3 4 2 5 1 6 7 7 8 8 9 9 10 10
REMARK H PARENT 10 11
REMARK Flexibility Score: inf
ROOT
ATOM      1  C   UNL     1     226.636 231.011 233.821  1.00  0.00     0.000 C 
ENDROOT
BRANCH   1   2
ATOM      2  C   UNL     1     227.162 229.698 234.414  1.00  0.00     0.000 C 
BRANCH   2   3
ATOM      3  C   UNL     1     226.073 228.621 234.420  1.00  0.00    -0.000 C 
BRANCH   3   4
ATOM      4  C   UNL     1     225.095 228.818 233.255  1.00  0.00    -0.000 C 
BRANCH   4   5
ATOM      5  C   UNL     1     225.413 227.861 232.101  1.00  0.00    -0.003 C 
ATOM      6  C   UNL     1     225.759 226.468 232.620  1.00  0.00     0.004 C 
ENDBRANCH   4   5
ENDBRANCH   3   4
ENDBRANCH   2   3
ENDBRANCH   1   2
BRANCH   1   7
ATOM      7  C   UNL     1     227.707 232.107 233.870  1.00  0.00     0.002 C 
BRANCH   7   8
ATOM      8  C   UNL     1     229.114 231.507 233.750  1.00  0.00     0.028 C 
BRANCH   8   9
ATOM      9  C   UNL     1     230.056 232.421 232.960  1.00  0.00     0.156 C 
BRANCH   9  10
ATOM     10  O   UNL     1     231.016 231.672 232.265  1.00  0.00    -0.396 OA
ATOM     11  H   UNL     1     231.363 230.994 232.901  1.00  0.00     0.210 HD
ENDBRANCH   9  10
ENDBRANCH   8   9
ENDBRANCH   7   8
ENDBRANCH   1   7
TORSDOF 8
ENDMDL
MODEL 8
REMARK VINA RESULT:    -2.609     12.884     15.335
REMARK INTER + INTRA:          -4.141
REMARK INTER:                  -3.827
REMARK INTRA:                  -0.314
REMARK UNBOUND:                -0.388
REMARK SMILES CCCCCCCCCO
REMARK SMILES IDX 6 1 5 2 4 3 3 4 2 5 1 6 7 7 8 8 9 9 10 10
REMARK H PARENT 10 11
REMARK Flexibility Score: inf
ROOT
ATOM      1  C   UNL     1     230.531 239.938 234.849  1.00  0.00     0.000 C 
ENDROOT
BRANCH   1   2
ATOM      2  C   UNL     1     229.578 241.136 234.764  1.00  0.00     0.000 C 
BRANCH   2   3
ATOM      3  C   UNL     1     230.098 242.184 233.775  1.00  0.00    -0.000 C 
BRANCH   3   4
ATOM      4  C   UNL     1     229.070 243.304 233.566  1.00  0.00    -0.000 C 
BRANCH   4   5
ATOM      5  C   UNL     1     228.189 243.021 232.345  1.00  0.00    -0.003 C 
ATOM      6  C   UNL     1     226.769 242.653 232.763  1.00  0.00     0.004 C 
ENDBRANCH   4   5
ENDBRANCH   3   4
ENDBRANCH   2   3
ENDBRANCH   1   2
BRANCH   1   7
ATOM      7  C   UNL     1     231.580 239.988 233.731  1.00  0.00     0.002 C 
BRANCH   7   8
ATOM      8  C   UNL     1     232.470 238.739 233.755  1.00  0.00     0.028 C 
BRANCH   8   9
ATOM      9  C   UNL     1     232.633 238.131 232.358  1.00  0.00     0.156 C 
BRANCH   9  10
ATOM     10  O   UNL     1     231.765 237.043 232.180  1.00  0.00    -0.396 OA
ATOM     11  H   UNL     1     231.537 237.016 231.214  1.00  0.00     0.210 HD
ENDBRANCH   9  10
ENDBRANCH   8   9
ENDBRANCH   7   8
ENDBRANCH   1   7
TORSDOF 8
ENDMDL
MODEL 9
REMARK VINA RESULT:    -2.582      1.833      2.262
REMARK INTER + INTRA:          -4.102
REMARK INTER:                  -3.487
REMARK INTRA:                  -0.615
REMARK UNBOUND:                -0.388
REMARK SMILES CCCCCCCCCO
REMARK SMILES IDX 6 1 5 2 4 3 3 4 2 5 1 6 7 7 8 8 9 9 10 10
REMARK H PARENT 10 11
REMARK Flexibility Score: inf
ROOT
ATOM      1  C   UNL     1     237.220 226.737 235.682  1.00  0.00     0.000 C 
ENDROOT
BRANCH   1   2
ATOM      2  C   UNL     1     235.968 227.486 235.209  1.00  0.00     0.000 C 
BRANCH   2   3
ATOM      3  C   UNL     1     236.116 228.996 235.425  1.00  0.00    -0.000 C 
BRANCH   3   4
ATOM      4  C   UNL     1     236.444 229.712 234.109  1.00  0.00    -0.000 C 
BRANCH   4   5
ATOM      5  C   UNL     1     235.918 228.921 232.906  1.00  0.00    -0.003 C 
ATOM      6  C   UNL     1     235.259 229.844 231.886  1.00  0.00     0.004 C 
ENDBRANCH   4   5
ENDBRANCH   3   4
ENDBRANCH   2   3
ENDBRANCH   1   2
BRANCH   1   7
ATOM      7  C   UNL     1     238.112 226.351 234.496  1.00  0.00     0.002 C 
BRANCH   7   8
ATOM      8  C   UNL     1     239.579 226.704 234.773  1.00  0.00     0.028 C 
BRANCH   8   9
ATOM      9  C   UNL     1     239.708 227.989 235.597  1.00  0.00     0.156 C 
BRANCH   9  10
ATOM     10  O   UNL     1     239.985 229.088 234.771  1.00  0.00    -0.396 OA
ATOM     11  H   UNL     1     240.319 228.721 233.911  1.00  0.00     0.210 HD
ENDBRANCH   9  10
ENDBRANCH   8   9
ENDBRANCH   7   8
ENDBRANCH   1   7
TORSDOF 8
ENDMDL
