MODEL 1
REMARK VINA RESULT:    -3.095      0.000      0.000
REMARK INTER + INTRA:          -3.883
REMARK INTER:                  -3.819
REMARK INTRA:                  -0.064
REMARK UNBOUND:                -0.064
REMARK SMILES CCCCCC(=O)[O-]
REMARK SMILES IDX 4 1 5 2 6 3 7 4 8 5 3 6 2 7 1 8
REMARK H PARENT
REMARK Flexibility Score: inf
ROOT
ATOM      1  C   UNL     1    -106.630  31.942   3.148  1.00  0.00     0.006 C 
ENDROOT
BRANCH   1   2
ATOM      2  C   UNL     1    -105.236  32.373   3.611  1.00  0.00     0.053 C 
BRANCH   2   3
ATOM      3  C   UNL     1    -104.860  33.682   2.991  1.00  0.00     0.041 C 
ATOM      4  O   UNL     1    -105.660  34.270   2.218  1.00  0.00    -0.550 OA
ATOM      5  O   UNL     1    -103.604  34.227   3.227  1.00  0.00    -0.550 OA
ENDBRANCH   2   3
ENDBRANCH   1   2
BRANCH   1   6
ATOM      6  C   UNL     1    -106.810  30.425   3.284  1.00  0.00     0.000 C 
BRANCH   6   7
ATOM      7  C   UNL     1    -107.294  29.808   1.966  1.00  0.00    -0.003 C 
ATOM      8  C   UNL     1    -108.787  30.050   1.759  1.00  0.00     0.004 C 
ENDBRANCH   6   7
ENDBRANCH   1   6
TORSDOF 4
ENDMDL
MODEL 2
REMARK VINA RESULT:    -2.981     11.922     13.169
REMARK INTER + INTRA:          -3.742
REMARK INTER:                  -3.628
REMARK INTRA:                  -0.113
REMARK UNBOUND:                -0.064
REMARK SMILES CCCCCC(=O)[O-]
REMARK SMILES IDX 4 1 5 2 6 3 7 4 8 5 3 6 2 7 1 8
REMARK H PARENT
REMARK Flexibility Score: inf
ROOT
ATOM      1  C   UNL     1    -110.060  44.281  -0.907  1.00  0.00     0.006 C 
ENDROOT
BRANCH   1   2
ATOM      2  C   UNL     1    -109.454  42.884  -0.754  1.00  0.00     0.053 C 
BRANCH   2   3
ATOM      3  C   UNL     1    -108.077  42.970  -0.173  1.00  0.00     0.041 C 
ATOM      4  O   UNL     1    -107.233  42.067  -0.408  1.00  0.00    -0.550 OA
ATOM      5  O   UNL     1    -107.743  44.024   0.668  1.00  0.00    -0.550 OA
ENDBRANCH   2   3
ENDBRANCH   1   2
BRANCH   1   6
ATOM      6  C   UNL     1    -109.677  44.902  -2.256  1.00  0.00     0.000 C 
BRANCH   6   7
ATOM      7  C   UNL     1    -110.917  45.124  -3.131  1.00  0.00    -0.003 C 
ATOM      8  C   UNL     1    -112.177  44.604  -2.444  1.00  0.00     0.004 C 
ENDBRANCH   6   7
ENDBRANCH   1   6
TORSDOF 4
ENDMDL
MODEL 3
REMARK VINA RESULT:    -2.927     11.604     12.656
REMARK INTER + INTRA:          -3.675
REMARK INTER:                  -3.563
REMARK INTRA:                  -0.112
REMARK UNBOUND:                -0.064
REMARK SMILES CCCCCC(=O)[O-]
REMARK SMILES IDX 4 1 5 2 6 3 7 4 8 5 3 6 2 7 1 8
REMARK H PARENT
REMARK Flexibility Score: inf
ROOT
ATOM      1  C   UNL     1    -110.085  44.217  -1.133  1.00  0.00     0.006 C 
ENDROOT
BRANCH   1   2
ATOM      2  C   UNL     1    -109.581  42.836  -0.705  1.00  0.00     0.053 C 
BRANCH   2   3
ATOM      3  C   UNL     1    -108.167  42.921  -0.222  1.00  0.00     0.041 C 
ATOM      4  O   UNL     1    -107.319  42.068  -0.593  1.00  0.00    -0.550 OA
ATOM      5  O   UNL     1    -107.798  43.914   0.677  1.00  0.00    -0.550 OA
ENDBRANCH   2   3
ENDBRANCH   1   2
BRANCH   1   6
ATOM      6  C   UNL     1    -111.535  44.436  -0.686  1.00  0.00     0.000 C 
BRANCH   6   7
ATOM      7  C   UNL     1    -112.518  43.786  -1.668  1.00  0.00    -0.003 C 
ATOM      8  C   UNL     1    -113.305  42.663  -0.998  1.00  0.00     0.004 C 
ENDBRANCH   6   7
ENDBRANCH   1   6
TORSDOF 4
ENDMDL
MODEL 4
REMARK VINA RESULT:    -2.864      2.760      4.353
REMARK INTER + INTRA:          -3.597
REMARK INTER:                  -3.511
REMARK INTRA:                  -0.085
REMARK UNBOUND:                -0.064
REMARK SMILES CCCCCC(=O)[O-]
REMARK SMILES IDX 4 1 5 2 6 3 7 4 8 5 3 6 2 7 1 8
REMARK H PARENT
REMARK Flexibility Score: inf
ROOT
ATOM      1  C   UNL     1    -106.609  31.959   3.704  1.00  0.00     0.006 C 
ENDROOT
BRANCH   1   2
ATOM      2  C   UNL     1    -107.832  31.096   3.377  1.00  0.00     0.053 C 
BRANCH   2   3
ATOM      3  C   UNL     1    -107.499  30.097   2.314  1.00  0.00     0.041 C 
ATOM      4  O   UNL     1    -108.340  29.819   1.420  1.00  0.00    -0.550 OA
ATOM      5  O   UNL     1    -106.277  29.435   2.340  1.00  0.00    -0.550 OA
ENDBRANCH   2   3
ENDBRANCH   1   2
BRANCH   1   6
ATOM      6  C   UNL     1    -106.925  33.448   3.528  1.00  0.00     0.000 C 
BRANCH   6   7
ATOM      7  C   UNL     1    -105.977  34.095   2.510  1.00  0.00    -0.003 C 
ATOM      8  C   UNL     1    -104.518  33.906   2.917  1.00  0.00     0.004 C 
ENDBRANCH   6   7
ENDBRANCH   1   6
TORSDOF 4
ENDMDL
MODEL 5
REMARK VINA RESULT:    -2.715     12.159     13.579
REMARK INTER + INTRA:          -3.413
REMARK INTER:                  -3.325
REMARK INTRA:                  -0.088
REMARK UNBOUND:                -0.064
REMARK SMILES CCCCCC(=O)[O-]
REMARK SMILES IDX 4 1 5 2 6 3 7 4 8 5 3 6 2 7 1 8
REMARK H PARENT
REMARK Flexibility Score: inf
ROOT
ATOM      1  C   UNL     1    -110.148  44.313  -1.127  1.00  0.00     0.006 C 
ENDROOT
BRANCH   1   2
ATOM      2  C   UNL     1    -111.620  44.577  -0.795  1.00  0.00     0.053 C 
BRANCH   2   3
ATOM      3  C   UNL     1    -112.501  44.098  -1.904  1.00  0.00     0.041 C 
ATOM      4  O   UNL     1    -113.323  43.165  -1.703  1.00  0.00    -0.550 OA
ATOM      5  O   UNL     1    -112.381  44.647  -3.175  1.00  0.00    -0.550 OA
ENDBRANCH   2   3
ENDBRANCH   1   2
BRANCH   1   6
ATOM      6  C   UNL     1    -109.722  42.916  -0.661  1.00  0.00     0.000 C 
BRANCH   6   7
ATOM      7  C   UNL     1    -108.363  42.962   0.048  1.00  0.00    -0.003 C 
ATOM      8  C   UNL     1    -107.328  42.117  -0.688  1.00  0.00     0.004 C 
ENDBRANCH   6   7
ENDBRANCH   1   6
TORSDOF 4
ENDMDL
MODEL 6
REMARK VINA RESULT:    -2.708     15.179     16.593
REMARK INTER + INTRA:          -3.406
REMARK INTER:                  -3.329
REMARK INTRA:                  -0.076
REMARK UNBOUND:                -0.064
REMARK SMILES CCCCCC(=O)[O-]
REMARK SMILES IDX 4 1 5 2 6 3 7 4 8 5 3 6 2 7 1 8
REMARK H PARENT
REMARK Flexibility Score: inf
ROOT
ATOM      1  C   UNL     1    -115.628  34.614  -9.956  1.00  0.00     0.006 C 
ENDROOT
BRANCH   1   2
ATOM      2  C   UNL     1    -116.061  33.657 -11.070  1.00  0.00     0.053 C 
BRANCH   2   3
ATOM      3  C   UNL     1    -115.281  33.920 -12.319  1.00  0.00     0.041 C 
ATOM      4  O   UNL     1    -115.282  35.067 -12.838  1.00  0.00    -0.550 OA
ATOM      5  O   UNL     1    -114.591  32.885 -12.939  1.00  0.00    -0.550 OA
ENDBRANCH   2   3
ENDBRANCH   1   2
BRANCH   1   6
ATOM      6  C   UNL     1    -115.185  33.840  -8.708  1.00  0.00     0.000 C 
BRANCH   6   7
ATOM      7  C   UNL     1    -114.891  34.794  -7.544  1.00  0.00    -0.003 C 
ATOM      8  C   UNL     1    -116.150  35.538  -7.109  1.00  0.00     0.004 C 
ENDBRANCH   6   7
ENDBRANCH   1   6
TORSDOF 4
ENDMDL
MODEL 7
REMARK VINA RESULT:    -2.700     15.169     16.605
REMARK INTER + INTRA:          -3.395
REMARK INTER:                  -3.315
REMARK INTRA:                  -0.080
REMARK UNBOUND:                -0.064
REMARK SMILES CCCCCC(=O)[O-]
REMARK SMILES IDX 4 1 5 2 6 3 7 4 8 5 3 6 2 7 1 8
REMARK H PARENT
REMARK Flexibility Score: inf
ROOT
ATOM      1  C   UNL     1    -115.664  34.617  -9.969  1.00  0.00     0.006 C 
ENDROOT
BRANCH   1   2
ATOM      2  C   UNL     1    -116.077  33.653 -11.084  1.00  0.00     0.053 C 
BRANCH   2   3
ATOM      3  C   UNL     1    -115.274  33.907 -12.321  1.00  0.00     0.041 C 
ATOM      4  O   UNL     1    -114.586  32.984 -12.831  1.00  0.00    -0.550 OA
ATOM      5  O   UNL     1    -115.246  35.178 -12.882  1.00  0.00    -0.550 OA
ENDBRANCH   2   3
ENDBRANCH   1   2
BRANCH   1   6
ATOM      6  C   UNL     1    -115.162  33.853  -8.738  1.00  0.00     0.000 C 
BRANCH   6   7
ATOM      7  C   UNL     1    -114.911  34.805  -7.563  1.00  0.00    -0.003 C 
ATOM      8  C   UNL     1    -116.205  35.479  -7.113  1.00  0.00     0.004 C 
ENDBRANCH   6   7
ENDBRANCH   1   6
TORSDOF 4
ENDMDL
MODEL 8
REMARK VINA RESULT:    -2.526     10.882     11.362
REMARK INTER + INTRA:          -3.180
REMARK INTER:                  -3.067
REMARK INTRA:                  -0.113
REMARK UNBOUND:                -0.064
REMARK SMILES CCCCCC(=O)[O-]
REMARK SMILES IDX 4 1 5 2 6 3 7 4 8 5 3 6 2 7 1 8
REMARK H PARENT
REMARK Flexibility Score: inf
ROOT
ATOM      1  C   UNL     1    -116.664  28.895   0.470  1.00  0.00     0.006 C 
ENDROOT
BRANCH   1   2
ATOM      2  C   UNL     1    -116.211  27.928   1.567  1.00  0.00     0.053 C 
BRANCH   2   3
ATOM      3  C   UNL     1    -115.314  26.873   0.998  1.00  0.00     0.041 C 
ATOM      4  O   UNL     1    -114.888  26.973  -0.182  1.00  0.00    -0.550 OA
ATOM      5  O   UNL     1    -114.990  25.754   1.755  1.00  0.00    -0.550 OA
ENDBRANCH   2   3
ENDBRANCH   1   2
BRANCH   1   6
ATOM      6  C   UNL     1    -116.995  30.273   1.054  1.00  0.00     0.000 C 
BRANCH   6   7
ATOM      7  C   UNL     1    -116.654  31.389   0.060  1.00  0.00    -0.003 C 
ATOM      8  C   UNL     1    -116.005  30.826  -1.201  1.00  0.00     0.004 C 
ENDBRANCH   6   7
ENDBRANCH   1   6
TORSDOF 4
ENDMDL
MODEL 9
REMARK VINA RESULT:    -2.522     15.224     16.021
REMARK INTER + INTRA:          -3.176
REMARK INTER:                  -2.936
REMARK INTRA:                  -0.240
REMARK UNBOUND:                -0.064
REMARK SMILES CCCCCC(=O)[O-]
REMARK SMILES IDX 4 1 5 2 6 3 7 4 8 5 3 6 2 7 1 8
REMARK H PARENT
REMARK Flexibility Score: inf
ROOT
ATOM      1  C   UNL     1    -115.045  35.095  -8.071  1.00  0.00     0.006 C 
ENDROOT
BRANCH   1   2
ATOM      2  C   UNL     1    -115.403  33.829  -8.855  1.00  0.00     0.053 C 
BRANCH   2   3
ATOM      3  C   UNL     1    -115.811  34.176 -10.252  1.00  0.00     0.041 C 
ATOM      4  O   UNL     1    -115.097  33.825 -11.227  1.00  0.00    -0.550 OA
ATOM      5  O   UNL     1    -116.957  34.930 -10.474  1.00  0.00    -0.550 OA
ENDBRANCH   2   3
ENDBRANCH   1   2
BRANCH   1   6
ATOM      6  C   UNL     1    -116.141  35.441  -7.056  1.00  0.00     0.000 C 
BRANCH   6   7
ATOM      7  C   UNL     1    -116.704  36.844  -7.312  1.00  0.00    -0.003 C 
ATOM      8  C   UNL     1    -115.910  37.569  -8.395  1.00  0.00     0.004 C 
ENDBRANCH   6   7
ENDBRANCH   1   6
TORSDOF 4
ENDMDL
