MODEL 1
REMARK VINA RESULT:    -3.110      0.000      0.000
REMARK INTER + INTRA:          -3.201
REMARK INTER:                  -3.201
REMARK INTRA:                   0.000
REMARK UNBOUND:                 0.000
REMARK SMILES CC1(C)[C@@H]2CC[C@@](C)(C2)[C@@H]1O
REMARK SMILES IDX 1 1 2 2 4 3 5 4 6 5 7 6 9 7 10 8 8 9 3 10 11 11
REMARK H PARENT 11 12
REMARK Flexibility Score: inf
ROOT
ATOM      1  C   UNL     1     115.903 118.967 114.581  1.00  0.00     0.014 C 
ATOM      2  C   UNL     1     116.740 118.708 113.304  1.00  0.00    -0.006 C 
ATOM      3  C   UNL     1     118.175 119.318 113.466  1.00  0.00    -0.002 C 
ATOM      4  C   UNL     1     118.941 119.311 112.127  1.00  0.00     0.005 C 
ATOM      5  C   UNL     1     119.176 117.814 111.876  1.00  0.00     0.010 C 
ATOM      6  C   UNL     1     118.613 117.160 113.160  1.00  0.00    -0.006 C 
ATOM      7  C   UNL     1     118.923 118.217 114.199  1.00  0.00     0.013 C 
ATOM      8  C   UNL     1     117.060 117.185 113.142  1.00  0.00     0.126 C 
ATOM      9  C   UNL     1     119.217 115.788 113.475  1.00  0.00     0.014 C 
ATOM     10  C   UNL     1     115.950 119.305 112.108  1.00  0.00     0.014 C 
ENDROOT
BRANCH   8  11
ATOM     11  O   UNL     1     116.538 116.638 111.956  1.00  0.00    -0.392 OA
ATOM     12  H   UNL     1     116.009 117.355 111.520  1.00  0.00     0.211 HD
ENDBRANCH   8  11
TORSDOF 1
ENDMDL
MODEL 2
REMARK VINA RESULT:    -3.066      1.439      2.341
REMARK INTER + INTRA:          -3.156
REMARK INTER:                  -3.156
REMARK INTRA:                   0.000
REMARK UNBOUND:                 0.000
REMARK SMILES CC1(C)[C@@H]2CC[C@@](C)(C2)[C@@H]1O
REMARK SMILES IDX 1 1 2 2 4 3 5 4 6 5 7 6 9 7 10 8 8 9 3 10 11 11
REMARK H PARENT 11 12
REMARK Flexibility Score: inf
ROOT
ATOM      1  C   UNL     1     119.633 119.834 115.021  1.00  0.00     0.014 C 
ATOM      2  C   UNL     1     118.436 119.139 114.328  1.00  0.00    -0.006 C 
ATOM      3  C   UNL     1     118.266 119.685 112.868  1.00  0.00    -0.002 C 
ATOM      4  C   UNL     1     116.937 119.212 112.244  1.00  0.00     0.005 C 
ATOM      5  C   UNL     1     117.156 117.701 112.076  1.00  0.00     0.010 C 
ATOM      6  C   UNL     1     118.627 117.519 112.521  1.00  0.00    -0.006 C 
ATOM      7  C   UNL     1     119.242 118.828 112.078  1.00  0.00     0.013 C 
ATOM      8  C   UNL     1     118.741 117.626 114.066  1.00  0.00     0.126 C 
ATOM      9  C   UNL     1     119.308 116.282 111.925  1.00  0.00     0.014 C 
ATOM     10  C   UNL     1     117.188 119.374 115.220  1.00  0.00     0.014 C 
ENDROOT
BRANCH   8  11
ATOM     11  O   UNL     1     117.842 116.765 114.722  1.00  0.00    -0.392 OA
ATOM     12  H   UNL     1     118.036 116.836 115.693  1.00  0.00     0.211 HD
ENDBRANCH   8  11
TORSDOF 1
ENDMDL
MODEL 3
REMARK VINA RESULT:    -3.051      2.686      4.413
REMARK INTER + INTRA:          -3.140
REMARK INTER:                  -3.140
REMARK INTRA:                   0.000
REMARK UNBOUND:                 0.000
REMARK SMILES CC1(C)[C@@H]2CC[C@@](C)(C2)[C@@H]1O
REMARK SMILES IDX 1 1 2 2 4 3 5 4 6 5 7 6 9 7 10 8 8 9 3 10 11 11
REMARK H PARENT 11 12
REMARK Flexibility Score: inf
ROOT
ATOM      1  C   UNL     1     119.959 113.250 114.830  1.00  0.00     0.014 C 
ATOM      2  C   UNL     1     119.123 114.487 114.419  1.00  0.00    -0.006 C 
ATOM      3  C   UNL     1     119.615 115.036 113.036  1.00  0.00    -0.002 C 
ATOM      4  C   UNL     1     118.987 116.410 112.724  1.00  0.00     0.005 C 
ATOM      5  C   UNL     1     117.505 116.068 112.507  1.00  0.00     0.010 C 
ATOM      6  C   UNL     1     117.493 114.524 112.612  1.00  0.00    -0.006 C 
ATOM      7  C   UNL     1     118.851 114.171 112.046  1.00  0.00     0.013 C 
ATOM      8  C   UNL     1     117.647 114.082 114.093  1.00  0.00     0.126 C 
ATOM      9  C   UNL     1     116.325 113.860 111.875  1.00  0.00     0.014 C 
ATOM     10  C   UNL     1     119.241 115.523 115.568  1.00  0.00     0.014 C 
ENDROOT
BRANCH   8  11
ATOM     11  O   UNL     1     116.708 114.712 114.931  1.00  0.00    -0.392 OA
ATOM     12  H   UNL     1     117.200 115.002 115.743  1.00  0.00     0.211 HD
ENDBRANCH   8  11
TORSDOF 1
ENDMDL
MODEL 4
REMARK VINA RESULT:    -3.033     10.129     11.693
REMARK INTER + INTRA:          -3.121
REMARK INTER:                  -3.121
REMARK INTRA:                   0.000
REMARK UNBOUND:                 0.000
REMARK SMILES CC1(C)[C@@H]2CC[C@@](C)(C2)[C@@H]1O
REMARK SMILES IDX 1 1 2 2 4 3 5 4 6 5 7 6 9 7 10 8 8 9 3 10 11 11
REMARK H PARENT 11 12
REMARK Flexibility Score: inf
ROOT
ATOM      1  C   UNL     1     111.622 112.728 118.460  1.00  0.00     0.014 C 
ATOM      2  C   UNL     1     110.342 111.890 118.220  1.00  0.00    -0.006 C 
ATOM      3  C   UNL     1     109.073 112.713 118.630  1.00  0.00    -0.002 C 
ATOM      4  C   UNL     1     107.812 111.825 118.654  1.00  0.00     0.005 C 
ATOM      5  C   UNL     1     107.602 111.491 117.169  1.00  0.00     0.010 C 
ATOM      6  C   UNL     1     108.705 112.323 116.473  1.00  0.00    -0.006 C 
ATOM      7  C   UNL     1     108.791 113.531 117.380  1.00  0.00     0.013 C 
ATOM      8  C   UNL     1     110.096 111.668 116.691  1.00  0.00     0.126 C 
ATOM      9  C   UNL     1     108.394 112.668 115.012  1.00  0.00     0.014 C 
ATOM     10  C   UNL     1     110.502 110.569 119.020  1.00  0.00     0.014 C 
ENDROOT
BRANCH   8  11
ATOM     11  O   UNL     1     110.100 110.308 116.327  1.00  0.00    -0.392 OA
ATOM     12  H   UNL     1     109.202 110.110 115.955  1.00  0.00     0.211 HD
ENDBRANCH   8  11
TORSDOF 1
ENDMDL
MODEL 5
REMARK VINA RESULT:    -3.027      2.484      3.880
REMARK INTER + INTRA:          -3.115
REMARK INTER:                  -3.115
REMARK INTRA:                   0.000
REMARK UNBOUND:                 0.000
REMARK SMILES CC1(C)[C@@H]2CC[C@@](C)(C2)[C@@H]1O
REMARK SMILES IDX 1 1 2 2 4 3 5 4 6 5 7 6 9 7 10 8 8 9 3 10 11 11
REMARK H PARENT 11 12
REMARK Flexibility Score: inf
ROOT
ATOM      1  C   UNL     1     113.468 119.731 114.960  1.00  0.00     0.014 C 
ATOM      2  C   UNL     1     114.203 118.568 114.249  1.00  0.00    -0.006 C 
ATOM      3  C   UNL     1     113.669 118.407 112.784  1.00  0.00    -0.002 C 
ATOM      4  C   UNL     1     114.184 117.104 112.139  1.00  0.00     0.005 C 
ATOM      5  C   UNL     1     115.688 117.372 111.982  1.00  0.00     0.010 C 
ATOM      6  C   UNL     1     115.824 118.839 112.454  1.00  0.00    -0.006 C 
ATOM      7  C   UNL     1     114.499 119.423 112.015  1.00  0.00     0.013 C 
ATOM      8  C   UNL     1     115.706 118.923 114.000  1.00  0.00     0.126 C 
ATOM      9  C   UNL     1     117.042 119.568 111.875  1.00  0.00     0.014 C 
ATOM     10  C   UNL     1     114.002 117.298 115.118  1.00  0.00     0.014 C 
ENDROOT
BRANCH   8  11
ATOM     11  O   UNL     1     116.592 118.039 114.644  1.00  0.00    -0.392 OA
ATOM     12  H   UNL     1     116.643 118.327 115.593  1.00  0.00     0.211 HD
ENDBRANCH   8  11
TORSDOF 1
ENDMDL
MODEL 6
REMARK VINA RESULT:    -3.001      7.570      8.579
REMARK INTER + INTRA:          -3.089
REMARK INTER:                  -3.089
REMARK INTRA:                   0.000
REMARK UNBOUND:                 0.000
REMARK SMILES CC1(C)[C@@H]2CC[C@@](C)(C2)[C@@H]1O
REMARK SMILES IDX 1 1 2 2 4 3 5 4 6 5 7 6 9 7 10 8 8 9 3 10 11 11
REMARK H PARENT 11 12
REMARK Flexibility Score: inf
ROOT
ATOM      1  C   UNL     1     121.370 120.606 118.927  1.00  0.00     0.014 C 
ATOM      2  C   UNL     1     122.675 121.399 118.667  1.00  0.00    -0.006 C 
ATOM      3  C   UNL     1     123.918 120.558 119.119  1.00  0.00    -0.002 C 
ATOM      4  C   UNL     1     125.202 121.411 119.119  1.00  0.00     0.005 C 
ATOM      5  C   UNL     1     125.433 121.682 117.625  1.00  0.00     0.010 C 
ATOM      6  C   UNL     1     124.313 120.854 116.952  1.00  0.00    -0.006 C 
ATOM      7  C   UNL     1     124.187 119.684 117.904  1.00  0.00     0.013 C 
ATOM      8  C   UNL     1     122.939 121.555 117.132  1.00  0.00     0.126 C 
ATOM      9  C   UNL     1     124.626 120.444 115.508  1.00  0.00     0.014 C 
ATOM     10  C   UNL     1     122.546 122.754 119.413  1.00  0.00     0.014 C 
ENDROOT
BRANCH   8  11
ATOM     11  O   UNL     1     122.975 122.898 116.716  1.00  0.00    -0.392 OA
ATOM     12  H   UNL     1     122.099 123.296 116.960  1.00  0.00     0.211 HD
ENDBRANCH   8  11
TORSDOF 1
ENDMDL
MODEL 7
REMARK VINA RESULT:    -2.973      8.893     10.010
REMARK INTER + INTRA:          -3.060
REMARK INTER:                  -3.060
REMARK INTRA:                   0.000
REMARK UNBOUND:                 0.000
REMARK SMILES CC1(C)[C@@H]2CC[C@@](C)(C2)[C@@H]1O
REMARK SMILES IDX 1 1 2 2 4 3 5 4 6 5 7 6 9 7 10 8 8 9 3 10 11 11
REMARK H PARENT 11 12
REMARK Flexibility Score: inf
ROOT
ATOM      1  C   UNL     1     112.104 121.832 118.702  1.00  0.00     0.014 C 
ATOM      2  C   UNL     1     111.447 123.191 118.352  1.00  0.00    -0.006 C 
ATOM      3  C   UNL     1     112.390 124.370 118.772  1.00  0.00    -0.002 C 
ATOM      4  C   UNL     1     111.663 125.728 118.682  1.00  0.00     0.005 C 
ATOM      5  C   UNL     1     111.459 125.907 117.170  1.00  0.00     0.010 C 
ATOM      6  C   UNL     1     112.195 124.681 116.580  1.00  0.00    -0.006 C 
ATOM      7  C   UNL     1     113.319 124.494 117.576  1.00  0.00     0.013 C 
ATOM      8  C   UNL     1     111.361 123.390 116.803  1.00  0.00     0.126 C 
ATOM      9  C   UNL     1     112.674 124.879 115.137  1.00  0.00     0.014 C 
ATOM     10  C   UNL     1     110.066 123.228 119.059  1.00  0.00     0.014 C 
ENDROOT
BRANCH   8  11
ATOM     11  O   UNL     1     110.039 123.530 116.341  1.00  0.00    -0.392 OA
ATOM     12  H   UNL     1     110.098 123.803 115.388  1.00  0.00     0.211 HD
ENDBRANCH   8  11
TORSDOF 1
ENDMDL
MODEL 8
REMARK VINA RESULT:    -2.953      7.229      8.540
REMARK INTER + INTRA:          -3.040
REMARK INTER:                  -3.040
REMARK INTRA:                   0.000
REMARK UNBOUND:                 0.000
REMARK SMILES CC1(C)[C@@H]2CC[C@@](C)(C2)[C@@H]1O
REMARK SMILES IDX 1 1 2 2 4 3 5 4 6 5 7 6 9 7 10 8 8 9 3 10 11 11
REMARK H PARENT 11 12
REMARK Flexibility Score: inf
ROOT
ATOM      1  C   UNL     1     123.738 118.952 118.638  1.00  0.00     0.014 C 
ATOM      2  C   UNL     1     123.278 120.338 118.123  1.00  0.00    -0.006 C 
ATOM      3  C   UNL     1     124.023 121.477 118.903  1.00  0.00    -0.002 C 
ATOM      4  C   UNL     1     123.403 122.858 118.604  1.00  0.00     0.005 C 
ATOM      5  C   UNL     1     123.770 123.085 117.130  1.00  0.00     0.010 C 
ATOM      6  C   UNL     1     124.650 121.855 116.804  1.00  0.00    -0.006 C 
ATOM      7  C   UNL     1     125.328 121.606 118.134  1.00  0.00     0.013 C 
ATOM      8  C   UNL     1     123.770 120.584 116.659  1.00  0.00     0.126 C 
ATOM      9  C   UNL     1     125.627 122.080 115.645  1.00  0.00     0.014 C 
ATOM     10  C   UNL     1     121.735 120.397 118.277  1.00  0.00     0.014 C 
ENDROOT
BRANCH   8  11
ATOM     11  O   UNL     1     122.712 120.777 115.751  1.00  0.00    -0.392 OA
ATOM     12  H   UNL     1     123.116 121.119 114.911  1.00  0.00     0.211 HD
ENDBRANCH   8  11
TORSDOF 1
ENDMDL
