MODEL 1
REMARK VINA RESULT:    -3.874      0.000      0.000
REMARK INTER + INTRA:          -4.335
REMARK INTER:                  -4.327
REMARK INTRA:                  -0.008
REMARK UNBOUND:                -0.008
REMARK SMILES CCCC(=O)[O-]
REMARK SMILES IDX 3 1 4 2 5 3 6 4 2 5 1 6
REMARK H PARENT
REMARK Flexibility Score: inf
ROOT
ATOM      1  C   UNL     1      10.896  28.332  54.970  1.00  0.00     0.052 C 
ENDROOT
BRANCH   1   2
ATOM      2  C   UNL     1      11.361  28.443  53.552  1.00  0.00     0.041 C 
ATOM      3  O   UNL     1      11.087  29.466  52.873  1.00  0.00    -0.550 OA
ATOM      4  O   UNL     1      12.057  27.393  52.965  1.00  0.00    -0.550 OA
ENDBRANCH   1   2
BRANCH   1   5
ATOM      5  C   UNL     1      11.050  29.674  55.690  1.00  0.00     0.003 C 
ATOM      6  C   UNL     1      10.971  29.498  57.204  1.00  0.00     0.004 C 
ENDBRANCH   1   5
TORSDOF 2
ENDMDL
MODEL 2
REMARK VINA RESULT:    -3.836     19.246     19.582
REMARK INTER + INTRA:          -4.293
REMARK INTER:                  -4.286
REMARK INTRA:                  -0.007
REMARK UNBOUND:                -0.008
REMARK SMILES CCCC(=O)[O-]
REMARK SMILES IDX 3 1 4 2 5 3 6 4 2 5 1 6
REMARK H PARENT
REMARK Flexibility Score: inf
ROOT
ATOM      1  C   UNL     1      17.329  19.746  70.157  1.00  0.00     0.052 C 
ENDROOT
BRANCH   1   2
ATOM      2  C   UNL     1      16.374  18.717  70.675  1.00  0.00     0.041 C 
ATOM      3  O   UNL     1      15.151  18.989  70.793  1.00  0.00    -0.550 OA
ATOM      4  O   UNL     1      16.843  17.472  71.074  1.00  0.00    -0.550 OA
ENDBRANCH   1   2
BRANCH   1   5
ATOM      5  C   UNL     1      17.195  21.048  70.952  1.00  0.00     0.003 C 
ATOM      6  C   UNL     1      18.465  21.888  70.849  1.00  0.00     0.004 C 
ENDBRANCH   1   5
TORSDOF 2
ENDMDL
MODEL 3
REMARK VINA RESULT:    -3.719     14.522     15.014
REMARK INTER + INTRA:          -4.162
REMARK INTER:                  -4.152
REMARK INTRA:                  -0.010
REMARK UNBOUND:                -0.008
REMARK SMILES CCCC(=O)[O-]
REMARK SMILES IDX 3 1 4 2 5 3 6 4 2 5 1 6
REMARK H PARENT
REMARK Flexibility Score: inf
ROOT
ATOM      1  C   UNL     1      18.784  16.249  60.086  1.00  0.00     0.052 C 
ENDROOT
BRANCH   1   2
ATOM      2  C   UNL     1      17.964  16.730  58.931  1.00  0.00     0.041 C 
ATOM      3  O   UNL     1      17.027  17.551  59.117  1.00  0.00    -0.550 OA
ATOM      4  O   UNL     1      18.203  16.236  57.655  1.00  0.00    -0.550 OA
ENDBRANCH   1   2
BRANCH   1   5
ATOM      5  C   UNL     1      19.585  17.404  60.692  1.00  0.00     0.003 C 
ATOM      6  C   UNL     1      19.989  17.098  62.132  1.00  0.00     0.004 C 
ENDBRANCH   1   5
TORSDOF 2
ENDMDL
MODEL 4
REMARK VINA RESULT:    -3.652     14.530     15.063
REMARK INTER + INTRA:          -4.087
REMARK INTER:                  -4.075
REMARK INTRA:                  -0.012
REMARK UNBOUND:                -0.008
REMARK SMILES CCCC(=O)[O-]
REMARK SMILES IDX 3 1 4 2 5 3 6 4 2 5 1 6
REMARK H PARENT
REMARK Flexibility Score: inf
ROOT
ATOM      1  C   UNL     1      18.857  16.158  59.958  1.00  0.00     0.052 C 
ENDROOT
BRANCH   1   2
ATOM      2  C   UNL     1      17.987  16.616  58.830  1.00  0.00     0.041 C 
ATOM      3  O   UNL     1      18.188  16.192  57.662  1.00  0.00    -0.550 OA
ATOM      4  O   UNL     1      16.985  17.550  59.060  1.00  0.00    -0.550 OA
ENDBRANCH   1   2
BRANCH   1   5
ATOM      5  C   UNL     1      19.491  17.359  60.666  1.00  0.00     0.003 C 
ATOM      6  C   UNL     1      19.808  17.034  62.123  1.00  0.00     0.004 C 
ENDBRANCH   1   5
TORSDOF 2
ENDMDL
MODEL 5
REMARK VINA RESULT:    -3.481     18.292     18.904
REMARK INTER + INTRA:          -3.896
REMARK INTER:                  -3.874
REMARK INTRA:                  -0.022
REMARK UNBOUND:                -0.008
REMARK SMILES CCCC(=O)[O-]
REMARK SMILES IDX 3 1 4 2 5 3 6 4 2 5 1 6
REMARK H PARENT
REMARK Flexibility Score: inf
ROOT
ATOM      1  C   UNL     1      13.586  13.117  63.512  1.00  0.00     0.052 C 
ENDROOT
BRANCH   1   2
ATOM      2  C   UNL     1      14.298  11.840  63.827  1.00  0.00     0.041 C 
ATOM      3  O   UNL     1      15.458  11.634  63.383  1.00  0.00    -0.550 OA
ATOM      4  O   UNL     1      13.661  10.854  64.571  1.00  0.00    -0.550 OA
ENDBRANCH   1   2
BRANCH   1   5
ATOM      5  C   UNL     1      13.834  14.153  64.612  1.00  0.00     0.003 C 
ATOM      6  C   UNL     1      14.411  15.442  64.034  1.00  0.00     0.004 C 
ENDBRANCH   1   5
TORSDOF 2
ENDMDL
MODEL 6
REMARK VINA RESULT:    -3.461     15.042     15.600
REMARK INTER + INTRA:          -3.874
REMARK INTER:                  -3.861
REMARK INTRA:                  -0.012
REMARK UNBOUND:                -0.008
REMARK SMILES CCCC(=O)[O-]
REMARK SMILES IDX 3 1 4 2 5 3 6 4 2 5 1 6
REMARK H PARENT
REMARK Flexibility Score: inf
ROOT
ATOM      1  C   UNL     1      18.687  16.999  59.856  1.00  0.00     0.052 C 
ENDROOT
BRANCH   1   2
ATOM      2  C   UNL     1      18.371  15.927  58.861  1.00  0.00     0.041 C 
ATOM      3  O   UNL     1      18.169  14.745  59.245  1.00  0.00    -0.550 OA
ATOM      4  O   UNL     1      18.348  16.223  57.504  1.00  0.00    -0.550 OA
ENDBRANCH   1   2
BRANCH   1   5
ATOM      5  C   UNL     1      19.061  16.382  61.206  1.00  0.00     0.003 C 
ATOM      6  C   UNL     1      19.852  17.369  62.061  1.00  0.00     0.004 C 
ENDBRANCH   1   5
TORSDOF 2
ENDMDL
MODEL 7
REMARK VINA RESULT:    -3.374     14.293     14.928
REMARK INTER + INTRA:          -3.777
REMARK INTER:                  -3.710
REMARK INTRA:                  -0.067
REMARK UNBOUND:                -0.008
REMARK SMILES CCCC(=O)[O-]
REMARK SMILES IDX 3 1 4 2 5 3 6 4 2 5 1 6
REMARK H PARENT
REMARK Flexibility Score: inf
ROOT
ATOM      1  C   UNL     1      17.290  17.130  59.261  1.00  0.00     0.052 C 
ENDROOT
BRANCH   1   2
ATOM      2  C   UNL     1      18.262  16.150  58.684  1.00  0.00     0.041 C 
ATOM      3  O   UNL     1      18.835  15.311  59.428  1.00  0.00    -0.550 OA
ATOM      4  O   UNL     1      18.574  16.195  57.331  1.00  0.00    -0.550 OA
ENDBRANCH   1   2
BRANCH   1   5
ATOM      5  C   UNL     1      16.134  16.395  59.945  1.00  0.00     0.003 C 
ATOM      6  C   UNL     1      15.347  15.554  58.944  1.00  0.00     0.004 C 
ENDBRANCH   1   5
TORSDOF 2
ENDMDL
MODEL 8
REMARK VINA RESULT:    -3.305     15.103     15.655
REMARK INTER + INTRA:          -3.699
REMARK INTER:                  -3.645
REMARK INTRA:                  -0.054
REMARK UNBOUND:                -0.008
REMARK SMILES CCCC(=O)[O-]
REMARK SMILES IDX 3 1 4 2 5 3 6 4 2 5 1 6
REMARK H PARENT
REMARK Flexibility Score: inf
ROOT
ATOM      1  C   UNL     1      18.769  16.099  60.369  1.00  0.00     0.052 C 
ENDROOT
BRANCH   1   2
ATOM      2  C   UNL     1      17.357  16.274  60.831  1.00  0.00     0.041 C 
ATOM      3  O   UNL     1      16.885  15.523  61.725  1.00  0.00    -0.550 OA
ATOM      4  O   UNL     1      16.546  17.235  60.241  1.00  0.00    -0.550 OA
ENDBRANCH   1   2
BRANCH   1   5
ATOM      5  C   UNL     1      19.614  17.314  60.760  1.00  0.00     0.003 C 
ATOM      6  C   UNL     1      20.059  17.229  62.217  1.00  0.00     0.004 C 
ENDBRANCH   1   5
TORSDOF 2
ENDMDL
MODEL 9
REMARK VINA RESULT:    -3.086     15.136     15.825
REMARK INTER + INTRA:          -3.455
REMARK INTER:                  -3.423
REMARK INTRA:                  -0.032
REMARK UNBOUND:                -0.008
REMARK SMILES CCCC(=O)[O-]
REMARK SMILES IDX 3 1 4 2 5 3 6 4 2 5 1 6
REMARK H PARENT
REMARK Flexibility Score: inf
ROOT
ATOM      1  C   UNL     1      19.254  17.196  60.221  1.00  0.00     0.052 C 
ENDROOT
BRANCH   1   2
ATOM      2  C   UNL     1      19.010  16.950  61.676  1.00  0.00     0.041 C 
ATOM      3  O   UNL     1      18.714  15.796  62.083  1.00  0.00    -0.550 OA
ATOM      4  O   UNL     1      19.062  18.005  62.578  1.00  0.00    -0.550 OA
ENDBRANCH   1   2
BRANCH   1   5
ATOM      5  C   UNL     1      17.993  16.888  59.408  1.00  0.00     0.003 C 
ATOM      6  C   UNL     1      18.294  15.903  58.281  1.00  0.00     0.004 C 
ENDBRANCH   1   5
TORSDOF 2
ENDMDL
