MODEL 1
REMARK VINA RESULT:    -4.538      0.000      0.000
REMARK INTER + INTRA:          -6.722
REMARK INTER:                  -6.129
REMARK INTRA:                  -0.593
REMARK UNBOUND:                -0.593
REMARK SMILES CC(=O)CCC=C(C)CCC=C(C)C
REMARK SMILES IDX 7 1 6 2 8 3 9 4 10 5 11 6 13 7 12 8 14 9 5 10 4 11 2 12 3 13
REMARK SMILES IDX 1 14
REMARK H PARENT
REMARK Flexibility Score: inf
ROOT
ATOM      1  C   UNL     1      16.713 -44.547  -7.316  1.00  0.00    -0.077 C 
ATOM      2  C   UNL     1      15.596 -45.055  -6.747  1.00  0.00    -0.028 C 
ATOM      3  C   UNL     1      16.829 -43.084  -7.680  1.00  0.00     0.039 C 
ENDROOT
BRANCH   1   4
ATOM      4  C   UNL     1      17.874 -45.473  -7.603  1.00  0.00     0.034 C 
BRANCH   4   5
ATOM      5  C   UNL     1      17.737 -46.107  -8.992  1.00  0.00     0.032 C 
BRANCH   5   6
ATOM      6  C   UNL     1      19.032 -46.006  -9.757  1.00  0.00    -0.028 C 
ATOM      7  C   UNL     1      18.131 -44.313 -11.368  1.00  0.00     0.039 C 
ATOM      8  C   UNL     1      19.217 -45.222 -10.843  1.00  0.00    -0.080 C 
ATOM      9  C   UNL     1      20.559 -45.251 -11.529  1.00  0.00     0.039 C 
ENDBRANCH   5   6
ENDBRANCH   4   5
ENDBRANCH   1   4
BRANCH   2  10
ATOM     10  C   UNL     1      14.383 -44.241  -6.368  1.00  0.00     0.035 C 
BRANCH  10  11
ATOM     11  C   UNL     1      13.402 -44.152  -7.548  1.00  0.00     0.079 C 
BRANCH  11  12
ATOM     12  C   UNL     1      12.345 -43.079  -7.400  1.00  0.00     0.130 C 
ATOM     13  O   UNL     1      12.583 -42.128  -6.672  1.00  0.00    -0.300 OA
ATOM     14  C   UNL     1      11.021 -43.130  -8.112  1.00  0.00     0.087 C 
ENDBRANCH  11  12
ENDBRANCH  10  11
ENDBRANCH   2  10
TORSDOF 6
ENDMDL
MODEL 2
REMARK VINA RESULT:    -4.466     18.870     20.718
REMARK INTER + INTRA:          -6.624
REMARK INTER:                  -5.922
REMARK INTRA:                  -0.702
REMARK UNBOUND:                -0.593
REMARK SMILES CC(=O)CCC=C(C)CCC=C(C)C
REMARK SMILES IDX 7 1 6 2 8 3 9 4 10 5 11 6 13 7 12 8 14 9 5 10 4 11 2 12 3 13
REMARK SMILES IDX 1 14
REMARK H PARENT
REMARK Flexibility Score: inf
ROOT
ATOM      1  C   UNL     1      27.424 -28.912 -14.771  1.00  0.00    -0.077 C 
ATOM      2  C   UNL     1      27.696 -27.590 -14.858  1.00  0.00    -0.028 C 
ATOM      3  C   UNL     1      26.101 -29.486 -15.224  1.00  0.00     0.039 C 
ENDROOT
BRANCH   1   4
ATOM      4  C   UNL     1      28.471 -29.839 -14.194  1.00  0.00     0.034 C 
BRANCH   4   5
ATOM      5  C   UNL     1      27.819 -31.066 -13.547  1.00  0.00     0.032 C 
BRANCH   5   6
ATOM      6  C   UNL     1      28.822 -32.179 -13.380  1.00  0.00    -0.028 C 
ATOM      7  C   UNL     1      28.509 -33.027 -15.715  1.00  0.00     0.039 C 
ATOM      8  C   UNL     1      29.125 -33.084 -14.337  1.00  0.00    -0.080 C 
ATOM      9  C   UNL     1      30.123 -34.165 -14.013  1.00  0.00     0.039 C 
ENDBRANCH   5   6
ENDBRANCH   4   5
ENDBRANCH   1   4
BRANCH   2  10
ATOM     10  C   UNL     1      26.763 -26.561 -15.449  1.00  0.00     0.035 C 
BRANCH  10  11
ATOM     11  C   UNL     1      27.412 -25.875 -16.660  1.00  0.00     0.079 C 
BRANCH  11  12
ATOM     12  C   UNL     1      27.013 -26.461 -17.997  1.00  0.00     0.130 C 
ATOM     13  O   UNL     1      27.784 -26.338 -18.937  1.00  0.00    -0.300 OA
ATOM     14  C   UNL     1      25.717 -27.192 -18.218  1.00  0.00     0.087 C 
ENDBRANCH  11  12
ENDBRANCH  10  11
ENDBRANCH   2  10
TORSDOF 6
ENDMDL
MODEL 3
REMARK VINA RESULT:    -4.453      1.176      1.490
REMARK INTER + INTRA:          -6.608
REMARK INTER:                  -6.085
REMARK INTRA:                  -0.523
REMARK UNBOUND:                -0.593
REMARK SMILES CC(=O)CCC=C(C)CCC=C(C)C
REMARK SMILES IDX 7 1 6 2 8 3 9 4 10 5 11 6 13 7 12 8 14 9 5 10 4 11 2 12 3 13
REMARK SMILES IDX 1 14
REMARK H PARENT
REMARK Flexibility Score: inf
ROOT
ATOM      1  C   UNL     1      15.820 -44.458  -6.915  1.00  0.00    -0.077 C 
ATOM      2  C   UNL     1      14.839 -44.437  -7.847  1.00  0.00    -0.028 C 
ATOM      3  C   UNL     1      15.543 -44.164  -5.459  1.00  0.00     0.039 C 
ENDROOT
BRANCH   1   4
ATOM      4  C   UNL     1      17.235 -44.774  -7.348  1.00  0.00     0.034 C 
BRANCH   4   5
ATOM      5  C   UNL     1      17.240 -45.771  -8.513  1.00  0.00     0.032 C 
BRANCH   5   6
ATOM      6  C   UNL     1      18.631 -45.933  -9.072  1.00  0.00    -0.028 C 
ATOM      7  C   UNL     1      18.105 -44.669 -11.169  1.00  0.00     0.039 C 
ATOM      8  C   UNL     1      19.028 -45.464 -10.276  1.00  0.00    -0.080 C 
ATOM      9  C   UNL     1      20.443 -45.734 -10.720  1.00  0.00     0.039 C 
ENDBRANCH   5   6
ENDBRANCH   4   5
ENDBRANCH   1   4
BRANCH   2  10
ATOM     10  C   UNL     1      13.383 -44.178  -7.550  1.00  0.00     0.035 C 
BRANCH  10  11
ATOM     11  C   UNL     1      13.002 -42.738  -7.926  1.00  0.00     0.079 C 
BRANCH  11  12
ATOM     12  C   UNL     1      11.549 -42.556  -8.307  1.00  0.00     0.130 C 
ATOM     13  O   UNL     1      10.719 -43.289  -7.792  1.00  0.00    -0.300 OA
ATOM     14  C   UNL     1      11.083 -41.513  -9.285  1.00  0.00     0.087 C 
ENDBRANCH  11  12
ENDBRANCH  10  11
ENDBRANCH   2  10
TORSDOF 6
ENDMDL
MODEL 4
REMARK VINA RESULT:    -4.447      2.213      3.943
REMARK INTER + INTRA:          -6.600
REMARK INTER:                  -5.654
REMARK INTRA:                  -0.946
REMARK UNBOUND:                -0.593
REMARK SMILES CC(=O)CCC=C(C)CCC=C(C)C
REMARK SMILES IDX 7 1 6 2 8 3 9 4 10 5 11 6 13 7 12 8 14 9 5 10 4 11 2 12 3 13
REMARK SMILES IDX 1 14
REMARK H PARENT
REMARK Flexibility Score: inf
ROOT
ATOM      1  C   UNL     1      13.268 -42.833  -7.486  1.00  0.00    -0.077 C 
ATOM      2  C   UNL     1      11.986 -43.216  -7.685  1.00  0.00    -0.028 C 
ATOM      3  C   UNL     1      13.916 -41.750  -8.316  1.00  0.00     0.039 C 
ENDROOT
BRANCH   1   4
ATOM      4  C   UNL     1      14.076 -43.518  -6.406  1.00  0.00     0.034 C 
BRANCH   4   5
ATOM      5  C   UNL     1      14.379 -44.972  -6.789  1.00  0.00     0.032 C 
BRANCH   5   6
ATOM      6  C   UNL     1      15.862 -45.238  -6.749  1.00  0.00    -0.028 C 
ATOM      7  C   UNL     1      16.191 -44.670  -9.166  1.00  0.00     0.039 C 
ATOM      8  C   UNL     1      16.686 -45.130  -7.815  1.00  0.00    -0.080 C 
ATOM      9  C   UNL     1      18.144 -45.465  -7.633  1.00  0.00     0.039 C 
ENDBRANCH   5   6
ENDBRANCH   4   5
ENDBRANCH   1   4
BRANCH   2  10
ATOM     10  C   UNL     1      11.054 -42.592  -8.695  1.00  0.00     0.035 C 
BRANCH  10  11
ATOM     11  C   UNL     1       9.875 -41.903  -7.991  1.00  0.00     0.079 C 
BRANCH  11  12
ATOM     12  C   UNL     1      10.182 -40.515  -7.473  1.00  0.00     0.130 C 
ATOM     13  O   UNL     1       9.875 -40.245  -6.322  1.00  0.00    -0.300 OA
ATOM     14  C   UNL     1      10.852 -39.458  -8.308  1.00  0.00     0.087 C 
ENDBRANCH  11  12
ENDBRANCH  10  11
ENDBRANCH   2  10
TORSDOF 6
ENDMDL
MODEL 5
REMARK VINA RESULT:    -4.425      1.569      2.708
REMARK INTER + INTRA:          -6.570
REMARK INTER:                  -6.017
REMARK INTRA:                  -0.552
REMARK UNBOUND:                -0.593
REMARK SMILES CC(=O)CCC=C(C)CCC=C(C)C
REMARK SMILES IDX 7 1 6 2 8 3 9 4 10 5 11 6 13 7 12 8 14 9 5 10 4 11 2 12 3 13
REMARK SMILES IDX 1 14
REMARK H PARENT
REMARK Flexibility Score: inf
ROOT
ATOM      1  C   UNL     1      14.416 -44.261  -6.594  1.00  0.00    -0.077 C 
ATOM      2  C   UNL     1      13.451 -44.189  -7.539  1.00  0.00    -0.028 C 
ATOM      3  C   UNL     1      14.452 -43.314  -5.416  1.00  0.00     0.039 C 
ENDROOT
BRANCH   1   4
ATOM      4  C   UNL     1      15.493 -45.315  -6.726  1.00  0.00     0.034 C 
BRANCH   4   5
ATOM      5  C   UNL     1      16.814 -44.690  -7.191  1.00  0.00     0.032 C 
BRANCH   5   6
ATOM      6  C   UNL     1      16.896 -44.671  -8.697  1.00  0.00    -0.028 C 
ATOM      7  C   UNL     1      19.019 -45.999  -8.756  1.00  0.00     0.039 C 
ATOM      8  C   UNL     1      17.895 -45.234  -9.414  1.00  0.00    -0.080 C 
ATOM      9  C   UNL     1      17.862 -45.103 -10.914  1.00  0.00     0.039 C 
ENDBRANCH   5   6
ENDBRANCH   4   5
ENDBRANCH   1   4
BRANCH   2  10
ATOM     10  C   UNL     1      12.296 -43.218  -7.511  1.00  0.00     0.035 C 
BRANCH  10  11
ATOM     11  C   UNL     1      12.584 -42.010  -8.414  1.00  0.00     0.079 C 
BRANCH  11  12
ATOM     12  C   UNL     1      11.376 -41.488  -9.162  1.00  0.00     0.130 C 
ATOM     13  O   UNL     1      11.557 -40.906 -10.221  1.00  0.00    -0.300 OA
ATOM     14  C   UNL     1       9.967 -41.659  -8.664  1.00  0.00     0.087 C 
ENDBRANCH  11  12
ENDBRANCH  10  11
ENDBRANCH   2  10
TORSDOF 6
ENDMDL
MODEL 6
REMARK VINA RESULT:    -4.375      2.741      6.612
REMARK INTER + INTRA:          -6.502
REMARK INTER:                  -5.702
REMARK INTRA:                  -0.801
REMARK UNBOUND:                -0.593
REMARK SMILES CC(=O)CCC=C(C)CCC=C(C)C
REMARK SMILES IDX 7 1 6 2 8 3 9 4 10 5 11 6 13 7 12 8 14 9 5 10 4 11 2 12 3 13
REMARK SMILES IDX 1 14
REMARK H PARENT
REMARK Flexibility Score: inf
ROOT
ATOM      1  C   UNL     1      12.375 -43.134  -7.337  1.00  0.00    -0.077 C 
ATOM      2  C   UNL     1      13.199 -44.142  -7.705  1.00  0.00    -0.028 C 
ATOM      3  C   UNL     1      12.848 -41.994  -6.466  1.00  0.00     0.039 C 
ENDROOT
BRANCH   1   4
ATOM      4  C   UNL     1      10.936 -43.157  -7.805  1.00  0.00     0.034 C 
BRANCH   4   5
ATOM      5  C   UNL     1      10.508 -41.780  -8.324  1.00  0.00     0.032 C 
BRANCH   5   6
ATOM      6  C   UNL     1      11.171 -41.476  -9.644  1.00  0.00    -0.028 C 
ATOM      7  C   UNL     1      11.986 -39.229  -8.897  1.00  0.00     0.039 C 
ATOM      8  C   UNL     1      11.819 -40.323  -9.925  1.00  0.00    -0.080 C 
ATOM      9  C   UNL     1      12.402 -40.145 -11.303  1.00  0.00     0.039 C 
ENDBRANCH   5   6
ENDBRANCH   4   5
ENDBRANCH   1   4
BRANCH   2  10
ATOM     10  C   UNL     1      14.662 -44.225  -7.346  1.00  0.00     0.035 C 
BRANCH  10  11
ATOM     11  C   UNL     1      15.537 -43.909  -8.569  1.00  0.00     0.079 C 
BRANCH  11  12
ATOM     12  C   UNL     1      16.568 -44.970  -8.890  1.00  0.00     0.130 C 
ATOM     13  O   UNL     1      16.752 -45.264 -10.061  1.00  0.00    -0.300 OA
ATOM     14  C   UNL     1      17.377 -45.672  -7.833  1.00  0.00     0.087 C 
ENDBRANCH  11  12
ENDBRANCH  10  11
ENDBRANCH   2  10
TORSDOF 6
ENDMDL
MODEL 7
REMARK VINA RESULT:    -4.363     15.105     17.158
REMARK INTER + INTRA:          -6.486
REMARK INTER:                  -5.422
REMARK INTRA:                  -1.064
REMARK UNBOUND:                -0.593
REMARK SMILES CC(=O)CCC=C(C)CCC=C(C)C
REMARK SMILES IDX 7 1 6 2 8 3 9 4 10 5 11 6 13 7 12 8 14 9 5 10 4 11 2 12 3 13
REMARK SMILES IDX 1 14
REMARK H PARENT
REMARK Flexibility Score: inf
ROOT
ATOM      1  C   UNL     1      27.540 -44.446 -19.845  1.00  0.00    -0.077 C 
ATOM      2  C   UNL     1      28.694 -44.588 -19.154  1.00  0.00    -0.028 C 
ATOM      3  C   UNL     1      26.220 -44.197 -19.152  1.00  0.00     0.039 C 
ENDROOT
BRANCH   1   4
ATOM      4  C   UNL     1      27.572 -44.548 -21.354  1.00  0.00     0.034 C 
BRANCH   4   5
ATOM      5  C   UNL     1      28.619 -43.595 -21.944  1.00  0.00     0.032 C 
BRANCH   5   6
ATOM      6  C   UNL     1      28.096 -42.182 -21.980  1.00  0.00    -0.028 C 
ATOM      7  C   UNL     1      27.407 -42.330 -24.384  1.00  0.00     0.039 C 
ATOM      8  C   UNL     1      27.571 -41.590 -23.077  1.00  0.00    -0.080 C 
ATOM      9  C   UNL     1      27.122 -40.156 -22.972  1.00  0.00     0.039 C 
ENDBRANCH   5   6
ENDBRANCH   4   5
ENDBRANCH   1   4
BRANCH   2  10
ATOM     10  C   UNL     1      28.814 -44.469 -17.655  1.00  0.00     0.035 C 
BRANCH  10  11
ATOM     11  C   UNL     1      29.442 -43.122 -17.268  1.00  0.00     0.079 C 
BRANCH  11  12
ATOM     12  C   UNL     1      28.482 -41.952 -17.306  1.00  0.00     0.130 C 
ATOM     13  O   UNL     1      27.740 -41.781 -16.350  1.00  0.00    -0.300 OA
ATOM     14  C   UNL     1      28.406 -40.991 -18.460  1.00  0.00     0.087 C 
ENDBRANCH  11  12
ENDBRANCH  10  11
ENDBRANCH   2  10
TORSDOF 6
ENDMDL
MODEL 8
REMARK VINA RESULT:    -4.351      2.377      6.355
REMARK INTER + INTRA:          -6.470
REMARK INTER:                  -5.821
REMARK INTRA:                  -0.649
REMARK UNBOUND:                -0.593
REMARK SMILES CC(=O)CCC=C(C)CCC=C(C)C
REMARK SMILES IDX 7 1 6 2 8 3 9 4 10 5 11 6 13 7 12 8 14 9 5 10 4 11 2 12 3 13
REMARK SMILES IDX 1 14
REMARK H PARENT
REMARK Flexibility Score: inf
ROOT
ATOM      1  C   UNL     1      16.235 -44.821  -6.805  1.00  0.00    -0.077 C 
ATOM      2  C   UNL     1      16.893 -45.773  -7.504  1.00  0.00    -0.028 C 
ATOM      3  C   UNL     1      16.934 -43.586  -6.283  1.00  0.00     0.039 C 
ENDROOT
BRANCH   1   4
ATOM      4  C   UNL     1      14.758 -45.003  -6.530  1.00  0.00     0.034 C 
BRANCH   4   5
ATOM      5  C   UNL     1      13.914 -44.200  -7.525  1.00  0.00     0.032 C 
BRANCH   5   6
ATOM      6  C   UNL     1      13.353 -42.961  -6.874  1.00  0.00    -0.028 C 
ATOM      7  C   UNL     1      11.105 -43.222  -7.946  1.00  0.00     0.039 C 
ATOM      8  C   UNL     1      12.100 -42.495  -7.072  1.00  0.00    -0.080 C 
ATOM      9  C   UNL     1      11.690 -41.220  -6.381  1.00  0.00     0.039 C 
ENDBRANCH   5   6
ENDBRANCH   4   5
ENDBRANCH   1   4
BRANCH   2  10
ATOM     10  C   UNL     1      18.352 -45.701  -7.884  1.00  0.00     0.035 C 
BRANCH  10  11
ATOM     11  C   UNL     1      18.537 -46.013  -9.377  1.00  0.00     0.079 C 
BRANCH  11  12
ATOM     12  C   UNL     1      18.387 -44.815 -10.289  1.00  0.00     0.130 C 
ATOM     13  O   UNL     1      18.152 -45.012 -11.471  1.00  0.00    -0.300 OA
ATOM     14  C   UNL     1      18.509 -43.396  -9.804  1.00  0.00     0.087 C 
ENDBRANCH  11  12
ENDBRANCH  10  11
ENDBRANCH   2  10
TORSDOF 6
ENDMDL
MODEL 9
REMARK VINA RESULT:    -4.270      1.605      2.255
REMARK INTER + INTRA:          -6.360
REMARK INTER:                  -5.274
REMARK INTRA:                  -1.086
REMARK UNBOUND:                -0.593
REMARK SMILES CC(=O)CCC=C(C)CCC=C(C)C
REMARK SMILES IDX 7 1 6 2 8 3 9 4 10 5 11 6 13 7 12 8 14 9 5 10 4 11 2 12 3 13
REMARK SMILES IDX 1 14
REMARK H PARENT
REMARK Flexibility Score: inf
ROOT
ATOM      1  C   UNL     1      16.857 -44.837  -9.130  1.00  0.00    -0.077 C 
ATOM      2  C   UNL     1      16.834 -45.358  -7.882  1.00  0.00    -0.028 C 
ATOM      3  C   UNL     1      16.363 -43.438  -9.420  1.00  0.00     0.039 C 
ENDROOT
BRANCH   1   4
ATOM      4  C   UNL     1      17.383 -45.684 -10.268  1.00  0.00     0.034 C 
BRANCH   4   5
ATOM      5  C   UNL     1      18.694 -45.108 -10.817  1.00  0.00     0.032 C 
BRANCH   5   6
ATOM      6  C   UNL     1      19.883 -45.765 -10.164  1.00  0.00    -0.028 C 
ATOM      7  C   UNL     1      20.336 -43.815  -8.660  1.00  0.00     0.039 C 
ATOM      8  C   UNL     1      20.646 -45.187  -9.210  1.00  0.00    -0.080 C 
ATOM      9  C   UNL     1      21.828 -45.953  -8.674  1.00  0.00     0.039 C 
ENDBRANCH   5   6
ENDBRANCH   4   5
ENDBRANCH   1   4
BRANCH   2  10
ATOM     10  C   UNL     1      16.376 -44.614  -6.652  1.00  0.00     0.035 C 
BRANCH  10  11
ATOM     11  C   UNL     1      14.899 -44.916  -6.356  1.00  0.00     0.079 C 
BRANCH  11  12
ATOM     12  C   UNL     1      13.978 -43.723  -6.493  1.00  0.00     0.130 C 
ATOM     13  O   UNL     1      13.996 -42.874  -5.615  1.00  0.00    -0.300 OA
ATOM     14  C   UNL     1      13.049 -43.535  -7.661  1.00  0.00     0.087 C 
ENDBRANCH  11  12
ENDBRANCH  10  11
ENDBRANCH   2  10
TORSDOF 6
ENDMDL
