MODEL 1
REMARK VINA RESULT:    -2.750      0.000      0.000
REMARK INTER + INTRA:          -4.497
REMARK INTER:                  -3.875
REMARK INTRA:                  -0.622
REMARK UNBOUND:                -0.622
REMARK SMILES CCCCCCCCC(=O)[O-]
REMARK SMILES IDX 6 1 7 2 8 3 9 4 10 5 11 6 5 7 4 8 3 9 2 10 1 11
REMARK H PARENT
REMARK Flexibility Score: inf
ROOT
ATOM      1  C   UNL     1       6.661 -21.609  17.524  1.00  0.00     0.000 C 
ENDROOT
BRANCH   1   2
ATOM      2  C   UNL     1       5.238 -22.080  17.175  1.00  0.00     0.006 C 
BRANCH   2   3
ATOM      3  C   UNL     1       5.205 -22.915  15.887  1.00  0.00     0.053 C 
BRANCH   3   4
ATOM      4  C   UNL     1       3.825 -22.997  15.310  1.00  0.00     0.041 C 
ATOM      5  O   UNL     1       2.818 -22.922  16.062  1.00  0.00    -0.550 OA
ATOM      6  O   UNL     1       3.651 -23.125  13.937  1.00  0.00    -0.550 OA
ENDBRANCH   3   4
ENDBRANCH   2   3
ENDBRANCH   1   2
BRANCH   1   7
ATOM      7  C   UNL     1       7.733 -22.654  17.175  1.00  0.00     0.000 C 
BRANCH   7   8
ATOM      8  C   UNL     1       8.865 -22.073  16.310  1.00  0.00    -0.000 C 
BRANCH   8   9
ATOM      9  C   UNL     1       8.407 -20.874  15.466  1.00  0.00    -0.000 C 
BRANCH   9  10
ATOM     10  C   UNL     1       8.665 -21.071  13.965  1.00  0.00    -0.003 C 
ATOM     11  C   UNL     1       7.493 -21.783  13.296  1.00  0.00     0.004 C 
ENDBRANCH   9  10
ENDBRANCH   8   9
ENDBRANCH   7   8
ENDBRANCH   1   7
TORSDOF 7
ENDMDL
MODEL 2
REMARK VINA RESULT:    -2.704     12.596     15.399
REMARK INTER + INTRA:          -4.433
REMARK INTER:                  -3.883
REMARK INTRA:                  -0.550
REMARK UNBOUND:                -0.622
REMARK SMILES CCCCCCCCC(=O)[O-]
REMARK SMILES IDX 6 1 7 2 8 3 9 4 10 5 11 6 5 7 4 8 3 9 2 10 1 11
REMARK H PARENT
REMARK Flexibility Score: inf
ROOT
ATOM      1  C   UNL     1      -9.306 -22.996  17.890  1.00  0.00     0.000 C 
ENDROOT
BRANCH   1   2
ATOM      2  C   UNL     1      -8.082 -22.214  17.384  1.00  0.00     0.006 C 
BRANCH   2   3
ATOM      3  C   UNL     1      -6.868 -23.125  17.153  1.00  0.00     0.053 C 
BRANCH   3   4
ATOM      4  C   UNL     1      -5.682 -22.360  16.650  1.00  0.00     0.041 C 
ATOM      5  O   UNL     1      -4.522 -22.666  17.032  1.00  0.00    -0.550 OA
ATOM      6  O   UNL     1      -5.857 -21.328  15.735  1.00  0.00    -0.550 OA
ENDBRANCH   3   4
ENDBRANCH   2   3
ENDBRANCH   1   2
BRANCH   1   7
ATOM      7  C   UNL     1     -10.632 -22.276  17.598  1.00  0.00     0.000 C 
BRANCH   7   8
ATOM      8  C   UNL     1     -10.540 -20.755  17.815  1.00  0.00    -0.000 C 
BRANCH   8   9
ATOM      9  C   UNL     1     -11.030 -19.955  16.598  1.00  0.00    -0.000 C 
BRANCH   9  10
ATOM     10  C   UNL     1     -10.942 -20.752  15.289  1.00  0.00    -0.003 C 
ATOM     11  C   UNL     1      -9.670 -20.407  14.520  1.00  0.00     0.004 C 
ENDBRANCH   9  10
ENDBRANCH   8   9
ENDBRANCH   7   8
ENDBRANCH   1   7
TORSDOF 7
ENDMDL
MODEL 3
REMARK VINA RESULT:    -2.698      3.147      4.837
REMARK INTER + INTRA:          -4.424
REMARK INTER:                  -4.088
REMARK INTRA:                  -0.336
REMARK UNBOUND:                -0.622
REMARK SMILES CCCCCCCCC(=O)[O-]
REMARK SMILES IDX 6 1 7 2 8 3 9 4 10 5 11 6 5 7 4 8 3 9 2 10 1 11
REMARK H PARENT
REMARK Flexibility Score: inf
ROOT
ATOM      1  C   UNL     1       8.064 -20.914  15.805  1.00  0.00     0.000 C 
ENDROOT
BRANCH   1   2
ATOM      2  C   UNL     1       8.980 -21.164  14.595  1.00  0.00     0.006 C 
BRANCH   2   3
ATOM      3  C   UNL     1       8.188 -21.280  13.285  1.00  0.00     0.053 C 
BRANCH   3   4
ATOM      4  C   UNL     1       8.602 -20.241  12.288  1.00  0.00     0.041 C 
ATOM      5  O   UNL     1       8.822 -20.564  11.091  1.00  0.00    -0.550 OA
ATOM      6  O   UNL     1       8.716 -18.911  12.674  1.00  0.00    -0.550 OA
ENDBRANCH   3   4
ENDBRANCH   2   3
ENDBRANCH   1   2
BRANCH   1   7
ATOM      7  C   UNL     1       8.444 -21.773  17.023  1.00  0.00     0.000 C 
BRANCH   7   8
ATOM      8  C   UNL     1       7.235 -22.509  17.627  1.00  0.00    -0.000 C 
BRANCH   8   9
ATOM      9  C   UNL     1       5.893 -21.920  17.164  1.00  0.00    -0.000 C 
BRANCH   9  10
ATOM     10  C   UNL     1       5.138 -22.848  16.202  1.00  0.00    -0.003 C 
ATOM     11  C   UNL     1       3.633 -22.614  16.282  1.00  0.00     0.004 C 
ENDBRANCH   9  10
ENDBRANCH   8   9
ENDBRANCH   7   8
ENDBRANCH   1   7
TORSDOF 7
ENDMDL
MODEL 4
REMARK VINA RESULT:    -2.628      0.936      1.490
REMARK INTER + INTRA:          -4.325
REMARK INTER:                  -3.747
REMARK INTRA:                  -0.578
REMARK UNBOUND:                -0.622
REMARK SMILES CCCCCCCCC(=O)[O-]
REMARK SMILES IDX 6 1 7 2 8 3 9 4 10 5 11 6 5 7 4 8 3 9 2 10 1 11
REMARK H PARENT
REMARK Flexibility Score: inf
ROOT
ATOM      1  C   UNL     1       5.331 -21.837  17.138  1.00  0.00     0.000 C 
ENDROOT
BRANCH   1   2
ATOM      2  C   UNL     1       5.018 -22.997  16.178  1.00  0.00     0.006 C 
BRANCH   2   3
ATOM      3  C   UNL     1       3.552 -22.993  15.723  1.00  0.00     0.053 C 
BRANCH   3   4
ATOM      4  C   UNL     1       3.429 -22.853  14.236  1.00  0.00     0.041 C 
ATOM      5  O   UNL     1       2.293 -22.785  13.699  1.00  0.00    -0.550 OA
ATOM      6  O   UNL     1       4.570 -22.768  13.448  1.00  0.00    -0.550 OA
ENDBRANCH   3   4
ENDBRANCH   2   3
ENDBRANCH   1   2
BRANCH   1   7
ATOM      7  C   UNL     1       6.704 -21.980  17.814  1.00  0.00     0.000 C 
BRANCH   7   8
ATOM      8  C   UNL     1       7.695 -22.803  16.972  1.00  0.00    -0.000 C 
BRANCH   8   9
ATOM      9  C   UNL     1       8.856 -21.954  16.430  1.00  0.00    -0.000 C 
BRANCH   9  10
ATOM     10  C   UNL     1       8.412 -20.967  15.341  1.00  0.00    -0.003 C 
ATOM     11  C   UNL     1       7.952 -21.703  14.087  1.00  0.00     0.004 C 
ENDBRANCH   9  10
ENDBRANCH   8   9
ENDBRANCH   7   8
ENDBRANCH   1   7
TORSDOF 7
ENDMDL
MODEL 5
REMARK VINA RESULT:    -2.489     15.951     16.924
REMARK INTER + INTRA:          -4.129
REMARK INTER:                  -3.809
REMARK INTRA:                  -0.320
REMARK UNBOUND:                -0.622
REMARK SMILES CCCCCCCCC(=O)[O-]
REMARK SMILES IDX 6 1 7 2 8 3 9 4 10 5 11 6 5 7 4 8 3 9 2 10 1 11
REMARK H PARENT
REMARK Flexibility Score: inf
ROOT
ATOM      1  C   UNL     1      -8.877 -21.596  19.057  1.00  0.00     0.000 C 
ENDROOT
BRANCH   1   2
ATOM      2  C   UNL     1      -9.816 -21.353  20.251  1.00  0.00     0.006 C 
BRANCH   2   3
ATOM      3  C   UNL     1      -9.492 -22.270  21.438  1.00  0.00     0.053 C 
BRANCH   3   4
ATOM      4  C   UNL     1      -9.168 -21.489  22.675  1.00  0.00     0.041 C 
ATOM      5  O   UNL     1      -8.422 -21.985  23.560  1.00  0.00    -0.550 OA
ATOM      6  O   UNL     1      -9.665 -20.202  22.836  1.00  0.00    -0.550 OA
ENDBRANCH   3   4
ENDBRANCH   2   3
ENDBRANCH   1   2
BRANCH   1   7
ATOM      7  C   UNL     1      -9.625 -22.072  17.801  1.00  0.00     0.000 C 
BRANCH   7   8
ATOM      8  C   UNL     1     -10.966 -21.345  17.600  1.00  0.00    -0.000 C 
BRANCH   8   9
ATOM      9  C   UNL     1     -10.851 -20.152  16.637  1.00  0.00    -0.000 C 
BRANCH   9  10
ATOM     10  C   UNL     1     -10.916 -20.573  15.161  1.00  0.00    -0.003 C 
ATOM     11  C   UNL     1      -9.552 -20.434  14.491  1.00  0.00     0.004 C 
ENDBRANCH   9  10
ENDBRANCH   8   9
ENDBRANCH   7   8
ENDBRANCH   1   7
TORSDOF 7
ENDMDL
MODEL 6
REMARK VINA RESULT:    -2.379     15.946     16.806
REMARK INTER + INTRA:          -3.974
REMARK INTER:                  -3.611
REMARK INTRA:                  -0.363
REMARK UNBOUND:                -0.622
REMARK SMILES CCCCCCCCC(=O)[O-]
REMARK SMILES IDX 6 1 7 2 8 3 9 4 10 5 11 6 5 7 4 8 3 9 2 10 1 11
REMARK H PARENT
REMARK Flexibility Score: inf
ROOT
ATOM      1  C   UNL     1     -10.362 -20.386  19.319  1.00  0.00     0.000 C 
ENDROOT
BRANCH   1   2
ATOM      2  C   UNL     1     -10.014 -20.320  20.816  1.00  0.00     0.006 C 
BRANCH   2   3
ATOM      3  C   UNL     1     -10.155 -21.685  21.504  1.00  0.00     0.053 C 
BRANCH   3   4
ATOM      4  C   UNL     1      -8.912 -22.067  22.248  1.00  0.00     0.041 C 
ATOM      5  O   UNL     1      -8.755 -21.708  23.445  1.00  0.00    -0.550 OA
ATOM      6  O   UNL     1      -7.942 -22.847  21.630  1.00  0.00    -0.550 OA
ENDBRANCH   3   4
ENDBRANCH   2   3
ENDBRANCH   1   2
BRANCH   1   7
ATOM      7  C   UNL     1      -9.578 -21.479  18.576  1.00  0.00     0.000 C 
BRANCH   7   8
ATOM      8  C   UNL     1     -10.103 -21.717  17.149  1.00  0.00    -0.000 C 
BRANCH   8   9
ATOM      9  C   UNL     1     -10.783 -20.473  16.555  1.00  0.00    -0.000 C 
BRANCH   9  10
ATOM     10  C   UNL     1     -10.780 -20.472  15.019  1.00  0.00    -0.003 C 
ATOM     11  C   UNL     1      -9.358 -20.549  14.473  1.00  0.00     0.004 C 
ENDBRANCH   9  10
ENDBRANCH   8   9
ENDBRANCH   7   8
ENDBRANCH   1   7
TORSDOF 7
ENDMDL
MODEL 7
REMARK VINA RESULT:    -2.179     13.179     15.637
REMARK INTER + INTRA:          -3.693
REMARK INTER:                  -3.318
REMARK INTRA:                  -0.374
REMARK UNBOUND:                -0.622
REMARK SMILES CCCCCCCCC(=O)[O-]
REMARK SMILES IDX 6 1 7 2 8 3 9 4 10 5 11 6 5 7 4 8 3 9 2 10 1 11
REMARK H PARENT
REMARK Flexibility Score: inf
ROOT
ATOM      1  C   UNL     1      -9.489 -21.019  19.338  1.00  0.00     0.000 C 
ENDROOT
BRANCH   1   2
ATOM      2  C   UNL     1     -10.003 -21.946  20.453  1.00  0.00     0.006 C 
BRANCH   2   3
ATOM      3  C   UNL     1      -8.889 -22.354  21.426  1.00  0.00     0.053 C 
BRANCH   3   4
ATOM      4  C   UNL     1      -9.015 -21.655  22.746  1.00  0.00     0.041 C 
ATOM      5  O   UNL     1      -8.837 -22.289  23.818  1.00  0.00    -0.550 OA
ATOM      6  O   UNL     1      -9.299 -20.295  22.789  1.00  0.00    -0.550 OA
ENDBRANCH   3   4
ENDBRANCH   2   3
ENDBRANCH   1   2
BRANCH   1   7
ATOM      7  C   UNL     1      -9.650 -21.631  17.938  1.00  0.00     0.000 C 
BRANCH   7   8
ATOM      8  C   UNL     1      -8.696 -22.814  17.696  1.00  0.00    -0.000 C 
BRANCH   8   9
ATOM      9  C   UNL     1      -7.218 -22.390  17.697  1.00  0.00    -0.000 C 
BRANCH   9  10
ATOM     10  C   UNL     1      -6.532 -22.626  16.344  1.00  0.00    -0.003 C 
ATOM     11  C   UNL     1      -5.435 -21.595  16.097  1.00  0.00     0.004 C 
ENDBRANCH   9  10
ENDBRANCH   8   9
ENDBRANCH   7   8
ENDBRANCH   1   7
TORSDOF 7
ENDMDL
MODEL 8
REMARK VINA RESULT:    -2.166     15.229     16.629
REMARK INTER + INTRA:          -3.675
REMARK INTER:                  -3.275
REMARK INTRA:                  -0.400
REMARK UNBOUND:                -0.622
REMARK SMILES CCCCCCCCC(=O)[O-]
REMARK SMILES IDX 6 1 7 2 8 3 9 4 10 5 11 6 5 7 4 8 3 9 2 10 1 11
REMARK H PARENT
REMARK Flexibility Score: inf
ROOT
ATOM      1  C   UNL     1      -8.504 -21.906  18.448  1.00  0.00     0.000 C 
ENDROOT
BRANCH   1   2
ATOM      2  C   UNL     1      -9.590 -22.176  17.393  1.00  0.00     0.006 C 
BRANCH   2   3
ATOM      3  C   UNL     1     -10.268 -20.884  16.917  1.00  0.00     0.053 C 
BRANCH   3   4
ATOM      4  C   UNL     1     -10.106 -20.677  15.442  1.00  0.00     0.041 C 
ATOM      5  O   UNL     1     -11.112 -20.451  14.720  1.00  0.00    -0.550 OA
ATOM      6  O   UNL     1      -8.839 -20.704  14.871  1.00  0.00    -0.550 OA
ENDBRANCH   3   4
ENDBRANCH   2   3
ENDBRANCH   1   2
BRANCH   1   7
ATOM      7  C   UNL     1      -8.701 -22.736  19.727  1.00  0.00     0.000 C 
BRANCH   7   8
ATOM      8  C   UNL     1      -9.918 -22.276  20.549  1.00  0.00    -0.000 C 
BRANCH   8   9
ATOM      9  C   UNL     1      -9.777 -20.831  21.054  1.00  0.00    -0.000 C 
BRANCH   9  10
ATOM     10  C   UNL     1      -9.761 -20.736  22.586  1.00  0.00    -0.003 C 
ATOM     11  C   UNL     1      -8.672 -21.624  23.180  1.00  0.00     0.004 C 
ENDBRANCH   9  10
ENDBRANCH   8   9
ENDBRANCH   7   8
ENDBRANCH   1   7
TORSDOF 7
ENDMDL
MODEL 9
REMARK VINA RESULT:    -1.958     14.777     17.020
REMARK INTER + INTRA:          -3.380
REMARK INTER:                  -2.720
REMARK INTRA:                  -0.660
REMARK UNBOUND:                -0.622
REMARK SMILES CCCCCCCCC(=O)[O-]
REMARK SMILES IDX 6 1 7 2 8 3 9 4 10 5 11 6 5 7 4 8 3 9 2 10 1 11
REMARK H PARENT
REMARK Flexibility Score: inf
ROOT
ATOM      1  C   UNL     1     -10.745 -19.816  19.663  1.00  0.00     0.000 C 
ENDROOT
BRANCH   1   2
ATOM      2  C   UNL     1     -10.113 -19.988  21.054  1.00  0.00     0.006 C 
BRANCH   2   3
ATOM      3  C   UNL     1      -9.894 -21.465  21.412  1.00  0.00     0.053 C 
BRANCH   3   4
ATOM      4  C   UNL     1      -9.561 -21.645  22.861  1.00  0.00     0.041 C 
ATOM      5  O   UNL     1     -10.477 -21.837  23.703  1.00  0.00    -0.550 OA
ATOM      6  O   UNL     1      -8.235 -21.633  23.277  1.00  0.00    -0.550 OA
ENDBRANCH   3   4
ENDBRANCH   2   3
ENDBRANCH   1   2
BRANCH   1   7
ATOM      7  C   UNL     1     -11.068 -21.159  18.988  1.00  0.00     0.000 C 
BRANCH   7   8
ATOM      8  C   UNL     1     -10.847 -21.125  17.466  1.00  0.00    -0.000 C 
BRANCH   8   9
ATOM      9  C   UNL     1      -9.461 -21.652  17.059  1.00  0.00    -0.000 C 
BRANCH   9  10
ATOM     10  C   UNL     1      -8.926 -22.720  18.024  1.00  0.00    -0.003 C 
ATOM     11  C   UNL     1      -7.548 -22.337  18.556  1.00  0.00     0.004 C 
ENDBRANCH   9  10
ENDBRANCH   8   9
ENDBRANCH   7   8
ENDBRANCH   1   7
TORSDOF 7
ENDMDL
