MODEL 1
REMARK VINA RESULT:    -6.006      0.000      0.000
REMARK INTER + INTRA:          -6.182
REMARK INTER:                  -6.182
REMARK INTRA:                   0.000
REMARK UNBOUND:                 0.000
REMARK SMILES Nc1ncnc2nc[nH]c12
REMARK SMILES IDX 8 1 7 2 6 3 5 4 4 5 3 6 2 7 10 8 9 9 1 11
REMARK H PARENT 9 10 1 12 1 13
REMARK Flexibility Score: inf
ROOT
ATOM      1  C   UNL     1      20.198  -4.344  32.843  1.00  0.00     0.199 A 
ATOM      2  N   UNL     1      18.917  -4.237  33.290  1.00  0.00    -0.217 NA
ATOM      3  C   UNL     1      18.452  -3.197  32.577  1.00  0.00     0.182 A 
ATOM      4  N   UNL     1      17.207  -2.668  32.639  1.00  0.00    -0.215 NA
ATOM      5  C   UNL     1      16.916  -1.604  31.830  1.00  0.00     0.226 A 
ATOM      6  N   UNL     1      17.868  -1.095  30.982  1.00  0.00    -0.217 NA
ATOM      7  C   UNL     1      19.124  -1.629  30.918  1.00  0.00     0.152 A 
ATOM      8  C   UNL     1      19.403  -2.710  31.748  1.00  0.00     0.127 A 
ATOM      9  N   UNL     1      20.525  -3.426  31.899  1.00  0.00    -0.340 N 
ATOM     10  H   UNL     1      21.442  -3.312  31.413  1.00  0.00     0.168 HD
ENDROOT
BRANCH   7  11
ATOM     11  N   UNL     1      20.097  -1.082  30.027  1.00  0.00    -0.382 N 
ATOM     12  H   UNL     1      19.841  -0.361  29.317  1.00  0.00     0.158 HD
ATOM     13  H   UNL     1      21.089  -1.403  30.077  1.00  0.00     0.158 HD
ENDBRANCH   7  11
TORSDOF 1
ENDMDL
MODEL 2
REMARK VINA RESULT:    -5.729      1.140      2.920
REMARK INTER + INTRA:          -5.897
REMARK INTER:                  -5.897
REMARK INTRA:                   0.000
REMARK UNBOUND:                 0.000
REMARK SMILES Nc1ncnc2nc[nH]c12
REMARK SMILES IDX 8 1 7 2 6 3 5 4 4 5 3 6 2 7 10 8 9 9 1 11
REMARK H PARENT 9 10 1 12 1 13
REMARK Flexibility Score: inf
ROOT
ATOM      1  C   UNL     1      20.118  -1.028  30.377  1.00  0.00     0.199 A 
ATOM      2  N   UNL     1      18.800  -0.763  30.588  1.00  0.00    -0.217 NA
ATOM      3  C   UNL     1      18.439  -1.750  31.425  1.00  0.00     0.182 A 
ATOM      4  N   UNL     1      17.209  -1.953  31.953  1.00  0.00    -0.215 NA
ATOM      5  C   UNL     1      17.033  -3.019  32.791  1.00  0.00     0.226 A 
ATOM      6  N   UNL     1      18.082  -3.855  33.082  1.00  0.00    -0.217 NA
ATOM      7  C   UNL     1      19.324  -3.652  32.550  1.00  0.00     0.152 A 
ATOM      8  C   UNL     1      19.486  -2.563  31.699  1.00  0.00     0.127 A 
ATOM      9  N   UNL     1      20.567  -2.122  31.043  1.00  0.00    -0.340 N 
ATOM     10  H   UNL     1      21.533  -2.519  31.036  1.00  0.00     0.168 HD
ENDROOT
BRANCH   7  11
ATOM     11  N   UNL     1      20.400  -4.535  32.868  1.00  0.00    -0.382 N 
ATOM     12  H   UNL     1      20.225  -5.504  33.215  1.00  0.00     0.158 HD
ATOM     13  H   UNL     1      21.388  -4.217  32.755  1.00  0.00     0.158 HD
ENDBRANCH   7  11
TORSDOF 1
ENDMDL
MODEL 3
REMARK VINA RESULT:    -5.610      1.211      3.186
REMARK INTER + INTRA:          -5.774
REMARK INTER:                  -5.774
REMARK INTRA:                   0.000
REMARK UNBOUND:                 0.000
REMARK SMILES Nc1ncnc2nc[nH]c12
REMARK SMILES IDX 8 1 7 2 6 3 5 4 4 5 3 6 2 7 10 8 9 9 1 11
REMARK H PARENT 9 10 1 12 1 13
REMARK Flexibility Score: inf
ROOT
ATOM      1  C   UNL     1      17.000   0.100  30.460  1.00  0.00     0.199 A 
ATOM      2  N   UNL     1      16.357  -0.521  31.486  1.00  0.00    -0.217 NA
ATOM      3  C   UNL     1      17.212  -1.507  31.804  1.00  0.00     0.182 A 
ATOM      4  N   UNL     1      17.049  -2.434  32.778  1.00  0.00    -0.215 NA
ATOM      5  C   UNL     1      18.035  -3.366  32.953  1.00  0.00     0.226 A 
ATOM      6  N   UNL     1      19.154  -3.353  32.158  1.00  0.00    -0.217 NA
ATOM      7  C   UNL     1      19.319  -2.419  31.176  1.00  0.00     0.152 A 
ATOM      8  C   UNL     1      18.307  -1.478  31.010  1.00  0.00     0.127 A 
ATOM      9  N   UNL     1      18.195  -0.461  30.145  1.00  0.00    -0.340 N 
ATOM     10  H   UNL     1      18.862  -0.162  29.400  1.00  0.00     0.168 HD
ENDROOT
BRANCH   7  11
ATOM     11  N   UNL     1      20.492  -2.426  30.361  1.00  0.00    -0.382 N 
ATOM     12  H   UNL     1      21.331  -1.856  30.610  1.00  0.00     0.158 HD
ATOM     13  H   UNL     1      20.523  -3.008  29.495  1.00  0.00     0.158 HD
ENDBRANCH   7  11
TORSDOF 1
ENDMDL
MODEL 4
REMARK VINA RESULT:    -5.443      1.926      3.719
REMARK INTER + INTRA:          -5.602
REMARK INTER:                  -5.602
REMARK INTRA:                   0.000
REMARK UNBOUND:                 0.000
REMARK SMILES Nc1ncnc2nc[nH]c12
REMARK SMILES IDX 8 1 7 2 6 3 5 4 4 5 3 6 2 7 10 8 9 9 1 11
REMARK H PARENT 9 10 1 12 1 13
REMARK Flexibility Score: inf
ROOT
ATOM      1  C   UNL     1      22.145   0.442  30.576  1.00  0.00     0.199 A 
ATOM      2  N   UNL     1      21.002   0.796  29.928  1.00  0.00    -0.217 NA
ATOM      3  C   UNL     1      20.140  -0.152  30.331  1.00  0.00     0.182 A 
ATOM      4  N   UNL     1      18.839  -0.266  29.974  1.00  0.00    -0.215 NA
ATOM      5  C   UNL     1      18.115  -1.305  30.490  1.00  0.00     0.226 A 
ATOM      6  N   UNL     1      18.701  -2.203  31.348  1.00  0.00    -0.217 NA
ATOM      7  C   UNL     1      20.013  -2.089  31.710  1.00  0.00     0.152 A 
ATOM      8  C   UNL     1      20.736  -1.027  31.175  1.00  0.00     0.127 A 
ATOM      9  N   UNL     1      22.015  -0.668  31.346  1.00  0.00    -0.340 N 
ATOM     10  H   UNL     1      22.748  -1.127  31.931  1.00  0.00     0.168 HD
ENDROOT
BRANCH   7  11
ATOM     11  N   UNL     1      20.601  -3.035  32.604  1.00  0.00    -0.382 N 
ATOM     12  H   UNL     1      21.102  -3.879  32.249  1.00  0.00     0.158 HD
ATOM     13  H   UNL     1      20.535  -2.890  33.635  1.00  0.00     0.158 HD
ENDBRANCH   7  11
TORSDOF 1
ENDMDL
MODEL 5
REMARK VINA RESULT:    -5.412      6.713      9.168
REMARK INTER + INTRA:          -5.570
REMARK INTER:                  -5.570
REMARK INTRA:                   0.000
REMARK UNBOUND:                 0.000
REMARK SMILES Nc1ncnc2nc[nH]c12
REMARK SMILES IDX 8 1 7 2 6 3 5 4 4 5 3 6 2 7 10 8 9 9 1 11
REMARK H PARENT 9 10 1 12 1 13
REMARK Flexibility Score: inf
ROOT
ATOM      1  C   UNL     1      19.907  -5.833  36.972  1.00  0.00     0.199 A 
ATOM      2  N   UNL     1      21.252  -5.850  36.771  1.00  0.00    -0.217 NA
ATOM      3  C   UNL     1      21.704  -6.403  37.910  1.00  0.00     0.182 A 
ATOM      4  N   UNL     1      22.996  -6.652  38.229  1.00  0.00    -0.215 NA
ATOM      5  C   UNL     1      23.263  -7.223  39.443  1.00  0.00     0.226 A 
ATOM      6  N   UNL     1      22.241  -7.532  40.306  1.00  0.00    -0.217 NA
ATOM      7  C   UNL     1      20.937  -7.283  39.984  1.00  0.00     0.152 A 
ATOM      8  C   UNL     1      20.683  -6.700  38.746  1.00  0.00     0.127 A 
ATOM      9  N   UNL     1      19.527  -6.346  38.170  1.00  0.00    -0.340 N 
ATOM     10  H   UNL     1      18.557  -6.437  38.544  1.00  0.00     0.168 HD
ENDROOT
BRANCH   7  11
ATOM     11  N   UNL     1      19.891  -7.613  40.898  1.00  0.00    -0.382 N 
ATOM     12  H   UNL     1      19.780  -8.581  41.272  1.00  0.00     0.158 HD
ATOM     13  H   UNL     1      19.216  -6.879  41.207  1.00  0.00     0.158 HD
ENDBRANCH   7  11
TORSDOF 1
ENDMDL
MODEL 6
REMARK VINA RESULT:    -5.389      7.193      9.196
REMARK INTER + INTRA:          -5.547
REMARK INTER:                  -5.547
REMARK INTRA:                   0.000
REMARK UNBOUND:                 0.000
REMARK SMILES Nc1ncnc2nc[nH]c12
REMARK SMILES IDX 8 1 7 2 6 3 5 4 4 5 3 6 2 7 10 8 9 9 1 11
REMARK H PARENT 9 10 1 12 1 13
REMARK Flexibility Score: inf
ROOT
ATOM      1  C   UNL     1      23.667  -7.353  40.576  1.00  0.00     0.199 A 
ATOM      2  N   UNL     1      24.103  -6.727  39.448  1.00  0.00    -0.217 NA
ATOM      3  C   UNL     1      22.974  -6.616  38.728  1.00  0.00     0.182 A 
ATOM      4  N   UNL     1      22.850  -6.057  37.501  1.00  0.00    -0.215 NA
ATOM      5  C   UNL     1      21.611  -6.036  36.923  1.00  0.00     0.226 A 
ATOM      6  N   UNL     1      20.529  -6.569  37.577  1.00  0.00    -0.217 NA
ATOM      7  C   UNL     1      20.652  -7.132  38.816  1.00  0.00     0.152 A 
ATOM      8  C   UNL     1      21.920  -7.147  39.390  1.00  0.00     0.127 A 
ATOM      9  N   UNL     1      22.336  -7.622  40.571  1.00  0.00    -0.340 N 
ATOM     10  H   UNL     1      21.780  -8.092  41.318  1.00  0.00     0.168 HD
ENDROOT
BRANCH   7  11
ATOM     11  N   UNL     1      19.511  -7.680  39.478  1.00  0.00    -0.382 N 
ATOM     12  H   UNL     1      19.456  -7.725  40.519  1.00  0.00     0.158 HD
ATOM     13  H   UNL     1      18.709  -8.047  38.919  1.00  0.00     0.158 HD
ENDBRANCH   7  11
TORSDOF 1
ENDMDL
MODEL 7
REMARK VINA RESULT:    -5.332      1.156      2.472
REMARK INTER + INTRA:          -5.488
REMARK INTER:                  -5.488
REMARK INTRA:                   0.000
REMARK UNBOUND:                 0.000
REMARK SMILES Nc1ncnc2nc[nH]c12
REMARK SMILES IDX 8 1 7 2 6 3 5 4 4 5 3 6 2 7 10 8 9 9 1 11
REMARK H PARENT 9 10 1 12 1 13
REMARK Flexibility Score: inf
ROOT
ATOM      1  C   UNL     1      18.410  -3.953  33.355  1.00  0.00     0.199 A 
ATOM      2  N   UNL     1      19.648  -3.639  32.883  1.00  0.00    -0.217 NA
ATOM      3  C   UNL     1      19.380  -2.647  32.017  1.00  0.00     0.182 A 
ATOM      4  N   UNL     1      20.278  -1.969  31.264  1.00  0.00    -0.215 NA
ATOM      5  C   UNL     1      19.813  -0.984  30.435  1.00  0.00     0.226 A 
ATOM      6  N   UNL     1      18.472  -0.700  30.377  1.00  0.00    -0.217 NA
ATOM      7  C   UNL     1      17.565  -1.383  31.138  1.00  0.00     0.152 A 
ATOM      8  C   UNL     1      18.054  -2.382  31.974  1.00  0.00     0.127 A 
ATOM      9  N   UNL     1      17.415  -3.201  32.819  1.00  0.00    -0.340 N 
ATOM     10  H   UNL     1      16.393  -3.259  33.024  1.00  0.00     0.168 HD
ENDROOT
BRANCH   7  11
ATOM     11  N   UNL     1      16.174  -1.069  31.060  1.00  0.00    -0.382 N 
ATOM     12  H   UNL     1      15.774  -0.244  31.559  1.00  0.00     0.158 HD
ATOM     13  H   UNL     1      15.534  -1.671  30.496  1.00  0.00     0.158 HD
ENDBRANCH   7  11
TORSDOF 1
ENDMDL
MODEL 8
REMARK VINA RESULT:    -5.297      6.163      8.246
REMARK INTER + INTRA:          -5.452
REMARK INTER:                  -5.452
REMARK INTRA:                   0.000
REMARK UNBOUND:                 0.000
REMARK SMILES Nc1ncnc2nc[nH]c12
REMARK SMILES IDX 8 1 7 2 6 3 5 4 4 5 3 6 2 7 10 8 9 9 1 11
REMARK H PARENT 9 10 1 12 1 13
REMARK Flexibility Score: inf
ROOT
ATOM      1  C   UNL     1      20.197  -5.771  36.411  1.00  0.00     0.199 A 
ATOM      2  N   UNL     1      19.841  -6.491  37.510  1.00  0.00    -0.217 NA
ATOM      3  C   UNL     1      21.011  -6.620  38.158  1.00  0.00     0.182 A 
ATOM      4  N   UNL     1      21.218  -7.263  39.331  1.00  0.00    -0.215 NA
ATOM      5  C   UNL     1      22.487  -7.288  39.839  1.00  0.00     0.226 A 
ATOM      6  N   UNL     1      23.517  -6.675  39.169  1.00  0.00    -0.217 NA
ATOM      7  C   UNL     1      23.310  -6.026  37.985  1.00  0.00     0.152 A 
ATOM      8  C   UNL     1      22.012  -6.010  37.482  1.00  0.00     0.127 A 
ATOM      9  N   UNL     1      21.517  -5.461  36.365  1.00  0.00    -0.340 N 
ATOM     10  H   UNL     1      22.019  -4.921  35.626  1.00  0.00     0.168 HD
ENDROOT
BRANCH   7  11
ATOM     11  N   UNL     1      24.397  -5.396  37.306  1.00  0.00    -0.382 N 
ATOM     12  H   UNL     1      25.380  -5.502  37.639  1.00  0.00     0.158 HD
ATOM     13  H   UNL     1      24.216  -4.814  36.459  1.00  0.00     0.158 HD
ENDBRANCH   7  11
TORSDOF 1
ENDMDL
MODEL 9
REMARK VINA RESULT:    -5.207      6.440      8.278
REMARK INTER + INTRA:          -5.359
REMARK INTER:                  -5.359
REMARK INTRA:                   0.000
REMARK UNBOUND:                 0.000
REMARK SMILES Nc1ncnc2nc[nH]c12
REMARK SMILES IDX 8 1 7 2 6 3 5 4 4 5 3 6 2 7 10 8 9 9 1 11
REMARK H PARENT 9 10 1 12 1 13
REMARK Flexibility Score: inf
ROOT
ATOM      1  C   UNL     1      24.595  -5.563  38.430  1.00  0.00     0.199 A 
ATOM      2  N   UNL     1      24.048  -6.263  39.461  1.00  0.00    -0.217 NA
ATOM      3  C   UNL     1      22.793  -6.473  39.030  1.00  0.00     0.182 A 
ATOM      4  N   UNL     1      21.813  -7.134  39.690  1.00  0.00    -0.215 NA
ATOM      5  C   UNL     1      20.590  -7.247  39.086  1.00  0.00     0.226 A 
ATOM      6  N   UNL     1      20.375  -6.702  37.845  1.00  0.00    -0.217 NA
ATOM      7  C   UNL     1      21.363  -6.035  37.178  1.00  0.00     0.152 A 
ATOM      8  C   UNL     1      22.600  -5.928  37.806  1.00  0.00     0.127 A 
ATOM      9  N   UNL     1      23.735  -5.343  37.403  1.00  0.00    -0.340 N 
ATOM     10  H   UNL     1      23.926  -4.834  36.512  1.00  0.00     0.168 HD
ENDROOT
BRANCH   7  11
ATOM     11  N   UNL     1      21.115  -5.476  35.888  1.00  0.00    -0.382 N 
ATOM     12  H   UNL     1      20.598  -6.009  35.154  1.00  0.00     0.158 HD
ATOM     13  H   UNL     1      21.453  -4.515  35.661  1.00  0.00     0.158 HD
ENDBRANCH   7  11
TORSDOF 1
ENDMDL
