MODEL 1
REMARK VINA RESULT:    -4.674      0.000      0.000
REMARK INTER + INTRA:          -4.913
REMARK INTER:                  -5.767
REMARK INTRA:                   0.854
REMARK UNBOUND:                 0.854
REMARK SMILES CC1=CC=CC(C)(C)CC1=O
REMARK SMILES IDX 1 1 2 2 3 3 10 4 11 5 9 6 4 8 5 9 6 10 7 11 8 12
REMARK H PARENT
REMARK Flexibility Score: 80.00
ROOT
ATOM      1  C   UNL     1      29.286  17.523  29.329  1.00  0.00     0.048 C 
ATOM      2  C   UNL     1      28.636  18.608  28.502  1.00  0.00    -0.008 C 
ATOM      3  C   UNL     1      28.545  18.414  27.168  1.00  0.00     0.007 C 
ENDROOT
BRANCH   2   4
ATOM      4  C   UNL     1      28.201  19.830  29.228  1.00  0.00     0.159 C 
ATOM      5  O   UNL     1      28.301  19.853  30.485  1.00  0.00    -0.295 OA
BRANCH   4   6
ATOM      6  C   UNL     1      27.680  21.067  28.556  1.00  0.00     0.091 CG0
ATOM      7  G   UNL     1      26.520  20.804  27.570  1.00  0.00     0.000 G0
ENDBRANCH   4   6
ENDBRANCH   2   4
BRANCH   3   8
ATOM      8  C   UNL     1      27.959  19.285  26.124  1.00  0.00    -0.003 C 
ATOM      9  C   UNL     1      27.076  20.281  26.265  1.00  0.00    -0.020 C 
BRANCH   9  10
ATOM     10  C   UNL     1      26.519  20.797  27.570  1.00  0.00    -0.010 CG0
ATOM     11  C   UNL     1      25.467  19.812  28.131  1.00  0.00     0.016 C 
ATOM     12  C   UNL     1      25.809  22.142  27.294  1.00  0.00     0.016 C 
ATOM     13  G   UNL     1      27.677  21.059  28.558  1.00  0.00     0.000 G0
ENDBRANCH   9  10
ENDBRANCH   3   8
TORSDOF 0
ENDMDL
MODEL 2
REMARK VINA RESULT:    -4.461      1.437      2.460
REMARK INTER + INTRA:          -4.650
REMARK INTER:                  -5.781
REMARK INTRA:                   1.131
REMARK UNBOUND:                 0.854
REMARK SMILES CC1=CC=CC(C)(C)CC1=O
REMARK SMILES IDX 1 1 2 2 3 3 10 4 11 5 9 6 4 8 5 9 6 10 7 11 8 12
REMARK H PARENT
REMARK Flexibility Score: 80.00
ROOT
ATOM      1  C   UNL     1      29.080  17.559  29.446  1.00  0.00     0.048 C 
ATOM      2  C   UNL     1      28.405  18.883  29.169  1.00  0.00    -0.008 C 
ATOM      3  C   UNL     1      28.163  19.699  30.219  1.00  0.00     0.007 C 
ENDROOT
BRANCH   2   4
ATOM      4  C   UNL     1      28.013  19.151  27.760  1.00  0.00     0.159 C 
ATOM      5  O   UNL     1      28.069  18.204  26.928  1.00  0.00    -0.295 OA
BRANCH   4   6
ATOM      6  C   UNL     1      27.514  20.475  27.263  1.00  0.00     0.091 CG0
ATOM      7  G   UNL     1      26.286  21.011  28.032  1.00  0.00     0.000 G0
ENDBRANCH   4   6
ENDBRANCH   2   4
BRANCH   3   8
ATOM      8  C   UNL     1      27.535  21.039  30.249  1.00  0.00    -0.003 C 
ATOM      9  C   UNL     1      26.761  21.620  29.326  1.00  0.00    -0.020 C 
BRANCH   9  10
ATOM     10  C   UNL     1      26.285  20.989  28.039  1.00  0.00    -0.010 CG0
ATOM     11  C   UNL     1      25.434  21.996  27.230  1.00  0.00     0.016 C 
ATOM     12  C   UNL     1      25.383  19.785  28.396  1.00  0.00     0.016 C 
ATOM     13  G   UNL     1      27.499  20.460  27.244  1.00  0.00     0.000 G0
ENDBRANCH   9  10
ENDBRANCH   3   8
TORSDOF 0
ENDMDL
MODEL 3
REMARK VINA RESULT:    -4.372      1.654      2.416
REMARK INTER + INTRA:          -4.541
REMARK INTER:                  -5.394
REMARK INTRA:                   0.854
REMARK UNBOUND:                 0.854
REMARK SMILES CC1=CC=CC(C)(C)CC1=O
REMARK SMILES IDX 1 1 2 2 3 3 10 4 11 5 9 6 4 8 5 9 6 10 7 11 8 12
REMARK H PARENT
REMARK Flexibility Score: 80.00
ROOT
ATOM      1  C   UNL     1      29.951  17.658  27.353  1.00  0.00     0.048 C 
ATOM      2  C   UNL     1      28.638  18.399  27.455  1.00  0.00    -0.008 C 
ATOM      3  C   UNL     1      27.754  17.988  28.390  1.00  0.00     0.007 C 
ENDROOT
BRANCH   2   4
ATOM      4  C   UNL     1      28.410  19.491  26.473  1.00  0.00     0.159 C 
ATOM      5  O   UNL     1      29.346  19.802  25.686  1.00  0.00    -0.295 OA
BRANCH   4   6
ATOM      6  C   UNL     1      27.114  20.232  26.325  1.00  0.00     0.091 CG0
ATOM      7  G   UNL     1      26.578  20.829  27.645  1.00  0.00     0.000 G0
ENDBRANCH   4   6
ENDBRANCH   2   4
BRANCH   3   8
ATOM      8  C   UNL     1      26.414  18.522  28.723  1.00  0.00    -0.003 C 
ATOM      9  C   UNL     1      25.901  19.726  28.445  1.00  0.00    -0.020 C 
BRANCH   9  10
ATOM     10  C   UNL     1      26.574  20.816  27.645  1.00  0.00    -0.010 CG0
ATOM     11  C   UNL     1      27.672  21.503  28.490  1.00  0.00     0.016 C 
ATOM     12  C   UNL     1      25.511  21.882  27.291  1.00  0.00     0.016 C 
ATOM     13  G   UNL     1      27.118  20.225  26.325  1.00  0.00     0.000 G0
ENDBRANCH   9  10
ENDBRANCH   3   8
TORSDOF 0
ENDMDL
MODEL 4
REMARK VINA RESULT:    -4.166     11.645     12.861
REMARK INTER + INTRA:          -4.286
REMARK INTER:                  -5.149
REMARK INTRA:                   0.862
REMARK UNBOUND:                 0.854
REMARK SMILES CC1=CC=CC(C)(C)CC1=O
REMARK SMILES IDX 1 1 2 2 3 3 10 4 11 5 9 6 4 8 5 9 6 10 7 11 8 12
REMARK H PARENT
REMARK Flexibility Score: 80.00
ROOT
ATOM      1  C   UNL     1      30.976  17.461  15.722  1.00  0.00     0.048 C 
ATOM      2  C   UNL     1      32.223  18.176  16.191  1.00  0.00    -0.008 C 
ATOM      3  C   UNL     1      33.377  17.926  15.534  1.00  0.00     0.007 C 
ENDROOT
BRANCH   2   4
ATOM      4  C   UNL     1      32.080  19.057  17.379  1.00  0.00     0.159 C 
ATOM      5  O   UNL     1      30.929  19.233  17.865  1.00  0.00    -0.295 OA
BRANCH   4   6
ATOM      6  C   UNL     1      33.229  19.729  18.071  1.00  0.00     0.091 CG0
ATOM      7  G   UNL     1      34.152  20.528  17.124  1.00  0.00     0.000 G0
ENDBRANCH   4   6
ENDBRANCH   2   4
BRANCH   3   8
ATOM      8  C   UNL     1      34.732  18.478  15.759  1.00  0.00    -0.003 C 
ATOM      9  C   UNL     1      35.081  19.598  16.404  1.00  0.00    -0.020 C 
BRANCH   9  10
ATOM     10  C   UNL     1      34.145  20.537  17.126  1.00  0.00    -0.010 CG0
ATOM     11  C   UNL     1      33.348  21.388  16.109  1.00  0.00     0.016 C 
ATOM     12  C   UNL     1      34.995  21.500  17.987  1.00  0.00     0.016 C 
ATOM     13  G   UNL     1      33.230  19.728  18.073  1.00  0.00     0.000 G0
ENDBRANCH   9  10
ENDBRANCH   3   8
TORSDOF 0
ENDMDL
MODEL 5
REMARK VINA RESULT:    -4.105      1.611      2.227
REMARK INTER + INTRA:          -4.212
REMARK INTER:                  -5.063
REMARK INTRA:                   0.852
REMARK UNBOUND:                 0.854
REMARK SMILES CC1=CC=CC(C)(C)CC1=O
REMARK SMILES IDX 1 1 2 2 3 3 10 4 11 5 9 6 4 8 5 9 6 10 7 11 8 12
REMARK H PARENT
REMARK Flexibility Score: 80.00
ROOT
ATOM      1  C   UNL     1      30.520  18.050  26.500  1.00  0.00     0.048 C 
ATOM      2  C   UNL     1      29.232  18.703  26.946  1.00  0.00    -0.008 C 
ATOM      3  C   UNL     1      28.688  19.641  26.140  1.00  0.00     0.007 C 
ENDROOT
BRANCH   2   4
ATOM      4  C   UNL     1      28.700  18.292  28.273  1.00  0.00     0.159 C 
ATOM      5  O   UNL     1      29.278  17.357  28.891  1.00  0.00    -0.295 OA
BRANCH   4   6
ATOM      6  C   UNL     1      27.532  18.947  28.950  1.00  0.00     0.091 CG0
ATOM      7  G   UNL     1      26.259  19.016  28.078  1.00  0.00     0.000 G0
ENDBRANCH   4   6
ENDBRANCH   2   4
BRANCH   3   8
ATOM      8  C   UNL     1      27.446  20.429  26.310  1.00  0.00    -0.003 C 
ATOM      9  C   UNL     1      26.394  20.171  27.095  1.00  0.00    -0.020 C 
BRANCH   9  10
ATOM     10  C   UNL     1      26.267  19.019  28.062  1.00  0.00    -0.010 CG0
ATOM     11  C   UNL     1      25.989  17.704  27.297  1.00  0.00     0.016 C 
ATOM     12  C   UNL     1      25.058  19.294  28.986  1.00  0.00     0.016 C 
ATOM     13  G   UNL     1      27.535  18.941  28.941  1.00  0.00     0.000 G0
ENDBRANCH   9  10
ENDBRANCH   3   8
TORSDOF 0
ENDMDL
MODEL 6
REMARK VINA RESULT:    -4.011     11.531     12.850
REMARK INTER + INTRA:          -4.095
REMARK INTER:                  -4.955
REMARK INTRA:                   0.859
REMARK UNBOUND:                 0.854
REMARK SMILES CC1=CC=CC(C)(C)CC1=O
REMARK SMILES IDX 1 1 2 2 3 3 10 4 11 5 9 6 4 8 5 9 6 10 7 11 8 12
REMARK H PARENT
REMARK Flexibility Score: 80.00
ROOT
ATOM      1  C   UNL     1      36.166  19.644  15.159  1.00  0.00     0.048 C 
ATOM      2  C   UNL     1      35.102  19.896  16.202  1.00  0.00    -0.008 C 
ATOM      3  C   UNL     1      35.140  21.070  16.870  1.00  0.00     0.007 C 
ENDROOT
BRANCH   2   4
ATOM      4  C   UNL     1      34.130  18.798  16.444  1.00  0.00     0.159 C 
ATOM      5  O   UNL     1      34.179  17.776  15.706  1.00  0.00    -0.295 OA
BRANCH   4   6
ATOM      6  C   UNL     1      33.108  18.805  17.542  1.00  0.00     0.091 CG0
ATOM      7  G   UNL     1      32.208  20.061  17.553  1.00  0.00     0.000 G0
ENDBRANCH   4   6
ENDBRANCH   2   4
BRANCH   3   8
ATOM      8  C   UNL     1      34.237  21.589  17.923  1.00  0.00    -0.003 C 
ATOM      9  C   UNL     1      32.989  21.206  18.215  1.00  0.00    -0.020 C 
BRANCH   9  10
ATOM     10  C   UNL     1      32.227  20.079  17.560  1.00  0.00    -0.010 CG0
ATOM     11  C   UNL     1      31.749  20.502  16.152  1.00  0.00     0.016 C 
ATOM     12  C   UNL     1      30.975  19.780  18.417  1.00  0.00     0.016 C 
ATOM     13  G   UNL     1      33.106  18.809  17.535  1.00  0.00     0.000 G0
ENDBRANCH   9  10
ENDBRANCH   3   8
TORSDOF 0
ENDMDL
MODEL 7
REMARK VINA RESULT:    -3.703     11.177     12.579
REMARK INTER + INTRA:          -3.715
REMARK INTER:                  -4.571
REMARK INTRA:                   0.856
REMARK UNBOUND:                 0.854
REMARK SMILES CC1=CC=CC(C)(C)CC1=O
REMARK SMILES IDX 1 1 2 2 3 3 10 4 11 5 9 6 4 8 5 9 6 10 7 11 8 12
REMARK H PARENT
REMARK Flexibility Score: 80.00
ROOT
ATOM      1  C   UNL     1      30.551  19.289  19.191  1.00  0.00     0.048 C 
ATOM      2  C   UNL     1      31.602  19.087  18.124  1.00  0.00    -0.008 C 
ATOM      3  C   UNL     1      31.230  18.471  16.981  1.00  0.00     0.007 C 
ENDROOT
BRANCH   2   4
ATOM      4  C   UNL     1      32.980  19.539  18.451  1.00  0.00     0.159 C 
ATOM      5  O   UNL     1      33.178  20.127  19.550  1.00  0.00    -0.295 OA
BRANCH   4   6
ATOM      6  C   UNL     1      34.173  19.308  17.571  1.00  0.00     0.091 CG0
ATOM      7  G   UNL     1      33.973  19.770  16.110  1.00  0.00     0.000 G0
ENDBRANCH   4   6
ENDBRANCH   2   4
BRANCH   3   8
ATOM      8  C   UNL     1      32.029  18.151  15.776  1.00  0.00    -0.003 C 
ATOM      9  C   UNL     1      33.181  18.695  15.369  1.00  0.00    -0.020 C 
BRANCH   9  10
ATOM     10  C   UNL     1      33.981  19.741  16.108  1.00  0.00    -0.010 CG0
ATOM     11  C   UNL     1      33.303  21.125  15.980  1.00  0.00     0.016 C 
ATOM     12  C   UNL     1      35.378  19.834  15.452  1.00  0.00     0.016 C 
ATOM     13  G   UNL     1      34.170  19.303  17.578  1.00  0.00     0.000 G0
ENDBRANCH   9  10
ENDBRANCH   3   8
TORSDOF 0
ENDMDL
MODEL 8
REMARK VINA RESULT:    -3.444      5.977      7.008
REMARK INTER + INTRA:          -3.395
REMARK INTER:                  -4.247
REMARK INTRA:                   0.852
REMARK UNBOUND:                 0.854
REMARK SMILES CC1=CC=CC(C)(C)CC1=O
REMARK SMILES IDX 1 1 2 2 3 3 10 4 11 5 9 6 4 8 5 9 6 10 7 11 8 12
REMARK H PARENT
REMARK Flexibility Score: 80.00
ROOT
ATOM      1  C   UNL     1      34.728  19.055  25.442  1.00  0.00     0.048 C 
ATOM      2  C   UNL     1      33.729  19.378  24.356  1.00  0.00    -0.008 C 
ATOM      3  C   UNL     1      34.189  19.966  23.230  1.00  0.00     0.007 C 
ENDROOT
BRANCH   2   4
ATOM      4  C   UNL     1      32.304  19.069  24.646  1.00  0.00     0.159 C 
ATOM      5  O   UNL     1      32.023  18.467  25.719  1.00  0.00    -0.295 OA
BRANCH   4   6
ATOM      6  C   UNL     1      31.160  19.461  23.759  1.00  0.00     0.091 CG0
ATOM      7  G   UNL     1      31.329  19.024  22.286  1.00  0.00     0.000 G0
ENDBRANCH   4   6
ENDBRANCH   2   4
BRANCH   3   8
ATOM      8  C   UNL     1      33.457  20.382  22.013  1.00  0.00    -0.003 C 
ATOM      9  C   UNL     1      32.258  19.974  21.579  1.00  0.00    -0.020 C 
BRANCH   9  10
ATOM     10  C   UNL     1      31.330  19.021  22.293  1.00  0.00    -0.010 CG0
ATOM     11  C   UNL     1      31.846  17.569  22.160  1.00  0.00     0.016 C 
ATOM     12  C   UNL     1      29.944  19.097  21.614  1.00  0.00     0.016 C 
ATOM     13  G   UNL     1      31.170  19.464  23.765  1.00  0.00     0.000 G0
ENDBRANCH   9  10
ENDBRANCH   3   8
TORSDOF 0
ENDMDL
MODEL 9
REMARK VINA RESULT:    -3.398      9.492     10.677
REMARK INTER + INTRA:          -3.339
REMARK INTER:                  -4.179
REMARK INTRA:                   0.841
REMARK UNBOUND:                 0.854
REMARK SMILES CC1=CC=CC(C)(C)CC1=O
REMARK SMILES IDX 1 1 2 2 3 3 10 4 11 5 9 6 4 8 5 9 6 10 7 11 8 12
REMARK H PARENT
REMARK Flexibility Score: 80.00
ROOT
ATOM      1  C   UNL     1      36.888  22.972  27.043  1.00  0.00     0.048 C 
ATOM      2  C   UNL     1      36.896  21.515  26.640  1.00  0.00    -0.008 C 
ATOM      3  C   UNL     1      36.067  21.132  25.644  1.00  0.00     0.007 C 
ENDROOT
BRANCH   2   4
ATOM      4  C   UNL     1      37.783  20.611  27.418  1.00  0.00     0.159 C 
ATOM      5  O   UNL     1      38.549  21.117  28.284  1.00  0.00    -0.295 OA
BRANCH   4   6
ATOM      6  C   UNL     1      37.803  19.119  27.270  1.00  0.00     0.091 CG0
ATOM      7  G   UNL     1      37.992  18.635  25.814  1.00  0.00     0.000 G0
ENDBRANCH   4   6
ENDBRANCH   2   4
BRANCH   3   8
ATOM      8  C   UNL     1      35.869  19.795  25.039  1.00  0.00    -0.003 C 
ATOM      9  C   UNL     1      36.683  18.734  25.074  1.00  0.00    -0.020 C 
BRANCH   9  10
ATOM     10  C   UNL     1      37.993  18.642  25.821  1.00  0.00    -0.010 CG0
ATOM     11  C   UNL     1      39.097  19.420  25.066  1.00  0.00     0.016 C 
ATOM     12  C   UNL     1      38.414  17.155  25.876  1.00  0.00     0.016 C 
ATOM     13  G   UNL     1      37.797  19.140  27.270  1.00  0.00     0.000 G0
ENDBRANCH   9  10
ENDBRANCH   3   8
TORSDOF 0
ENDMDL
