MODEL 1
REMARK VINA RESULT:    -3.547      0.000      0.000
REMARK INTER + INTRA:          -4.596
REMARK INTER:                  -4.376
REMARK INTRA:                  -0.220
REMARK UNBOUND:                -0.220
REMARK SMILES CCCCCC(=O)[O-]
REMARK SMILES IDX 4 1 5 2 6 3 7 4 8 5 3 6 2 7 1 8
REMARK H PARENT
REMARK Flexibility Score: inf
ROOT
ATOM      1  C   UNL     1      41.102 -10.277 -43.945  1.00  0.00     0.006 C 
ENDROOT
BRANCH   1   2
ATOM      2  C   UNL     1      40.593 -10.328 -42.499  1.00  0.00     0.053 C 
BRANCH   2   3
ATOM      3  C   UNL     1      41.719 -10.277 -41.512  1.00  0.00     0.041 C 
ATOM      4  O   UNL     1      41.575 -10.766 -40.361  1.00  0.00    -0.550 OA
ATOM      5  O   UNL     1      42.917  -9.661 -41.853  1.00  0.00    -0.550 OA
ENDBRANCH   2   3
ENDBRANCH   1   2
BRANCH   1   6
ATOM      6  C   UNL     1      41.183 -11.671 -44.583  1.00  0.00     0.000 C 
BRANCH   6   7
ATOM      7  C   UNL     1      42.553 -11.900 -45.231  1.00  0.00    -0.003 C 
ATOM      8  C   UNL     1      43.600 -12.279 -44.187  1.00  0.00     0.004 C 
ENDBRANCH   6   7
ENDBRANCH   1   6
TORSDOF 4
ENDMDL
MODEL 2
REMARK VINA RESULT:    -3.509      2.228      3.572
REMARK INTER + INTRA:          -4.550
REMARK INTER:                  -4.280
REMARK INTRA:                  -0.270
REMARK UNBOUND:                -0.220
REMARK SMILES CCCCCC(=O)[O-]
REMARK SMILES IDX 4 1 5 2 6 3 7 4 8 5 3 6 2 7 1 8
REMARK H PARENT
REMARK Flexibility Score: inf
ROOT
ATOM      1  C   UNL     1      40.126 -10.772 -44.007  1.00  0.00     0.006 C 
ENDROOT
BRANCH   1   2
ATOM      2  C   UNL     1      40.692 -11.963 -44.790  1.00  0.00     0.053 C 
BRANCH   2   3
ATOM      3  C   UNL     1      42.190 -11.942 -44.828  1.00  0.00     0.041 C 
ATOM      4  O   UNL     1      42.851 -11.990 -43.758  1.00  0.00    -0.550 OA
ATOM      5  O   UNL     1      42.854 -11.835 -46.044  1.00  0.00    -0.550 OA
ENDBRANCH   2   3
ENDBRANCH   1   2
BRANCH   1   6
ATOM      6  C   UNL     1      40.582  -9.425 -44.586  1.00  0.00     0.000 C 
BRANCH   6   7
ATOM      7  C   UNL     1      41.091  -8.495 -43.479  1.00  0.00    -0.003 C 
ATOM      8  C   UNL     1      41.125  -9.209 -42.131  1.00  0.00     0.004 C 
ENDBRANCH   6   7
ENDBRANCH   1   6
TORSDOF 4
ENDMDL
MODEL 3
REMARK VINA RESULT:    -3.503      1.675      2.506
REMARK INTER + INTRA:          -4.542
REMARK INTER:                  -4.427
REMARK INTRA:                  -0.115
REMARK UNBOUND:                -0.220
REMARK SMILES CCCCCC(=O)[O-]
REMARK SMILES IDX 4 1 5 2 6 3 7 4 8 5 3 6 2 7 1 8
REMARK H PARENT
REMARK Flexibility Score: inf
ROOT
ATOM      1  C   UNL     1      43.526 -12.113 -43.239  1.00  0.00     0.006 C 
ENDROOT
BRANCH   1   2
ATOM      2  C   UNL     1      43.080 -11.071 -42.206  1.00  0.00     0.053 C 
BRANCH   2   3
ATOM      3  C   UNL     1      43.432 -11.486 -40.810  1.00  0.00     0.041 C 
ATOM      4  O   UNL     1      42.559 -11.464 -39.904  1.00  0.00    -0.550 OA
ATOM      5  O   UNL     1      44.733 -11.865 -40.503  1.00  0.00    -0.550 OA
ENDBRANCH   2   3
ENDBRANCH   1   2
BRANCH   1   6
ATOM      6  C   UNL     1      42.692 -12.049 -44.527  1.00  0.00     0.000 C 
BRANCH   6   7
ATOM      7  C   UNL     1      41.366 -11.319 -44.287  1.00  0.00    -0.003 C 
ATOM      8  C   UNL     1      40.190 -12.111 -44.852  1.00  0.00     0.004 C 
ENDBRANCH   6   7
ENDBRANCH   1   6
TORSDOF 4
ENDMDL
MODEL 4
REMARK VINA RESULT:    -3.489      3.430      3.985
REMARK INTER + INTRA:          -4.525
REMARK INTER:                  -4.483
REMARK INTRA:                  -0.042
REMARK UNBOUND:                -0.220
REMARK SMILES CCCCCC(=O)[O-]
REMARK SMILES IDX 4 1 5 2 6 3 7 4 8 5 3 6 2 7 1 8
REMARK H PARENT
REMARK Flexibility Score: inf
ROOT
ATOM      1  C   UNL     1      43.968 -12.358 -41.282  1.00  0.00     0.006 C 
ENDROOT
BRANCH   1   2
ATOM      2  C   UNL     1      44.487 -11.471 -40.144  1.00  0.00     0.053 C 
BRANCH   2   3
ATOM      3  C   UNL     1      45.525 -12.171 -39.322  1.00  0.00     0.041 C 
ATOM      4  O   UNL     1      45.203 -12.740 -38.246  1.00  0.00    -0.550 OA
ATOM      5  O   UNL     1      46.854 -12.166 -39.727  1.00  0.00    -0.550 OA
ENDBRANCH   2   3
ENDBRANCH   1   2
BRANCH   1   6
ATOM      6  C   UNL     1      43.458 -11.536 -42.475  1.00  0.00     0.000 C 
BRANCH   6   7
ATOM      7  C   UNL     1      43.556 -12.338 -43.778  1.00  0.00    -0.003 C 
ATOM      8  C   UNL     1      42.462 -11.930 -44.760  1.00  0.00     0.004 C 
ENDBRANCH   6   7
ENDBRANCH   1   6
TORSDOF 4
ENDMDL
MODEL 5
REMARK VINA RESULT:    -3.477      1.706      2.367
REMARK INTER + INTRA:          -4.510
REMARK INTER:                  -4.373
REMARK INTRA:                  -0.137
REMARK UNBOUND:                -0.220
REMARK SMILES CCCCCC(=O)[O-]
REMARK SMILES IDX 4 1 5 2 6 3 7 4 8 5 3 6 2 7 1 8
REMARK H PARENT
REMARK Flexibility Score: inf
ROOT
ATOM      1  C   UNL     1      40.841 -10.218 -42.490  1.00  0.00     0.006 C 
ENDROOT
BRANCH   1   2
ATOM      2  C   UNL     1      42.123  -9.450 -42.145  1.00  0.00     0.053 C 
BRANCH   2   3
ATOM      3  C   UNL     1      43.222 -10.369 -41.708  1.00  0.00     0.041 C 
ATOM      4  O   UNL     1      43.567 -11.335 -42.437  1.00  0.00    -0.550 OA
ATOM      5  O   UNL     1      43.843 -10.178 -40.480  1.00  0.00    -0.550 OA
ENDBRANCH   2   3
ENDBRANCH   1   2
BRANCH   1   6
ATOM      6  C   UNL     1      40.555 -10.224 -43.998  1.00  0.00     0.000 C 
BRANCH   6   7
ATOM      7  C   UNL     1      40.701 -11.635 -44.580  1.00  0.00    -0.003 C 
ATOM      8  C   UNL     1      39.344 -12.220 -44.958  1.00  0.00     0.004 C 
ENDBRANCH   6   7
ENDBRANCH   1   6
TORSDOF 4
ENDMDL
MODEL 6
REMARK VINA RESULT:    -3.457      2.991      3.553
REMARK INTER + INTRA:          -4.486
REMARK INTER:                  -4.251
REMARK INTRA:                  -0.235
REMARK UNBOUND:                -0.220
REMARK SMILES CCCCCC(=O)[O-]
REMARK SMILES IDX 4 1 5 2 6 3 7 4 8 5 3 6 2 7 1 8
REMARK H PARENT
REMARK Flexibility Score: inf
ROOT
ATOM      1  C   UNL     1      40.576 -10.153 -43.290  1.00  0.00     0.006 C 
ENDROOT
BRANCH   1   2
ATOM      2  C   UNL     1      41.013  -8.720 -43.617  1.00  0.00     0.053 C 
BRANCH   2   3
ATOM      3  C   UNL     1      40.592  -8.311 -44.996  1.00  0.00     0.041 C 
ATOM      4  O   UNL     1      39.372  -8.157 -45.266  1.00  0.00    -0.550 OA
ATOM      5  O   UNL     1      41.546  -8.132 -45.990  1.00  0.00    -0.550 OA
ENDBRANCH   2   3
ENDBRANCH   1   2
BRANCH   1   6
ATOM      6  C   UNL     1      41.551 -11.200 -43.846  1.00  0.00     0.000 C 
BRANCH   6   7
ATOM      7  C   UNL     1      40.897 -12.022 -44.963  1.00  0.00    -0.003 C 
ATOM      8  C   UNL     1      39.384 -12.096 -44.780  1.00  0.00     0.004 C 
ENDBRANCH   6   7
ENDBRANCH   1   6
TORSDOF 4
ENDMDL
MODEL 7
REMARK VINA RESULT:    -3.455      2.381      3.013
REMARK INTER + INTRA:          -4.483
REMARK INTER:                  -4.324
REMARK INTRA:                  -0.158
REMARK UNBOUND:                -0.220
REMARK SMILES CCCCCC(=O)[O-]
REMARK SMILES IDX 4 1 5 2 6 3 7 4 8 5 3 6 2 7 1 8
REMARK H PARENT
REMARK Flexibility Score: inf
ROOT
ATOM      1  C   UNL     1      42.018 -11.626 -44.592  1.00  0.00     0.006 C 
ENDROOT
BRANCH   1   2
ATOM      2  C   UNL     1      40.908 -10.985 -43.748  1.00  0.00     0.053 C 
BRANCH   2   3
ATOM      3  C   UNL     1      40.505  -9.646 -44.285  1.00  0.00     0.041 C 
ATOM      4  O   UNL     1      39.448  -9.526 -44.958  1.00  0.00    -0.550 OA
ATOM      5  O   UNL     1      41.314  -8.537 -44.069  1.00  0.00    -0.550 OA
ENDBRANCH   2   3
ENDBRANCH   1   2
BRANCH   1   6
ATOM      6  C   UNL     1      43.174 -12.153 -43.729  1.00  0.00     0.000 C 
BRANCH   6   7
ATOM      7  C   UNL     1      43.291 -11.358 -42.423  1.00  0.00    -0.003 C 
ATOM      8  C   UNL     1      43.970 -12.183 -41.334  1.00  0.00     0.004 C 
ENDBRANCH   6   7
ENDBRANCH   1   6
TORSDOF 4
ENDMDL
MODEL 8
REMARK VINA RESULT:    -3.424      2.554      3.543
REMARK INTER + INTRA:          -4.444
REMARK INTER:                  -4.309
REMARK INTRA:                  -0.135
REMARK UNBOUND:                -0.220
REMARK SMILES CCCCCC(=O)[O-]
REMARK SMILES IDX 4 1 5 2 6 3 7 4 8 5 3 6 2 7 1 8
REMARK H PARENT
REMARK Flexibility Score: inf
ROOT
ATOM      1  C   UNL     1      43.901 -11.396 -39.576  1.00  0.00     0.006 C 
ENDROOT
BRANCH   1   2
ATOM      2  C   UNL     1      42.405 -11.097 -39.412  1.00  0.00     0.053 C 
BRANCH   2   3
ATOM      3  C   UNL     1      42.170  -9.721 -38.867  1.00  0.00     0.041 C 
ATOM      4  O   UNL     1      42.362  -9.482 -37.646  1.00  0.00    -0.550 OA
ATOM      5  O   UNL     1      41.707  -8.711 -39.702  1.00  0.00    -0.550 OA
ENDBRANCH   2   3
ENDBRANCH   1   2
BRANCH   1   6
ATOM      6  C   UNL     1      44.219 -12.050 -40.928  1.00  0.00     0.000 C 
BRANCH   6   7
ATOM      7  C   UNL     1      43.501 -11.325 -42.072  1.00  0.00    -0.003 C 
ATOM      8  C   UNL     1      43.459 -12.185 -43.331  1.00  0.00     0.004 C 
ENDBRANCH   6   7
ENDBRANCH   1   6
TORSDOF 4
ENDMDL
MODEL 9
REMARK VINA RESULT:    -3.414      3.660      4.238
REMARK INTER + INTRA:          -4.432
REMARK INTER:                  -4.163
REMARK INTRA:                  -0.269
REMARK UNBOUND:                -0.220
REMARK SMILES CCCCCC(=O)[O-]
REMARK SMILES IDX 4 1 5 2 6 3 7 4 8 5 3 6 2 7 1 8
REMARK H PARENT
REMARK Flexibility Score: inf
ROOT
ATOM      1  C   UNL     1      42.207 -10.585 -40.303  1.00  0.00     0.006 C 
ENDROOT
BRANCH   1   2
ATOM      2  C   UNL     1      41.999 -11.001 -38.841  1.00  0.00     0.053 C 
BRANCH   2   3
ATOM      3  C   UNL     1      42.718 -10.088 -37.896  1.00  0.00     0.041 C 
ATOM      4  O   UNL     1      43.600 -10.545 -37.122  1.00  0.00    -0.550 OA
ATOM      5  O   UNL     1      42.390  -8.739 -37.846  1.00  0.00    -0.550 OA
ENDBRANCH   2   3
ENDBRANCH   1   2
BRANCH   1   6
ATOM      6  C   UNL     1      43.691 -10.570 -40.697  1.00  0.00     0.000 C 
BRANCH   6   7
ATOM      7  C   UNL     1      44.247 -11.995 -40.802  1.00  0.00    -0.003 C 
ATOM      8  C   UNL     1      45.394 -12.213 -39.820  1.00  0.00     0.004 C 
ENDBRANCH   6   7
ENDBRANCH   1   6
TORSDOF 4
ENDMDL
