MODEL 1
REMARK VINA RESULT:    -3.761      0.000      0.000
REMARK INTER + INTRA:          -4.457
REMARK INTER:                  -4.420
REMARK INTRA:                  -0.037
REMARK UNBOUND:                -0.037
REMARK SMILES CCCCC(=O)[O-]
REMARK SMILES IDX 4 1 5 2 6 3 7 4 3 5 2 6 1 7
REMARK H PARENT
REMARK Flexibility Score: inf
ROOT
ATOM      1  C   UNL     1       3.133 -20.496 -12.147  1.00  0.00     0.053 C 
ENDROOT
BRANCH   1   2
ATOM      2  C   UNL     1       4.264 -21.415 -11.806  1.00  0.00     0.041 C 
ATOM      3  O   UNL     1       5.329 -21.383 -12.476  1.00  0.00    -0.550 OA
ATOM      4  O   UNL     1       4.160 -22.271 -10.717  1.00  0.00    -0.550 OA
ENDBRANCH   1   2
BRANCH   1   5
ATOM      5  C   UNL     1       3.123 -20.196 -13.651  1.00  0.00     0.006 C 
BRANCH   5   6
ATOM      6  C   UNL     1       1.915 -20.818 -14.370  1.00  0.00    -0.003 C 
ATOM      7  C   UNL     1       0.682 -19.914 -14.342  1.00  0.00     0.004 C 
ENDBRANCH   5   6
ENDBRANCH   1   5
TORSDOF 3
ENDMDL
MODEL 2
REMARK VINA RESULT:    -3.736     13.991     14.711
REMARK INTER + INTRA:          -4.428
REMARK INTER:                  -4.393
REMARK INTRA:                  -0.035
REMARK UNBOUND:                -0.037
REMARK SMILES CCCCC(=O)[O-]
REMARK SMILES IDX 4 1 5 2 6 3 7 4 3 5 2 6 1 7
REMARK H PARENT
REMARK Flexibility Score: inf
ROOT
ATOM      1  C   UNL     1      -9.437 -18.757  -7.053  1.00  0.00     0.053 C 
ENDROOT
BRANCH   1   2
ATOM      2  C   UNL     1     -10.479 -19.669  -7.619  1.00  0.00     0.041 C 
ATOM      3  O   UNL     1     -10.970 -20.587  -6.911  1.00  0.00    -0.550 OA
ATOM      4  O   UNL     1     -10.945 -19.476  -8.914  1.00  0.00    -0.550 OA
ENDBRANCH   1   2
BRANCH   1   5
ATOM      5  C   UNL     1      -9.077 -19.180  -5.624  1.00  0.00     0.006 C 
BRANCH   5   6
ATOM      6  C   UNL     1      -7.559 -19.298  -5.408  1.00  0.00    -0.003 C 
ATOM      7  C   UNL     1      -7.202 -20.033  -4.116  1.00  0.00     0.004 C 
ENDBRANCH   5   6
ENDBRANCH   1   5
TORSDOF 3
ENDMDL
MODEL 3
REMARK VINA RESULT:    -3.386     11.478     12.354
REMARK INTER + INTRA:          -4.017
REMARK INTER:                  -3.939
REMARK INTRA:                  -0.078
REMARK UNBOUND:                -0.037
REMARK SMILES CCCCC(=O)[O-]
REMARK SMILES IDX 4 1 5 2 6 3 7 4 3 5 2 6 1 7
REMARK H PARENT
REMARK Flexibility Score: inf
ROOT
ATOM      1  C   UNL     1      -7.062 -16.939 -16.393  1.00  0.00     0.053 C 
ENDROOT
BRANCH   1   2
ATOM      2  C   UNL     1      -7.785 -16.311 -17.543  1.00  0.00     0.041 C 
ATOM      3  O   UNL     1      -7.656 -16.780 -18.705  1.00  0.00    -0.550 OA
ATOM      4  O   UNL     1      -8.641 -15.239 -17.325  1.00  0.00    -0.550 OA
ENDBRANCH   1   2
BRANCH   1   5
ATOM      5  C   UNL     1      -6.101 -18.024 -16.894  1.00  0.00     0.006 C 
BRANCH   5   6
ATOM      6  C   UNL     1      -6.280 -19.359 -16.153  1.00  0.00    -0.003 C 
ATOM      7  C   UNL     1      -7.663 -19.500 -15.517  1.00  0.00     0.004 C 
ENDBRANCH   5   6
ENDBRANCH   1   5
TORSDOF 3
ENDMDL
MODEL 4
REMARK VINA RESULT:    -3.351     11.842     12.651
REMARK INTER + INTRA:          -3.976
REMARK INTER:                  -3.865
REMARK INTRA:                  -0.111
REMARK UNBOUND:                -0.037
REMARK SMILES CCCCC(=O)[O-]
REMARK SMILES IDX 4 1 5 2 6 3 7 4 3 5 2 6 1 7
REMARK H PARENT
REMARK Flexibility Score: inf
ROOT
ATOM      1  C   UNL     1      -7.377 -17.106 -16.365  1.00  0.00     0.053 C 
ENDROOT
BRANCH   1   2
ATOM      2  C   UNL     1      -7.936 -16.318 -17.508  1.00  0.00     0.041 C 
ATOM      3  O   UNL     1      -8.604 -15.273 -17.290  1.00  0.00    -0.550 OA
ATOM      4  O   UNL     1      -7.679 -16.710 -18.816  1.00  0.00    -0.550 OA
ENDBRANCH   1   2
BRANCH   1   5
ATOM      5  C   UNL     1      -6.105 -16.438 -15.827  1.00  0.00     0.006 C 
BRANCH   5   6
ATOM      6  C   UNL     1      -6.331 -15.739 -14.477  1.00  0.00    -0.003 C 
ATOM      7  C   UNL     1      -6.509 -14.228 -14.618  1.00  0.00     0.004 C 
ENDBRANCH   5   6
ENDBRANCH   1   5
TORSDOF 3
ENDMDL
MODEL 5
REMARK VINA RESULT:    -3.268     10.187     10.926
REMARK INTER + INTRA:          -3.878
REMARK INTER:                  -3.845
REMARK INTRA:                  -0.033
REMARK UNBOUND:                -0.037
REMARK SMILES CCCCC(=O)[O-]
REMARK SMILES IDX 4 1 5 2 6 3 7 4 3 5 2 6 1 7
REMARK H PARENT
REMARK Flexibility Score: inf
ROOT
ATOM      1  C   UNL     1       0.110 -15.722  -4.217  1.00  0.00     0.053 C 
ENDROOT
BRANCH   1   2
ATOM      2  C   UNL     1       0.476 -16.000  -2.793  1.00  0.00     0.041 C 
ATOM      3  O   UNL     1       0.126 -17.080  -2.248  1.00  0.00    -0.550 OA
ATOM      4  O   UNL     1       1.247 -15.089  -2.082  1.00  0.00    -0.550 OA
ENDBRANCH   1   2
BRANCH   1   5
ATOM      5  C   UNL     1       0.169 -14.215  -4.500  1.00  0.00     0.006 C 
BRANCH   5   6
ATOM      6  C   UNL     1      -0.154 -13.876  -5.963  1.00  0.00    -0.003 C 
ATOM      7  C   UNL     1      -0.152 -15.108  -6.869  1.00  0.00     0.004 C 
ENDBRANCH   5   6
ENDBRANCH   1   5
TORSDOF 3
ENDMDL
MODEL 6
REMARK VINA RESULT:    -3.219     11.880     12.595
REMARK INTER + INTRA:          -3.820
REMARK INTER:                  -3.768
REMARK INTRA:                  -0.053
REMARK UNBOUND:                -0.037
REMARK SMILES CCCCC(=O)[O-]
REMARK SMILES IDX 4 1 5 2 6 3 7 4 3 5 2 6 1 7
REMARK H PARENT
REMARK Flexibility Score: inf
ROOT
ATOM      1  C   UNL     1      -6.963 -16.557 -16.233  1.00  0.00     0.053 C 
ENDROOT
BRANCH   1   2
ATOM      2  C   UNL     1      -7.747 -16.221 -17.463  1.00  0.00     0.041 C 
ATOM      3  O   UNL     1      -7.554 -16.859 -18.531  1.00  0.00    -0.550 OA
ATOM      4  O   UNL     1      -8.725 -15.236 -17.417  1.00  0.00    -0.550 OA
ENDBRANCH   1   2
BRANCH   1   5
ATOM      5  C   UNL     1      -6.094 -15.366 -15.811  1.00  0.00     0.006 C 
BRANCH   5   6
ATOM      6  C   UNL     1      -6.538 -14.756 -14.472  1.00  0.00    -0.003 C 
ATOM      7  C   UNL     1      -6.381 -15.726 -13.301  1.00  0.00     0.004 C 
ENDBRANCH   5   6
ENDBRANCH   1   5
TORSDOF 3
ENDMDL
MODEL 7
REMARK VINA RESULT:    -3.209     11.658     12.324
REMARK INTER + INTRA:          -3.809
REMARK INTER:                  -3.794
REMARK INTRA:                  -0.015
REMARK UNBOUND:                -0.037
REMARK SMILES CCCCC(=O)[O-]
REMARK SMILES IDX 4 1 5 2 6 3 7 4 3 5 2 6 1 7
REMARK H PARENT
REMARK Flexibility Score: inf
ROOT
ATOM      1  C   UNL     1      -6.472 -15.803 -15.099  1.00  0.00     0.053 C 
ENDROOT
BRANCH   1   2
ATOM      2  C   UNL     1      -6.940 -14.873 -16.174  1.00  0.00     0.041 C 
ATOM      3  O   UNL     1      -6.242 -13.875 -16.496  1.00  0.00    -0.550 OA
ATOM      4  O   UNL     1      -8.122 -15.135 -16.855  1.00  0.00    -0.550 OA
ENDBRANCH   1   2
BRANCH   1   5
ATOM      5  C   UNL     1      -6.433 -15.080 -13.747  1.00  0.00     0.006 C 
BRANCH   5   6
ATOM      6  C   UNL     1      -6.487 -16.051 -12.556  1.00  0.00    -0.003 C 
ATOM      7  C   UNL     1      -7.407 -15.562 -11.437  1.00  0.00     0.004 C 
ENDBRANCH   5   6
ENDBRANCH   1   5
TORSDOF 3
ENDMDL
MODEL 8
REMARK VINA RESULT:    -3.168     12.488     13.675
REMARK INTER + INTRA:          -3.761
REMARK INTER:                  -3.692
REMARK INTRA:                  -0.069
REMARK UNBOUND:                -0.037
REMARK SMILES CCCCC(=O)[O-]
REMARK SMILES IDX 4 1 5 2 6 3 7 4 3 5 2 6 1 7
REMARK H PARENT
REMARK Flexibility Score: inf
ROOT
ATOM      1  C   UNL     1      -8.906 -19.976  -7.681  1.00  0.00     0.053 C 
ENDROOT
BRANCH   1   2
ATOM      2  C   UNL     1     -10.076 -20.905  -7.604  1.00  0.00     0.041 C 
ATOM      3  O   UNL     1     -11.076 -20.609  -6.898  1.00  0.00    -0.550 OA
ATOM      4  O   UNL     1     -10.085 -22.077  -8.351  1.00  0.00    -0.550 OA
ENDBRANCH   1   2
BRANCH   1   5
ATOM      5  C   UNL     1      -9.319 -18.650  -8.330  1.00  0.00     0.006 C 
BRANCH   5   6
ATOM      6  C   UNL     1      -8.404 -18.256  -9.501  1.00  0.00    -0.003 C 
ATOM      7  C   UNL     1      -7.744 -19.464 -10.166  1.00  0.00     0.004 C 
ENDBRANCH   5   6
ENDBRANCH   1   5
TORSDOF 3
ENDMDL
MODEL 9
REMARK VINA RESULT:    -3.067     11.342     12.422
REMARK INTER + INTRA:          -3.642
REMARK INTER:                  -3.566
REMARK INTRA:                  -0.076
REMARK UNBOUND:                -0.037
REMARK SMILES CCCCC(=O)[O-]
REMARK SMILES IDX 4 1 5 2 6 3 7 4 3 5 2 6 1 7
REMARK H PARENT
REMARK Flexibility Score: inf
ROOT
ATOM      1  C   UNL     1      -7.132 -16.970 -16.370  1.00  0.00     0.053 C 
ENDROOT
BRANCH   1   2
ATOM      2  C   UNL     1      -7.807 -16.335 -17.544  1.00  0.00     0.041 C 
ATOM      3  O   UNL     1      -7.614 -16.784 -18.705  1.00  0.00    -0.550 OA
ATOM      4  O   UNL     1      -8.689 -15.279 -17.353  1.00  0.00    -0.550 OA
ENDBRANCH   1   2
BRANCH   1   5
ATOM      5  C   UNL     1      -6.494 -15.898 -15.477  1.00  0.00     0.006 C 
BRANCH   5   6
ATOM      6  C   UNL     1      -5.353 -15.146 -16.180  1.00  0.00    -0.003 C 
ATOM      7  C   UNL     1      -4.244 -14.723 -15.217  1.00  0.00     0.004 C 
ENDBRANCH   5   6
ENDBRANCH   1   5
TORSDOF 3
ENDMDL
