MODEL 1
REMARK VINA RESULT:    -6.714      0.000      0.000
REMARK INTER + INTRA:          -7.482
REMARK INTER:                  -7.303
REMARK INTRA:                  -0.179
REMARK UNBOUND:                -0.179
REMARK SMILES C[C@H]1[C@@H](C)CC[C@@]2(C(=O)[O-])CC[C@@]3(C)C(=CC[C@H]4[C@]5(C)CC[C@H](O)C(C)(C)[C@H]5CC[C@@]43C)[C@@H]12
REMARK SMILES IDX 7 1 6 2 11 3 33 4 5 5 12 6 15 7 2 8 3 9 13 10 16 11 1 12
REMARK SMILES IDX 4 13 14 14 31 15 17 16 18 17 30 18 32 19 19 20 29 21 28 22
REMARK SMILES IDX 21 23 20 24 25 25 22 26 23 27 26 28 27 29 8 30 9 31 10 32
REMARK SMILES IDX 24 33
REMARK H PARENT 24 34
REMARK Flexibility Score: inf
ROOT
ATOM      1  C   UNL     1     128.540 134.173 109.985  1.00  0.00     0.017 C 
ATOM      2  C   UNL     1     128.649 135.605 109.333  1.00  0.00     0.014 C 
ATOM      3  C   UNL     1     127.969 134.278 111.454  1.00  0.00     0.014 C 
ATOM      4  C   UNL     1     127.634 133.266 109.085  1.00  0.00     0.030 C 
ATOM      5  C   UNL     1     128.286 135.686 107.831  1.00  0.00     0.004 C 
ATOM      6  C   UNL     1     126.619 133.558 111.682  1.00  0.00     0.013 C 
ATOM      7  C   UNL     1     126.161 133.716 109.190  1.00  0.00    -0.063 C 
ATOM      8  C   UNL     1     128.281 133.099 107.662  1.00  0.00    -0.003 C 
ATOM      9  C   UNL     1     128.728 134.456 107.010  1.00  0.00    -0.011 C 
ATOM     10  C   UNL     1     125.549 133.863 110.582  1.00  0.00    -0.006 C 
ATOM     11  C   UNL     1     125.334 133.807 108.120  1.00  0.00    -0.027 C 
ATOM     12  C   UNL     1     127.598 132.044 106.756  1.00  0.00     0.008 C 
ATOM     13  C   UNL     1     128.309 134.631 105.541  1.00  0.00     0.008 C 
ATOM     14  C   UNL     1     125.152 135.372 110.761  1.00  0.00     0.017 C 
ATOM     15  C   UNL     1     124.288 132.870 110.641  1.00  0.00    -0.020 C 
ATOM     16  C   UNL     1     123.819 133.685 108.194  1.00  0.00     0.032 C 
ATOM     17  C   UNL     1     123.220 133.421 109.615  1.00  0.00     0.006 C 
ATOM     18  C   UNL     1     123.659 132.813 112.067  1.00  0.00     0.008 C 
ATOM     19  C   UNL     1     124.737 131.416 110.260  1.00  0.00     0.012 C 
ATOM     20  C   UNL     1     121.795 132.725 109.639  1.00  0.00    -0.025 C 
ATOM     21  C   UNL     1     122.273 132.137 112.119  1.00  0.00     0.005 C 
ATOM     22  C   UNL     1     121.278 132.799 111.130  1.00  0.00     0.003 C 
ATOM     23  C   UNL     1     120.821 133.564 108.749  1.00  0.00     0.010 C 
ATOM     24  C   UNL     1     121.856 131.268 109.070  1.00  0.00     0.012 C 
ATOM     25  C   UNL     1     119.756 132.428 111.351  1.00  0.00    -0.006 C 
ATOM     26  C   UNL     1     119.340 133.183 108.918  1.00  0.00     0.033 C 
ATOM     27  C   UNL     1     118.875 133.279 110.378  1.00  0.00     0.120 C 
ATOM     28  C   UNL     1     119.455 130.919 111.156  1.00  0.00     0.014 C 
ATOM     29  C   UNL     1     119.327 132.772 112.806  1.00  0.00     0.014 C 
ENDROOT
BRANCH   1  30
ATOM     30  C   UNL     1     129.927 133.528 110.090  1.00  0.00     0.048 C 
ATOM     31  O   UNL     1     130.075 132.465 110.752  1.00  0.00    -0.550 OA
ATOM     32  O   UNL     1     131.029 134.051 109.420  1.00  0.00    -0.550 OA
ENDBRANCH   1  30
BRANCH  27  33
ATOM     33  O   UNL     1     118.888 134.637 110.752  1.00  0.00    -0.393 OA
ATOM     34  H   UNL     1     117.957 134.977 110.681  1.00  0.00     0.210 HD
ENDBRANCH  27  33
TORSDOF 2
ENDMDL
MODEL 2
REMARK VINA RESULT:    -6.480      9.472     13.947
REMARK INTER + INTRA:          -7.227
REMARK INTER:                  -6.973
REMARK INTRA:                  -0.254
REMARK UNBOUND:                -0.179
REMARK SMILES C[C@H]1[C@@H](C)CC[C@@]2(C(=O)[O-])CC[C@@]3(C)C(=CC[C@H]4[C@]5(C)CC[C@H](O)C(C)(C)[C@H]5CC[C@@]43C)[C@@H]12
REMARK SMILES IDX 7 1 6 2 11 3 33 4 5 5 12 6 15 7 2 8 3 9 13 10 16 11 1 12
REMARK SMILES IDX 4 13 14 14 31 15 17 16 18 17 30 18 32 19 19 20 29 21 28 22
REMARK SMILES IDX 21 23 20 24 25 25 22 26 23 27 26 28 27 29 8 30 9 31 10 32
REMARK SMILES IDX 24 33
REMARK H PARENT 24 34
REMARK Flexibility Score: inf
ROOT
ATOM      1  C   UNL     1     129.617 122.571 109.961  1.00  0.00     0.017 C 
ATOM      2  C   UNL     1     129.073 122.634 108.483  1.00  0.00     0.014 C 
ATOM      3  C   UNL     1     130.904 121.658 110.037  1.00  0.00     0.014 C 
ATOM      4  C   UNL     1     129.919 124.025 110.461  1.00  0.00     0.030 C 
ATOM      5  C   UNL     1     128.528 124.008 108.029  1.00  0.00     0.004 C 
ATOM      6  C   UNL     1     132.193 122.384 110.491  1.00  0.00     0.013 C 
ATOM      7  C   UNL     1     131.167 124.584 109.745  1.00  0.00    -0.063 C 
ATOM      8  C   UNL     1     128.599 124.878 110.470  1.00  0.00    -0.003 C 
ATOM      9  C   UNL     1     127.780 124.785 109.133  1.00  0.00    -0.011 C 
ATOM     10  C   UNL     1     132.443 123.742 109.756  1.00  0.00    -0.006 C 
ATOM     11  C   UNL     1     131.247 125.851 109.271  1.00  0.00    -0.027 C 
ATOM     12  C   UNL     1     128.722 126.262 111.156  1.00  0.00     0.008 C 
ATOM     13  C   UNL     1     127.294 126.136 108.583  1.00  0.00     0.008 C 
ATOM     14  C   UNL     1     132.777 123.380 108.264  1.00  0.00     0.017 C 
ATOM     15  C   UNL     1     133.580 124.636 110.456  1.00  0.00    -0.020 C 
ATOM     16  C   UNL     1     132.547 126.618 109.087  1.00  0.00     0.032 C 
ATOM     17  C   UNL     1     133.854 125.863 109.501  1.00  0.00     0.006 C 
ATOM     18  C   UNL     1     134.901 123.833 110.666  1.00  0.00     0.008 C 
ATOM     19  C   UNL     1     133.086 125.118 111.865  1.00  0.00     0.012 C 
ATOM     20  C   UNL     1     135.089 126.786 109.875  1.00  0.00    -0.025 C 
ATOM     21  C   UNL     1     136.117 124.708 111.036  1.00  0.00     0.005 C 
ATOM     22  C   UNL     1     136.346 125.836 109.996  1.00  0.00     0.003 C 
ATOM     23  C   UNL     1     135.343 127.774 108.691  1.00  0.00     0.010 C 
ATOM     24  C   UNL     1     134.811 127.623 111.168  1.00  0.00     0.012 C 
ATOM     25  C   UNL     1     137.750 126.560 110.079  1.00  0.00    -0.006 C 
ATOM     26  C   UNL     1     136.686 128.520 108.781  1.00  0.00     0.033 C 
ATOM     27  C   UNL     1     137.881 127.563 108.885  1.00  0.00     0.120 C 
ATOM     28  C   UNL     1     137.984 127.300 111.421  1.00  0.00     0.014 C 
ATOM     29  C   UNL     1     138.897 125.517 109.952  1.00  0.00     0.014 C 
ENDROOT
BRANCH   1  30
ATOM     30  C   UNL     1     128.569 121.943 110.889  1.00  0.00     0.048 C 
ATOM     31  O   UNL     1     127.551 121.386 110.397  1.00  0.00    -0.550 OA
ATOM     32  O   UNL     1     128.741 121.912 112.269  1.00  0.00    -0.550 OA
ENDBRANCH   1  30
BRANCH  27  33
ATOM     33  O   UNL     1     137.995 126.871 107.663  1.00  0.00    -0.393 OA
ATOM     34  H   UNL     1     138.457 127.472 107.021  1.00  0.00     0.210 HD
ENDBRANCH  27  33
TORSDOF 2
ENDMDL
MODEL 3
REMARK VINA RESULT:    -6.445     10.656     13.535
REMARK INTER + INTRA:          -7.189
REMARK INTER:                  -6.929
REMARK INTRA:                  -0.260
REMARK UNBOUND:                -0.179
REMARK SMILES C[C@H]1[C@@H](C)CC[C@@]2(C(=O)[O-])CC[C@@]3(C)C(=CC[C@H]4[C@]5(C)CC[C@H](O)C(C)(C)[C@H]5CC[C@@]43C)[C@@H]12
REMARK SMILES IDX 7 1 6 2 11 3 33 4 5 5 12 6 15 7 2 8 3 9 13 10 16 11 1 12
REMARK SMILES IDX 4 13 14 14 31 15 17 16 18 17 30 18 32 19 19 20 29 21 28 22
REMARK SMILES IDX 21 23 20 24 25 25 22 26 23 27 26 28 27 29 8 30 9 31 10 32
REMARK SMILES IDX 24 33
REMARK H PARENT 24 34
REMARK Flexibility Score: inf
ROOT
ATOM      1  C   UNL     1     124.850 122.617 103.925  1.00  0.00     0.017 C 
ATOM      2  C   UNL     1     125.734 122.310 102.656  1.00  0.00     0.014 C 
ATOM      3  C   UNL     1     124.481 121.278 104.677  1.00  0.00     0.014 C 
ATOM      4  C   UNL     1     125.623 123.604 104.864  1.00  0.00     0.030 C 
ATOM      5  C   UNL     1     126.867 123.324 102.369  1.00  0.00     0.004 C 
ATOM      6  C   UNL     1     125.019 121.172 106.123  1.00  0.00     0.013 C 
ATOM      7  C   UNL     1     126.806 122.878 105.538  1.00  0.00    -0.063 C 
ATOM      8  C   UNL     1     125.885 124.963 104.120  1.00  0.00    -0.003 C 
ATOM      9  C   UNL     1     126.497 124.788 102.685  1.00  0.00    -0.011 C 
ATOM     10  C   UNL     1     126.528 121.562 106.264  1.00  0.00    -0.006 C 
ATOM     11  C   UNL     1     128.035 123.433 105.679  1.00  0.00    -0.027 C 
ATOM     12  C   UNL     1     126.440 126.100 105.016  1.00  0.00     0.008 C 
ATOM     13  C   UNL     1     127.691 125.707 102.379  1.00  0.00     0.008 C 
ATOM     14  C   UNL     1     127.343 120.440 105.526  1.00  0.00     0.017 C 
ATOM     15  C   UNL     1     126.984 121.770 107.790  1.00  0.00    -0.020 C 
ATOM     16  C   UNL     1     129.027 123.054 106.768  1.00  0.00     0.032 C 
ATOM     17  C   UNL     1     128.552 121.960 107.781  1.00  0.00     0.006 C 
ATOM     18  C   UNL     1     126.613 120.543 108.679  1.00  0.00     0.008 C 
ATOM     19  C   UNL     1     126.267 123.030 108.393  1.00  0.00     0.012 C 
ATOM     20  C   UNL     1     129.268 121.979 109.196  1.00  0.00    -0.025 C 
ATOM     21  C   UNL     1     127.293 120.539 110.064  1.00  0.00     0.005 C 
ATOM     22  C   UNL     1     128.836 120.654 109.941  1.00  0.00     0.003 C 
ATOM     23  C   UNL     1     130.813 121.920 108.967  1.00  0.00     0.010 C 
ATOM     24  C   UNL     1     128.934 123.283 109.993  1.00  0.00     0.012 C 
ATOM     25  C   UNL     1     129.647 120.306 111.254  1.00  0.00    -0.006 C 
ATOM     26  C   UNL     1     131.621 121.628 110.244  1.00  0.00     0.033 C 
ATOM     27  C   UNL     1     131.178 120.329 110.931  1.00  0.00     0.120 C 
ATOM     28  C   UNL     1     129.341 121.260 112.438  1.00  0.00     0.014 C 
ATOM     29  C   UNL     1     129.285 118.875 111.743  1.00  0.00     0.014 C 
ENDROOT
BRANCH   1  30
ATOM     30  C   UNL     1     123.528 123.273 103.507  1.00  0.00     0.048 C 
ATOM     31  O   UNL     1     123.215 123.331 102.287  1.00  0.00    -0.550 OA
ATOM     32  O   UNL     1     122.623 123.755 104.448  1.00  0.00    -0.550 OA
ENDBRANCH   1  30
BRANCH  27  33
ATOM     33  O   UNL     1     131.527 119.251 110.093  1.00  0.00    -0.393 OA
ATOM     34  H   UNL     1     131.378 119.541 109.155  1.00  0.00     0.210 HD
ENDBRANCH  27  33
TORSDOF 2
ENDMDL
MODEL 4
REMARK VINA RESULT:    -6.183      8.053     12.954
REMARK INTER + INTRA:          -6.904
REMARK INTER:                  -6.637
REMARK INTRA:                  -0.267
REMARK UNBOUND:                -0.179
REMARK SMILES C[C@H]1[C@@H](C)CC[C@@]2(C(=O)[O-])CC[C@@]3(C)C(=CC[C@H]4[C@]5(C)CC[C@H](O)C(C)(C)[C@H]5CC[C@@]43C)[C@@H]12
REMARK SMILES IDX 7 1 6 2 11 3 33 4 5 5 12 6 15 7 2 8 3 9 13 10 16 11 1 12
REMARK SMILES IDX 4 13 14 14 31 15 17 16 18 17 30 18 32 19 19 20 29 21 28 22
REMARK SMILES IDX 21 23 20 24 25 25 22 26 23 27 26 28 27 29 8 30 9 31 10 32
REMARK SMILES IDX 24 33
REMARK H PARENT 24 34
REMARK Flexibility Score: inf
ROOT
ATOM      1  C   UNL     1     129.614 128.132 111.572  1.00  0.00     0.017 C 
ATOM      2  C   UNL     1     128.809 126.778 111.497  1.00  0.00     0.014 C 
ATOM      3  C   UNL     1     130.572 128.134 112.828  1.00  0.00     0.014 C 
ATOM      4  C   UNL     1     130.418 128.326 110.242  1.00  0.00     0.030 C 
ATOM      5  C   UNL     1     128.595 126.205 110.076  1.00  0.00     0.004 C 
ATOM      6  C   UNL     1     132.080 128.235 112.498  1.00  0.00     0.013 C 
ATOM      7  C   UNL     1     131.591 127.326 110.178  1.00  0.00    -0.063 C 
ATOM      8  C   UNL     1     129.429 128.422 109.023  1.00  0.00    -0.003 C 
ATOM      9  C   UNL     1     128.353 127.278 108.995  1.00  0.00    -0.011 C 
ATOM     10  C   UNL     1     132.545 127.255 111.370  1.00  0.00    -0.006 C 
ATOM     11  C   UNL     1     131.926 126.643 109.056  1.00  0.00    -0.027 C 
ATOM     12  C   UNL     1     130.085 128.840 107.683  1.00  0.00     0.008 C 
ATOM     13  C   UNL     1     128.167 126.607 107.624  1.00  0.00     0.008 C 
ATOM     14  C   UNL     1     132.436 125.809 111.971  1.00  0.00     0.017 C 
ATOM     15  C   UNL     1     134.012 127.594 110.808  1.00  0.00    -0.020 C 
ATOM     16  C   UNL     1     133.321 126.116 108.757  1.00  0.00     0.032 C 
ATOM     17  C   UNL     1     134.415 126.418 109.835  1.00  0.00     0.006 C 
ATOM     18  C   UNL     1     135.062 127.703 111.957  1.00  0.00     0.008 C 
ATOM     19  C   UNL     1     133.988 128.969 110.052  1.00  0.00     0.012 C 
ATOM     20  C   UNL     1     135.912 126.419 109.309  1.00  0.00    -0.025 C 
ATOM     21  C   UNL     1     136.527 127.710 111.472  1.00  0.00     0.005 C 
ATOM     22  C   UNL     1     136.841 126.476 110.586  1.00  0.00     0.003 C 
ATOM     23  C   UNL     1     136.179 125.062 108.580  1.00  0.00     0.010 C 
ATOM     24  C   UNL     1     136.166 127.585 108.298  1.00  0.00     0.012 C 
ATOM     25  C   UNL     1     138.377 126.197 110.333  1.00  0.00    -0.006 C 
ATOM     26  C   UNL     1     137.666 124.797 108.285  1.00  0.00     0.033 C 
ATOM     27  C   UNL     1     138.531 124.851 109.551  1.00  0.00     0.120 C 
ATOM     28  C   UNL     1     139.093 127.340 109.567  1.00  0.00     0.014 C 
ATOM     29  C   UNL     1     139.124 126.048 111.689  1.00  0.00     0.014 C 
ENDROOT
BRANCH   1  30
ATOM     30  C   UNL     1     128.654 129.315 111.742  1.00  0.00     0.048 C 
ATOM     31  O   UNL     1     127.420 129.104 111.897  1.00  0.00    -0.550 OA
ATOM     32  O   UNL     1     129.113 130.628 111.792  1.00  0.00    -0.550 OA
ENDBRANCH   1  30
BRANCH  27  33
ATOM     33  O   UNL     1     138.180 123.757 110.367  1.00  0.00    -0.393 OA
ATOM     34  H   UNL     1     137.486 124.070 111.006  1.00  0.00     0.210 HD
ENDBRANCH  27  33
TORSDOF 2
ENDMDL
MODEL 5
REMARK VINA RESULT:    -6.116     10.005     12.027
REMARK INTER + INTRA:          -6.832
REMARK INTER:                  -6.598
REMARK INTRA:                  -0.234
REMARK UNBOUND:                -0.179
REMARK SMILES C[C@H]1[C@@H](C)CC[C@@]2(C(=O)[O-])CC[C@@]3(C)C(=CC[C@H]4[C@]5(C)CC[C@H](O)C(C)(C)[C@H]5CC[C@@]43C)[C@@H]12
REMARK SMILES IDX 7 1 6 2 11 3 33 4 5 5 12 6 15 7 2 8 3 9 13 10 16 11 1 12
REMARK SMILES IDX 4 13 14 14 31 15 17 16 18 17 30 18 32 19 19 20 29 21 28 22
REMARK SMILES IDX 21 23 20 24 25 25 22 26 23 27 26 28 27 29 8 30 9 31 10 32
REMARK SMILES IDX 24 33
REMARK H PARENT 24 34
REMARK Flexibility Score: inf
ROOT
ATOM      1  C   UNL     1     135.444 126.873 109.159  1.00  0.00     0.017 C 
ATOM      2  C   UNL     1     136.551 125.862 109.646  1.00  0.00     0.014 C 
ATOM      3  C   UNL     1     134.968 126.507 107.698  1.00  0.00     0.014 C 
ATOM      4  C   UNL     1     134.248 126.854 110.170  1.00  0.00     0.030 C 
ATOM      5  C   UNL     1     136.475 125.454 111.136  1.00  0.00     0.004 C 
ATOM      6  C   UNL     1     133.473 126.125 107.576  1.00  0.00     0.013 C 
ATOM      7  C   UNL     1     133.467 125.529 110.044  1.00  0.00    -0.063 C 
ATOM      8  C   UNL     1     134.735 127.321 111.590  1.00  0.00    -0.003 C 
ATOM      9  C   UNL     1     136.038 126.594 112.079  1.00  0.00    -0.011 C 
ATOM     10  C   UNL     1     132.996 125.098 108.655  1.00  0.00    -0.006 C 
ATOM     11  C   UNL     1     133.020 124.825 111.112  1.00  0.00    -0.027 C 
ATOM     12  C   UNL     1     133.602 127.562 112.620  1.00  0.00     0.008 C 
ATOM     13  C   UNL     1     135.981 126.082 113.528  1.00  0.00     0.008 C 
ATOM     14  C   UNL     1     133.711 123.741 108.319  1.00  0.00     0.017 C 
ATOM     15  C   UNL     1     131.397 124.964 108.731  1.00  0.00    -0.020 C 
ATOM     16  C   UNL     1     131.824 123.886 111.081  1.00  0.00     0.032 C 
ATOM     17  C   UNL     1     131.081 123.765 109.709  1.00  0.00     0.006 C 
ATOM     18  C   UNL     1     130.772 124.673 107.331  1.00  0.00     0.008 C 
ATOM     19  C   UNL     1     130.774 126.303 109.261  1.00  0.00     0.012 C 
ATOM     20  C   UNL     1     129.566 123.301 109.790  1.00  0.00    -0.025 C 
ATOM     21  C   UNL     1     129.297 124.223 107.381  1.00  0.00     0.005 C 
ATOM     22  C   UNL     1     129.106 122.995 108.309  1.00  0.00     0.003 C 
ATOM     23  C   UNL     1     129.502 121.965 110.600  1.00  0.00     0.010 C 
ATOM     24  C   UNL     1     128.676 124.364 110.514  1.00  0.00     0.012 C 
ATOM     25  C   UNL     1     127.723 122.241 108.160  1.00  0.00    -0.006 C 
ATOM     26  C   UNL     1     128.147 121.243 110.502  1.00  0.00     0.033 C 
ATOM     27  C   UNL     1     127.742 120.955 109.050  1.00  0.00     0.120 C 
ATOM     28  C   UNL     1     126.500 123.120 108.526  1.00  0.00     0.014 C 
ATOM     29  C   UNL     1     127.514 121.796 106.684  1.00  0.00     0.014 C 
ENDROOT
BRANCH   1  30
ATOM     30  C   UNL     1     136.012 128.297 109.098  1.00  0.00     0.048 C 
ATOM     31  O   UNL     1     137.259 128.477 109.149  1.00  0.00    -0.550 OA
ATOM     32  O   UNL     1     135.188 129.405 108.926  1.00  0.00    -0.550 OA
ENDBRANCH   1  30
BRANCH  27  33
ATOM     33  O   UNL     1     128.638 120.000 108.528  1.00  0.00    -0.393 OA
ATOM     34  H   UNL     1     128.905 120.304 107.620  1.00  0.00     0.210 HD
ENDBRANCH  27  33
TORSDOF 2
ENDMDL
MODEL 6
REMARK VINA RESULT:    -6.091      9.529     13.366
REMARK INTER + INTRA:          -6.804
REMARK INTER:                  -6.538
REMARK INTRA:                  -0.267
REMARK UNBOUND:                -0.179
REMARK SMILES C[C@H]1[C@@H](C)CC[C@@]2(C(=O)[O-])CC[C@@]3(C)C(=CC[C@H]4[C@]5(C)CC[C@H](O)C(C)(C)[C@H]5CC[C@@]43C)[C@@H]12
REMARK SMILES IDX 7 1 6 2 11 3 33 4 5 5 12 6 15 7 2 8 3 9 13 10 16 11 1 12
REMARK SMILES IDX 4 13 14 14 31 15 17 16 18 17 30 18 32 19 19 20 29 21 28 22
REMARK SMILES IDX 21 23 20 24 25 25 22 26 23 27 26 28 27 29 8 30 9 31 10 32
REMARK SMILES IDX 24 33
REMARK H PARENT 24 34
REMARK Flexibility Score: inf
ROOT
ATOM      1  C   UNL     1     129.014 121.370 108.731  1.00  0.00     0.017 C 
ATOM      2  C   UNL     1     129.138 121.243 107.165  1.00  0.00     0.014 C 
ATOM      3  C   UNL     1     130.296 120.776 109.437  1.00  0.00     0.014 C 
ATOM      4  C   UNL     1     128.802 122.876 109.109  1.00  0.00     0.030 C 
ATOM      5  C   UNL     1     128.588 122.437 106.350  1.00  0.00     0.004 C 
ATOM      6  C   UNL     1     131.115 121.793 110.265  1.00  0.00     0.013 C 
ATOM      7  C   UNL     1     130.106 123.669 108.883  1.00  0.00    -0.063 C 
ATOM      8  C   UNL     1     127.466 123.408 108.475  1.00  0.00    -0.003 C 
ATOM      9  C   UNL     1     127.316 123.073 106.948  1.00  0.00    -0.011 C 
ATOM     10  C   UNL     1     131.392 123.138 109.516  1.00  0.00    -0.006 C 
ATOM     11  C   UNL     1     130.140 124.898 108.314  1.00  0.00    -0.027 C 
ATOM     12  C   UNL     1     127.029 124.814 108.960  1.00  0.00     0.008 C 
ATOM     13  C   UNL     1     126.862 124.254 106.074  1.00  0.00     0.008 C 
ATOM     14  C   UNL     1     132.382 122.794 108.345  1.00  0.00     0.017 C 
ATOM     15  C   UNL     1     131.943 124.295 110.485  1.00  0.00    -0.020 C 
ATOM     16  C   UNL     1     131.229 125.930 108.565  1.00  0.00     0.032 C 
ATOM     17  C   UNL     1     132.358 125.509 109.563  1.00  0.00     0.006 C 
ATOM     18  C   UNL     1     133.179 123.822 111.311  1.00  0.00     0.008 C 
ATOM     19  C   UNL     1     130.824 124.717 111.500  1.00  0.00     0.012 C 
ATOM     20  C   UNL     1     133.126 126.702 110.272  1.00  0.00    -0.025 C 
ATOM     21  C   UNL     1     133.941 124.964 112.014  1.00  0.00     0.005 C 
ATOM     22  C   UNL     1     134.370 126.067 111.011  1.00  0.00     0.003 C 
ATOM     23  C   UNL     1     133.665 127.668 109.166  1.00  0.00     0.010 C 
ATOM     24  C   UNL     1     132.181 127.512 111.220  1.00  0.00     0.012 C 
ATOM     25  C   UNL     1     135.448 127.091 111.550  1.00  0.00    -0.006 C 
ATOM     26  C   UNL     1     134.680 128.701 109.684  1.00  0.00     0.033 C 
ATOM     27  C   UNL     1     135.877 128.043 110.385  1.00  0.00     0.120 C 
ATOM     28  C   UNL     1     134.955 127.925 112.761  1.00  0.00     0.014 C 
ATOM     29  C   UNL     1     136.715 126.329 112.033  1.00  0.00     0.014 C 
ENDROOT
BRANCH   1  30
ATOM     30  C   UNL     1     127.811 120.564 109.238  1.00  0.00     0.048 C 
ATOM     31  O   UNL     1     127.159 119.842 108.437  1.00  0.00    -0.550 OA
ATOM     32  O   UNL     1     127.452 120.556 110.582  1.00  0.00    -0.550 OA
ENDBRANCH   1  30
BRANCH  27  33
ATOM     33  O   UNL     1     136.620 127.341 109.414  1.00  0.00    -0.393 OA
ATOM     34  H   UNL     1     136.259 127.590 108.523  1.00  0.00     0.210 HD
ENDBRANCH  27  33
TORSDOF 2
ENDMDL
MODEL 7
REMARK VINA RESULT:    -6.087     10.021     13.033
REMARK INTER + INTRA:          -6.799
REMARK INTER:                  -6.547
REMARK INTRA:                  -0.252
REMARK UNBOUND:                -0.179
REMARK SMILES C[C@H]1[C@@H](C)CC[C@@]2(C(=O)[O-])CC[C@@]3(C)C(=CC[C@H]4[C@]5(C)CC[C@H](O)C(C)(C)[C@H]5CC[C@@]43C)[C@@H]12
REMARK SMILES IDX 7 1 6 2 11 3 33 4 5 5 12 6 15 7 2 8 3 9 13 10 16 11 1 12
REMARK SMILES IDX 4 13 14 14 31 15 17 16 18 17 30 18 32 19 19 20 29 21 28 22
REMARK SMILES IDX 21 23 20 24 25 25 22 26 23 27 26 28 27 29 8 30 9 31 10 32
REMARK SMILES IDX 24 33
REMARK H PARENT 24 34
REMARK Flexibility Score: inf
ROOT
ATOM      1  C   UNL     1     124.475 121.958 104.333  1.00  0.00     0.017 C 
ATOM      2  C   UNL     1     124.265 120.441 104.708  1.00  0.00     0.014 C 
ATOM      3  C   UNL     1     123.809 122.893 105.418  1.00  0.00     0.014 C 
ATOM      4  C   UNL     1     126.009 122.246 104.197  1.00  0.00     0.030 C 
ATOM      5  C   UNL     1     125.461 119.506 104.414  1.00  0.00     0.004 C 
ATOM      6  C   UNL     1     124.791 123.818 106.174  1.00  0.00     0.013 C 
ATOM      7  C   UNL     1     126.678 122.224 105.588  1.00  0.00    -0.063 C 
ATOM      8  C   UNL     1     126.622 121.375 103.042  1.00  0.00    -0.003 C 
ATOM      9  C   UNL     1     126.230 119.856 103.123  1.00  0.00    -0.011 C 
ATOM     10  C   UNL     1     126.072 123.085 106.695  1.00  0.00    -0.006 C 
ATOM     11  C   UNL     1     127.873 121.631 105.828  1.00  0.00    -0.027 C 
ATOM     12  C   UNL     1     128.080 121.733 102.659  1.00  0.00     0.008 C 
ATOM     13  C   UNL     1     127.403 118.880 102.932  1.00  0.00     0.008 C 
ATOM     14  C   UNL     1     125.592 122.114 107.833  1.00  0.00     0.017 C 
ATOM     15  C   UNL     1     127.223 124.097 107.177  1.00  0.00    -0.020 C 
ATOM     16  C   UNL     1     128.820 122.032 106.949  1.00  0.00     0.032 C 
ATOM     17  C   UNL     1     128.352 123.223 107.850  1.00  0.00     0.006 C 
ATOM     18  C   UNL     1     126.686 125.139 108.207  1.00  0.00     0.008 C 
ATOM     19  C   UNL     1     127.783 124.891 105.945  1.00  0.00     0.012 C 
ATOM     20  C   UNL     1     129.509 124.016 108.592  1.00  0.00    -0.025 C 
ATOM     21  C   UNL     1     127.791 125.927 108.940  1.00  0.00     0.005 C 
ATOM     22  C   UNL     1     128.806 124.978 109.630  1.00  0.00     0.003 C 
ATOM     23  C   UNL     1     130.373 122.990 109.395  1.00  0.00     0.010 C 
ATOM     24  C   UNL     1     130.438 124.761 107.578  1.00  0.00     0.012 C 
ATOM     25  C   UNL     1     129.760 125.662 110.690  1.00  0.00    -0.006 C 
ATOM     26  C   UNL     1     131.340 123.642 110.399  1.00  0.00     0.033 C 
ATOM     27  C   UNL     1     130.618 124.559 111.395  1.00  0.00     0.120 C 
ATOM     28  C   UNL     1     130.688 126.743 110.077  1.00  0.00     0.014 C 
ATOM     29  C   UNL     1     128.918 126.381 111.783  1.00  0.00     0.014 C 
ENDROOT
BRANCH   1  30
ATOM     30  C   UNL     1     123.798 122.275 102.994  1.00  0.00     0.048 C 
ATOM     31  O   UNL     1     123.847 123.447 102.530  1.00  0.00    -0.550 OA
ATOM     32  O   UNL     1     123.177 121.287 102.237  1.00  0.00    -0.550 OA
ENDBRANCH   1  30
BRANCH  27  33
ATOM     33  O   UNL     1     129.811 123.754 112.224  1.00  0.00    -0.393 OA
ATOM     34  H   UNL     1     129.107 123.347 111.653  1.00  0.00     0.210 HD
ENDBRANCH  27  33
TORSDOF 2
ENDMDL
MODEL 8
REMARK VINA RESULT:    -6.049     11.537     13.453
REMARK INTER + INTRA:          -6.758
REMARK INTER:                  -6.584
REMARK INTRA:                  -0.175
REMARK UNBOUND:                -0.179
REMARK SMILES C[C@H]1[C@@H](C)CC[C@@]2(C(=O)[O-])CC[C@@]3(C)C(=CC[C@H]4[C@]5(C)CC[C@H](O)C(C)(C)[C@H]5CC[C@@]43C)[C@@H]12
REMARK SMILES IDX 7 1 6 2 11 3 33 4 5 5 12 6 15 7 2 8 3 9 13 10 16 11 1 12
REMARK SMILES IDX 4 13 14 14 31 15 17 16 18 17 30 18 32 19 19 20 29 21 28 22
REMARK SMILES IDX 21 23 20 24 25 25 22 26 23 27 26 28 27 29 8 30 9 31 10 32
REMARK SMILES IDX 24 33
REMARK H PARENT 24 34
REMARK Flexibility Score: inf
ROOT
ATOM      1  C   UNL     1     128.967 120.587 111.113  1.00  0.00     0.017 C 
ATOM      2  C   UNL     1     128.510 121.844 111.948  1.00  0.00     0.014 C 
ATOM      3  C   UNL     1     127.748 119.609 110.877  1.00  0.00     0.014 C 
ATOM      4  C   UNL     1     129.583 121.068 109.756  1.00  0.00     0.030 C 
ATOM      5  C   UNL     1     129.144 123.191 111.530  1.00  0.00     0.004 C 
ATOM      6  C   UNL     1     127.360 119.397 109.394  1.00  0.00     0.013 C 
ATOM      7  C   UNL     1     128.473 121.608 108.830  1.00  0.00    -0.063 C 
ATOM      8  C   UNL     1     130.853 121.954 110.024  1.00  0.00    -0.003 C 
ATOM      9  C   UNL     1     130.619 123.083 111.090  1.00  0.00    -0.011 C 
ATOM     10  C   UNL     1     127.251 120.726 108.576  1.00  0.00    -0.006 C 
ATOM     11  C   UNL     1     128.607 122.736 108.090  1.00  0.00    -0.027 C 
ATOM     12  C   UNL     1     131.682 122.303 108.762  1.00  0.00     0.008 C 
ATOM     13  C   UNL     1     131.146 124.469 110.683  1.00  0.00     0.008 C 
ATOM     14  C   UNL     1     125.999 121.489 109.139  1.00  0.00     0.017 C 
ATOM     15  C   UNL     1     127.178 120.483 106.990  1.00  0.00    -0.020 C 
ATOM     16  C   UNL     1     127.849 123.009 106.799  1.00  0.00     0.032 C 
ATOM     17  C   UNL     1     126.874 121.882 106.323  1.00  0.00     0.006 C 
ATOM     18  C   UNL     1     126.055 119.469 106.609  1.00  0.00     0.008 C 
ATOM     19  C   UNL     1     128.542 119.899 106.477  1.00  0.00     0.012 C 
ATOM     20  C   UNL     1     126.551 121.868 104.770  1.00  0.00    -0.025 C 
ATOM     21  C   UNL     1     125.725 119.432 105.102  1.00  0.00     0.005 C 
ATOM     22  C   UNL     1     125.367 120.842 104.562  1.00  0.00     0.003 C 
ATOM     23  C   UNL     1     126.037 123.286 104.360  1.00  0.00     0.010 C 
ATOM     24  C   UNL     1     127.822 121.536 103.920  1.00  0.00     0.012 C 
ATOM     25  C   UNL     1     124.676 120.867 103.139  1.00  0.00    -0.006 C 
ATOM     26  C   UNL     1     125.404 123.337 102.958  1.00  0.00     0.033 C 
ATOM     27  C   UNL     1     124.252 122.334 102.802  1.00  0.00     0.120 C 
ATOM     28  C   UNL     1     125.574 120.302 102.008  1.00  0.00     0.014 C 
ATOM     29  C   UNL     1     123.391 119.991 103.154  1.00  0.00     0.014 C 
ENDROOT
BRANCH   1  30
ATOM     30  C   UNL     1     130.032 119.794 111.881  1.00  0.00     0.048 C 
ATOM     31  O   UNL     1     130.125 119.920 113.132  1.00  0.00    -0.550 OA
ATOM     32  O   UNL     1     130.867 118.883 111.242  1.00  0.00    -0.550 OA
ENDBRANCH   1  30
BRANCH  27  33
ATOM     33  O   UNL     1     123.193 122.751 103.633  1.00  0.00    -0.393 OA
ATOM     34  H   UNL     1     123.574 123.362 104.319  1.00  0.00     0.210 HD
ENDBRANCH  27  33
TORSDOF 2
ENDMDL
MODEL 9
REMARK VINA RESULT:    -5.924     10.023     11.562
REMARK INTER + INTRA:          -6.622
REMARK INTER:                  -6.368
REMARK INTRA:                  -0.254
REMARK UNBOUND:                -0.179
REMARK SMILES C[C@H]1[C@@H](C)CC[C@@]2(C(=O)[O-])CC[C@@]3(C)C(=CC[C@H]4[C@]5(C)CC[C@H](O)C(C)(C)[C@H]5CC[C@@]43C)[C@@H]12
REMARK SMILES IDX 7 1 6 2 11 3 33 4 5 5 12 6 15 7 2 8 3 9 13 10 16 11 1 12
REMARK SMILES IDX 4 13 14 14 31 15 17 16 18 17 30 18 32 19 19 20 29 21 28 22
REMARK SMILES IDX 21 23 20 24 25 25 22 26 23 27 26 28 27 29 8 30 9 31 10 32
REMARK SMILES IDX 24 33
REMARK H PARENT 24 34
REMARK Flexibility Score: inf
ROOT
ATOM      1  C   UNL     1     133.855 126.700 111.137  1.00  0.00     0.017 C 
ATOM      2  C   UNL     1     133.483 128.022 110.363  1.00  0.00     0.014 C 
ATOM      3  C   UNL     1     132.828 126.439 112.309  1.00  0.00     0.014 C 
ATOM      4  C   UNL     1     133.884 125.504 110.126  1.00  0.00     0.030 C 
ATOM      5  C   UNL     1     133.683 127.980 108.830  1.00  0.00     0.004 C 
ATOM      6  C   UNL     1     132.012 125.131 112.181  1.00  0.00     0.013 C 
ATOM      7  C   UNL     1     132.449 125.152 109.680  1.00  0.00    -0.063 C 
ATOM      8  C   UNL     1     134.985 125.747 109.032  1.00  0.00    -0.003 C 
ATOM      9  C   UNL     1     134.920 127.174 108.379  1.00  0.00    -0.011 C 
ATOM     10  C   UNL     1     131.395 124.910 110.760  1.00  0.00    -0.006 C 
ATOM     11  C   UNL     1     132.119 124.866 108.397  1.00  0.00    -0.027 C 
ATOM     12  C   UNL     1     135.266 124.534 108.109  1.00  0.00     0.008 C 
ATOM     13  C   UNL     1     135.019 127.182 106.845  1.00  0.00     0.008 C 
ATOM     14  C   UNL     1     130.286 126.009 110.585  1.00  0.00     0.017 C 
ATOM     15  C   UNL     1     130.841 123.418 110.540  1.00  0.00    -0.020 C 
ATOM     16  C   UNL     1     130.937 124.000 107.987  1.00  0.00     0.032 C 
ATOM     17  C   UNL     1     130.082 123.408 109.156  1.00  0.00     0.006 C 
ATOM     18  C   UNL     1     129.861 122.990 111.676  1.00  0.00     0.008 C 
ATOM     19  C   UNL     1     132.037 122.402 110.535  1.00  0.00     0.012 C 
ATOM     20  C   UNL     1     129.266 122.092 108.809  1.00  0.00    -0.025 C 
ATOM     21  C   UNL     1     129.057 121.710 111.365  1.00  0.00     0.005 C 
ATOM     22  C   UNL     1     128.289 121.830 110.023  1.00  0.00     0.003 C 
ATOM     23  C   UNL     1     128.395 122.372 107.541  1.00  0.00     0.010 C 
ATOM     24  C   UNL     1     130.218 120.889 108.501  1.00  0.00     0.012 C 
ATOM     25  C   UNL     1     127.170 120.739 109.783  1.00  0.00    -0.006 C 
ATOM     26  C   UNL     1     127.331 121.295 107.268  1.00  0.00     0.033 C 
ATOM     27  C   UNL     1     126.397 121.079 108.466  1.00  0.00     0.120 C 
ATOM     28  C   UNL     1     127.724 119.293 109.713  1.00  0.00     0.014 C 
ATOM     29  C   UNL     1     126.146 120.757 110.954  1.00  0.00     0.014 C 
ENDROOT
BRANCH   1  30
ATOM     30  C   UNL     1     135.242 126.831 111.780  1.00  0.00     0.048 C 
ATOM     31  O   UNL     1     135.718 125.869 112.442  1.00  0.00    -0.550 OA
ATOM     32  O   UNL     1     136.026 127.966 111.602  1.00  0.00    -0.550 OA
ENDBRANCH   1  30
BRANCH  27  33
ATOM     33  O   UNL     1     125.620 122.244 108.630  1.00  0.00    -0.393 OA
ATOM     34  H   UNL     1     125.213 122.458 107.750  1.00  0.00     0.210 HD
ENDBRANCH  27  33
TORSDOF 2
ENDMDL
