MODEL 1
REMARK VINA RESULT:    -4.795      0.000      0.000
REMARK INTER + INTRA:          -6.168
REMARK INTER:                  -5.917
REMARK INTRA:                  -0.252
REMARK UNBOUND:                -0.252
REMARK SMILES CCCCCC(=O)[O-]
REMARK SMILES IDX 4 1 5 2 6 3 7 4 8 5 3 6 2 7 1 8
REMARK H PARENT
REMARK Flexibility Score: inf
ROOT
ATOM      1  C   UNL     1      12.242  34.915  23.086  1.00  0.00     0.006 C 
ENDROOT
BRANCH   1   2
ATOM      2  C   UNL     1      11.870  36.391  22.911  1.00  0.00     0.053 C 
BRANCH   2   3
ATOM      3  C   UNL     1      10.420  36.605  23.211  1.00  0.00     0.041 C 
ATOM      4  O   UNL     1      10.074  37.274  24.221  1.00  0.00    -0.550 OA
ATOM      5  O   UNL     1       9.450  36.108  22.350  1.00  0.00    -0.550 OA
ENDBRANCH   2   3
ENDBRANCH   1   2
BRANCH   1   6
ATOM      6  C   UNL     1      12.333  34.544  24.574  1.00  0.00     0.000 C 
BRANCH   6   7
ATOM      7  C   UNL     1      11.311  33.470  24.978  1.00  0.00    -0.003 C 
ATOM      8  C   UNL     1      10.518  32.932  23.787  1.00  0.00     0.004 C 
ENDBRANCH   6   7
ENDBRANCH   1   6
TORSDOF 4
ENDMDL
MODEL 2
REMARK VINA RESULT:    -4.773      2.040      2.438
REMARK INTER + INTRA:          -6.141
REMARK INTER:                  -6.056
REMARK INTRA:                  -0.085
REMARK UNBOUND:                -0.252
REMARK SMILES CCCCCC(=O)[O-]
REMARK SMILES IDX 4 1 5 2 6 3 7 4 8 5 3 6 2 7 1 8
REMARK H PARENT
REMARK Flexibility Score: inf
ROOT
ATOM      1  C   UNL     1      12.142  35.433  23.599  1.00  0.00     0.006 C 
ENDROOT
BRANCH   1   2
ATOM      2  C   UNL     1      12.917  35.245  22.291  1.00  0.00     0.053 C 
BRANCH   2   3
ATOM      3  C   UNL     1      12.618  36.361  21.340  1.00  0.00     0.041 C 
ATOM      4  O   UNL     1      11.759  36.208  20.432  1.00  0.00    -0.550 OA
ATOM      5  O   UNL     1      13.253  37.588  21.486  1.00  0.00    -0.550 OA
ENDBRANCH   2   3
ENDBRANCH   1   2
BRANCH   1   6
ATOM      6  C   UNL     1      12.488  34.326  24.605  1.00  0.00     0.000 C 
BRANCH   6   7
ATOM      7  C   UNL     1      11.259  33.503  25.024  1.00  0.00    -0.003 C 
ATOM      8  C   UNL     1      10.527  32.888  23.832  1.00  0.00     0.004 C 
ENDBRANCH   6   7
ENDBRANCH   1   6
TORSDOF 4
ENDMDL
MODEL 3
REMARK VINA RESULT:    -4.728      1.347      3.080
REMARK INTER + INTRA:          -6.085
REMARK INTER:                  -5.821
REMARK INTRA:                  -0.264
REMARK UNBOUND:                -0.252
REMARK SMILES CCCCCC(=O)[O-]
REMARK SMILES IDX 4 1 5 2 6 3 7 4 8 5 3 6 2 7 1 8
REMARK H PARENT
REMARK Flexibility Score: inf
ROOT
ATOM      1  C   UNL     1      12.378  35.444  23.289  1.00  0.00     0.006 C 
ENDROOT
BRANCH   1   2
ATOM      2  C   UNL     1      10.947  34.899  23.332  1.00  0.00     0.053 C 
BRANCH   2   3
ATOM      3  C   UNL     1       9.964  35.984  23.027  1.00  0.00     0.041 C 
ATOM      4  O   UNL     1       9.869  36.985  23.786  1.00  0.00    -0.550 OA
ATOM      5  O   UNL     1       9.185  35.915  21.879  1.00  0.00    -0.550 OA
ENDBRANCH   2   3
ENDBRANCH   1   2
BRANCH   1   6
ATOM      6  C   UNL     1      12.876  35.568  21.842  1.00  0.00     0.000 C 
BRANCH   6   7
ATOM      7  C   UNL     1      13.128  37.026  21.427  1.00  0.00    -0.003 C 
ATOM      8  C   UNL     1      13.107  37.989  22.612  1.00  0.00     0.004 C 
ENDBRANCH   6   7
ENDBRANCH   1   6
TORSDOF 4
ENDMDL
MODEL 4
REMARK VINA RESULT:    -4.726      2.027      2.192
REMARK INTER + INTRA:          -6.083
REMARK INTER:                  -5.990
REMARK INTRA:                  -0.094
REMARK UNBOUND:                -0.252
REMARK SMILES CCCCCC(=O)[O-]
REMARK SMILES IDX 4 1 5 2 6 3 7 4 8 5 3 6 2 7 1 8
REMARK H PARENT
REMARK Flexibility Score: inf
ROOT
ATOM      1  C   UNL     1      11.970  35.416  23.545  1.00  0.00     0.006 C 
ENDROOT
BRANCH   1   2
ATOM      2  C   UNL     1      12.918  35.327  22.345  1.00  0.00     0.053 C 
BRANCH   2   3
ATOM      3  C   UNL     1      12.621  36.414  21.361  1.00  0.00     0.041 C 
ATOM      4  O   UNL     1      13.237  37.511  21.423  1.00  0.00    -0.550 OA
ATOM      5  O   UNL     1      11.699  36.199  20.344  1.00  0.00    -0.550 OA
ENDBRANCH   2   3
ENDBRANCH   1   2
BRANCH   1   6
ATOM      6  C   UNL     1      12.418  34.473  24.671  1.00  0.00     0.000 C 
BRANCH   6   7
ATOM      7  C   UNL     1      11.305  33.510  25.113  1.00  0.00    -0.003 C 
ATOM      8  C   UNL     1      10.555  32.894  23.933  1.00  0.00     0.004 C 
ENDBRANCH   6   7
ENDBRANCH   1   6
TORSDOF 4
ENDMDL
MODEL 5
REMARK VINA RESULT:    -4.692      2.329      3.972
REMARK INTER + INTRA:          -6.041
REMARK INTER:                  -5.956
REMARK INTRA:                  -0.085
REMARK UNBOUND:                -0.252
REMARK SMILES CCCCCC(=O)[O-]
REMARK SMILES IDX 4 1 5 2 6 3 7 4 8 5 3 6 2 7 1 8
REMARK H PARENT
REMARK Flexibility Score: inf
ROOT
ATOM      1  C   UNL     1      12.348  35.386  23.279  1.00  0.00     0.006 C 
ENDROOT
BRANCH   1   2
ATOM      2  C   UNL     1      11.288  34.284  23.201  1.00  0.00     0.053 C 
BRANCH   2   3
ATOM      3  C   UNL     1      11.018  33.720  24.560  1.00  0.00     0.041 C 
ATOM      4  O   UNL     1      10.635  32.526  24.686  1.00  0.00    -0.550 OA
ATOM      5  O   UNL     1      11.235  34.495  25.692  1.00  0.00    -0.550 OA
ENDBRANCH   2   3
ENDBRANCH   1   2
BRANCH   1   6
ATOM      6  C   UNL     1      13.041  35.578  21.922  1.00  0.00     0.000 C 
BRANCH   6   7
ATOM      7  C   UNL     1      13.065  37.049  21.474  1.00  0.00    -0.003 C 
ATOM      8  C   UNL     1      13.077  38.024  22.651  1.00  0.00     0.004 C 
ENDBRANCH   6   7
ENDBRANCH   1   6
TORSDOF 4
ENDMDL
MODEL 6
REMARK VINA RESULT:    -4.381      2.338      2.907
REMARK INTER + INTRA:          -5.657
REMARK INTER:                  -5.531
REMARK INTRA:                  -0.126
REMARK UNBOUND:                -0.252
REMARK SMILES CCCCCC(=O)[O-]
REMARK SMILES IDX 4 1 5 2 6 3 7 4 8 5 3 6 2 7 1 8
REMARK H PARENT
REMARK Flexibility Score: inf
ROOT
ATOM      1  C   UNL     1      11.417  35.699  22.422  1.00  0.00     0.006 C 
ENDROOT
BRANCH   1   2
ATOM      2  C   UNL     1      12.900  35.920  22.110  1.00  0.00     0.053 C 
BRANCH   2   3
ATOM      3  C   UNL     1      13.114  37.276  21.514  1.00  0.00     0.041 C 
ATOM      4  O   UNL     1      12.903  37.468  20.287  1.00  0.00    -0.550 OA
ATOM      5  O   UNL     1      13.498  38.338  22.321  1.00  0.00    -0.550 OA
ENDBRANCH   2   3
ENDBRANCH   1   2
BRANCH   1   6
ATOM      6  C   UNL     1      11.172  35.676  23.938  1.00  0.00     0.000 C 
BRANCH   6   7
ATOM      7  C   UNL     1      12.130  34.727  24.676  1.00  0.00    -0.003 C 
ATOM      8  C   UNL     1      11.434  33.468  25.191  1.00  0.00     0.004 C 
ENDBRANCH   6   7
ENDBRANCH   1   6
TORSDOF 4
ENDMDL
MODEL 7
REMARK VINA RESULT:    -4.345      2.194      3.296
REMARK INTER + INTRA:          -5.613
REMARK INTER:                  -5.410
REMARK INTRA:                  -0.204
REMARK UNBOUND:                -0.252
REMARK SMILES CCCCCC(=O)[O-]
REMARK SMILES IDX 4 1 5 2 6 3 7 4 8 5 3 6 2 7 1 8
REMARK H PARENT
REMARK Flexibility Score: inf
ROOT
ATOM      1  C   UNL     1      12.395  34.891  23.342  1.00  0.00     0.006 C 
ENDROOT
BRANCH   1   2
ATOM      2  C   UNL     1      12.295  34.536  24.829  1.00  0.00     0.053 C 
BRANCH   2   3
ATOM      3  C   UNL     1      11.251  33.487  25.048  1.00  0.00     0.041 C 
ATOM      4  O   UNL     1      10.818  33.258  26.209  1.00  0.00    -0.550 OA
ATOM      5  O   UNL     1      10.721  32.797  23.966  1.00  0.00    -0.550 OA
ENDBRANCH   2   3
ENDBRANCH   1   2
BRANCH   1   6
ATOM      6  C   UNL     1      12.085  36.378  23.110  1.00  0.00     0.000 C 
BRANCH   6   7
ATOM      7  C   UNL     1      10.628  36.736  23.445  1.00  0.00    -0.003 C 
ATOM      8  C   UNL     1       9.619  35.895  22.664  1.00  0.00     0.004 C 
ENDBRANCH   6   7
ENDBRANCH   1   6
TORSDOF 4
ENDMDL
MODEL 8
REMARK VINA RESULT:    -3.694     15.812     16.648
REMARK INTER + INTRA:          -4.810
REMARK INTER:                  -4.765
REMARK INTRA:                  -0.045
REMARK UNBOUND:                -0.252
REMARK SMILES CCCCCC(=O)[O-]
REMARK SMILES IDX 4 1 5 2 6 3 7 4 8 5 3 6 2 7 1 8
REMARK H PARENT
REMARK Flexibility Score: inf
ROOT
ATOM      1  C   UNL     1      25.966  29.708  24.491  1.00  0.00     0.006 C 
ENDROOT
BRANCH   1   2
ATOM      2  C   UNL     1      26.709  28.650  23.668  1.00  0.00     0.053 C 
BRANCH   2   3
ATOM      3  C   UNL     1      25.739  27.743  22.981  1.00  0.00     0.041 C 
ATOM      4  O   UNL     1      24.638  28.192  22.563  1.00  0.00    -0.550 OA
ATOM      5  O   UNL     1      26.069  26.412  22.759  1.00  0.00    -0.550 OA
ENDBRANCH   2   3
ENDBRANCH   1   2
BRANCH   1   6
ATOM      6  C   UNL     1      26.952  30.679  25.157  1.00  0.00     0.000 C 
BRANCH   6   7
ATOM      7  C   UNL     1      26.270  31.962  25.657  1.00  0.00    -0.003 C 
ATOM      8  C   UNL     1      27.063  32.659  26.761  1.00  0.00     0.004 C 
ENDBRANCH   6   7
ENDBRANCH   1   6
TORSDOF 4
ENDMDL
MODEL 9
REMARK VINA RESULT:    -3.635     16.464     16.952
REMARK INTER + INTRA:          -4.737
REMARK INTER:                  -4.649
REMARK INTRA:                  -0.088
REMARK UNBOUND:                -0.252
REMARK SMILES CCCCCC(=O)[O-]
REMARK SMILES IDX 4 1 5 2 6 3 7 4 8 5 3 6 2 7 1 8
REMARK H PARENT
REMARK Flexibility Score: inf
ROOT
ATOM      1  C   UNL     1      27.003  38.863  24.074  1.00  0.00     0.006 C 
ENDROOT
BRANCH   1   2
ATOM      2  C   UNL     1      27.965  37.936  23.326  1.00  0.00     0.053 C 
BRANCH   2   3
ATOM      3  C   UNL     1      27.436  37.619  21.963  1.00  0.00     0.041 C 
ATOM      4  O   UNL     1      26.827  38.501  21.300  1.00  0.00    -0.550 OA
ATOM      5  O   UNL     1      27.656  36.367  21.405  1.00  0.00    -0.550 OA
ENDBRANCH   2   3
ENDBRANCH   1   2
BRANCH   1   6
ATOM      6  C   UNL     1      27.715  39.574  25.234  1.00  0.00     0.000 C 
BRANCH   6   7
ATOM      7  C   UNL     1      26.978  39.406  26.572  1.00  0.00    -0.003 C 
ATOM      8  C   UNL     1      27.739  38.521  27.558  1.00  0.00     0.004 C 
ENDBRANCH   6   7
ENDBRANCH   1   6
TORSDOF 4
ENDMDL
