MODEL 1
REMARK VINA RESULT:    -5.508      0.000      0.000
REMARK INTER + INTRA:         -11.061
REMARK INTER:                 -10.337
REMARK INTRA:                  -0.724
REMARK UNBOUND:                -0.724
REMARK SMILES O=C([O-])CCCCCCCCCCCCCCC(=O)[O-]
REMARK SMILES IDX 10 1 9 2 8 3 7 4 6 5 5 6 4 7 2 8 1 9 3 10 11 11 12 12 13 13
REMARK SMILES IDX 14 14 15 15 16 16 17 17 18 18 19 19 20 20
REMARK H PARENT
REMARK Flexibility Score: inf
ROOT
ATOM      1  C   UNL     1      22.775 -14.505  20.479  1.00  0.00     0.000 C 
ENDROOT
BRANCH   1   2
ATOM      2  C   UNL     1      22.959 -15.780  19.643  1.00  0.00     0.000 C 
BRANCH   2   3
ATOM      3  C   UNL     1      22.712 -15.499  18.153  1.00  0.00     0.000 C 
BRANCH   3   4
ATOM      4  C   UNL     1      22.998 -16.719  17.260  1.00  0.00     0.000 C 
BRANCH   4   5
ATOM      5  C   UNL     1      23.527 -17.964  18.002  1.00  0.00     0.000 C 
BRANCH   5   6
ATOM      6  C   UNL     1      22.615 -19.202  17.929  1.00  0.00     0.006 C 
BRANCH   6   7
ATOM      7  C   UNL     1      21.863 -19.310  16.596  1.00  0.00     0.053 C 
BRANCH   7   8
ATOM      8  C   UNL     1      21.042 -20.559  16.561  1.00  0.00     0.041 C 
ATOM      9  O   UNL     1      21.077 -21.367  17.526  1.00  0.00    -0.550 OA
ATOM     10  O   UNL     1      20.274 -20.856  15.442  1.00  0.00    -0.550 OA
ENDBRANCH   7   8
ENDBRANCH   6   7
ENDBRANCH   5   6
ENDBRANCH   4   5
ENDBRANCH   3   4
ENDBRANCH   2   3
ENDBRANCH   1   2
BRANCH   1  11
ATOM     11  C   UNL     1      21.438 -13.792  20.205  1.00  0.00     0.000 C 
BRANCH  11  12
ATOM     12  C   UNL     1      21.054 -12.708  21.228  1.00  0.00     0.000 C 
BRANCH  12  13
ATOM     13  C   UNL     1      22.267 -11.917  21.749  1.00  0.00     0.000 C 
BRANCH  13  14
ATOM     14  C   UNL     1      21.860 -10.688  22.577  1.00  0.00     0.000 C 
BRANCH  14  15
ATOM     15  C   UNL     1      20.833 -11.023  23.670  1.00  0.00     0.000 C 
BRANCH  15  16
ATOM     16  C   UNL     1      20.646  -9.837  24.628  1.00  0.00     0.006 C 
BRANCH  16  17
ATOM     17  C   UNL     1      21.550  -8.651  24.270  1.00  0.00     0.053 C 
BRANCH  17  18
ATOM     18  C   UNL     1      21.718  -7.710  25.424  1.00  0.00     0.041 C 
ATOM     19  O   UNL     1      20.833  -7.640  26.318  1.00  0.00    -0.550 OA
ATOM     20  O   UNL     1      22.836  -6.889  25.496  1.00  0.00    -0.550 OA
ENDBRANCH  17  18
ENDBRANCH  16  17
ENDBRANCH  15  16
ENDBRANCH  14  15
ENDBRANCH  13  14
ENDBRANCH  12  13
ENDBRANCH  11  12
ENDBRANCH   1  11
TORSDOF 15
ENDMDL
MODEL 2
REMARK VINA RESULT:    -5.504      1.838     11.165
REMARK INTER + INTRA:         -11.055
REMARK INTER:                 -10.289
REMARK INTRA:                  -0.766
REMARK UNBOUND:                -0.724
REMARK SMILES O=C([O-])CCCCCCCCCCCCCCC(=O)[O-]
REMARK SMILES IDX 10 1 9 2 8 3 7 4 6 5 5 6 4 7 2 8 1 9 3 10 11 11 12 12 13 13
REMARK SMILES IDX 14 14 15 15 16 16 17 17 18 18 19 19 20 20
REMARK H PARENT
REMARK Flexibility Score: inf
ROOT
ATOM      1  C   UNL     1      22.902 -15.795  17.386  1.00  0.00     0.000 C 
ENDROOT
BRANCH   1   2
ATOM      2  C   UNL     1      22.305 -14.911  18.491  1.00  0.00     0.000 C 
BRANCH   2   3
ATOM      3  C   UNL     1      22.785 -15.366  19.877  1.00  0.00     0.000 C 
BRANCH   3   4
ATOM      4  C   UNL     1      22.746 -14.238  20.922  1.00  0.00     0.000 C 
BRANCH   4   5
ATOM      5  C   UNL     1      21.511 -13.317  20.845  1.00  0.00     0.000 C 
BRANCH   5   6
ATOM      6  C   UNL     1      21.640 -11.987  21.609  1.00  0.00     0.006 C 
BRANCH   6   7
ATOM      7  C   UNL     1      20.500 -11.762  22.611  1.00  0.00     0.053 C 
BRANCH   7   8
ATOM      8  C   UNL     1      20.902 -10.753  23.639  1.00  0.00     0.041 C 
ATOM      9  O   UNL     1      21.757  -9.872  23.362  1.00  0.00    -0.550 OA
ATOM     10  O   UNL     1      20.367 -10.815  24.920  1.00  0.00    -0.550 OA
ENDBRANCH   7   8
ENDBRANCH   6   7
ENDBRANCH   5   6
ENDBRANCH   4   5
ENDBRANCH   3   4
ENDBRANCH   2   3
ENDBRANCH   1   2
BRANCH   1  11
ATOM     11  C   UNL     1      23.092 -17.260  17.823  1.00  0.00     0.000 C 
BRANCH  11  12
ATOM     12  C   UNL     1      23.405 -18.246  16.682  1.00  0.00     0.000 C 
BRANCH  12  13
ATOM     13  C   UNL     1      22.228 -19.184  16.360  1.00  0.00     0.000 C 
BRANCH  13  14
ATOM     14  C   UNL     1      21.636 -19.840  17.618  1.00  0.00     0.000 C 
BRANCH  14  15
ATOM     15  C   UNL     1      21.869 -21.358  17.660  1.00  0.00     0.000 C 
BRANCH  15  16
ATOM     16  C   UNL     1      20.534 -22.118  17.650  1.00  0.00     0.006 C 
BRANCH  16  17
ATOM     17  C   UNL     1      19.341 -21.196  17.369  1.00  0.00     0.053 C 
BRANCH  17  18
ATOM     18  C   UNL     1      18.755 -21.440  16.012  1.00  0.00     0.041 C 
ATOM     19  O   UNL     1      17.566 -21.838  15.897  1.00  0.00    -0.550 OA
ATOM     20  O   UNL     1      19.534 -21.260  14.876  1.00  0.00    -0.550 OA
ENDBRANCH  17  18
ENDBRANCH  16  17
ENDBRANCH  15  16
ENDBRANCH  14  15
ENDBRANCH  13  14
ENDBRANCH  12  13
ENDBRANCH  11  12
ENDBRANCH   1  11
TORSDOF 15
ENDMDL
MODEL 3
REMARK VINA RESULT:    -5.493      1.996      3.263
REMARK INTER + INTRA:         -11.035
REMARK INTER:                 -10.350
REMARK INTRA:                  -0.684
REMARK UNBOUND:                -0.724
REMARK SMILES O=C([O-])CCCCCCCCCCCCCCC(=O)[O-]
REMARK SMILES IDX 10 1 9 2 8 3 7 4 6 5 5 6 4 7 2 8 1 9 3 10 11 11 12 12 13 13
REMARK SMILES IDX 14 14 15 15 16 16 17 17 18 18 19 19 20 20
REMARK H PARENT
REMARK Flexibility Score: inf
ROOT
ATOM      1  C   UNL     1      21.183 -12.645  21.226  1.00  0.00     0.000 C 
ENDROOT
BRANCH   1   2
ATOM      2  C   UNL     1      22.677 -12.826  21.537  1.00  0.00     0.000 C 
BRANCH   2   3
ATOM      3  C   UNL     1      23.150 -14.236  21.154  1.00  0.00     0.000 C 
BRANCH   3   4
ATOM      4  C   UNL     1      22.569 -14.718  19.814  1.00  0.00     0.000 C 
BRANCH   4   5
ATOM      5  C   UNL     1      22.970 -16.150  19.404  1.00  0.00     0.000 C 
BRANCH   5   6
ATOM      6  C   UNL     1      22.873 -16.448  17.897  1.00  0.00     0.006 C 
BRANCH   6   7
ATOM      7  C   UNL     1      23.525 -17.781  17.511  1.00  0.00     0.053 C 
BRANCH   7   8
ATOM      8  C   UNL     1      22.479 -18.799  17.184  1.00  0.00     0.041 C 
ATOM      9  O   UNL     1      22.223 -19.082  15.985  1.00  0.00    -0.550 OA
ATOM     10  O   UNL     1      21.751 -19.400  18.204  1.00  0.00    -0.550 OA
ENDBRANCH   7   8
ENDBRANCH   6   7
ENDBRANCH   5   6
ENDBRANCH   4   5
ENDBRANCH   3   4
ENDBRANCH   2   3
ENDBRANCH   1   2
BRANCH   1  11
ATOM     11  C   UNL     1      20.402 -11.992  22.381  1.00  0.00     0.000 C 
BRANCH  11  12
ATOM     12  C   UNL     1      21.225 -11.042  23.271  1.00  0.00     0.000 C 
BRANCH  12  13
ATOM     13  C   UNL     1      20.507 -10.673  24.581  1.00  0.00     0.000 C 
BRANCH  13  14
ATOM     14  C   UNL     1      20.748  -9.214  24.996  1.00  0.00     0.000 C 
BRANCH  14  15
ATOM     15  C   UNL     1      21.111  -8.311  23.807  1.00  0.00     0.000 C 
BRANCH  15  16
ATOM     16  C   UNL     1      20.981  -6.827  24.185  1.00  0.00     0.006 C 
BRANCH  16  17
ATOM     17  C   UNL     1      19.734  -6.550  25.035  1.00  0.00     0.053 C 
BRANCH  17  18
ATOM     18  C   UNL     1      18.795  -5.603  24.353  1.00  0.00     0.041 C 
ATOM     19  O   UNL     1      19.181  -4.935  23.358  1.00  0.00    -0.550 OA
ATOM     20  O   UNL     1      17.504  -5.434  24.838  1.00  0.00    -0.550 OA
ENDBRANCH  17  18
ENDBRANCH  16  17
ENDBRANCH  15  16
ENDBRANCH  14  15
ENDBRANCH  13  14
ENDBRANCH  12  13
ENDBRANCH  11  12
ENDBRANCH   1  11
TORSDOF 15
ENDMDL
MODEL 4
REMARK VINA RESULT:    -5.451      1.004     11.588
REMARK INTER + INTRA:         -10.954
REMARK INTER:                 -10.338
REMARK INTRA:                  -0.616
REMARK UNBOUND:                -0.724
REMARK SMILES O=C([O-])CCCCCCCCCCCCCCC(=O)[O-]
REMARK SMILES IDX 10 1 9 2 8 3 7 4 6 5 5 6 4 7 2 8 1 9 3 10 11 11 12 12 13 13
REMARK SMILES IDX 14 14 15 15 16 16 17 17 18 18 19 19 20 20
REMARK H PARENT
REMARK Flexibility Score: inf
ROOT
ATOM      1  C   UNL     1      21.714 -13.542  20.860  1.00  0.00     0.000 C 
ENDROOT
BRANCH   1   2
ATOM      2  C   UNL     1      21.926 -12.192  21.562  1.00  0.00     0.000 C 
BRANCH   2   3
ATOM      3  C   UNL     1      20.717 -11.833  22.439  1.00  0.00     0.000 C 
BRANCH   3   4
ATOM      4  C   UNL     1      21.040 -10.758  23.491  1.00  0.00     0.000 C 
BRANCH   4   5
ATOM      5  C   UNL     1      21.716  -9.486  22.940  1.00  0.00     0.000 C 
BRANCH   5   6
ATOM      6  C   UNL     1      21.259  -8.170  23.593  1.00  0.00     0.006 C 
BRANCH   6   7
ATOM      7  C   UNL     1      21.870  -7.951  24.983  1.00  0.00     0.053 C 
BRANCH   7   8
ATOM      8  C   UNL     1      20.816  -7.524  25.955  1.00  0.00     0.041 C 
ATOM      9  O   UNL     1      19.610  -7.465  25.596  1.00  0.00    -0.550 OA
ATOM     10  O   UNL     1      21.170  -7.146  27.244  1.00  0.00    -0.550 OA
ENDBRANCH   7   8
ENDBRANCH   6   7
ENDBRANCH   5   6
ENDBRANCH   4   5
ENDBRANCH   3   4
ENDBRANCH   2   3
ENDBRANCH   1   2
BRANCH   1  11
ATOM     11  C   UNL     1      22.967 -14.436  20.882  1.00  0.00     0.000 C 
BRANCH  11  12
ATOM     12  C   UNL     1      22.946 -15.615  19.891  1.00  0.00     0.000 C 
BRANCH  12  13
ATOM     13  C   UNL     1      22.569 -15.190  18.461  1.00  0.00     0.000 C 
BRANCH  13  14
ATOM     14  C   UNL     1      22.925 -16.258  17.415  1.00  0.00     0.000 C 
BRANCH  14  15
ATOM     15  C   UNL     1      23.314 -17.603  18.049  1.00  0.00     0.000 C 
BRANCH  15  16
ATOM     16  C   UNL     1      23.531 -18.675  16.971  1.00  0.00     0.006 C 
BRANCH  16  17
ATOM     17  C   UNL     1      22.233 -19.031  16.234  1.00  0.00     0.053 C 
BRANCH  17  18
ATOM     18  C   UNL     1      21.535 -20.196  16.867  1.00  0.00     0.041 C 
ATOM     19  O   UNL     1      22.082 -20.825  17.811  1.00  0.00    -0.550 OA
ATOM     20  O   UNL     1      20.295 -20.606  16.393  1.00  0.00    -0.550 OA
ENDBRANCH  17  18
ENDBRANCH  16  17
ENDBRANCH  15  16
ENDBRANCH  14  15
ENDBRANCH  13  14
ENDBRANCH  12  13
ENDBRANCH  11  12
ENDBRANCH   1  11
TORSDOF 15
ENDMDL
MODEL 5
REMARK VINA RESULT:    -5.441      1.250      2.500
REMARK INTER + INTRA:         -10.935
REMARK INTER:                 -10.220
REMARK INTRA:                  -0.715
REMARK UNBOUND:                -0.724
REMARK SMILES O=C([O-])CCCCCCCCCCCCCCC(=O)[O-]
REMARK SMILES IDX 10 1 9 2 8 3 7 4 6 5 5 6 4 7 2 8 1 9 3 10 11 11 12 12 13 13
REMARK SMILES IDX 14 14 15 15 16 16 17 17 18 18 19 19 20 20
REMARK H PARENT
REMARK Flexibility Score: inf
ROOT
ATOM      1  C   UNL     1      21.165 -12.655  21.210  1.00  0.00     0.000 C 
ENDROOT
BRANCH   1   2
ATOM      2  C   UNL     1      21.465 -13.748  20.172  1.00  0.00     0.000 C 
BRANCH   2   3
ATOM      3  C   UNL     1      22.690 -14.576  20.587  1.00  0.00     0.000 C 
BRANCH   3   4
ATOM      4  C   UNL     1      22.954 -15.765  19.646  1.00  0.00     0.000 C 
BRANCH   4   5
ATOM      5  C   UNL     1      22.694 -15.486  18.152  1.00  0.00     0.000 C 
BRANCH   5   6
ATOM      6  C   UNL     1      22.947 -16.678  17.213  1.00  0.00     0.006 C 
BRANCH   6   7
ATOM      7  C   UNL     1      23.299 -17.967  17.967  1.00  0.00     0.053 C 
BRANCH   7   8
ATOM      8  C   UNL     1      22.684 -19.151  17.292  1.00  0.00     0.041 C 
ATOM      9  O   UNL     1      22.750 -20.290  17.825  1.00  0.00    -0.550 OA
ATOM     10  O   UNL     1      22.079 -19.007  16.050  1.00  0.00    -0.550 OA
ENDBRANCH   7   8
ENDBRANCH   6   7
ENDBRANCH   5   6
ENDBRANCH   4   5
ENDBRANCH   3   4
ENDBRANCH   2   3
ENDBRANCH   1   2
BRANCH   1  11
ATOM     11  C   UNL     1      22.422 -11.888  21.658  1.00  0.00     0.000 C 
BRANCH  11  12
ATOM     12  C   UNL     1      22.156 -10.671  22.564  1.00  0.00     0.000 C 
BRANCH  12  13
ATOM     13  C   UNL     1      21.135 -10.964  23.677  1.00  0.00     0.000 C 
BRANCH  13  14
ATOM     14  C   UNL     1      20.710  -9.697  24.436  1.00  0.00     0.000 C 
BRANCH  14  15
ATOM     15  C   UNL     1      21.428  -8.435  23.933  1.00  0.00     0.000 C 
BRANCH  15  16
ATOM     16  C   UNL     1      22.177  -7.737  25.078  1.00  0.00     0.006 C 
BRANCH  16  17
ATOM     17  C   UNL     1      21.252  -7.384  26.249  1.00  0.00     0.053 C 
BRANCH  17  18
ATOM     18  C   UNL     1      21.784  -6.237  27.053  1.00  0.00     0.041 C 
ATOM     19  O   UNL     1      22.116  -6.406  28.256  1.00  0.00    -0.550 OA
ATOM     20  O   UNL     1      21.882  -4.974  26.483  1.00  0.00    -0.550 OA
ENDBRANCH  17  18
ENDBRANCH  16  17
ENDBRANCH  15  16
ENDBRANCH  14  15
ENDBRANCH  13  14
ENDBRANCH  12  13
ENDBRANCH  11  12
ENDBRANCH   1  11
TORSDOF 15
ENDMDL
MODEL 6
REMARK VINA RESULT:    -5.377      1.515     11.699
REMARK INTER + INTRA:         -10.817
REMARK INTER:                 -10.208
REMARK INTRA:                  -0.609
REMARK UNBOUND:                -0.724
REMARK SMILES O=C([O-])CCCCCCCCCCCCCCC(=O)[O-]
REMARK SMILES IDX 10 1 9 2 8 3 7 4 6 5 5 6 4 7 2 8 1 9 3 10 11 11 12 12 13 13
REMARK SMILES IDX 14 14 15 15 16 16 17 17 18 18 19 19 20 20
REMARK H PARENT
REMARK Flexibility Score: inf
ROOT
ATOM      1  C   UNL     1      21.932 -11.811  21.656  1.00  0.00     0.000 C 
ENDROOT
BRANCH   1   2
ATOM      2  C   UNL     1      21.752 -10.772  22.773  1.00  0.00     0.000 C 
BRANCH   2   3
ATOM      3  C   UNL     1      20.496 -11.072  23.604  1.00  0.00     0.000 C 
BRANCH   3   4
ATOM      4  C   UNL     1      20.430 -10.253  24.904  1.00  0.00     0.000 C 
BRANCH   4   5
ATOM      5  C   UNL     1      21.147  -8.888  24.855  1.00  0.00     0.000 C 
BRANCH   5   6
ATOM      6  C   UNL     1      20.451  -7.757  25.633  1.00  0.00     0.006 C 
BRANCH   6   7
ATOM      7  C   UNL     1      19.807  -6.711  24.714  1.00  0.00     0.053 C 
BRANCH   7   8
ATOM      8  C   UNL     1      20.677  -5.497  24.617  1.00  0.00     0.041 C 
ATOM      9  O   UNL     1      20.520  -4.680  23.672  1.00  0.00    -0.550 OA
ATOM     10  O   UNL     1      21.692  -5.293  25.543  1.00  0.00    -0.550 OA
ENDBRANCH   7   8
ENDBRANCH   6   7
ENDBRANCH   5   6
ENDBRANCH   4   5
ENDBRANCH   3   4
ENDBRANCH   2   3
ENDBRANCH   1   2
BRANCH   1  11
ATOM     11  C   UNL     1      23.350 -12.411  21.615  1.00  0.00     0.000 C 
BRANCH  11  12
ATOM     12  C   UNL     1      23.409 -13.934  21.395  1.00  0.00     0.000 C 
BRANCH  12  13
ATOM     13  C   UNL     1      22.387 -14.431  20.358  1.00  0.00     0.000 C 
BRANCH  13  14
ATOM     14  C   UNL     1      22.922 -15.598  19.514  1.00  0.00     0.000 C 
BRANCH  14  15
ATOM     15  C   UNL     1      22.646 -15.421  18.013  1.00  0.00     0.000 C 
BRANCH  15  16
ATOM     16  C   UNL     1      23.022 -16.689  17.232  1.00  0.00     0.006 C 
BRANCH  16  17
ATOM     17  C   UNL     1      22.859 -17.961  18.075  1.00  0.00     0.053 C 
BRANCH  17  18
ATOM     18  C   UNL     1      22.312 -19.098  17.267  1.00  0.00     0.041 C 
ATOM     19  O   UNL     1      22.236 -19.005  16.013  1.00  0.00    -0.550 OA
ATOM     20  O   UNL     1      21.857 -20.246  17.902  1.00  0.00    -0.550 OA
ENDBRANCH  17  18
ENDBRANCH  16  17
ENDBRANCH  15  16
ENDBRANCH  14  15
ENDBRANCH  13  14
ENDBRANCH  12  13
ENDBRANCH  11  12
ENDBRANCH   1  11
TORSDOF 15
ENDMDL
MODEL 7
REMARK VINA RESULT:    -5.266      3.756      6.690
REMARK INTER + INTRA:         -10.608
REMARK INTER:                  -9.642
REMARK INTRA:                  -0.966
REMARK UNBOUND:                -0.724
REMARK SMILES O=C([O-])CCCCCCCCCCCCCCC(=O)[O-]
REMARK SMILES IDX 10 1 9 2 8 3 7 4 6 5 5 6 4 7 2 8 1 9 3 10 11 11 12 12 13 13
REMARK SMILES IDX 14 14 15 15 16 16 17 17 18 18 19 19 20 20
REMARK H PARENT
REMARK Flexibility Score: inf
ROOT
ATOM      1  C   UNL     1      21.170 -20.147  16.545  1.00  0.00     0.000 C 
ENDROOT
BRANCH   1   2
ATOM      2  C   UNL     1      20.491 -21.288  17.315  1.00  0.00     0.000 C 
BRANCH   2   3
ATOM      3  C   UNL     1      19.021 -20.954  17.608  1.00  0.00     0.000 C 
BRANCH   3   4
ATOM      4  C   UNL     1      18.065 -22.107  17.258  1.00  0.00     0.000 C 
BRANCH   4   5
ATOM      5  C   UNL     1      18.142 -22.602  15.799  1.00  0.00     0.000 C 
BRANCH   5   6
ATOM      6  C   UNL     1      17.724 -21.569  14.738  1.00  0.00     0.006 C 
BRANCH   6   7
ATOM      7  C   UNL     1      18.862 -21.212  13.773  1.00  0.00     0.053 C 
BRANCH   7   8
ATOM      8  C   UNL     1      18.331 -20.456  12.597  1.00  0.00     0.041 C 
ATOM      9  O   UNL     1      17.312 -19.727  12.721  1.00  0.00    -0.550 OA
ATOM     10  O   UNL     1      18.933 -20.592  11.353  1.00  0.00    -0.550 OA
ENDBRANCH   7   8
ENDBRANCH   6   7
ENDBRANCH   5   6
ENDBRANCH   4   5
ENDBRANCH   3   4
ENDBRANCH   2   3
ENDBRANCH   1   2
BRANCH   1  11
ATOM     11  C   UNL     1      22.337 -19.507  17.320  1.00  0.00     0.000 C 
BRANCH  11  12
ATOM     12  C   UNL     1      22.830 -18.158  16.763  1.00  0.00     0.000 C 
BRANCH  12  13
ATOM     13  C   UNL     1      23.044 -17.099  17.858  1.00  0.00     0.000 C 
BRANCH  13  14
ATOM     14  C   UNL     1      23.033 -17.701  19.272  1.00  0.00     0.000 C 
BRANCH  14  15
ATOM     15  C   UNL     1      23.232 -16.644  20.368  1.00  0.00     0.000 C 
BRANCH  15  16
ATOM     16  C   UNL     1      22.724 -15.270  19.904  1.00  0.00     0.006 C 
BRANCH  16  17
ATOM     17  C   UNL     1      22.874 -14.197  20.990  1.00  0.00     0.053 C 
BRANCH  17  18
ATOM     18  C   UNL     1      21.786 -13.169  20.910  1.00  0.00     0.041 C 
ATOM     19  O   UNL     1      20.805 -13.344  20.141  1.00  0.00    -0.550 OA
ATOM     20  O   UNL     1      21.874 -12.004  21.661  1.00  0.00    -0.550 OA
ENDBRANCH  17  18
ENDBRANCH  16  17
ENDBRANCH  15  16
ENDBRANCH  14  15
ENDBRANCH  13  14
ENDBRANCH  12  13
ENDBRANCH  11  12
ENDBRANCH   1  11
TORSDOF 15
ENDMDL
MODEL 8
REMARK VINA RESULT:    -5.257      3.984     11.665
REMARK INTER + INTRA:         -10.591
REMARK INTER:                  -9.716
REMARK INTRA:                  -0.876
REMARK UNBOUND:                -0.724
REMARK SMILES O=C([O-])CCCCCCCCCCCCCCC(=O)[O-]
REMARK SMILES IDX 10 1 9 2 8 3 7 4 6 5 5 6 4 7 2 8 1 9 3 10 11 11 12 12 13 13
REMARK SMILES IDX 14 14 15 15 16 16 17 17 18 18 19 19 20 20
REMARK H PARENT
REMARK Flexibility Score: inf
ROOT
ATOM      1  C   UNL     1      22.288 -19.725  17.419  1.00  0.00     0.000 C 
ENDROOT
BRANCH   1   2
ATOM      2  C   UNL     1      22.595 -18.481  16.572  1.00  0.00     0.000 C 
BRANCH   2   3
ATOM      3  C   UNL     1      23.030 -17.306  17.461  1.00  0.00     0.000 C 
BRANCH   3   4
ATOM      4  C   UNL     1      23.479 -17.752  18.863  1.00  0.00     0.000 C 
BRANCH   4   5
ATOM      5  C   UNL     1      23.172 -16.753  19.997  1.00  0.00     0.000 C 
BRANCH   5   6
ATOM      6  C   UNL     1      22.778 -15.340  19.532  1.00  0.00     0.006 C 
BRANCH   6   7
ATOM      7  C   UNL     1      22.825 -14.306  20.664  1.00  0.00     0.053 C 
BRANCH   7   8
ATOM      8  C   UNL     1      21.593 -13.457  20.645  1.00  0.00     0.041 C 
ATOM      9  O   UNL     1      20.764 -13.564  19.704  1.00  0.00    -0.550 OA
ATOM     10  O   UNL     1      21.384 -12.512  21.642  1.00  0.00    -0.550 OA
ENDBRANCH   7   8
ENDBRANCH   6   7
ENDBRANCH   5   6
ENDBRANCH   4   5
ENDBRANCH   3   4
ENDBRANCH   2   3
ENDBRANCH   1   2
BRANCH   1  11
ATOM     11  C   UNL     1      21.064 -20.512  16.913  1.00  0.00     0.000 C 
BRANCH  11  12
ATOM     12  C   UNL     1      19.842 -20.492  17.850  1.00  0.00     0.000 C 
BRANCH  12  13
ATOM     13  C   UNL     1      18.943 -21.730  17.689  1.00  0.00     0.000 C 
BRANCH  13  14
ATOM     14  C   UNL     1      18.910 -22.251  16.244  1.00  0.00     0.000 C 
BRANCH  14  15
ATOM     15  C   UNL     1      17.585 -21.939  15.531  1.00  0.00     0.000 C 
BRANCH  15  16
ATOM     16  C   UNL     1      17.709 -22.171  14.017  1.00  0.00     0.006 C 
BRANCH  16  17
ATOM     17  C   UNL     1      18.781 -21.279  13.378  1.00  0.00     0.053 C 
BRANCH  17  18
ATOM     18  C   UNL     1      18.363 -20.790  12.025  1.00  0.00     0.041 C 
ATOM     19  O   UNL     1      17.348 -21.277  11.460  1.00  0.00    -0.550 OA
ATOM     20  O   UNL     1      19.112 -19.818  11.374  1.00  0.00    -0.550 OA
ENDBRANCH  17  18
ENDBRANCH  16  17
ENDBRANCH  15  16
ENDBRANCH  14  15
ENDBRANCH  13  14
ENDBRANCH  12  13
ENDBRANCH  11  12
ENDBRANCH   1  11
TORSDOF 15
ENDMDL
MODEL 9
REMARK VINA RESULT:    -5.183      3.493      5.672
REMARK INTER + INTRA:         -10.451
REMARK INTER:                  -9.813
REMARK INTRA:                  -0.639
REMARK UNBOUND:                -0.724
REMARK SMILES O=C([O-])CCCCCCCCCCCCCCC(=O)[O-]
REMARK SMILES IDX 10 1 9 2 8 3 7 4 6 5 5 6 4 7 2 8 1 9 3 10 11 11 12 12 13 13
REMARK SMILES IDX 14 14 15 15 16 16 17 17 18 18 19 19 20 20
REMARK H PARENT
REMARK Flexibility Score: inf
ROOT
ATOM      1  C   UNL     1      20.698 -10.952  23.437  1.00  0.00     0.000 C 
ENDROOT
BRANCH   1   2
ATOM      2  C   UNL     1      21.890 -10.667  22.510  1.00  0.00     0.000 C 
BRANCH   2   3
ATOM      3  C   UNL     1      22.296 -11.928  21.735  1.00  0.00     0.000 C 
BRANCH   3   4
ATOM      4  C   UNL     1      21.087 -12.753  21.259  1.00  0.00     0.000 C 
BRANCH   4   5
ATOM      5  C   UNL     1      21.384 -13.757  20.127  1.00  0.00     0.000 C 
BRANCH   5   6
ATOM      6  C   UNL     1      22.640 -14.621  20.334  1.00  0.00     0.006 C 
BRANCH   6   7
ATOM      7  C   UNL     1      22.878 -15.611  19.187  1.00  0.00     0.053 C 
BRANCH   7   8
ATOM      8  C   UNL     1      23.314 -16.937  19.725  1.00  0.00     0.041 C 
ATOM      9  O   UNL     1      23.479 -17.913  18.947  1.00  0.00    -0.550 OA
ATOM     10  O   UNL     1      23.493 -17.108  21.092  1.00  0.00    -0.550 OA
ENDBRANCH   7   8
ENDBRANCH   6   7
ENDBRANCH   5   6
ENDBRANCH   4   5
ENDBRANCH   3   4
ENDBRANCH   2   3
ENDBRANCH   1   2
BRANCH   1  11
ATOM     11  C   UNL     1      20.738 -10.132  24.740  1.00  0.00     0.000 C 
BRANCH  11  12
ATOM     12  C   UNL     1      21.269  -8.694  24.590  1.00  0.00     0.000 C 
BRANCH  12  13
ATOM     13  C   UNL     1      20.806  -7.763  25.724  1.00  0.00     0.000 C 
BRANCH  13  14
ATOM     14  C   UNL     1      19.564  -6.941  25.343  1.00  0.00     0.000 C 
BRANCH  14  15
ATOM     15  C   UNL     1      19.757  -6.141  24.046  1.00  0.00     0.000 C 
BRANCH  15  16
ATOM     16  C   UNL     1      19.557  -4.638  24.294  1.00  0.00     0.006 C 
BRANCH  16  17
ATOM     17  C   UNL     1      19.285  -3.865  22.997  1.00  0.00     0.053 C 
BRANCH  17  18
ATOM     18  C   UNL     1      17.822  -3.613  22.794  1.00  0.00     0.041 C 
ATOM     19  O   UNL     1      17.066  -3.440  23.786  1.00  0.00    -0.550 OA
ATOM     20  O   UNL     1      17.289  -3.603  21.512  1.00  0.00    -0.550 OA
ENDBRANCH  17  18
ENDBRANCH  16  17
ENDBRANCH  15  16
ENDBRANCH  14  15
ENDBRANCH  13  14
ENDBRANCH  12  13
ENDBRANCH  11  12
ENDBRANCH   1  11
TORSDOF 15
ENDMDL
