MODEL 1
REMARK VINA RESULT:    -3.309      0.000      0.000
REMARK INTER + INTRA:          -6.237
REMARK INTER:                  -5.243
REMARK INTRA:                  -0.994
REMARK UNBOUND:                -0.994
REMARK SMILES CCCCCCCCCCCC(=O)[O-]
REMARK SMILES IDX 7 1 8 2 9 3 10 4 11 5 12 6 13 7 14 8 6 9 5 10 4 11 3 12 2 13
REMARK SMILES IDX 1 14
REMARK H PARENT
REMARK Flexibility Score: inf
ROOT
ATOM      1  C   UNL     1      64.095  45.126  15.623  1.00  0.00     0.000 C 
ENDROOT
BRANCH   1   2
ATOM      2  C   UNL     1      63.034  45.606  16.626  1.00  0.00     0.000 C 
BRANCH   2   3
ATOM      3  C   UNL     1      61.901  44.583  16.820  1.00  0.00     0.000 C 
BRANCH   3   4
ATOM      4  C   UNL     1      60.583  45.239  17.263  1.00  0.00     0.006 C 
BRANCH   4   5
ATOM      5  C   UNL     1      59.491  44.211  17.581  1.00  0.00     0.053 C 
BRANCH   5   6
ATOM      6  C   UNL     1      58.221  44.561  16.871  1.00  0.00     0.041 C 
ATOM      7  O   UNL     1      57.271  43.735  16.830  1.00  0.00    -0.550 OA
ATOM      8  O   UNL     1      58.105  45.778  16.213  1.00  0.00    -0.550 OA
ENDBRANCH   5   6
ENDBRANCH   4   5
ENDBRANCH   3   4
ENDBRANCH   2   3
ENDBRANCH   1   2
BRANCH   1   9
ATOM      9  C   UNL     1      63.703  43.811  14.932  1.00  0.00     0.000 C 
BRANCH   9  10
ATOM     10  C   UNL     1      64.735  42.711  15.222  1.00  0.00    -0.000 C 
BRANCH  10  11
ATOM     11  C   UNL     1      64.089  41.343  15.512  1.00  0.00    -0.000 C 
BRANCH  11  12
ATOM     12  C   UNL     1      64.361  40.780  16.918  1.00  0.00    -0.000 C 
BRANCH  12  13
ATOM     13  C   UNL     1      63.916  41.729  18.039  1.00  0.00    -0.003 C 
ATOM     14  C   UNL     1      62.556  41.322  18.597  1.00  0.00     0.004 C 
ENDBRANCH  12  13
ENDBRANCH  11  12
ENDBRANCH  10  11
ENDBRANCH   9  10
ENDBRANCH   1   9
TORSDOF 10
ENDMDL
MODEL 2
REMARK VINA RESULT:    -3.273     11.622     14.221
REMARK INTER + INTRA:          -6.181
REMARK INTER:                  -5.556
REMARK INTRA:                  -0.625
REMARK UNBOUND:                -0.994
REMARK SMILES CCCCCCCCCCCC(=O)[O-]
REMARK SMILES IDX 7 1 8 2 9 3 10 4 11 5 12 6 13 7 14 8 6 9 5 10 4 11 3 12 2 13
REMARK SMILES IDX 1 14
REMARK H PARENT
REMARK Flexibility Score: inf
ROOT
ATOM      1  C   UNL     1      48.896  44.164  14.872  1.00  0.00     0.000 C 
ENDROOT
BRANCH   1   2
ATOM      2  C   UNL     1      49.910  45.223  14.410  1.00  0.00     0.000 C 
BRANCH   2   3
ATOM      3  C   UNL     1      49.484  46.652  14.791  1.00  0.00     0.000 C 
BRANCH   3   4
ATOM      4  C   UNL     1      50.192  47.722  13.945  1.00  0.00     0.006 C 
BRANCH   4   5
ATOM      5  C   UNL     1      51.342  47.147  13.109  1.00  0.00     0.053 C 
BRANCH   5   6
ATOM      6  C   UNL     1      52.338  48.216  12.783  1.00  0.00     0.041 C 
ATOM      7  O   UNL     1      53.572  47.975  12.858  1.00  0.00    -0.550 OA
ATOM      8  O   UNL     1      51.904  49.491  12.447  1.00  0.00    -0.550 OA
ENDBRANCH   5   6
ENDBRANCH   4   5
ENDBRANCH   3   4
ENDBRANCH   2   3
ENDBRANCH   1   2
BRANCH   1   9
ATOM      9  C   UNL     1      47.490  44.745  15.084  1.00  0.00     0.000 C 
BRANCH   9  10
ATOM     10  C   UNL     1      46.415  43.792  14.539  1.00  0.00    -0.000 C 
BRANCH  10  11
ATOM     11  C   UNL     1      46.985  42.430  14.103  1.00  0.00    -0.000 C 
BRANCH  11  12
ATOM     12  C   UNL     1      46.343  41.208  14.785  1.00  0.00    -0.000 C 
BRANCH  12  13
ATOM     13  C   UNL     1      45.557  41.575  16.051  1.00  0.00    -0.003 C 
ATOM     14  C   UNL     1      45.533  40.414  17.040  1.00  0.00     0.004 C 
ENDBRANCH  12  13
ENDBRANCH  11  12
ENDBRANCH  10  11
ENDBRANCH   9  10
ENDBRANCH   1   9
TORSDOF 10
ENDMDL
MODEL 3
REMARK VINA RESULT:    -3.272     11.858     14.750
REMARK INTER + INTRA:          -6.179
REMARK INTER:                  -5.432
REMARK INTRA:                  -0.747
REMARK UNBOUND:                -0.994
REMARK SMILES CCCCCCCCCCCC(=O)[O-]
REMARK SMILES IDX 7 1 8 2 9 3 10 4 11 5 12 6 13 7 14 8 6 9 5 10 4 11 3 12 2 13
REMARK SMILES IDX 1 14
REMARK H PARENT
REMARK Flexibility Score: inf
ROOT
ATOM      1  C   UNL     1      48.506  43.402  14.926  1.00  0.00     0.000 C 
ENDROOT
BRANCH   1   2
ATOM      2  C   UNL     1      48.068  44.736  15.551  1.00  0.00     0.000 C 
BRANCH   2   3
ATOM      3  C   UNL     1      48.754  45.948  14.895  1.00  0.00     0.000 C 
BRANCH   3   4
ATOM      4  C   UNL     1      50.131  45.599  14.309  1.00  0.00     0.006 C 
BRANCH   4   5
ATOM      5  C   UNL     1      51.141  46.745  14.456  1.00  0.00     0.053 C 
BRANCH   5   6
ATOM      6  C   UNL     1      51.141  47.603  13.230  1.00  0.00     0.041 C 
ATOM      7  O   UNL     1      52.007  47.425  12.333  1.00  0.00    -0.550 OA
ATOM      8  O   UNL     1      50.216  48.630  13.100  1.00  0.00    -0.550 OA
ENDBRANCH   5   6
ENDBRANCH   4   5
ENDBRANCH   3   4
ENDBRANCH   2   3
ENDBRANCH   1   2
BRANCH   1   9
ATOM      9  C   UNL     1      47.328  42.609  14.340  1.00  0.00     0.000 C 
BRANCH   9  10
ATOM     10  C   UNL     1      45.987  43.246  14.737  1.00  0.00    -0.000 C 
BRANCH  10  11
ATOM     11  C   UNL     1      44.974  42.222  15.282  1.00  0.00    -0.000 C 
BRANCH  11  12
ATOM     12  C   UNL     1      45.465  40.763  15.289  1.00  0.00    -0.000 C 
BRANCH  12  13
ATOM     13  C   UNL     1      45.542  40.164  16.700  1.00  0.00    -0.003 C 
ATOM     14  C   UNL     1      45.628  41.260  17.759  1.00  0.00     0.004 C 
ENDBRANCH  12  13
ENDBRANCH  11  12
ENDBRANCH  10  11
ENDBRANCH   9  10
ENDBRANCH   1   9
TORSDOF 10
ENDMDL
MODEL 4
REMARK VINA RESULT:    -3.216      1.851      3.274
REMARK INTER + INTRA:          -6.090
REMARK INTER:                  -5.527
REMARK INTRA:                  -0.562
REMARK UNBOUND:                -0.994
REMARK SMILES CCCCCCCCCCCC(=O)[O-]
REMARK SMILES IDX 7 1 8 2 9 3 10 4 11 5 12 6 13 7 14 8 6 9 5 10 4 11 3 12 2 13
REMARK SMILES IDX 1 14
REMARK H PARENT
REMARK Flexibility Score: inf
ROOT
ATOM      1  C   UNL     1      60.993  44.349  18.138  1.00  0.00     0.000 C 
ENDROOT
BRANCH   1   2
ATOM      2  C   UNL     1      60.215  45.340  17.258  1.00  0.00     0.000 C 
BRANCH   2   3
ATOM      3  C   UNL     1      58.913  44.738  16.701  1.00  0.00     0.000 C 
BRANCH   3   4
ATOM      4  C   UNL     1      57.846  45.806  16.410  1.00  0.00     0.006 C 
BRANCH   4   5
ATOM      5  C   UNL     1      57.027  45.494  15.152  1.00  0.00     0.053 C 
BRANCH   5   6
ATOM      6  C   UNL     1      56.622  46.760  14.464  1.00  0.00     0.041 C 
ATOM      7  O   UNL     1      55.746  47.506  14.976  1.00  0.00    -0.550 OA
ATOM      8  O   UNL     1      57.176  47.091  13.234  1.00  0.00    -0.550 OA
ENDBRANCH   5   6
ENDBRANCH   4   5
ENDBRANCH   3   4
ENDBRANCH   2   3
ENDBRANCH   1   2
BRANCH   1   9
ATOM      9  C   UNL     1      62.309  43.892  17.490  1.00  0.00     0.000 C 
BRANCH   9  10
ATOM     10  C   UNL     1      62.699  44.819  16.328  1.00  0.00    -0.000 C 
BRANCH  10  11
ATOM     11  C   UNL     1      63.451  44.086  15.202  1.00  0.00    -0.000 C 
BRANCH  11  12
ATOM     12  C   UNL     1      64.584  43.157  15.674  1.00  0.00    -0.000 C 
BRANCH  12  13
ATOM     13  C   UNL     1      64.388  41.701  15.231  1.00  0.00    -0.003 C 
ATOM     14  C   UNL     1      64.189  40.782  16.432  1.00  0.00     0.004 C 
ENDBRANCH  12  13
ENDBRANCH  11  12
ENDBRANCH  10  11
ENDBRANCH   9  10
ENDBRANCH   1   9
TORSDOF 10
ENDMDL
MODEL 5
REMARK VINA RESULT:    -3.198      1.160      2.240
REMARK INTER + INTRA:          -6.062
REMARK INTER:                  -5.409
REMARK INTRA:                  -0.653
REMARK UNBOUND:                -0.994
REMARK SMILES CCCCCCCCCCCC(=O)[O-]
REMARK SMILES IDX 7 1 8 2 9 3 10 4 11 5 12 6 13 7 14 8 6 9 5 10 4 11 3 12 2 13
REMARK SMILES IDX 1 14
REMARK H PARENT
REMARK Flexibility Score: inf
ROOT
ATOM      1  C   UNL     1      62.090  44.571  16.465  1.00  0.00     0.000 C 
ENDROOT
BRANCH   1   2
ATOM      2  C   UNL     1      61.056  45.111  17.466  1.00  0.00     0.000 C 
BRANCH   2   3
ATOM      3  C   UNL     1      59.622  44.657  17.136  1.00  0.00     0.000 C 
BRANCH   3   4
ATOM      4  C   UNL     1      58.665  45.840  16.919  1.00  0.00     0.006 C 
BRANCH   4   5
ATOM      5  C   UNL     1      57.536  45.511  15.936  1.00  0.00     0.053 C 
BRANCH   5   6
ATOM      6  C   UNL     1      56.895  44.207  16.293  1.00  0.00     0.041 C 
ATOM      7  O   UNL     1      57.014  43.213  15.529  1.00  0.00    -0.550 OA
ATOM      8  O   UNL     1      56.125  44.103  17.444  1.00  0.00    -0.550 OA
ENDBRANCH   5   6
ENDBRANCH   4   5
ENDBRANCH   3   4
ENDBRANCH   2   3
ENDBRANCH   1   2
BRANCH   1   9
ATOM      9  C   UNL     1      63.272  45.530  16.262  1.00  0.00     0.000 C 
BRANCH   9  10
ATOM     10  C   UNL     1      64.423  44.833  15.520  1.00  0.00    -0.000 C 
BRANCH  10  11
ATOM     11  C   UNL     1      63.995  43.515  14.851  1.00  0.00    -0.000 C 
BRANCH  11  12
ATOM     12  C   UNL     1      64.904  42.309  15.150  1.00  0.00    -0.000 C 
BRANCH  12  13
ATOM     13  C   UNL     1      64.132  41.098  15.692  1.00  0.00    -0.003 C 
ATOM     14  C   UNL     1      63.870  41.238  17.188  1.00  0.00     0.004 C 
ENDBRANCH  12  13
ENDBRANCH  11  12
ENDBRANCH  10  11
ENDBRANCH   9  10
ENDBRANCH   1   9
TORSDOF 10
ENDMDL
MODEL 6
REMARK VINA RESULT:    -3.119      2.540      4.821
REMARK INTER + INTRA:          -5.936
REMARK INTER:                  -4.958
REMARK INTRA:                  -0.977
REMARK UNBOUND:                -0.994
REMARK SMILES CCCCCCCCCCCC(=O)[O-]
REMARK SMILES IDX 7 1 8 2 9 3 10 4 11 5 12 6 13 7 14 8 6 9 5 10 4 11 3 12 2 13
REMARK SMILES IDX 1 14
REMARK H PARENT
REMARK Flexibility Score: inf
ROOT
ATOM      1  C   UNL     1      63.983  43.600  14.872  1.00  0.00     0.000 C 
ENDROOT
BRANCH   1   2
ATOM      2  C   UNL     1      64.862  42.418  15.312  1.00  0.00     0.000 C 
BRANCH   2   3
ATOM      3  C   UNL     1      64.040  41.152  15.616  1.00  0.00     0.000 C 
BRANCH   3   4
ATOM      4  C   UNL     1      64.127  40.734  17.092  1.00  0.00     0.006 C 
BRANCH   4   5
ATOM      5  C   UNL     1      63.654  41.837  18.046  1.00  0.00     0.053 C 
BRANCH   5   6
ATOM      6  C   UNL     1      62.791  41.261  19.125  1.00  0.00     0.041 C 
ATOM      7  O   UNL     1      61.577  41.011  18.899  1.00  0.00    -0.550 OA
ATOM      8  O   UNL     1      63.314  41.047  20.393  1.00  0.00    -0.550 OA
ENDBRANCH   5   6
ENDBRANCH   4   5
ENDBRANCH   3   4
ENDBRANCH   2   3
ENDBRANCH   1   2
BRANCH   1   9
ATOM      9  C   UNL     1      64.406  44.925  15.525  1.00  0.00     0.000 C 
BRANCH   9  10
ATOM     10  C   UNL     1      63.383  45.367  16.582  1.00  0.00    -0.000 C 
BRANCH  10  11
ATOM     11  C   UNL     1      61.994  44.735  16.376  1.00  0.00    -0.000 C 
BRANCH  11  12
ATOM     12  C   UNL     1      61.157  44.572  17.658  1.00  0.00    -0.000 C 
BRANCH  12  13
ATOM     13  C   UNL     1      59.646  44.612  17.394  1.00  0.00    -0.003 C 
ATOM     14  C   UNL     1      58.952  43.387  17.982  1.00  0.00     0.004 C 
ENDBRANCH  12  13
ENDBRANCH  11  12
ENDBRANCH  10  11
ENDBRANCH   9  10
ENDBRANCH   1   9
TORSDOF 10
ENDMDL
MODEL 7
REMARK VINA RESULT:    -3.108     12.543     14.541
REMARK INTER + INTRA:          -5.918
REMARK INTER:                  -5.216
REMARK INTRA:                  -0.702
REMARK UNBOUND:                -0.994
REMARK SMILES CCCCCCCCCCCC(=O)[O-]
REMARK SMILES IDX 7 1 8 2 9 3 10 4 11 5 12 6 13 7 14 8 6 9 5 10 4 11 3 12 2 13
REMARK SMILES IDX 1 14
REMARK H PARENT
REMARK Flexibility Score: inf
ROOT
ATOM      1  C   UNL     1      48.583  45.835  14.854  1.00  0.00     0.000 C 
ENDROOT
BRANCH   1   2
ATOM      2  C   UNL     1      47.803  44.642  15.428  1.00  0.00     0.000 C 
BRANCH   2   3
ATOM      3  C   UNL     1      48.261  43.297  14.835  1.00  0.00     0.000 C 
BRANCH   3   4
ATOM      4  C   UNL     1      47.127  42.558  14.106  1.00  0.00     0.006 C 
BRANCH   4   5
ATOM      5  C   UNL     1      45.791  42.645  14.853  1.00  0.00     0.053 C 
BRANCH   5   6
ATOM      6  C   UNL     1      45.584  41.426  15.697  1.00  0.00     0.041 C 
ATOM      7  O   UNL     1      45.506  41.530  16.950  1.00  0.00    -0.550 OA
ATOM      8  O   UNL     1      45.527  40.172  15.104  1.00  0.00    -0.550 OA
ENDBRANCH   5   6
ENDBRANCH   4   5
ENDBRANCH   3   4
ENDBRANCH   2   3
ENDBRANCH   1   2
BRANCH   1   9
ATOM      9  C   UNL     1      49.986  45.443  14.365  1.00  0.00     0.000 C 
BRANCH   9  10
ATOM     10  C   UNL     1      50.943  46.643  14.423  1.00  0.00    -0.000 C 
BRANCH  10  11
ATOM     11  C   UNL     1      51.406  47.110  13.031  1.00  0.00    -0.000 C 
BRANCH  11  12
ATOM     12  C   UNL     1      51.069  48.573  12.690  1.00  0.00    -0.000 C 
BRANCH  12  13
ATOM     13  C   UNL     1      50.432  49.329  13.864  1.00  0.00    -0.003 C 
ATOM     14  C   UNL     1      49.053  49.865  13.491  1.00  0.00     0.004 C 
ENDBRANCH  12  13
ENDBRANCH  11  12
ENDBRANCH  10  11
ENDBRANCH   9  10
ENDBRANCH   1   9
TORSDOF 10
ENDMDL
MODEL 8
REMARK VINA RESULT:    -3.100     12.066     14.288
REMARK INTER + INTRA:          -5.906
REMARK INTER:                  -5.164
REMARK INTRA:                  -0.741
REMARK UNBOUND:                -0.994
REMARK SMILES CCCCCCCCCCCC(=O)[O-]
REMARK SMILES IDX 7 1 8 2 9 3 10 4 11 5 12 6 13 7 14 8 6 9 5 10 4 11 3 12 2 13
REMARK SMILES IDX 1 14
REMARK H PARENT
REMARK Flexibility Score: inf
ROOT
ATOM      1  C   UNL     1      48.488  45.771  15.087  1.00  0.00     0.000 C 
ENDROOT
BRANCH   1   2
ATOM      2  C   UNL     1      49.786  45.298  14.411  1.00  0.00     0.000 C 
BRANCH   2   3
ATOM      3  C   UNL     1      50.935  46.310  14.567  1.00  0.00     0.000 C 
BRANCH   3   4
ATOM      4  C   UNL     1      51.202  47.101  13.276  1.00  0.00     0.006 C 
BRANCH   4   5
ATOM      5  C   UNL     1      51.233  48.617  13.511  1.00  0.00     0.053 C 
BRANCH   5   6
ATOM      6  C   UNL     1      49.982  49.065  14.199  1.00  0.00     0.041 C 
ATOM      7  O   UNL     1      48.883  49.051  13.585  1.00  0.00    -0.550 OA
ATOM      8  O   UNL     1      50.039  49.546  15.500  1.00  0.00    -0.550 OA
ENDBRANCH   5   6
ENDBRANCH   4   5
ENDBRANCH   3   4
ENDBRANCH   2   3
ENDBRANCH   1   2
BRANCH   1   9
ATOM      9  C   UNL     1      47.429  44.662  15.172  1.00  0.00     0.000 C 
BRANCH   9  10
ATOM     10  C   UNL     1      48.032  43.298  14.806  1.00  0.00    -0.000 C 
BRANCH  10  11
ATOM     11  C   UNL     1      47.046  42.387  14.052  1.00  0.00    -0.000 C 
BRANCH  11  12
ATOM     12  C   UNL     1      45.757  42.047  14.822  1.00  0.00    -0.000 C 
BRANCH  12  13
ATOM     13  C   UNL     1      46.024  41.297  16.134  1.00  0.00    -0.003 C 
ATOM     14  C   UNL     1      45.462  42.061  17.329  1.00  0.00     0.004 C 
ENDBRANCH  12  13
ENDBRANCH  11  12
ENDBRANCH  10  11
ENDBRANCH   9  10
ENDBRANCH   1   9
TORSDOF 10
ENDMDL
MODEL 9
REMARK VINA RESULT:    -3.071     12.025     13.930
REMARK INTER + INTRA:          -5.860
REMARK INTER:                  -4.922
REMARK INTRA:                  -0.938
REMARK UNBOUND:                -0.994
REMARK SMILES CCCCCCCCCCCC(=O)[O-]
REMARK SMILES IDX 7 1 8 2 9 3 10 4 11 5 12 6 13 7 14 8 6 9 5 10 4 11 3 12 2 13
REMARK SMILES IDX 1 14
REMARK H PARENT
REMARK Flexibility Score: inf
ROOT
ATOM      1  C   UNL     1      49.877  45.188  14.471  1.00  0.00     0.000 C 
ENDROOT
BRANCH   1   2
ATOM      2  C   UNL     1      50.324  46.656  14.564  1.00  0.00     0.000 C 
BRANCH   2   3
ATOM      3  C   UNL     1      49.153  47.612  14.849  1.00  0.00     0.000 C 
BRANCH   3   4
ATOM      4  C   UNL     1      49.031  48.725  13.796  1.00  0.00     0.006 C 
BRANCH   4   5
ATOM      5  C   UNL     1      50.352  49.471  13.572  1.00  0.00     0.053 C 
BRANCH   5   6
ATOM      6  C   UNL     1      50.735  49.432  12.125  1.00  0.00     0.041 C 
ATOM      7  O   UNL     1      50.097  50.117  11.283  1.00  0.00    -0.550 OA
ATOM      8  O   UNL     1      51.764  48.601  11.701  1.00  0.00    -0.550 OA
ENDBRANCH   5   6
ENDBRANCH   4   5
ENDBRANCH   3   4
ENDBRANCH   2   3
ENDBRANCH   1   2
BRANCH   1   9
ATOM      9  C   UNL     1      50.462  44.321  15.597  1.00  0.00     0.000 C 
BRANCH   9  10
ATOM     10  C   UNL     1      49.522  43.153  15.934  1.00  0.00    -0.000 C 
BRANCH  10  11
ATOM     11  C   UNL     1      48.273  43.108  15.034  1.00  0.00    -0.000 C 
BRANCH  11  12
ATOM     12  C   UNL     1      46.940  43.366  15.758  1.00  0.00    -0.000 C 
BRANCH  12  13
ATOM     13  C   UNL     1      46.233  44.641  15.275  1.00  0.00    -0.003 C 
ATOM     14  C   UNL     1      46.262  45.725  16.347  1.00  0.00     0.004 C 
ENDBRANCH  12  13
ENDBRANCH  11  12
ENDBRANCH  10  11
ENDBRANCH   9  10
ENDBRANCH   1   9
TORSDOF 10
ENDMDL
