MODEL 1
REMARK VINA RESULT:    -3.055      0.000      0.000
REMARK INTER + INTRA:          -6.386
REMARK INTER:                  -5.554
REMARK INTRA:                  -0.832
REMARK UNBOUND:                -0.832
REMARK SMILES CCCCCCCCCCCCCCCC(=O)[O-]
REMARK SMILES IDX 9 1 10 2 11 3 12 4 13 5 14 6 15 7 16 8 17 9 18 10 8 11 7 12
REMARK SMILES IDX 6 13 5 14 4 15 3 16 2 17 1 18
REMARK H PARENT
REMARK Flexibility Score: inf
ROOT
ATOM      1  C   UNL     1     -16.375  16.159  -7.767  1.00  0.00     0.000 C 
ENDROOT
BRANCH   1   2
ATOM      2  C   UNL     1     -16.934  15.085  -8.708  1.00  0.00     0.000 C 
BRANCH   2   3
ATOM      3  C   UNL     1     -15.833  14.523  -9.620  1.00  0.00     0.000 C 
BRANCH   3   4
ATOM      4  C   UNL     1     -15.140  13.288  -9.020  1.00  0.00     0.000 C 
BRANCH   4   5
ATOM      5  C   UNL     1     -14.502  12.393 -10.094  1.00  0.00     0.000 C 
BRANCH   5   6
ATOM      6  C   UNL     1     -15.537  11.589 -10.901  1.00  0.00     0.006 C 
BRANCH   6   7
ATOM      7  C   UNL     1     -15.389  11.735 -12.426  1.00  0.00     0.053 C 
BRANCH   7   8
ATOM      8  C   UNL     1     -14.378  12.773 -12.809  1.00  0.00     0.041 C 
ATOM      9  O   UNL     1     -14.752  13.934 -13.125  1.00  0.00    -0.550 OA
ATOM     10  O   UNL     1     -13.027  12.451 -12.855  1.00  0.00    -0.550 OA
ENDBRANCH   7   8
ENDBRANCH   6   7
ENDBRANCH   5   6
ENDBRANCH   4   5
ENDBRANCH   3   4
ENDBRANCH   2   3
ENDBRANCH   1   2
BRANCH   1  11
ATOM     11  C   UNL     1     -15.625  17.244  -8.556  1.00  0.00     0.000 C 
BRANCH  11  12
ATOM     12  C   UNL     1     -16.571  18.269  -9.201  1.00  0.00    -0.000 C 
BRANCH  12  13
ATOM     13  C   UNL     1     -16.546  18.210 -10.739  1.00  0.00    -0.000 C 
BRANCH  13  14
ATOM     14  C   UNL     1     -15.629  19.279 -11.355  1.00  0.00    -0.000 C 
BRANCH  14  15
ATOM     15  C   UNL     1     -16.344  20.628 -11.556  1.00  0.00    -0.000 C 
BRANCH  15  16
ATOM     16  C   UNL     1     -15.387  21.740 -12.014  1.00  0.00    -0.000 C 
BRANCH  16  17
ATOM     17  C   UNL     1     -14.051  21.192 -12.536  1.00  0.00    -0.003 C 
ATOM     18  C   UNL     1     -12.873  21.941 -11.923  1.00  0.00     0.004 C 
ENDBRANCH  16  17
ENDBRANCH  15  16
ENDBRANCH  14  15
ENDBRANCH  13  14
ENDBRANCH  12  13
ENDBRANCH  11  12
ENDBRANCH   1  11
TORSDOF 14
ENDMDL
MODEL 2
REMARK VINA RESULT:    -2.990      2.490      3.143
REMARK INTER + INTRA:          -6.270
REMARK INTER:                  -4.891
REMARK INTRA:                  -1.379
REMARK UNBOUND:                -0.832
REMARK SMILES CCCCCCCCCCCCCCCC(=O)[O-]
REMARK SMILES IDX 9 1 10 2 11 3 12 4 13 5 14 6 15 7 16 8 17 9 18 10 8 11 7 12
REMARK SMILES IDX 6 13 5 14 4 15 3 16 2 17 1 18
REMARK H PARENT
REMARK Flexibility Score: inf
ROOT
ATOM      1  C   UNL     1     -16.072  16.703  -9.615  1.00  0.00     0.000 C 
ENDROOT
BRANCH   1   2
ATOM      2  C   UNL     1     -17.124  15.832 -10.313  1.00  0.00     0.000 C 
BRANCH   2   3
ATOM      3  C   UNL     1     -16.596  15.297 -11.653  1.00  0.00     0.000 C 
BRANCH   3   4
ATOM      4  C   UNL     1     -16.590  13.761 -11.715  1.00  0.00     0.000 C 
BRANCH   4   5
ATOM      5  C   UNL     1     -15.275  13.157 -11.194  1.00  0.00     0.000 C 
BRANCH   5   6
ATOM      6  C   UNL     1     -15.382  12.641  -9.748  1.00  0.00     0.006 C 
BRANCH   6   7
ATOM      7  C   UNL     1     -14.677  13.535  -8.712  1.00  0.00     0.053 C 
BRANCH   7   8
ATOM      8  C   UNL     1     -15.294  13.431  -7.350  1.00  0.00     0.041 C 
ATOM      9  O   UNL     1     -14.659  12.890  -6.407  1.00  0.00    -0.550 OA
ATOM     10  O   UNL     1     -16.586  13.895  -7.131  1.00  0.00    -0.550 OA
ENDBRANCH   7   8
ENDBRANCH   6   7
ENDBRANCH   5   6
ENDBRANCH   4   5
ENDBRANCH   3   4
ENDBRANCH   2   3
ENDBRANCH   1   2
BRANCH   1  11
ATOM     11  C   UNL     1     -16.731  17.898  -8.907  1.00  0.00     0.000 C 
BRANCH  11  12
ATOM     12  C   UNL     1     -16.873  19.125  -9.822  1.00  0.00    -0.000 C 
BRANCH  12  13
ATOM     13  C   UNL     1     -15.686  19.282 -10.789  1.00  0.00    -0.000 C 
BRANCH  13  14
ATOM     14  C   UNL     1     -16.121  19.260 -12.263  1.00  0.00    -0.000 C 
BRANCH  14  15
ATOM     15  C   UNL     1     -16.201  20.669 -12.879  1.00  0.00    -0.000 C 
BRANCH  15  16
ATOM     16  C   UNL     1     -15.460  21.722 -12.040  1.00  0.00    -0.000 C 
BRANCH  16  17
ATOM     17  C   UNL     1     -14.109  22.120 -12.650  1.00  0.00    -0.003 C 
ATOM     18  C   UNL     1     -12.951  21.527 -11.855  1.00  0.00     0.004 C 
ENDBRANCH  16  17
ENDBRANCH  15  16
ENDBRANCH  14  15
ENDBRANCH  13  14
ENDBRANCH  12  13
ENDBRANCH  11  12
ENDBRANCH   1  11
TORSDOF 14
ENDMDL
MODEL 3
REMARK VINA RESULT:    -2.891      2.666      7.040
REMARK INTER + INTRA:          -6.088
REMARK INTER:                  -5.372
REMARK INTRA:                  -0.717
REMARK UNBOUND:                -0.832
REMARK SMILES CCCCCCCCCCCCCCCC(=O)[O-]
REMARK SMILES IDX 9 1 10 2 11 3 12 4 13 5 14 6 15 7 16 8 17 9 18 10 8 11 7 12
REMARK SMILES IDX 6 13 5 14 4 15 3 16 2 17 1 18
REMARK H PARENT
REMARK Flexibility Score: inf
ROOT
ATOM      1  C   UNL     1     -16.093  16.147  -9.058  1.00  0.00     0.000 C 
ENDROOT
BRANCH   1   2
ATOM      2  C   UNL     1     -15.686  17.625  -9.015  1.00  0.00     0.000 C 
BRANCH   2   3
ATOM      3  C   UNL     1     -16.915  18.539  -9.143  1.00  0.00     0.000 C 
BRANCH   3   4
ATOM      4  C   UNL     1     -16.752  19.597 -10.247  1.00  0.00     0.000 C 
BRANCH   4   5
ATOM      5  C   UNL     1     -16.209  19.000 -11.557  1.00  0.00     0.000 C 
BRANCH   5   6
ATOM      6  C   UNL     1     -15.837  20.072 -12.597  1.00  0.00     0.006 C 
BRANCH   6   7
ATOM      7  C   UNL     1     -15.101  21.288 -12.006  1.00  0.00     0.053 C 
BRANCH   7   8
ATOM      8  C   UNL     1     -13.610  21.158 -12.103  1.00  0.00     0.041 C 
ATOM      9  O   UNL     1     -12.869  22.125 -11.784  1.00  0.00    -0.550 OA
ATOM     10  O   UNL     1     -13.040  19.985 -12.583  1.00  0.00    -0.550 OA
ENDBRANCH   7   8
ENDBRANCH   6   7
ENDBRANCH   5   6
ENDBRANCH   4   5
ENDBRANCH   3   4
ENDBRANCH   2   3
ENDBRANCH   1   2
BRANCH   1  11
ATOM     11  C   UNL     1     -16.086  15.534  -7.649  1.00  0.00     0.000 C 
BRANCH  11  12
ATOM     12  C   UNL     1     -16.599  14.085  -7.629  1.00  0.00    -0.000 C 
BRANCH  12  13
ATOM     13  C   UNL     1     -16.354  13.353  -8.961  1.00  0.00    -0.000 C 
BRANCH  13  14
ATOM     14  C   UNL     1     -14.862  13.098  -9.227  1.00  0.00    -0.000 C 
BRANCH  14  15
ATOM     15  C   UNL     1     -14.617  12.336 -10.543  1.00  0.00    -0.000 C 
BRANCH  15  16
ATOM     16  C   UNL     1     -15.302  13.000 -11.746  1.00  0.00    -0.000 C 
BRANCH  16  17
ATOM     17  C   UNL     1     -14.623  12.654 -13.079  1.00  0.00    -0.003 C 
ATOM     18  C   UNL     1     -13.106  12.610 -12.927  1.00  0.00     0.004 C 
ENDBRANCH  16  17
ENDBRANCH  15  16
ENDBRANCH  14  15
ENDBRANCH  13  14
ENDBRANCH  12  13
ENDBRANCH  11  12
ENDBRANCH   1  11
TORSDOF 14
ENDMDL
MODEL 4
REMARK VINA RESULT:    -2.767      2.963      6.670
REMARK INTER + INTRA:          -5.864
REMARK INTER:                  -4.615
REMARK INTRA:                  -1.249
REMARK UNBOUND:                -0.832
REMARK SMILES CCCCCCCCCCCCCCCC(=O)[O-]
REMARK SMILES IDX 9 1 10 2 11 3 12 4 13 5 14 6 15 7 16 8 17 9 18 10 8 11 7 12
REMARK SMILES IDX 6 13 5 14 4 15 3 16 2 17 1 18
REMARK H PARENT
REMARK Flexibility Score: inf
ROOT
ATOM      1  C   UNL     1     -17.037  13.002 -11.571  1.00  0.00     0.000 C 
ENDROOT
BRANCH   1   2
ATOM      2  C   UNL     1     -16.754  14.077 -12.628  1.00  0.00     0.000 C 
BRANCH   2   3
ATOM      3  C   UNL     1     -16.780  15.482 -12.007  1.00  0.00     0.000 C 
BRANCH   3   4
ATOM      4  C   UNL     1     -16.966  16.590 -13.056  1.00  0.00     0.000 C 
BRANCH   4   5
ATOM      5  C   UNL     1     -16.927  17.997 -12.438  1.00  0.00     0.000 C 
BRANCH   5   6
ATOM      6  C   UNL     1     -15.651  18.777 -12.799  1.00  0.00     0.006 C 
BRANCH   6   7
ATOM      7  C   UNL     1     -15.010  19.512 -11.607  1.00  0.00     0.053 C 
BRANCH   7   8
ATOM      8  C   UNL     1     -14.303  20.768 -12.021  1.00  0.00     0.041 C 
ATOM      9  O   UNL     1     -13.077  20.740 -12.305  1.00  0.00    -0.550 OA
ATOM     10  O   UNL     1     -14.988  21.977 -12.053  1.00  0.00    -0.550 OA
ENDBRANCH   7   8
ENDBRANCH   6   7
ENDBRANCH   5   6
ENDBRANCH   4   5
ENDBRANCH   3   4
ENDBRANCH   2   3
ENDBRANCH   1   2
BRANCH   1  11
ATOM     11  C   UNL     1     -15.874  12.002 -11.481  1.00  0.00     0.000 C 
BRANCH  11  12
ATOM     12  C   UNL     1     -14.604  12.620 -10.874  1.00  0.00    -0.000 C 
BRANCH  12  13
ATOM     13  C   UNL     1     -14.700  12.787  -9.347  1.00  0.00    -0.000 C 
BRANCH  13  14
ATOM     14  C   UNL     1     -15.197  14.182  -8.937  1.00  0.00    -0.000 C 
BRANCH  14  15
ATOM     15  C   UNL     1     -15.831  14.197  -7.534  1.00  0.00    -0.000 C 
BRANCH  15  16
ATOM     16  C   UNL     1     -16.564  15.513  -7.231  1.00  0.00    -0.000 C 
BRANCH  16  17
ATOM     17  C   UNL     1     -16.997  16.254  -8.505  1.00  0.00    -0.003 C 
ATOM     18  C   UNL     1     -16.183  17.528  -8.702  1.00  0.00     0.004 C 
ENDBRANCH  16  17
ENDBRANCH  15  16
ENDBRANCH  14  15
ENDBRANCH  13  14
ENDBRANCH  12  13
ENDBRANCH  11  12
ENDBRANCH   1  11
TORSDOF 14
ENDMDL
MODEL 5
REMARK VINA RESULT:    -2.743      1.474      1.898
REMARK INTER + INTRA:          -5.819
REMARK INTER:                  -4.825
REMARK INTRA:                  -0.994
REMARK UNBOUND:                -0.832
REMARK SMILES CCCCCCCCCCCCCCCC(=O)[O-]
REMARK SMILES IDX 9 1 10 2 11 3 12 4 13 5 14 6 15 7 16 8 17 9 18 10 8 11 7 12
REMARK SMILES IDX 6 13 5 14 4 15 3 16 2 17 1 18
REMARK H PARENT
REMARK Flexibility Score: inf
ROOT
ATOM      1  C   UNL     1     -15.468  16.249  -9.081  1.00  0.00     0.000 C 
ENDROOT
BRANCH   1   2
ATOM      2  C   UNL     1     -16.101  14.917  -9.503  1.00  0.00     0.000 C 
BRANCH   2   3
ATOM      3  C   UNL     1     -17.101  15.121 -10.652  1.00  0.00     0.000 C 
BRANCH   3   4
ATOM      4  C   UNL     1     -16.459  14.927 -12.036  1.00  0.00     0.000 C 
BRANCH   4   5
ATOM      5  C   UNL     1     -16.991  13.678 -12.759  1.00  0.00     0.000 C 
BRANCH   5   6
ATOM      6  C   UNL     1     -16.887  12.400 -11.908  1.00  0.00     0.006 C 
BRANCH   6   7
ATOM      7  C   UNL     1     -15.677  11.514 -12.256  1.00  0.00     0.053 C 
BRANCH   7   8
ATOM      8  C   UNL     1     -14.425  11.954 -11.560  1.00  0.00     0.041 C 
ATOM      9  O   UNL     1     -13.588  12.678 -12.160  1.00  0.00    -0.550 OA
ATOM     10  O   UNL     1     -14.162  11.532 -10.262  1.00  0.00    -0.550 OA
ENDBRANCH   7   8
ENDBRANCH   6   7
ENDBRANCH   5   6
ENDBRANCH   4   5
ENDBRANCH   3   4
ENDBRANCH   2   3
ENDBRANCH   1   2
BRANCH   1  11
ATOM     11  C   UNL     1     -16.499  17.150  -8.383  1.00  0.00     0.000 C 
BRANCH  11  12
ATOM     12  C   UNL     1     -17.092  18.212  -9.323  1.00  0.00    -0.000 C 
BRANCH  12  13
ATOM     13  C   UNL     1     -16.030  18.857 -10.231  1.00  0.00    -0.000 C 
BRANCH  13  14
ATOM     14  C   UNL     1     -16.603  19.995 -11.090  1.00  0.00    -0.000 C 
BRANCH  14  15
ATOM     15  C   UNL     1     -15.537  20.658 -11.982  1.00  0.00    -0.000 C 
BRANCH  15  16
ATOM     16  C   UNL     1     -14.254  19.820 -12.089  1.00  0.00    -0.000 C 
BRANCH  16  17
ATOM     17  C   UNL     1     -13.082  20.609 -12.693  1.00  0.00    -0.003 C 
ATOM     18  C   UNL     1     -13.112  22.066 -12.244  1.00  0.00     0.004 C 
ENDBRANCH  16  17
ENDBRANCH  15  16
ENDBRANCH  14  15
ENDBRANCH  13  14
ENDBRANCH  12  13
ENDBRANCH  11  12
ENDBRANCH   1  11
TORSDOF 14
ENDMDL
MODEL 6
REMARK VINA RESULT:    -2.735      2.824      6.705
REMARK INTER + INTRA:          -5.805
REMARK INTER:                  -4.715
REMARK INTRA:                  -1.090
REMARK UNBOUND:                -0.832
REMARK SMILES CCCCCCCCCCCCCCCC(=O)[O-]
REMARK SMILES IDX 9 1 10 2 11 3 12 4 13 5 14 6 15 7 16 8 17 9 18 10 8 11 7 12
REMARK SMILES IDX 6 13 5 14 4 15 3 16 2 17 1 18
REMARK H PARENT
REMARK Flexibility Score: inf
ROOT
ATOM      1  C   UNL     1     -15.852  15.283  -7.165  1.00  0.00     0.000 C 
ENDROOT
BRANCH   1   2
ATOM      2  C   UNL     1     -17.125  15.919  -7.738  1.00  0.00     0.000 C 
BRANCH   2   3
ATOM      3  C   UNL     1     -16.820  16.698  -9.027  1.00  0.00     0.000 C 
BRANCH   3   4
ATOM      4  C   UNL     1     -16.691  18.211  -8.787  1.00  0.00     0.000 C 
BRANCH   4   5
ATOM      5  C   UNL     1     -16.374  18.985 -10.077  1.00  0.00     0.000 C 
BRANCH   5   6
ATOM      6  C   UNL     1     -16.435  18.105 -11.338  1.00  0.00     0.006 C 
BRANCH   6   7
ATOM      7  C   UNL     1     -15.723  18.713 -12.560  1.00  0.00     0.053 C 
BRANCH   7   8
ATOM      8  C   UNL     1     -15.409  20.167 -12.376  1.00  0.00     0.041 C 
ATOM      9  O   UNL     1     -16.288  21.039 -12.607  1.00  0.00    -0.550 OA
ATOM     10  O   UNL     1     -14.134  20.563 -11.988  1.00  0.00    -0.550 OA
ENDBRANCH   7   8
ENDBRANCH   6   7
ENDBRANCH   5   6
ENDBRANCH   4   5
ENDBRANCH   3   4
ENDBRANCH   2   3
ENDBRANCH   1   2
BRANCH   1  11
ATOM     11  C   UNL     1     -15.898  13.753  -7.290  1.00  0.00     0.000 C 
BRANCH  11  12
ATOM     12  C   UNL     1     -14.731  13.189  -8.118  1.00  0.00    -0.000 C 
BRANCH  12  13
ATOM     13  C   UNL     1     -14.901  13.442  -9.626  1.00  0.00    -0.000 C 
BRANCH  13  14
ATOM     14  C   UNL     1     -16.331  13.160 -10.113  1.00  0.00    -0.000 C 
BRANCH  14  15
ATOM     15  C   UNL     1     -16.366  12.232 -11.342  1.00  0.00    -0.000 C 
BRANCH  15  16
ATOM     16  C   UNL     1     -14.997  11.607 -11.649  1.00  0.00    -0.000 C 
BRANCH  16  17
ATOM     17  C   UNL     1     -14.539  11.865 -13.092  1.00  0.00    -0.003 C 
ATOM     18  C   UNL     1     -13.302  12.756 -13.125  1.00  0.00     0.004 C 
ENDBRANCH  16  17
ENDBRANCH  15  16
ENDBRANCH  14  15
ENDBRANCH  13  14
ENDBRANCH  12  13
ENDBRANCH  11  12
ENDBRANCH   1  11
TORSDOF 14
ENDMDL
MODEL 7
REMARK VINA RESULT:    -2.623      1.138      2.006
REMARK INTER + INTRA:          -5.602
REMARK INTER:                  -4.948
REMARK INTRA:                  -0.654
REMARK UNBOUND:                -0.832
REMARK SMILES CCCCCCCCCCCCCCCC(=O)[O-]
REMARK SMILES IDX 9 1 10 2 11 3 12 4 13 5 14 6 15 7 16 8 17 9 18 10 8 11 7 12
REMARK SMILES IDX 6 13 5 14 4 15 3 16 2 17 1 18
REMARK H PARENT
REMARK Flexibility Score: inf
ROOT
ATOM      1  C   UNL     1     -15.693  17.293  -9.214  1.00  0.00     0.000 C 
ENDROOT
BRANCH   1   2
ATOM      2  C   UNL     1     -15.902  16.658  -7.834  1.00  0.00     0.000 C 
BRANCH   2   3
ATOM      3  C   UNL     1     -17.125  15.727  -7.836  1.00  0.00     0.000 C 
BRANCH   3   4
ATOM      4  C   UNL     1     -16.736  14.240  -7.884  1.00  0.00     0.000 C 
BRANCH   4   5
ATOM      5  C   UNL     1     -17.058  13.593  -9.241  1.00  0.00     0.000 C 
BRANCH   5   6
ATOM      6  C   UNL     1     -15.998  13.893 -10.316  1.00  0.00     0.006 C 
BRANCH   6   7
ATOM      7  C   UNL     1     -15.931  12.840 -11.438  1.00  0.00     0.053 C 
BRANCH   7   8
ATOM      8  C   UNL     1     -14.532  12.368 -11.698  1.00  0.00     0.041 C 
ATOM      9  O   UNL     1     -13.938  12.701 -12.757  1.00  0.00    -0.550 OA
ATOM     10  O   UNL     1     -13.898  11.528 -10.790  1.00  0.00    -0.550 OA
ENDBRANCH   7   8
ENDBRANCH   6   7
ENDBRANCH   5   6
ENDBRANCH   4   5
ENDBRANCH   3   4
ENDBRANCH   2   3
ENDBRANCH   1   2
BRANCH   1  11
ATOM     11  C   UNL     1     -16.562  18.550  -9.379  1.00  0.00     0.000 C 
BRANCH  11  12
ATOM     12  C   UNL     1     -16.894  18.854 -10.848  1.00  0.00    -0.000 C 
BRANCH  12  13
ATOM     13  C   UNL     1     -16.944  20.364 -11.142  1.00  0.00    -0.000 C 
BRANCH  13  14
ATOM     14  C   UNL     1     -15.726  20.849 -11.944  1.00  0.00    -0.000 C 
BRANCH  14  15
ATOM     15  C   UNL     1     -14.627  19.776 -12.058  1.00  0.00    -0.000 C 
BRANCH  15  16
ATOM     16  C   UNL     1     -13.566  20.128 -13.112  1.00  0.00    -0.000 C 
BRANCH  16  17
ATOM     17  C   UNL     1     -13.212  21.623 -13.117  1.00  0.00    -0.003 C 
ATOM     18  C   UNL     1     -12.677  22.066 -11.760  1.00  0.00     0.004 C 
ENDBRANCH  16  17
ENDBRANCH  15  16
ENDBRANCH  14  15
ENDBRANCH  13  14
ENDBRANCH  12  13
ENDBRANCH  11  12
ENDBRANCH   1  11
TORSDOF 14
ENDMDL
MODEL 8
REMARK VINA RESULT:    -2.243      2.798      6.598
REMARK INTER + INTRA:          -4.911
REMARK INTER:                  -3.993
REMARK INTRA:                  -0.917
REMARK UNBOUND:                -0.832
REMARK SMILES CCCCCCCCCCCCCCCC(=O)[O-]
REMARK SMILES IDX 9 1 10 2 11 3 12 4 13 5 14 6 15 7 16 8 17 9 18 10 8 11 7 12
REMARK SMILES IDX 6 13 5 14 4 15 3 16 2 17 1 18
REMARK H PARENT
REMARK Flexibility Score: inf
ROOT
ATOM      1  C   UNL     1     -15.638  13.822  -7.184  1.00  0.00     0.000 C 
ENDROOT
BRANCH   1   2
ATOM      2  C   UNL     1     -15.825  15.340  -7.060  1.00  0.00     0.000 C 
BRANCH   2   3
ATOM      3  C   UNL     1     -17.092  15.801  -7.797  1.00  0.00     0.000 C 
BRANCH   3   4
ATOM      4  C   UNL     1     -16.995  17.256  -8.284  1.00  0.00     0.000 C 
BRANCH   4   5
ATOM      5  C   UNL     1     -16.941  17.360  -9.818  1.00  0.00     0.000 C 
BRANCH   5   6
ATOM      6  C   UNL     1     -15.996  18.469 -10.312  1.00  0.00     0.006 C 
BRANCH   6   7
ATOM      7  C   UNL     1     -16.693  19.553 -11.155  1.00  0.00     0.053 C 
BRANCH   7   8
ATOM      8  C   UNL     1     -15.749  20.627 -11.604  1.00  0.00     0.041 C 
ATOM      9  O   UNL     1     -14.509  20.406 -11.639  1.00  0.00    -0.550 OA
ATOM     10  O   UNL     1     -16.231  21.885 -11.945  1.00  0.00    -0.550 OA
ENDBRANCH   7   8
ENDBRANCH   6   7
ENDBRANCH   5   6
ENDBRANCH   4   5
ENDBRANCH   3   4
ENDBRANCH   2   3
ENDBRANCH   1   2
BRANCH   1  11
ATOM     11  C   UNL     1     -14.833  13.470  -8.445  1.00  0.00     0.000 C 
BRANCH  11  12
ATOM     12  C   UNL     1     -15.715  13.353  -9.699  1.00  0.00    -0.000 C 
BRANCH  12  13
ATOM     13  C   UNL     1     -15.888  11.897 -10.166  1.00  0.00    -0.000 C 
BRANCH  13  14
ATOM     14  C   UNL     1     -15.184  11.620 -11.504  1.00  0.00    -0.000 C 
BRANCH  14  15
ATOM     15  C   UNL     1     -14.159  12.709 -11.871  1.00  0.00    -0.000 C 
BRANCH  15  16
ATOM     16  C   UNL     1     -14.598  13.550 -13.079  1.00  0.00    -0.000 C 
BRANCH  16  17
ATOM     17  C   UNL     1     -16.117  13.770 -13.125  1.00  0.00    -0.003 C 
ATOM     18  C   UNL     1     -16.474  15.211 -12.776  1.00  0.00     0.004 C 
ENDBRANCH  16  17
ENDBRANCH  15  16
ENDBRANCH  14  15
ENDBRANCH  13  14
ENDBRANCH  12  13
ENDBRANCH  11  12
ENDBRANCH   1  11
TORSDOF 14
ENDMDL
