MODEL 1
REMARK VINA RESULT:    -3.810      0.000      0.000
REMARK INTER + INTRA:          -4.897
REMARK INTER:                  -4.813
REMARK INTRA:                  -0.084
REMARK UNBOUND:                -0.084
REMARK SMILES CSCC[C@H]([NH3+])C(=O)[O-]
REMARK SMILES IDX 4 1 5 2 6 3 7 7 8 8 9 9 3 10 2 11 1 12
REMARK H PARENT 6 4 6 5 6 6
REMARK Flexibility Score: inf
ROOT
ATOM      1  C   UNL     1      -7.093   1.144   0.057  1.00  0.00     0.082 C 
ENDROOT
BRANCH   1   2
ATOM      2  C   UNL     1      -6.092   2.252  -0.345  1.00  0.00     0.228 C 
BRANCH   2   3
ATOM      3  N   UNL     1      -5.545   2.903   0.852  1.00  0.00    -0.350 N 
ATOM      4  H   UNL     1      -5.092   2.189   1.468  1.00  0.00     0.345 HD
ATOM      5  H   UNL     1      -4.816   3.602   0.574  1.00  0.00     0.345 HD
ATOM      6  H   UNL     1      -6.301   3.388   1.387  1.00  0.00     0.345 HD
ENDBRANCH   2   3
BRANCH   2   7
ATOM      7  C   UNL     1      -6.747   3.278  -1.233  1.00  0.00     0.099 C 
ATOM      8  O   UNL     1      -6.051   4.157  -1.805  1.00  0.00    -0.544 OA
ATOM      9  O   UNL     1      -8.123   3.256  -1.433  1.00  0.00    -0.544 OA
ENDBRANCH   2   7
ENDBRANCH   1   2
BRANCH   1  10
ATOM     10  C   UNL     1      -6.415  -0.164   0.492  1.00  0.00     0.076 C 
BRANCH  10  11
ATOM     11  S   UNL     1      -5.238  -0.749  -0.779  1.00  0.00    -0.165 SA
ATOM     12  C   UNL     1      -4.727  -2.221   0.162  1.00  0.00     0.085 C 
ENDBRANCH  10  11
ENDBRANCH   1  10
TORSDOF 5
ENDMDL
MODEL 2
REMARK VINA RESULT:    -3.810      1.564      1.716
REMARK INTER + INTRA:          -4.896
REMARK INTER:                  -4.818
REMARK INTRA:                  -0.078
REMARK UNBOUND:                -0.084
REMARK SMILES CSCC[C@H]([NH3+])C(=O)[O-]
REMARK SMILES IDX 4 1 5 2 6 3 7 7 8 8 9 9 3 10 2 11 1 12
REMARK H PARENT 6 4 6 5 6 6
REMARK Flexibility Score: inf
ROOT
ATOM      1  C   UNL     1      -6.098   2.422   0.281  1.00  0.00     0.082 C 
ENDROOT
BRANCH   1   2
ATOM      2  C   UNL     1      -6.329   3.578  -0.720  1.00  0.00     0.228 C 
BRANCH   2   3
ATOM      3  N   UNL     1      -5.930   4.857  -0.122  1.00  0.00    -0.350 N 
ATOM      4  H   UNL     1      -6.589   5.108   0.650  1.00  0.00     0.345 HD
ATOM      5  H   UNL     1      -4.968   4.775   0.285  1.00  0.00     0.345 HD
ATOM      6  H   UNL     1      -5.935   5.619  -0.839  1.00  0.00     0.345 HD
ENDBRANCH   2   3
BRANCH   2   7
ATOM      7  C   UNL     1      -7.771   3.640  -1.152  1.00  0.00     0.099 C 
ATOM      8  O   UNL     1      -8.603   4.307  -0.483  1.00  0.00    -0.544 OA
ATOM      9  O   UNL     1      -8.192   2.968  -2.295  1.00  0.00    -0.544 OA
ENDBRANCH   2   7
ENDBRANCH   1   2
BRANCH   1  10
ATOM     10  C   UNL     1      -5.594   1.132  -0.380  1.00  0.00     0.076 C 
BRANCH  10  11
ATOM     11  S   UNL     1      -6.328  -0.344   0.413  1.00  0.00    -0.165 SA
ATOM     12  C   UNL     1      -5.047  -1.488  -0.192  1.00  0.00     0.085 C 
ENDBRANCH  10  11
ENDBRANCH   1  10
TORSDOF 5
ENDMDL
MODEL 3
REMARK VINA RESULT:    -3.777      3.608      4.750
REMARK INTER + INTRA:          -4.855
REMARK INTER:                  -4.801
REMARK INTRA:                  -0.054
REMARK UNBOUND:                -0.084
REMARK SMILES CSCC[C@H]([NH3+])C(=O)[O-]
REMARK SMILES IDX 4 1 5 2 6 3 7 7 8 8 9 9 3 10 2 11 1 12
REMARK H PARENT 6 4 6 5 6 6
REMARK Flexibility Score: inf
ROOT
ATOM      1  C   UNL     1      -5.845   0.945  -0.100  1.00  0.00     0.082 C 
ENDROOT
BRANCH   1   2
ATOM      2  C   UNL     1      -6.101  -0.550   0.207  1.00  0.00     0.228 C 
BRANCH   2   3
ATOM      3  N   UNL     1      -5.980  -0.802   1.648  1.00  0.00    -0.350 N 
ATOM      4  H   UNL     1      -6.445  -1.707   1.889  1.00  0.00     0.345 HD
ATOM      5  H   UNL     1      -4.969  -0.875   1.912  1.00  0.00     0.345 HD
ATOM      6  H   UNL     1      -6.424  -0.031   2.197  1.00  0.00     0.345 HD
ENDBRANCH   2   3
BRANCH   2   7
ATOM      7  C   UNL     1      -5.141  -1.430  -0.551  1.00  0.00     0.099 C 
ATOM      8  O   UNL     1      -4.198  -0.917  -1.209  1.00  0.00    -0.544 OA
ATOM      9  O   UNL     1      -5.285  -2.813  -0.524  1.00  0.00    -0.544 OA
ENDBRANCH   2   7
ENDBRANCH   1   2
BRANCH   1  10
ATOM     10  C   UNL     1      -7.127   1.737  -0.392  1.00  0.00     0.076 C 
BRANCH  10  11
ATOM     11  S   UNL     1      -6.739   3.420  -0.992  1.00  0.00    -0.165 SA
ATOM     12  C   UNL     1      -8.301   4.149  -0.406  1.00  0.00     0.085 C 
ENDBRANCH  10  11
ENDBRANCH   1  10
TORSDOF 5
ENDMDL
MODEL 4
REMARK VINA RESULT:    -3.727      2.440      2.663
REMARK INTER + INTRA:          -4.791
REMARK INTER:                  -4.627
REMARK INTRA:                  -0.165
REMARK UNBOUND:                -0.084
REMARK SMILES CSCC[C@H]([NH3+])C(=O)[O-]
REMARK SMILES IDX 4 1 5 2 6 3 7 7 8 8 9 9 3 10 2 11 1 12
REMARK H PARENT 6 4 6 5 6 6
REMARK Flexibility Score: inf
ROOT
ATOM      1  C   UNL     1      -5.988   2.294  -0.236  1.00  0.00     0.082 C 
ENDROOT
BRANCH   1   2
ATOM      2  C   UNL     1      -6.331   3.535  -1.093  1.00  0.00     0.228 C 
BRANCH   2   3
ATOM      3  N   UNL     1      -5.918   4.761  -0.400  1.00  0.00    -0.350 N 
ATOM      4  H   UNL     1      -5.884   5.557  -1.079  1.00  0.00     0.345 HD
ATOM      5  H   UNL     1      -6.613   4.999   0.346  1.00  0.00     0.345 HD
ATOM      6  H   UNL     1      -4.974   4.641   0.035  1.00  0.00     0.345 HD
ENDBRANCH   2   3
BRANCH   2   7
ATOM      7  C   UNL     1      -7.805   3.591  -1.401  1.00  0.00     0.099 C 
ATOM      8  O   UNL     1      -8.589   4.204  -0.631  1.00  0.00    -0.544 OA
ATOM      9  O   UNL     1      -8.307   2.972  -2.540  1.00  0.00    -0.544 OA
ENDBRANCH   2   7
ENDBRANCH   1   2
BRANCH   1  10
ATOM     10  C   UNL     1      -5.822   2.609   1.258  1.00  0.00     0.076 C 
BRANCH  10  11
ATOM     11  S   UNL     1      -6.510   1.269   2.295  1.00  0.00    -0.165 SA
ATOM     12  C   UNL     1      -7.810   0.815   1.105  1.00  0.00     0.085 C 
ENDBRANCH  10  11
ENDBRANCH   1  10
TORSDOF 5
ENDMDL
MODEL 5
REMARK VINA RESULT:    -3.718      1.900      2.208
REMARK INTER + INTRA:          -4.781
REMARK INTER:                  -4.623
REMARK INTRA:                  -0.158
REMARK UNBOUND:                -0.084
REMARK SMILES CSCC[C@H]([NH3+])C(=O)[O-]
REMARK SMILES IDX 4 1 5 2 6 3 7 7 8 8 9 9 3 10 2 11 1 12
REMARK H PARENT 6 4 6 5 6 6
REMARK Flexibility Score: inf
ROOT
ATOM      1  C   UNL     1      -6.132   2.409   0.294  1.00  0.00     0.082 C 
ENDROOT
BRANCH   1   2
ATOM      2  C   UNL     1      -6.351   3.538  -0.740  1.00  0.00     0.228 C 
BRANCH   2   3
ATOM      3  N   UNL     1      -5.910   4.825  -0.189  1.00  0.00    -0.350 N 
ATOM      4  H   UNL     1      -6.088   4.849   0.841  1.00  0.00     0.345 HD
ATOM      5  H   UNL     1      -4.882   4.944  -0.345  1.00  0.00     0.345 HD
ATOM      6  H   UNL     1      -6.421   5.617  -0.644  1.00  0.00     0.345 HD
ENDBRANCH   2   3
BRANCH   2   7
ATOM      7  C   UNL     1      -7.799   3.624  -1.149  1.00  0.00     0.099 C 
ATOM      8  O   UNL     1      -8.205   3.012  -2.172  1.00  0.00    -0.544 OA
ATOM      9  O   UNL     1      -8.698   4.372  -0.397  1.00  0.00    -0.544 OA
ENDBRANCH   2   7
ENDBRANCH   1   2
BRANCH   1  10
ATOM     10  C   UNL     1      -5.633   1.098  -0.330  1.00  0.00     0.076 C 
BRANCH  10  11
ATOM     11  S   UNL     1      -6.431  -0.350   0.453  1.00  0.00    -0.165 SA
ATOM     12  C   UNL     1      -7.881   0.581   1.040  1.00  0.00     0.085 C 
ENDBRANCH  10  11
ENDBRANCH   1  10
TORSDOF 5
ENDMDL
MODEL 6
REMARK VINA RESULT:    -3.603      3.656      4.833
REMARK INTER + INTRA:          -4.635
REMARK INTER:                  -4.590
REMARK INTRA:                  -0.046
REMARK UNBOUND:                -0.084
REMARK SMILES CSCC[C@H]([NH3+])C(=O)[O-]
REMARK SMILES IDX 4 1 5 2 6 3 7 7 8 8 9 9 3 10 2 11 1 12
REMARK H PARENT 6 4 6 5 6 6
REMARK Flexibility Score: inf
ROOT
ATOM      1  C   UNL     1      -6.004   0.604  -0.011  1.00  0.00     0.082 C 
ENDROOT
BRANCH   1   2
ATOM      2  C   UNL     1      -6.139  -0.899   0.330  1.00  0.00     0.228 C 
BRANCH   2   3
ATOM      3  N   UNL     1      -6.003  -1.106   1.777  1.00  0.00    -0.350 N 
ATOM      4  H   UNL     1      -5.327  -0.412   2.172  1.00  0.00     0.345 HD
ATOM      5  H   UNL     1      -6.929  -0.961   2.245  1.00  0.00     0.345 HD
ATOM      6  H   UNL     1      -5.661  -2.073   1.982  1.00  0.00     0.345 HD
ENDBRANCH   2   3
BRANCH   2   7
ATOM      7  C   UNL     1      -5.109  -1.716  -0.405  1.00  0.00     0.099 C 
ATOM      8  O   UNL     1      -5.177  -2.973  -0.398  1.00  0.00    -0.544 OA
ATOM      9  O   UNL     1      -4.081  -1.089  -1.101  1.00  0.00    -0.544 OA
ENDBRANCH   2   7
ENDBRANCH   1   2
BRANCH   1  10
ATOM     10  C   UNL     1      -7.260   1.422   0.320  1.00  0.00     0.076 C 
BRANCH  10  11
ATOM     11  S   UNL     1      -6.840   3.171   0.650  1.00  0.00    -0.165 SA
ATOM     12  C   UNL     1      -6.869   3.662  -1.103  1.00  0.00     0.085 C 
ENDBRANCH  10  11
ENDBRANCH   1  10
TORSDOF 5
ENDMDL
MODEL 7
REMARK VINA RESULT:    -3.593      2.307      2.449
REMARK INTER + INTRA:          -4.622
REMARK INTER:                  -4.562
REMARK INTRA:                  -0.061
REMARK UNBOUND:                -0.084
REMARK SMILES CSCC[C@H]([NH3+])C(=O)[O-]
REMARK SMILES IDX 4 1 5 2 6 3 7 7 8 8 9 9 3 10 2 11 1 12
REMARK H PARENT 6 4 6 5 6 6
REMARK Flexibility Score: inf
ROOT
ATOM      1  C   UNL     1      -5.868   2.209  -0.033  1.00  0.00     0.082 C 
ENDROOT
BRANCH   1   2
ATOM      2  C   UNL     1      -6.507   3.608  -0.203  1.00  0.00     0.228 C 
BRANCH   2   3
ATOM      3  N   UNL     1      -5.904   4.308  -1.344  1.00  0.00    -0.350 N 
ATOM      4  H   UNL     1      -6.644   4.824  -1.873  1.00  0.00     0.345 HD
ATOM      5  H   UNL     1      -5.201   5.005  -1.002  1.00  0.00     0.345 HD
ATOM      6  H   UNL     1      -5.432   3.630  -1.986  1.00  0.00     0.345 HD
ENDBRANCH   2   3
BRANCH   2   7
ATOM      7  C   UNL     1      -6.345   4.432   1.049  1.00  0.00     0.099 C 
ATOM      8  O   UNL     1      -5.467   4.128   1.897  1.00  0.00    -0.544 OA
ATOM      9  O   UNL     1      -7.160   5.537   1.271  1.00  0.00    -0.544 OA
ENDBRANCH   2   7
ENDBRANCH   1   2
BRANCH   1  10
ATOM     10  C   UNL     1      -6.894   1.067  -0.020  1.00  0.00     0.076 C 
BRANCH  10  11
ATOM     11  S   UNL     1      -6.143  -0.486   0.587  1.00  0.00    -0.165 SA
ATOM     12  C   UNL     1      -5.182  -0.787  -0.930  1.00  0.00     0.085 C 
ENDBRANCH  10  11
ENDBRANCH   1  10
TORSDOF 5
ENDMDL
MODEL 8
REMARK VINA RESULT:    -3.498      2.256      2.592
REMARK INTER + INTRA:          -4.502
REMARK INTER:                  -4.304
REMARK INTRA:                  -0.198
REMARK UNBOUND:                -0.084
REMARK SMILES CSCC[C@H]([NH3+])C(=O)[O-]
REMARK SMILES IDX 4 1 5 2 6 3 7 7 8 8 9 9 3 10 2 11 1 12
REMARK H PARENT 6 4 6 5 6 6
REMARK Flexibility Score: inf
ROOT
ATOM      1  C   UNL     1      -7.632   3.582   1.267  1.00  0.00     0.082 C 
ENDROOT
BRANCH   1   2
ATOM      2  C   UNL     1      -6.415   3.811   0.340  1.00  0.00     0.228 C 
BRANCH   2   3
ATOM      3  N   UNL     1      -5.836   5.139   0.578  1.00  0.00    -0.350 N 
ATOM      4  H   UNL     1      -6.176   5.809  -0.151  1.00  0.00     0.345 HD
ATOM      5  H   UNL     1      -6.139   5.496   1.515  1.00  0.00     0.345 HD
ATOM      6  H   UNL     1      -4.792   5.099   0.547  1.00  0.00     0.345 HD
ENDBRANCH   2   3
BRANCH   2   7
ATOM      7  C   UNL     1      -6.803   3.672  -1.109  1.00  0.00     0.099 C 
ATOM      8  O   UNL     1      -6.068   4.153  -2.010  1.00  0.00    -0.544 OA
ATOM      9  O   UNL     1      -7.973   3.006  -1.461  1.00  0.00    -0.544 OA
ENDBRANCH   2   7
ENDBRANCH   1   2
BRANCH   1  10
ATOM     10  C   UNL     1      -7.326   2.671   2.463  1.00  0.00     0.076 C 
BRANCH  10  11
ATOM     11  S   UNL     1      -6.544   1.110   1.920  1.00  0.00    -0.165 SA
ATOM     12  C   UNL     1      -8.036   0.479   1.089  1.00  0.00     0.085 C 
ENDBRANCH  10  11
ENDBRANCH   1  10
TORSDOF 5
ENDMDL
MODEL 9
REMARK VINA RESULT:    -3.465      2.847      3.393
REMARK INTER + INTRA:          -4.460
REMARK INTER:                  -4.338
REMARK INTRA:                  -0.122
REMARK UNBOUND:                -0.084
REMARK SMILES CSCC[C@H]([NH3+])C(=O)[O-]
REMARK SMILES IDX 4 1 5 2 6 3 7 7 8 8 9 9 3 10 2 11 1 12
REMARK H PARENT 6 4 6 5 6 6
REMARK Flexibility Score: inf
ROOT
ATOM      1  C   UNL     1      -6.850   2.834   1.216  1.00  0.00     0.082 C 
ENDROOT
BRANCH   1   2
ATOM      2  C   UNL     1      -6.637   2.273  -0.210  1.00  0.00     0.228 C 
BRANCH   2   3
ATOM      3  N   UNL     1      -5.225   1.933  -0.418  1.00  0.00    -0.350 N 
ATOM      4  H   UNL     1      -4.629   2.778  -0.253  1.00  0.00     0.345 HD
ATOM      5  H   UNL     1      -4.934   1.192   0.262  1.00  0.00     0.345 HD
ATOM      6  H   UNL     1      -5.067   1.587  -1.392  1.00  0.00     0.345 HD
ENDBRANCH   2   3
BRANCH   2   7
ATOM      7  C   UNL     1      -7.087   3.264  -1.253  1.00  0.00     0.099 C 
ATOM      8  O   UNL     1      -8.293   3.302  -1.611  1.00  0.00    -0.544 OA
ATOM      9  O   UNL     1      -6.174   4.145  -1.823  1.00  0.00    -0.544 OA
ENDBRANCH   2   7
ENDBRANCH   1   2
BRANCH   1  10
ATOM     10  C   UNL     1      -5.639   3.609   1.755  1.00  0.00     0.076 C 
BRANCH  10  11
ATOM     11  S   UNL     1      -5.589   3.565   3.583  1.00  0.00    -0.165 SA
ATOM     12  C   UNL     1      -6.230   1.866   3.707  1.00  0.00     0.085 C 
ENDBRANCH  10  11
ENDBRANCH   1  10
TORSDOF 5
ENDMDL
