MODEL 1
REMARK VINA RESULT:    -4.023      0.000      0.000
REMARK INTER + INTRA:          -5.595
REMARK INTER:                  -5.434
REMARK INTRA:                  -0.161
REMARK UNBOUND:                -0.161
REMARK SMILES CCCCCCCC=O
REMARK SMILES IDX 5 1 4 2 3 3 2 4 1 5 6 6 7 7 8 8 9 9
REMARK H PARENT
REMARK Flexibility Score: inf
ROOT
ATOM      1  C   UNL     1      25.163  58.051  -8.716  1.00  0.00     0.000 C 
ENDROOT
BRANCH   1   2
ATOM      2  C   UNL     1      26.120  59.165  -9.188  1.00  0.00     0.000 C 
BRANCH   2   3
ATOM      3  C   UNL     1      27.153  58.731 -10.244  1.00  0.00    -0.000 C 
BRANCH   3   4
ATOM      4  C   UNL     1      28.124  59.858 -10.624  1.00  0.00    -0.003 C 
ATOM      5  C   UNL     1      29.381  59.300 -11.285  1.00  0.00     0.004 C 
ENDBRANCH   3   4
ENDBRANCH   2   3
ENDBRANCH   1   2
BRANCH   1   6
ATOM      6  C   UNL     1      25.656  56.610  -8.959  1.00  0.00     0.008 C 
BRANCH   6   7
ATOM      7  C   UNL     1      25.210  55.597  -7.891  1.00  0.00     0.072 C 
BRANCH   7   8
ATOM      8  C   UNL     1      23.796  55.134  -8.090  1.00  0.00     0.224 C 
ATOM      9  O   UNL     1      23.017  55.138  -7.151  1.00  0.00    -0.303 OA
ENDBRANCH   7   8
ENDBRANCH   6   7
ENDBRANCH   1   6
TORSDOF 6
ENDMDL
MODEL 2
REMARK VINA RESULT:    -3.925      2.874      5.795
REMARK INTER + INTRA:          -5.463
REMARK INTER:                  -5.330
REMARK INTRA:                  -0.133
REMARK UNBOUND:                -0.161
REMARK SMILES CCCCCCCC=O
REMARK SMILES IDX 5 1 4 2 3 3 2 4 1 5 6 6 7 7 8 8 9 9
REMARK H PARENT
REMARK Flexibility Score: inf
ROOT
ATOM      1  C   UNL     1      25.163  58.132  -8.783  1.00  0.00     0.000 C 
ENDROOT
BRANCH   1   2
ATOM      2  C   UNL     1      25.610  56.658  -8.858  1.00  0.00     0.000 C 
BRANCH   2   3
ATOM      3  C   UNL     1      25.009  55.740  -7.778  1.00  0.00    -0.000 C 
BRANCH   3   4
ATOM      4  C   UNL     1      23.648  55.155  -8.183  1.00  0.00    -0.003 C 
ATOM      5  C   UNL     1      22.845  54.733  -6.955  1.00  0.00     0.004 C 
ENDBRANCH   3   4
ENDBRANCH   2   3
ENDBRANCH   1   2
BRANCH   1   6
ATOM      6  C   UNL     1      26.235  59.167  -9.181  1.00  0.00     0.008 C 
BRANCH   6   7
ATOM      7  C   UNL     1      27.166  58.715 -10.320  1.00  0.00     0.072 C 
BRANCH   7   8
ATOM      8  C   UNL     1      28.185  59.756 -10.680  1.00  0.00     0.224 C 
ATOM      9  O   UNL     1      29.366  59.456 -10.736  1.00  0.00    -0.303 OA
ENDBRANCH   7   8
ENDBRANCH   6   7
ENDBRANCH   1   6
TORSDOF 6
ENDMDL
MODEL 3
REMARK VINA RESULT:    -3.762     18.196     19.499
REMARK INTER + INTRA:          -5.243
REMARK INTER:                  -4.814
REMARK INTRA:                  -0.429
REMARK UNBOUND:                -0.161
REMARK SMILES CCCCCCCC=O
REMARK SMILES IDX 5 1 4 2 3 3 2 4 1 5 6 6 7 7 8 8 9 9
REMARK H PARENT
REMARK Flexibility Score: inf
ROOT
ATOM      1  C   UNL     1      17.923  42.487   1.917  1.00  0.00     0.000 C 
ENDROOT
BRANCH   1   2
ATOM      2  C   UNL     1      16.441  42.886   1.761  1.00  0.00     0.000 C 
BRANCH   2   3
ATOM      3  C   UNL     1      16.118  44.345   2.130  1.00  0.00    -0.000 C 
BRANCH   3   4
ATOM      4  C   UNL     1      15.476  45.123   0.972  1.00  0.00    -0.003 C 
ATOM      5  C   UNL     1      16.453  45.284  -0.189  1.00  0.00     0.004 C 
ENDBRANCH   3   4
ENDBRANCH   2   3
ENDBRANCH   1   2
BRANCH   1   6
ATOM      6  C   UNL     1      18.847  43.587   2.478  1.00  0.00     0.008 C 
BRANCH   6   7
ATOM      7  C   UNL     1      19.949  44.047   1.508  1.00  0.00     0.072 C 
BRANCH   7   8
ATOM      8  C   UNL     1      21.014  43.008   1.309  1.00  0.00     0.224 C 
ATOM      9  O   UNL     1      21.198  42.532   0.201  1.00  0.00    -0.303 OA
ENDBRANCH   7   8
ENDBRANCH   6   7
ENDBRANCH   1   6
TORSDOF 6
ENDMDL
MODEL 4
REMARK VINA RESULT:    -3.655     17.475     19.117
REMARK INTER + INTRA:          -5.098
REMARK INTER:                  -4.674
REMARK INTRA:                  -0.424
REMARK UNBOUND:                -0.161
REMARK SMILES CCCCCCCC=O
REMARK SMILES IDX 5 1 4 2 3 3 2 4 1 5 6 6 7 7 8 8 9 9
REMARK H PARENT
REMARK Flexibility Score: inf
ROOT
ATOM      1  C   UNL     1      16.318  43.096   1.808  1.00  0.00     0.000 C 
ENDROOT
BRANCH   1   2
ATOM      2  C   UNL     1      17.816  42.736   1.862  1.00  0.00     0.000 C 
BRANCH   2   3
ATOM      3  C   UNL     1      18.703  43.748   2.610  1.00  0.00    -0.000 C 
BRANCH   3   4
ATOM      4  C   UNL     1      19.952  44.149   1.813  1.00  0.00    -0.003 C 
ATOM      5  C   UNL     1      19.580  44.629   0.413  1.00  0.00     0.004 C 
ENDBRANCH   3   4
ENDBRANCH   2   3
ENDBRANCH   1   2
BRANCH   1   6
ATOM      6  C   UNL     1      15.978  44.562   2.148  1.00  0.00     0.008 C 
BRANCH   6   7
ATOM      7  C   UNL     1      15.266  45.328   1.020  1.00  0.00     0.072 C 
BRANCH   7   8
ATOM      8  C   UNL     1      16.011  45.261  -0.281  1.00  0.00     0.224 C 
ATOM      9  O   UNL     1      15.681  45.982  -1.208  1.00  0.00    -0.303 OA
ENDBRANCH   7   8
ENDBRANCH   6   7
ENDBRANCH   1   6
TORSDOF 6
ENDMDL
MODEL 5
REMARK VINA RESULT:    -3.653     17.029     18.593
REMARK INTER + INTRA:          -5.095
REMARK INTER:                  -4.781
REMARK INTRA:                  -0.315
REMARK UNBOUND:                -0.161
REMARK SMILES CCCCCCCC=O
REMARK SMILES IDX 5 1 4 2 3 3 2 4 1 5 6 6 7 7 8 8 9 9
REMARK H PARENT
REMARK Flexibility Score: inf
ROOT
ATOM      1  C   UNL     1      18.454  45.543  -0.449  1.00  0.00     0.000 C 
ENDROOT
BRANCH   1   2
ATOM      2  C   UNL     1      17.218  44.710  -0.056  1.00  0.00     0.000 C 
BRANCH   2   3
ATOM      3  C   UNL     1      15.873  45.454  -0.154  1.00  0.00    -0.000 C 
BRANCH   3   4
ATOM      4  C   UNL     1      15.029  45.329   1.123  1.00  0.00    -0.003 C 
ATOM      5  C   UNL     1      15.799  44.601   2.221  1.00  0.00     0.004 C 
ENDBRANCH   3   4
ENDBRANCH   2   3
ENDBRANCH   1   2
BRANCH   1   6
ATOM      6  C   UNL     1      19.793  45.059   0.146  1.00  0.00     0.008 C 
BRANCH   6   7
ATOM      7  C   UNL     1      19.650  44.018   1.270  1.00  0.00     0.072 C 
BRANCH   7   8
ATOM      8  C   UNL     1      20.841  43.109   1.368  1.00  0.00     0.224 C 
ATOM      9  O   UNL     1      21.248  42.533   0.374  1.00  0.00    -0.303 OA
ENDBRANCH   7   8
ENDBRANCH   6   7
ENDBRANCH   1   6
TORSDOF 6
ENDMDL
MODEL 6
REMARK VINA RESULT:    -3.552      3.009      4.744
REMARK INTER + INTRA:          -4.960
REMARK INTER:                  -4.719
REMARK INTRA:                  -0.241
REMARK UNBOUND:                -0.161
REMARK SMILES CCCCCCCC=O
REMARK SMILES IDX 5 1 4 2 3 3 2 4 1 5 6 6 7 7 8 8 9 9
REMARK H PARENT
REMARK Flexibility Score: inf
ROOT
ATOM      1  C   UNL     1      30.011  59.736 -10.336  1.00  0.00     0.000 C 
ENDROOT
BRANCH   1   2
ATOM      2  C   UNL     1      30.848  58.783 -11.212  1.00  0.00     0.000 C 
BRANCH   2   3
ATOM      3  C   UNL     1      30.474  58.775 -12.706  1.00  0.00    -0.000 C 
BRANCH   3   4
ATOM      4  C   UNL     1      30.092  57.378 -13.217  1.00  0.00    -0.003 C 
ATOM      5  C   UNL     1      31.333  56.560 -13.560  1.00  0.00     0.004 C 
ENDBRANCH   3   4
ENDBRANCH   2   3
ENDBRANCH   1   2
BRANCH   1   6
ATOM      6  C   UNL     1      28.587  60.029 -10.852  1.00  0.00     0.008 C 
BRANCH   6   7
ATOM      7  C   UNL     1      27.569  58.908 -10.581  1.00  0.00     0.072 C 
BRANCH   7   8
ATOM      8  C   UNL     1      26.616  59.251  -9.472  1.00  0.00     0.224 C 
ATOM      9  O   UNL     1      25.858  58.399  -9.038  1.00  0.00    -0.303 OA
ENDBRANCH   7   8
ENDBRANCH   6   7
ENDBRANCH   1   6
TORSDOF 6
ENDMDL
MODEL 7
REMARK VINA RESULT:    -3.545     16.235     17.703
REMARK INTER + INTRA:          -4.950
REMARK INTER:                  -4.702
REMARK INTRA:                  -0.248
REMARK UNBOUND:                -0.161
REMARK SMILES CCCCCCCC=O
REMARK SMILES IDX 5 1 4 2 3 3 2 4 1 5 6 6 7 7 8 8 9 9
REMARK H PARENT
REMARK Flexibility Score: inf
ROOT
ATOM      1  C   UNL     1      32.748  46.232   2.220  1.00  0.00     0.000 C 
ENDROOT
BRANCH   1   2
ATOM      2  C   UNL     1      32.222  44.792   2.056  1.00  0.00     0.000 C 
BRANCH   2   3
ATOM      3  C   UNL     1      31.176  44.603   0.943  1.00  0.00    -0.000 C 
BRANCH   3   4
ATOM      4  C   UNL     1      29.896  45.416   1.183  1.00  0.00    -0.003 C 
ATOM      5  C   UNL     1      28.911  45.242   0.031  1.00  0.00     0.004 C 
ENDBRANCH   3   4
ENDBRANCH   2   3
ENDBRANCH   1   2
BRANCH   1   6
ATOM      6  C   UNL     1      32.786  46.761   3.668  1.00  0.00     0.008 C 
BRANCH   6   7
ATOM      7  C   UNL     1      31.834  47.938   3.941  1.00  0.00     0.072 C 
BRANCH   7   8
ATOM      8  C   UNL     1      32.526  49.101   4.590  1.00  0.00     0.224 C 
ATOM      9  O   UNL     1      33.739  49.092   4.719  1.00  0.00    -0.303 OA
ENDBRANCH   7   8
ENDBRANCH   6   7
ENDBRANCH   1   6
TORSDOF 6
ENDMDL
MODEL 8
REMARK VINA RESULT:    -3.539      4.840      6.785
REMARK INTER + INTRA:          -4.941
REMARK INTER:                  -4.510
REMARK INTRA:                  -0.431
REMARK UNBOUND:                -0.161
REMARK SMILES CCCCCCCC=O
REMARK SMILES IDX 5 1 4 2 3 3 2 4 1 5 6 6 7 7 8 8 9 9
REMARK H PARENT
REMARK Flexibility Score: inf
ROOT
ATOM      1  C   UNL     1      30.053  57.285 -13.186  1.00  0.00     0.000 C 
ENDROOT
BRANCH   1   2
ATOM      2  C   UNL     1      31.310  56.473 -13.558  1.00  0.00     0.000 C 
BRANCH   2   3
ATOM      3  C   UNL     1      32.513  57.313 -14.024  1.00  0.00    -0.000 C 
BRANCH   3   4
ATOM      4  C   UNL     1      33.807  56.968 -13.273  1.00  0.00    -0.003 C 
ATOM      5  C   UNL     1      33.520  56.621 -11.815  1.00  0.00     0.004 C 
ENDBRANCH   3   4
ENDBRANCH   2   3
ENDBRANCH   1   2
BRANCH   1   6
ATOM      6  C   UNL     1      30.301  58.770 -12.852  1.00  0.00     0.008 C 
BRANCH   6   7
ATOM      7  C   UNL     1      30.297  59.094 -11.348  1.00  0.00     0.072 C 
BRANCH   7   8
ATOM      8  C   UNL     1      28.986  59.657 -10.882  1.00  0.00     0.224 C 
ATOM      9  O   UNL     1      28.006  58.935 -10.810  1.00  0.00    -0.303 OA
ENDBRANCH   7   8
ENDBRANCH   6   7
ENDBRANCH   1   6
TORSDOF 6
ENDMDL
MODEL 9
REMARK VINA RESULT:    -3.428     16.421     17.217
REMARK INTER + INTRA:          -4.792
REMARK INTER:                  -4.500
REMARK INTRA:                  -0.291
REMARK UNBOUND:                -0.161
REMARK SMILES CCCCCCCC=O
REMARK SMILES IDX 5 1 4 2 3 3 2 4 1 5 6 6 7 7 8 8 9 9
REMARK H PARENT
REMARK Flexibility Score: inf
ROOT
ATOM      1  C   UNL     1      32.869  45.946   1.362  1.00  0.00     0.000 C 
ENDROOT
BRANCH   1   2
ATOM      2  C   UNL     1      33.574  46.575   2.581  1.00  0.00     0.000 C 
BRANCH   2   3
ATOM      3  C   UNL     1      32.741  46.596   3.876  1.00  0.00    -0.000 C 
BRANCH   3   4
ATOM      4  C   UNL     1      31.842  47.836   3.986  1.00  0.00    -0.003 C 
ATOM      5  C   UNL     1      32.652  49.067   4.386  1.00  0.00     0.004 C 
ENDBRANCH   3   4
ENDBRANCH   2   3
ENDBRANCH   1   2
BRANCH   1   6
ATOM      6  C   UNL     1      31.767  44.919   1.693  1.00  0.00     0.008 C 
BRANCH   6   7
ATOM      7  C   UNL     1      30.346  45.365   1.309  1.00  0.00     0.072 C 
BRANCH   7   8
ATOM      8  C   UNL     1      29.845  44.686   0.067  1.00  0.00     0.224 C 
ATOM      9  O   UNL     1      28.753  44.983  -0.389  1.00  0.00    -0.303 OA
ENDBRANCH   7   8
ENDBRANCH   6   7
ENDBRANCH   1   6
TORSDOF 6
ENDMDL
