MODEL 1
REMARK VINA RESULT:    -4.855      0.000      0.000
REMARK INTER + INTRA:          -8.365
REMARK INTER:                  -7.409
REMARK INTRA:                  -0.956
REMARK UNBOUND:                -0.956
REMARK SMILES CCCCCCCCCC=CC(=O)[O-]
REMARK SMILES IDX 7 1 8 2 9 3 10 4 11 5 12 6 13 7 14 8 6 9 5 10 4 11 3 12 2 13
REMARK SMILES IDX 1 14
REMARK H PARENT
REMARK Flexibility Score: inf
ROOT
ATOM      1  C   UNL     1      13.974 -15.830  29.454  1.00  0.00     0.000 C 
ENDROOT
BRANCH   1   2
ATOM      2  C   UNL     1      12.960 -15.544  28.335  1.00  0.00     0.004 C 
BRANCH   2   3
ATOM      3  C   UNL     1      11.930 -14.474  28.729  1.00  0.00     0.027 C 
BRANCH   3   4
ATOM      4  C   UNL     1      11.604 -13.582  27.565  1.00  0.00    -0.025 C 
ATOM      5  C   UNL     1      12.551 -13.162  26.720  1.00  0.00     0.020 C 
BRANCH   5   6
ATOM      6  C   UNL     1      12.243 -12.301  25.568  1.00  0.00     0.064 C 
ATOM      7  O   UNL     1      11.043 -12.121  25.231  1.00  0.00    -0.545 OA
ATOM      8  O   UNL     1      13.256 -11.684  24.843  1.00  0.00    -0.545 OA
ENDBRANCH   5   6
ENDBRANCH   3   4
ENDBRANCH   2   3
ENDBRANCH   1   2
BRANCH   1   9
ATOM      9  C   UNL     1      13.609 -15.130  30.774  1.00  0.00     0.000 C 
BRANCH   9  10
ATOM     10  C   UNL     1      13.497 -16.115  31.951  1.00  0.00     0.000 C 
BRANCH  10  11
ATOM     11  C   UNL     1      12.799 -17.430  31.560  1.00  0.00    -0.000 C 
BRANCH  11  12
ATOM     12  C   UNL     1      11.296 -17.246  31.303  1.00  0.00    -0.000 C 
BRANCH  12  13
ATOM     13  C   UNL     1      10.540 -16.753  32.547  1.00  0.00    -0.003 C 
ATOM     14  C   UNL     1       9.772 -15.468  32.250  1.00  0.00     0.004 C 
ENDBRANCH  12  13
ENDBRANCH  11  12
ENDBRANCH  10  11
ENDBRANCH   9  10
ENDBRANCH   1   9
TORSDOF 9
ENDMDL
MODEL 2
REMARK VINA RESULT:    -4.672      1.927      2.652
REMARK INTER + INTRA:          -8.087
REMARK INTER:                  -7.674
REMARK INTRA:                  -0.413
REMARK UNBOUND:                -0.956
REMARK SMILES CCCCCCCCCC=CC(=O)[O-]
REMARK SMILES IDX 7 1 8 2 9 3 10 4 11 5 12 6 13 7 14 8 6 9 5 10 4 11 3 12 2 13
REMARK SMILES IDX 1 14
REMARK H PARENT
REMARK Flexibility Score: inf
ROOT
ATOM      1  C   UNL     1      13.583 -15.903  31.421  1.00  0.00     0.000 C 
ENDROOT
BRANCH   1   2
ATOM      2  C   UNL     1      13.731 -15.477  29.952  1.00  0.00     0.004 C 
BRANCH   2   3
ATOM      3  C   UNL     1      12.839 -14.280  29.590  1.00  0.00     0.027 C 
BRANCH   3   4
ATOM      4  C   UNL     1      12.243 -14.444  28.221  1.00  0.00    -0.025 C 
ATOM      5  C   UNL     1      11.893 -13.386  27.481  1.00  0.00     0.020 C 
BRANCH   5   6
ATOM      6  C   UNL     1      11.322 -13.532  26.133  1.00  0.00     0.064 C 
ATOM      7  O   UNL     1      11.092 -14.683  25.677  1.00  0.00    -0.545 OA
ATOM      8  O   UNL     1      11.034 -12.418  25.352  1.00  0.00    -0.545 OA
ENDBRANCH   5   6
ENDBRANCH   3   4
ENDBRANCH   2   3
ENDBRANCH   1   2
BRANCH   1   9
ATOM      9  C   UNL     1      13.025 -17.329  31.569  1.00  0.00     0.000 C 
BRANCH   9  10
ATOM     10  C   UNL     1      11.488 -17.367  31.531  1.00  0.00     0.000 C 
BRANCH  10  11
ATOM     11  C   UNL     1      10.920 -18.759  31.863  1.00  0.00    -0.000 C 
BRANCH  11  12
ATOM     12  C   UNL     1      10.116 -18.771  33.172  1.00  0.00    -0.000 C 
BRANCH  12  13
ATOM     13  C   UNL     1      10.063 -20.164  33.818  1.00  0.00    -0.003 C 
ATOM     14  C   UNL     1      10.317 -21.259  32.786  1.00  0.00     0.004 C 
ENDBRANCH  12  13
ENDBRANCH  11  12
ENDBRANCH  10  11
ENDBRANCH   9  10
ENDBRANCH   1   9
TORSDOF 9
ENDMDL
MODEL 3
REMARK VINA RESULT:    -4.647     10.096     11.016
REMARK INTER + INTRA:          -8.048
REMARK INTER:                  -7.633
REMARK INTRA:                  -0.416
REMARK UNBOUND:                -0.956
REMARK SMILES CCCCCCCCCC=CC(=O)[O-]
REMARK SMILES IDX 7 1 8 2 9 3 10 4 11 5 12 6 13 7 14 8 6 9 5 10 4 11 3 12 2 13
REMARK SMILES IDX 1 14
REMARK H PARENT
REMARK Flexibility Score: inf
ROOT
ATOM      1  C   UNL     1       7.570 -21.878  20.732  1.00  0.00     0.000 C 
ENDROOT
BRANCH   1   2
ATOM      2  C   UNL     1       7.851 -20.367  20.764  1.00  0.00     0.004 C 
BRANCH   2   3
ATOM      3  C   UNL     1       6.640 -19.530  20.324  1.00  0.00     0.027 C 
BRANCH   3   4
ATOM      4  C   UNL     1       6.875 -18.067  20.570  1.00  0.00    -0.025 C 
ATOM      5  C   UNL     1       5.896 -17.266  21.004  1.00  0.00     0.020 C 
BRANCH   5   6
ATOM      6  C   UNL     1       6.116 -15.835  21.263  1.00  0.00     0.064 C 
ATOM      7  O   UNL     1       5.548 -14.978  20.537  1.00  0.00    -0.545 OA
ATOM      8  O   UNL     1       6.944 -15.413  22.297  1.00  0.00    -0.545 OA
ENDBRANCH   5   6
ENDBRANCH   3   4
ENDBRANCH   2   3
ENDBRANCH   1   2
BRANCH   1   9
ATOM      9  C   UNL     1       8.859 -22.717  20.702  1.00  0.00     0.000 C 
BRANCH   9  10
ATOM     10  C   UNL     1      10.120 -21.854  20.528  1.00  0.00     0.000 C 
BRANCH  10  11
ATOM     11  C   UNL     1      11.293 -22.334  21.401  1.00  0.00    -0.000 C 
BRANCH  11  12
ATOM     12  C   UNL     1      11.173 -23.815  21.789  1.00  0.00    -0.000 C 
BRANCH  12  13
ATOM     13  C   UNL     1      12.271 -24.260  22.766  1.00  0.00    -0.003 C 
ATOM     14  C   UNL     1      11.685 -25.069  23.920  1.00  0.00     0.004 C 
ENDBRANCH  12  13
ENDBRANCH  11  12
ENDBRANCH  10  11
ENDBRANCH   9  10
ENDBRANCH   1   9
TORSDOF 9
ENDMDL
MODEL 4
REMARK VINA RESULT:    -4.592      3.496      6.593
REMARK INTER + INTRA:          -7.964
REMARK INTER:                  -7.322
REMARK INTRA:                  -0.643
REMARK UNBOUND:                -0.956
REMARK SMILES CCCCCCCCCC=CC(=O)[O-]
REMARK SMILES IDX 7 1 8 2 9 3 10 4 11 5 12 6 13 7 14 8 6 9 5 10 4 11 3 12 2 13
REMARK SMILES IDX 1 14
REMARK H PARENT
REMARK Flexibility Score: inf
ROOT
ATOM      1  C   UNL     1      13.391 -14.959  29.011  1.00  0.00     0.000 C 
ENDROOT
BRANCH   1   2
ATOM      2  C   UNL     1      13.863 -15.170  30.459  1.00  0.00     0.004 C 
BRANCH   2   3
ATOM      3  C   UNL     1      13.745 -16.633  30.912  1.00  0.00     0.027 C 
BRANCH   3   4
ATOM      4  C   UNL     1      12.352 -16.944  31.381  1.00  0.00    -0.025 C 
ATOM      5  C   UNL     1      11.641 -16.062  32.091  1.00  0.00     0.020 C 
BRANCH   5   6
ATOM      6  C   UNL     1      10.271 -16.348  32.543  1.00  0.00     0.064 C 
ATOM      7  O   UNL     1       9.365 -15.492  32.359  1.00  0.00    -0.545 OA
ATOM      8  O   UNL     1       9.959 -17.547  33.173  1.00  0.00    -0.545 OA
ENDBRANCH   5   6
ENDBRANCH   3   4
ENDBRANCH   2   3
ENDBRANCH   1   2
BRANCH   1   9
ATOM      9  C   UNL     1      12.058 -14.196  28.931  1.00  0.00     0.000 C 
BRANCH   9  10
ATOM     10  C   UNL     1      12.209 -12.813  28.276  1.00  0.00     0.000 C 
BRANCH  10  11
ATOM     11  C   UNL     1      13.451 -12.717  27.371  1.00  0.00    -0.000 C 
BRANCH  11  12
ATOM     12  C   UNL     1      13.116 -12.199  25.964  1.00  0.00    -0.000 C 
BRANCH  12  13
ATOM     13  C   UNL     1      11.650 -12.447  25.577  1.00  0.00    -0.003 C 
ATOM     14  C   UNL     1      11.170 -11.419  24.556  1.00  0.00     0.004 C 
ENDBRANCH  12  13
ENDBRANCH  11  12
ENDBRANCH  10  11
ENDBRANCH   9  10
ENDBRANCH   1   9
TORSDOF 9
ENDMDL
MODEL 5
REMARK VINA RESULT:    -4.549      5.090      7.557
REMARK INTER + INTRA:          -7.898
REMARK INTER:                  -7.433
REMARK INTRA:                  -0.465
REMARK UNBOUND:                -0.956
REMARK SMILES CCCCCCCCCC=CC(=O)[O-]
REMARK SMILES IDX 7 1 8 2 9 3 10 4 11 5 12 6 13 7 14 8 6 9 5 10 4 11 3 12 2 13
REMARK SMILES IDX 1 14
REMARK H PARENT
REMARK Flexibility Score: inf
ROOT
ATOM      1  C   UNL     1      11.187 -15.786  32.196  1.00  0.00     0.000 C 
ENDROOT
BRANCH   1   2
ATOM      2  C   UNL     1      10.419 -17.090  32.465  1.00  0.00     0.004 C 
BRANCH   2   3
ATOM      3  C   UNL     1      11.083 -18.313  31.814  1.00  0.00     0.027 C 
BRANCH   3   4
ATOM      4  C   UNL     1      10.442 -19.589  32.280  1.00  0.00    -0.025 C 
ATOM      5  C   UNL     1       9.898 -20.454  31.417  1.00  0.00     0.020 C 
BRANCH   5   6
ATOM      6  C   UNL     1       9.281 -21.713  31.858  1.00  0.00     0.064 C 
ATOM      7  O   UNL     1       8.068 -21.935  31.602  1.00  0.00    -0.545 OA
ATOM      8  O   UNL     1      10.015 -22.665  32.558  1.00  0.00    -0.545 OA
ENDBRANCH   5   6
ENDBRANCH   3   4
ENDBRANCH   2   3
ENDBRANCH   1   2
BRANCH   1   9
ATOM      9  C   UNL     1      12.631 -16.038  31.729  1.00  0.00     0.000 C 
BRANCH   9  10
ATOM     10  C   UNL     1      13.011 -15.186  30.506  1.00  0.00     0.000 C 
BRANCH  10  11
ATOM     11  C   UNL     1      11.786 -14.743  29.686  1.00  0.00    -0.000 C 
BRANCH  11  12
ATOM     12  C   UNL     1      12.112 -14.546  28.198  1.00  0.00    -0.000 C 
BRANCH  12  13
ATOM     13  C   UNL     1      11.767 -13.134  27.701  1.00  0.00    -0.003 C 
ATOM     14  C   UNL     1      11.474 -13.136  26.203  1.00  0.00     0.004 C 
ENDBRANCH  12  13
ENDBRANCH  11  12
ENDBRANCH  10  11
ENDBRANCH   9  10
ENDBRANCH   1   9
TORSDOF 9
ENDMDL
MODEL 6
REMARK VINA RESULT:    -4.534     10.016     11.442
REMARK INTER + INTRA:          -7.876
REMARK INTER:                  -6.762
REMARK INTRA:                  -1.114
REMARK UNBOUND:                -0.956
REMARK SMILES CCCCCCCCCC=CC(=O)[O-]
REMARK SMILES IDX 7 1 8 2 9 3 10 4 11 5 12 6 13 7 14 8 6 9 5 10 4 11 3 12 2 13
REMARK SMILES IDX 1 14
REMARK H PARENT
REMARK Flexibility Score: inf
ROOT
ATOM      1  C   UNL     1       6.870 -16.968  22.018  1.00  0.00     0.000 C 
ENDROOT
BRANCH   1   2
ATOM      2  C   UNL     1       6.883 -17.799  20.725  1.00  0.00     0.004 C 
BRANCH   2   3
ATOM      3  C   UNL     1       6.197 -19.163  20.892  1.00  0.00     0.027 C 
BRANCH   3   4
ATOM      4  C   UNL     1       7.186 -20.286  20.766  1.00  0.00    -0.025 C 
ATOM      5  C   UNL     1       8.503 -20.071  20.865  1.00  0.00     0.020 C 
BRANCH   5   6
ATOM      6  C   UNL     1       9.481 -21.163  20.759  1.00  0.00     0.064 C 
ATOM      7  O   UNL     1      10.660 -20.908  20.396  1.00  0.00    -0.545 OA
ATOM      8  O   UNL     1       9.127 -22.475  21.052  1.00  0.00    -0.545 OA
ENDBRANCH   5   6
ENDBRANCH   3   4
ENDBRANCH   2   3
ENDBRANCH   1   2
BRANCH   1   9
ATOM      9  C   UNL     1       6.425 -15.514  21.782  1.00  0.00     0.000 C 
BRANCH   9  10
ATOM     10  C   UNL     1       5.137 -15.421  20.948  1.00  0.00     0.000 C 
BRANCH  10  11
ATOM     11  C   UNL     1       3.873 -15.735  21.769  1.00  0.00    -0.000 C 
BRANCH  11  12
ATOM     12  C   UNL     1       3.188 -17.036  21.323  1.00  0.00    -0.000 C 
BRANCH  12  13
ATOM     13  C   UNL     1       2.889 -17.978  22.499  1.00  0.00    -0.003 C 
ATOM     14  C   UNL     1       3.791 -17.673  23.692  1.00  0.00     0.004 C 
ENDBRANCH  12  13
ENDBRANCH  11  12
ENDBRANCH  10  11
ENDBRANCH   9  10
ENDBRANCH   1   9
TORSDOF 9
ENDMDL
MODEL 7
REMARK VINA RESULT:    -4.494     10.681     12.232
REMARK INTER + INTRA:          -7.814
REMARK INTER:                  -7.489
REMARK INTRA:                  -0.325
REMARK UNBOUND:                -0.956
REMARK SMILES CCCCCCCCCC=CC(=O)[O-]
REMARK SMILES IDX 7 1 8 2 9 3 10 4 11 5 12 6 13 7 14 8 6 9 5 10 4 11 3 12 2 13
REMARK SMILES IDX 1 14
REMARK H PARENT
REMARK Flexibility Score: inf
ROOT
ATOM      1  C   UNL     1       8.283 -22.595  20.751  1.00  0.00     0.000 C 
ENDROOT
BRANCH   1   2
ATOM      2  C   UNL     1       9.660 -21.968  21.021  1.00  0.00     0.004 C 
BRANCH   2   3
ATOM      3  C   UNL     1      10.816 -22.949  20.770  1.00  0.00     0.027 C 
BRANCH   3   4
ATOM      4  C   UNL     1      11.001 -23.878  21.936  1.00  0.00    -0.025 C 
ATOM      5  C   UNL     1      12.178 -23.987  22.562  1.00  0.00     0.020 C 
BRANCH   5   6
ATOM      6  C   UNL     1      12.369 -24.880  23.714  1.00  0.00     0.064 C 
ATOM      7  O   UNL     1      11.430 -25.041  24.538  1.00  0.00    -0.545 OA
ATOM      8  O   UNL     1      13.571 -25.550  23.911  1.00  0.00    -0.545 OA
ENDBRANCH   5   6
ENDBRANCH   3   4
ENDBRANCH   2   3
ENDBRANCH   1   2
BRANCH   1   9
ATOM      9  C   UNL     1       7.148 -21.556  20.772  1.00  0.00     0.000 C 
BRANCH   9  10
ATOM     10  C   UNL     1       7.673 -20.111  20.765  1.00  0.00     0.000 C 
BRANCH  10  11
ATOM     11  C   UNL     1       6.663 -19.109  21.354  1.00  0.00    -0.000 C 
BRANCH  11  12
ATOM     12  C   UNL     1       6.809 -17.702  20.754  1.00  0.00    -0.000 C 
BRANCH  12  13
ATOM     13  C   UNL     1       6.560 -16.592  21.786  1.00  0.00    -0.003 C 
ATOM     14  C   UNL     1       6.127 -15.296  21.105  1.00  0.00     0.004 C 
ENDBRANCH  12  13
ENDBRANCH  11  12
ENDBRANCH  10  11
ENDBRANCH   9  10
ENDBRANCH   1   9
TORSDOF 9
ENDMDL
MODEL 8
REMARK VINA RESULT:    -4.489      1.355      1.785
REMARK INTER + INTRA:          -7.807
REMARK INTER:                  -7.299
REMARK INTRA:                  -0.508
REMARK UNBOUND:                -0.956
REMARK SMILES CCCCCCCCCC=CC(=O)[O-]
REMARK SMILES IDX 7 1 8 2 9 3 10 4 11 5 12 6 13 7 14 8 6 9 5 10 4 11 3 12 2 13
REMARK SMILES IDX 1 14
REMARK H PARENT
REMARK Flexibility Score: inf
ROOT
ATOM      1  C   UNL     1      13.800 -15.422  30.433  1.00  0.00     0.000 C 
ENDROOT
BRANCH   1   2
ATOM      2  C   UNL     1      12.945 -15.442  29.155  1.00  0.00     0.004 C 
BRANCH   2   3
ATOM      3  C   UNL     1      11.884 -14.331  29.136  1.00  0.00     0.027 C 
BRANCH   3   4
ATOM      4  C   UNL     1      12.174 -13.324  28.060  1.00  0.00    -0.025 C 
ATOM      5  C   UNL     1      11.591 -13.398  26.859  1.00  0.00     0.020 C 
BRANCH   5   6
ATOM      6  C   UNL     1      11.854 -12.410  25.802  1.00  0.00     0.064 C 
ATOM      7  O   UNL     1      10.931 -12.088  25.009  1.00  0.00    -0.545 OA
ATOM      8  O   UNL     1      13.108 -11.827  25.661  1.00  0.00    -0.545 OA
ENDBRANCH   5   6
ENDBRANCH   3   4
ENDBRANCH   2   3
ENDBRANCH   1   2
BRANCH   1   9
ATOM      9  C   UNL     1      13.367 -16.494  31.449  1.00  0.00     0.000 C 
BRANCH   9  10
ATOM     10  C   UNL     1      12.192 -16.032  32.328  1.00  0.00     0.000 C 
BRANCH  10  11
ATOM     11  C   UNL     1      10.863 -16.710  31.948  1.00  0.00    -0.000 C 
BRANCH  11  12
ATOM     12  C   UNL     1      10.937 -18.241  32.037  1.00  0.00    -0.000 C 
BRANCH  12  13
ATOM     13  C   UNL     1      10.006 -18.815  33.116  1.00  0.00    -0.003 C 
ATOM     14  C   UNL     1      10.344 -20.274  33.414  1.00  0.00     0.004 C 
ENDBRANCH  12  13
ENDBRANCH  11  12
ENDBRANCH  10  11
ENDBRANCH   9  10
ENDBRANCH   1   9
TORSDOF 9
ENDMDL
MODEL 9
REMARK VINA RESULT:    -4.477      3.826      6.361
REMARK INTER + INTRA:          -7.789
REMARK INTER:                  -6.789
REMARK INTRA:                  -1.000
REMARK UNBOUND:                -0.956
REMARK SMILES CCCCCCCCCC=CC(=O)[O-]
REMARK SMILES IDX 7 1 8 2 9 3 10 4 11 5 12 6 13 7 14 8 6 9 5 10 4 11 3 12 2 13
REMARK SMILES IDX 1 14
REMARK H PARENT
REMARK Flexibility Score: inf
ROOT
ATOM      1  C   UNL     1      12.304 -14.280  29.391  1.00  0.00     0.000 C 
ENDROOT
BRANCH   1   2
ATOM      2  C   UNL     1      13.780 -14.560  29.717  1.00  0.00     0.004 C 
BRANCH   2   3
ATOM      3  C   UNL     1      13.953 -15.603  30.831  1.00  0.00     0.027 C 
BRANCH   3   4
ATOM      4  C   UNL     1      12.622 -16.107  31.312  1.00  0.00    -0.025 C 
ATOM      5  C   UNL     1      12.397 -17.412  31.504  1.00  0.00     0.020 C 
BRANCH   5   6
ATOM      6  C   UNL     1      11.104 -17.917  31.989  1.00  0.00     0.064 C 
ATOM      7  O   UNL     1      10.758 -19.098  31.720  1.00  0.00    -0.545 OA
ATOM      8  O   UNL     1      10.255 -17.112  32.739  1.00  0.00    -0.545 OA
ENDBRANCH   5   6
ENDBRANCH   3   4
ENDBRANCH   2   3
ENDBRANCH   1   2
BRANCH   1   9
ATOM      9  C   UNL     1      12.116 -13.001  28.558  1.00  0.00     0.000 C 
BRANCH   9  10
ATOM     10  C   UNL     1      12.435 -13.215  27.069  1.00  0.00     0.000 C 
BRANCH  10  11
ATOM     11  C   UNL     1      11.565 -14.312  26.427  1.00  0.00    -0.000 C 
BRANCH  11  12
ATOM     12  C   UNL     1      12.392 -15.318  25.612  1.00  0.00    -0.000 C 
BRANCH  12  13
ATOM     13  C   UNL     1      13.040 -16.398  26.491  1.00  0.00    -0.003 C 
ATOM     14  C   UNL     1      14.561 -16.272  26.485  1.00  0.00     0.004 C 
ENDBRANCH  12  13
ENDBRANCH  11  12
ENDBRANCH  10  11
ENDBRANCH   9  10
ENDBRANCH   1   9
TORSDOF 9
ENDMDL
