MODEL 1
REMARK VINA RESULT:    -5.319      0.000      0.000
REMARK INTER + INTRA:          -7.522
REMARK INTER:                  -7.496
REMARK INTRA:                  -0.026
REMARK UNBOUND:                -0.026
REMARK SMILES CCCCCCCCC(=O)[O-]
REMARK SMILES IDX 6 1 7 2 8 3 9 4 10 5 11 6 5 7 4 8 3 9 2 10 1 11
REMARK H PARENT
REMARK Flexibility Score: inf
ROOT
ATOM      1  C   UNL     1      12.009  -0.492  65.005  1.00  0.00     0.000 C 
ENDROOT
BRANCH   1   2
ATOM      2  C   UNL     1      12.917   0.570  65.638  1.00  0.00     0.006 C 
BRANCH   2   3
ATOM      3  C   UNL     1      12.466   1.981  65.251  1.00  0.00     0.053 C 
BRANCH   3   4
ATOM      4  C   UNL     1      11.085   2.249  65.762  1.00  0.00     0.041 C 
ATOM      5  O   UNL     1      10.175   2.603  64.968  1.00  0.00    -0.550 OA
ATOM      6  O   UNL     1      10.792   2.060  67.106  1.00  0.00    -0.550 OA
ENDBRANCH   3   4
ENDBRANCH   2   3
ENDBRANCH   1   2
BRANCH   1   7
ATOM      7  C   UNL     1      11.613  -1.561  66.034  1.00  0.00     0.000 C 
BRANCH   7   8
ATOM      8  C   UNL     1      11.693  -2.987  65.467  1.00  0.00    -0.000 C 
BRANCH   8   9
ATOM      9  C   UNL     1      10.389  -3.425  64.782  1.00  0.00    -0.000 C 
BRANCH   9  10
ATOM     10  C   UNL     1      10.066  -2.519  63.589  1.00  0.00    -0.003 C 
ATOM     11  C   UNL     1      10.160  -3.286  62.272  1.00  0.00     0.004 C 
ENDBRANCH   9  10
ENDBRANCH   8   9
ENDBRANCH   7   8
ENDBRANCH   1   7
TORSDOF 7
ENDMDL
MODEL 2
REMARK VINA RESULT:    -5.097      2.834      5.372
REMARK INTER + INTRA:          -7.209
REMARK INTER:                  -6.848
REMARK INTRA:                  -0.361
REMARK UNBOUND:                -0.026
REMARK SMILES CCCCCCCCC(=O)[O-]
REMARK SMILES IDX 6 1 7 2 8 3 9 4 10 5 11 6 5 7 4 8 3 9 2 10 1 11
REMARK H PARENT
REMARK Flexibility Score: inf
ROOT
ATOM      1  C   UNL     1      12.739   0.430  64.981  1.00  0.00     0.000 C 
ENDROOT
BRANCH   1   2
ATOM      2  C   UNL     1      11.663  -0.572  64.547  1.00  0.00     0.006 C 
BRANCH   2   3
ATOM      3  C   UNL     1      11.614  -1.773  65.495  1.00  0.00     0.053 C 
BRANCH   3   4
ATOM      4  C   UNL     1      10.807  -2.882  64.896  1.00  0.00     0.041 C 
ATOM      5  O   UNL     1      10.702  -3.983  65.496  1.00  0.00    -0.550 OA
ATOM      6  O   UNL     1      10.132  -2.681  63.699  1.00  0.00    -0.550 OA
ENDBRANCH   3   4
ENDBRANCH   2   3
ENDBRANCH   1   2
BRANCH   1   7
ATOM      7  C   UNL     1      12.741   0.610  66.507  1.00  0.00     0.000 C 
BRANCH   7   8
ATOM      8  C   UNL     1      13.115   2.037  66.935  1.00  0.00    -0.000 C 
BRANCH   8   9
ATOM      9  C   UNL     1      11.969   2.755  67.665  1.00  0.00    -0.000 C 
BRANCH   9  10
ATOM     10  C   UNL     1      10.607   2.240  67.185  1.00  0.00    -0.003 C 
ATOM     11  C   UNL     1       9.472   3.125  67.694  1.00  0.00     0.004 C 
ENDBRANCH   9  10
ENDBRANCH   8   9
ENDBRANCH   7   8
ENDBRANCH   1   7
TORSDOF 7
ENDMDL
MODEL 3
REMARK VINA RESULT:    -3.729     17.252     18.961
REMARK INTER + INTRA:          -5.281
REMARK INTER:                  -4.602
REMARK INTRA:                  -0.679
REMARK UNBOUND:                -0.026
REMARK SMILES CCCCCCCCC(=O)[O-]
REMARK SMILES IDX 6 1 7 2 8 3 9 4 10 5 11 6 5 7 4 8 3 9 2 10 1 11
REMARK H PARENT
REMARK Flexibility Score: inf
ROOT
ATOM      1  C   UNL     1      -5.216 -11.487  65.555  1.00  0.00     0.000 C 
ENDROOT
BRANCH   1   2
ATOM      2  C   UNL     1      -4.818 -10.629  64.347  1.00  0.00     0.006 C 
BRANCH   2   3
ATOM      3  C   UNL     1      -3.371 -10.144  64.469  1.00  0.00     0.053 C 
BRANCH   3   4
ATOM      4  C   UNL     1      -3.333  -8.704  64.871  1.00  0.00     0.041 C 
ATOM      5  O   UNL     1      -2.994  -7.823  64.038  1.00  0.00    -0.550 OA
ATOM      6  O   UNL     1      -3.719  -8.330  66.152  1.00  0.00    -0.550 OA
ENDBRANCH   3   4
ENDBRANCH   2   3
ENDBRANCH   1   2
BRANCH   1   7
ATOM      7  C   UNL     1      -3.987 -12.169  66.174  1.00  0.00     0.000 C 
BRANCH   7   8
ATOM      8  C   UNL     1      -4.069 -13.702  66.120  1.00  0.00    -0.000 C 
BRANCH   8   9
ATOM      9  C   UNL     1      -5.001 -14.205  65.006  1.00  0.00    -0.000 C 
BRANCH   9  10
ATOM     10  C   UNL     1      -4.201 -14.587  63.755  1.00  0.00    -0.003 C 
ATOM     11  C   UNL     1      -4.898 -14.104  62.486  1.00  0.00     0.004 C 
ENDBRANCH   9  10
ENDBRANCH   8   9
ENDBRANCH   7   8
ENDBRANCH   1   7
TORSDOF 7
ENDMDL
MODEL 4
REMARK VINA RESULT:    -3.683     17.949     19.707
REMARK INTER + INTRA:          -5.217
REMARK INTER:                  -4.616
REMARK INTRA:                  -0.601
REMARK UNBOUND:                -0.026
REMARK SMILES CCCCCCCCC(=O)[O-]
REMARK SMILES IDX 6 1 7 2 8 3 9 4 10 5 11 6 5 7 4 8 3 9 2 10 1 11
REMARK H PARENT
REMARK Flexibility Score: inf
ROOT
ATOM      1  C   UNL     1      -3.513 -11.105  65.702  1.00  0.00     0.000 C 
ENDROOT
BRANCH   1   2
ATOM      2  C   UNL     1      -4.331 -12.383  65.487  1.00  0.00     0.006 C 
BRANCH   2   3
ATOM      3  C   UNL     1      -4.852 -12.469  64.050  1.00  0.00     0.053 C 
BRANCH   3   4
ATOM      4  C   UNL     1      -4.632 -13.840  63.494  1.00  0.00     0.041 C 
ATOM      5  O   UNL     1      -4.165 -14.752  64.224  1.00  0.00    -0.550 OA
ATOM      6  O   UNL     1      -4.990 -14.123  62.182  1.00  0.00    -0.550 OA
ENDBRANCH   3   4
ENDBRANCH   2   3
ENDBRANCH   1   2
BRANCH   1   7
ATOM      7  C   UNL     1      -3.372 -10.314  64.393  1.00  0.00     0.000 C 
BRANCH   7   8
ATOM      8  C   UNL     1      -3.232  -8.802  64.625  1.00  0.00    -0.000 C 
BRANCH   8   9
ATOM      9  C   UNL     1      -4.208  -8.274  65.688  1.00  0.00    -0.000 C 
BRANCH   9  10
ATOM     10  C   UNL     1      -5.490  -7.741  65.037  1.00  0.00    -0.003 C 
ATOM     11  C   UNL     1      -6.604  -8.783  65.079  1.00  0.00     0.004 C 
ENDBRANCH   9  10
ENDBRANCH   8   9
ENDBRANCH   7   8
ENDBRANCH   1   7
TORSDOF 7
ENDMDL
MODEL 5
REMARK VINA RESULT:    -3.645     18.168     19.909
REMARK INTER + INTRA:          -5.163
REMARK INTER:                  -4.460
REMARK INTRA:                  -0.703
REMARK UNBOUND:                -0.026
REMARK SMILES CCCCCCCCC(=O)[O-]
REMARK SMILES IDX 6 1 7 2 8 3 9 4 10 5 11 6 5 7 4 8 3 9 2 10 1 11
REMARK H PARENT
REMARK Flexibility Score: inf
ROOT
ATOM      1  C   UNL     1      -5.374 -12.210  67.515  1.00  0.00     0.000 C 
ENDROOT
BRANCH   1   2
ATOM      2  C   UNL     1      -4.938 -10.903  66.842  1.00  0.00     0.006 C 
BRANCH   2   3
ATOM      3  C   UNL     1      -3.629 -11.091  66.070  1.00  0.00     0.053 C 
BRANCH   3   4
ATOM      4  C   UNL     1      -3.783 -10.627  64.656  1.00  0.00     0.041 C 
ATOM      5  O   UNL     1      -2.794 -10.165  64.031  1.00  0.00    -0.550 OA
ATOM      6  O   UNL     1      -5.008 -10.752  64.013  1.00  0.00    -0.550 OA
ENDBRANCH   3   4
ENDBRANCH   2   3
ENDBRANCH   1   2
BRANCH   1   7
ATOM      7  C   UNL     1      -4.458 -13.373  67.105  1.00  0.00     0.000 C 
BRANCH   7   8
ATOM      8  C   UNL     1      -5.215 -14.499  66.385  1.00  0.00    -0.000 C 
BRANCH   8   9
ATOM      9  C   UNL     1      -5.629 -14.114  64.956  1.00  0.00    -0.000 C 
BRANCH   9  10
ATOM     10  C   UNL     1      -4.492 -14.389  63.965  1.00  0.00    -0.003 C 
ATOM     11  C   UNL     1      -4.944 -14.147  62.527  1.00  0.00     0.004 C 
ENDBRANCH   9  10
ENDBRANCH   8   9
ENDBRANCH   7   8
ENDBRANCH   1   7
TORSDOF 7
ENDMDL
MODEL 6
REMARK VINA RESULT:    -3.583     18.168     20.152
REMARK INTER + INTRA:          -5.075
REMARK INTER:                  -4.416
REMARK INTRA:                  -0.659
REMARK UNBOUND:                -0.026
REMARK SMILES CCCCCCCCC(=O)[O-]
REMARK SMILES IDX 6 1 7 2 8 3 9 4 10 5 11 6 5 7 4 8 3 9 2 10 1 11
REMARK H PARENT
REMARK Flexibility Score: inf
ROOT
ATOM      1  C   UNL     1      -4.532 -13.330  66.773  1.00  0.00     0.000 C 
ENDROOT
BRANCH   1   2
ATOM      2  C   UNL     1      -4.280 -14.321  65.630  1.00  0.00     0.006 C 
BRANCH   2   3
ATOM      3  C   UNL     1      -5.377 -14.223  64.566  1.00  0.00     0.053 C 
BRANCH   3   4
ATOM      4  C   UNL     1      -4.810 -13.728  63.273  1.00  0.00     0.041 C 
ATOM      5  O   UNL     1      -3.607 -13.363  63.208  1.00  0.00    -0.550 OA
ATOM      6  O   UNL     1      -5.597 -13.714  62.128  1.00  0.00    -0.550 OA
ENDBRANCH   3   4
ENDBRANCH   2   3
ENDBRANCH   1   2
BRANCH   1   7
ATOM      7  C   UNL     1      -3.974 -11.941  66.431  1.00  0.00     0.000 C 
BRANCH   7   8
ATOM      8  C   UNL     1      -5.076 -10.925  66.094  1.00  0.00    -0.000 C 
BRANCH   8   9
ATOM      9  C   UNL     1      -4.892 -10.290  64.707  1.00  0.00    -0.000 C 
BRANCH   9  10
ATOM     10  C   UNL     1      -3.405 -10.075  64.398  1.00  0.00    -0.003 C 
ATOM     11  C   UNL     1      -3.063  -8.589  64.338  1.00  0.00     0.004 C 
ENDBRANCH   9  10
ENDBRANCH   8   9
ENDBRANCH   7   8
ENDBRANCH   1   7
TORSDOF 7
ENDMDL
MODEL 7
REMARK VINA RESULT:    -3.483      8.755      9.946
REMARK INTER + INTRA:          -4.935
REMARK INTER:                  -4.636
REMARK INTRA:                  -0.299
REMARK UNBOUND:                -0.026
REMARK SMILES CCCCCCCCC(=O)[O-]
REMARK SMILES IDX 6 1 7 2 8 3 9 4 10 5 11 6 5 7 4 8 3 9 2 10 1 11
REMARK H PARENT
REMARK Flexibility Score: inf
ROOT
ATOM      1  C   UNL     1       4.606  -4.078  70.706  1.00  0.00     0.000 C 
ENDROOT
BRANCH   1   2
ATOM      2  C   UNL     1       5.307  -5.331  70.168  1.00  0.00     0.006 C 
BRANCH   2   3
ATOM      3  C   UNL     1       5.789  -6.227  71.311  1.00  0.00     0.053 C 
BRANCH   3   4
ATOM      4  C   UNL     1       6.700  -7.294  70.793  1.00  0.00     0.041 C 
ATOM      5  O   UNL     1       6.227  -8.294  70.192  1.00  0.00    -0.550 OA
ATOM      6  O   UNL     1       8.076  -7.161  70.931  1.00  0.00    -0.550 OA
ENDBRANCH   3   4
ENDBRANCH   2   3
ENDBRANCH   1   2
BRANCH   1   7
ATOM      7  C   UNL     1       4.077  -3.206  69.558  1.00  0.00     0.000 C 
BRANCH   7   8
ATOM      8  C   UNL     1       4.575  -3.672  68.181  1.00  0.00    -0.000 C 
BRANCH   8   9
ATOM      9  C   UNL     1       4.121  -2.745  67.044  1.00  0.00    -0.000 C 
BRANCH   9  10
ATOM     10  C   UNL     1       3.106  -3.450  66.135  1.00  0.00    -0.003 C 
ATOM     11  C   UNL     1       1.676  -3.187  66.597  1.00  0.00     0.004 C 
ENDBRANCH   9  10
ENDBRANCH   8   9
ENDBRANCH   7   8
ENDBRANCH   1   7
TORSDOF 7
ENDMDL
MODEL 8
REMARK VINA RESULT:    -3.437     17.181     19.136
REMARK INTER + INTRA:          -4.869
REMARK INTER:                  -4.633
REMARK INTRA:                  -0.236
REMARK UNBOUND:                -0.026
REMARK SMILES CCCCCCCCC(=O)[O-]
REMARK SMILES IDX 6 1 7 2 8 3 9 4 10 5 11 6 5 7 4 8 3 9 2 10 1 11
REMARK H PARENT
REMARK Flexibility Score: inf
ROOT
ATOM      1  C   UNL     1      -3.507 -11.342  65.860  1.00  0.00     0.000 C 
ENDROOT
BRANCH   1   2
ATOM      2  C   UNL     1      -4.384 -12.550  65.510  1.00  0.00     0.006 C 
BRANCH   2   3
ATOM      3  C   UNL     1      -4.786 -12.528  64.032  1.00  0.00     0.053 C 
BRANCH   3   4
ATOM      4  C   UNL     1      -4.647 -13.891  63.432  1.00  0.00     0.041 C 
ATOM      5  O   UNL     1      -4.167 -14.836  64.110  1.00  0.00    -0.550 OA
ATOM      6  O   UNL     1      -5.094 -14.130  62.138  1.00  0.00    -0.550 OA
ENDBRANCH   3   4
ENDBRANCH   2   3
ENDBRANCH   1   2
BRANCH   1   7
ATOM      7  C   UNL     1      -3.512 -10.309  64.723  1.00  0.00     0.000 C 
BRANCH   7   8
ATOM      8  C   UNL     1      -3.763  -8.878  65.223  1.00  0.00    -0.000 C 
BRANCH   8   9
ATOM      9  C   UNL     1      -3.020  -7.822  64.391  1.00  0.00    -0.000 C 
BRANCH   9  10
ATOM     10  C   UNL     1      -2.693  -6.587  65.239  1.00  0.00    -0.003 C 
ATOM     11  C   UNL     1      -2.238  -5.422  64.364  1.00  0.00     0.004 C 
ENDBRANCH   9  10
ENDBRANCH   8   9
ENDBRANCH   7   8
ENDBRANCH   1   7
TORSDOF 7
ENDMDL
MODEL 9
REMARK VINA RESULT:    -3.413      7.907      9.367
REMARK INTER + INTRA:          -4.836
REMARK INTER:                  -4.084
REMARK INTRA:                  -0.751
REMARK UNBOUND:                -0.026
REMARK SMILES CCCCCCCCC(=O)[O-]
REMARK SMILES IDX 6 1 7 2 8 3 9 4 10 5 11 6 5 7 4 8 3 9 2 10 1 11
REMARK H PARENT
REMARK Flexibility Score: inf
ROOT
ATOM      1  C   UNL     1       3.286  -1.319  65.476  1.00  0.00     0.000 C 
ENDROOT
BRANCH   1   2
ATOM      2  C   UNL     1       3.014  -2.727  66.020  1.00  0.00     0.006 C 
BRANCH   2   3
ATOM      3  C   UNL     1       4.151  -3.194  66.932  1.00  0.00     0.053 C 
BRANCH   3   4
ATOM      4  C   UNL     1       3.720  -3.163  68.364  1.00  0.00     0.041 C 
ATOM      5  O   UNL     1       4.542  -3.437  69.278  1.00  0.00    -0.550 OA
ATOM      6  O   UNL     1       2.424  -2.786  68.693  1.00  0.00    -0.550 OA
ENDBRANCH   3   4
ENDBRANCH   2   3
ENDBRANCH   1   2
BRANCH   1   7
ATOM      7  C   UNL     1       2.146  -0.357  65.841  1.00  0.00     0.000 C 
BRANCH   7   8
ATOM      8  C   UNL     1       2.638   0.886  66.598  1.00  0.00    -0.000 C 
BRANCH   8   9
ATOM      9  C   UNL     1       3.200   0.549  67.988  1.00  0.00    -0.000 C 
BRANCH   9  10
ATOM     10  C   UNL     1       4.607   1.132  68.166  1.00  0.00    -0.003 C 
ATOM     11  C   UNL     1       5.541   0.125  68.830  1.00  0.00     0.004 C 
ENDBRANCH   9  10
ENDBRANCH   8   9
ENDBRANCH   7   8
ENDBRANCH   1   7
TORSDOF 7
ENDMDL
