MODEL 1
REMARK VINA RESULT:    -5.538      0.000      0.000
REMARK INTER + INTRA:          -7.912
REMARK INTER:                  -7.318
REMARK INTRA:                  -0.594
REMARK UNBOUND:                -0.594
REMARK SMILES CC[C@H](C=C[C@@H](C)[C@@H]1CC[C@@H]2C3=CC[C@@H]4C[C@H](O)CC[C@@]4(C)[C@@H]3CC[C@@]21C)C(C)C
REMARK SMILES IDX 6 1 7 2 5 3 4 4 3 5 2 6 1 7 28 8 29 9 30 10 8 11 9 12 26 13
REMARK SMILES IDX 10 14 11 15 25 16 27 17 12 18 24 19 23 20 13 21 21 22 14 23
REMARK SMILES IDX 15 24 20 25 22 26 16 27 19 28 17 29 18 30
REMARK H PARENT 18 31
REMARK Flexibility Score: inf
ROOT
ATOM      1  C   UNL     1      38.552   2.698  -8.473  1.00  0.00     0.012 C 
ATOM      2  C   UNL     1      38.512   4.072  -7.776  1.00  0.00     0.012 C 
ENDROOT
BRANCH   1   3
ATOM      3  C   UNL     1      39.936   2.107  -8.311  1.00  0.00    -0.028 C 
ATOM      4  C   UNL     1      40.953   2.835  -7.817  1.00  0.00    -0.027 C 
BRANCH   4   5
ATOM      5  C   UNL     1      42.337   2.255  -7.597  1.00  0.00     0.014 C 
BRANCH   5   6
ATOM      6  C   UNL     1      43.343   2.911  -8.588  1.00  0.00     0.004 C 
ATOM      7  C   UNL     1      43.372   4.436  -8.472  1.00  0.00     0.004 C 
ENDBRANCH   5   6
BRANCH   5   8
ATOM      8  C   UNL     1      42.774   2.380  -6.102  1.00  0.00    -0.011 C 
ATOM      9  C   UNL     1      41.679   1.862  -5.151  1.00  0.00     0.008 C 
ATOM     10  C   UNL     1      44.081   1.622  -5.816  1.00  0.00     0.008 C 
ENDBRANCH   5   8
ENDBRANCH   4   5
ENDBRANCH   1   3
BRANCH   1  11
ATOM     11  C   UNL     1      38.150   2.702  -9.993  1.00  0.00     0.002 C 
ATOM     12  C   UNL     1      38.920   1.666 -10.813  1.00  0.00     0.005 C 
ATOM     13  C   UNL     1      38.295   4.044 -10.807  1.00  0.00    -0.023 C 
ATOM     14  C   UNL     1      40.061   2.426 -11.461  1.00  0.00     0.009 C 
ATOM     15  C   UNL     1      39.534   3.845 -11.742  1.00  0.00     0.021 C 
ATOM     16  C   UNL     1      38.428   5.310  -9.910  1.00  0.00     0.008 C 
ATOM     17  C   UNL     1      37.024   4.202 -11.694  1.00  0.00     0.012 C 
ATOM     18  C   UNL     1      40.586   4.957 -11.640  1.00  0.00    -0.067 C 
ATOM     19  C   UNL     1      38.781   6.560 -10.716  1.00  0.00     0.009 C 
ATOM     20  C   UNL     1      40.100   6.414 -11.535  1.00  0.00     0.021 C 
ATOM     21  C   UNL     1      41.878   4.697 -11.971  1.00  0.00    -0.027 C 
ATOM     22  C   UNL     1      41.238   7.410 -11.099  1.00  0.00    -0.023 C 
ATOM     23  C   UNL     1      42.980   5.718 -11.902  1.00  0.00     0.031 C 
ATOM     24  C   UNL     1      42.453   7.149 -12.049  1.00  0.00     0.002 C 
ATOM     25  C   UNL     1      40.774   8.886 -11.308  1.00  0.00     0.010 C 
ATOM     26  C   UNL     1      41.606   7.176  -9.603  1.00  0.00     0.012 C 
ATOM     27  C   UNL     1      43.593   8.177 -11.886  1.00  0.00     0.036 C 
ATOM     28  C   UNL     1      41.914   9.906 -11.148  1.00  0.00     0.032 C 
ATOM     29  C   UNL     1      43.077   9.603 -12.103  1.00  0.00     0.114 C 
BRANCH  29  30
ATOM     30  O   UNL     1      44.125  10.510 -11.880  1.00  0.00    -0.393 OA
ATOM     31  H   UNL     1      44.697  10.490 -12.691  1.00  0.00     0.210 HD
ENDBRANCH  29  30
ENDBRANCH   1  11
TORSDOF 6
ENDMDL
MODEL 2
REMARK VINA RESULT:    -5.518     14.645     17.963
REMARK INTER + INTRA:          -7.885
REMARK INTER:                  -7.757
REMARK INTRA:                  -0.129
REMARK UNBOUND:                -0.594
REMARK SMILES CC[C@H](C=C[C@@H](C)[C@@H]1CC[C@@H]2C3=CC[C@@H]4C[C@H](O)CC[C@@]4(C)[C@@H]3CC[C@@]21C)C(C)C
REMARK SMILES IDX 6 1 7 2 5 3 4 4 3 5 2 6 1 7 28 8 29 9 30 10 8 11 9 12 26 13
REMARK SMILES IDX 10 14 11 15 25 16 27 17 12 18 24 19 23 20 13 21 21 22 14 23
REMARK SMILES IDX 15 24 20 25 22 26 16 27 19 28 17 29 18 30
REMARK H PARENT 18 31
REMARK Flexibility Score: inf
ROOT
ATOM      1  C   UNL     1      35.541   6.837   4.640  1.00  0.00     0.012 C 
ATOM      2  C   UNL     1      36.787   6.204   3.989  1.00  0.00     0.012 C 
ENDROOT
BRANCH   1   3
ATOM      3  C   UNL     1      35.511   8.313   4.306  1.00  0.00    -0.028 C 
ATOM      4  C   UNL     1      34.354   8.948   4.051  1.00  0.00    -0.027 C 
BRANCH   4   5
ATOM      5  C   UNL     1      34.290  10.437   3.763  1.00  0.00     0.014 C 
BRANCH   5   6
ATOM      6  C   UNL     1      35.323  11.187   4.654  1.00  0.00     0.004 C 
ATOM      7  C   UNL     1      34.661  11.972   5.789  1.00  0.00     0.004 C 
ENDBRANCH   5   6
BRANCH   5   8
ATOM      8  C   UNL     1      34.466  10.728   2.238  1.00  0.00    -0.011 C 
ATOM      9  C   UNL     1      33.741   9.676   1.378  1.00  0.00     0.008 C 
ATOM     10  C   UNL     1      33.950  12.125   1.853  1.00  0.00     0.008 C 
ENDBRANCH   5   8
ENDBRANCH   4   5
ENDBRANCH   1   3
BRANCH   1  11
ATOM     11  C   UNL     1      35.423   6.641   6.196  1.00  0.00     0.002 C 
ATOM     12  C   UNL     1      34.419   7.600   6.839  1.00  0.00     0.005 C 
ATOM     13  C   UNL     1      36.725   6.779   7.074  1.00  0.00    -0.023 C 
ATOM     14  C   UNL     1      35.245   8.747   7.388  1.00  0.00     0.009 C 
ATOM     15  C   UNL     1      36.591   8.143   7.828  1.00  0.00     0.021 C 
ATOM     16  C   UNL     1      38.046   6.683   6.256  1.00  0.00     0.008 C 
ATOM     17  C   UNL     1      36.713   5.627   8.124  1.00  0.00     0.012 C 
ATOM     18  C   UNL     1      37.800   9.073   7.669  1.00  0.00    -0.067 C 
ATOM     19  C   UNL     1      39.277   7.031   7.092  1.00  0.00     0.009 C 
ATOM     20  C   UNL     1      39.209   8.455   7.725  1.00  0.00     0.021 C 
ATOM     21  C   UNL     1      37.644  10.415   7.815  1.00  0.00    -0.027 C 
ATOM     22  C   UNL     1      40.330   9.436   7.217  1.00  0.00    -0.023 C 
ATOM     23  C   UNL     1      38.766  11.407   7.676  1.00  0.00     0.031 C 
ATOM     24  C   UNL     1      40.131  10.784   7.985  1.00  0.00     0.002 C 
ATOM     25  C   UNL     1      41.742   8.879   7.583  1.00  0.00     0.010 C 
ATOM     26  C   UNL     1      40.216   9.620   5.674  1.00  0.00     0.012 C 
ATOM     27  C   UNL     1      41.268  11.799   7.748  1.00  0.00     0.036 C 
ATOM     28  C   UNL     1      42.872   9.896   7.349  1.00  0.00     0.032 C 
ATOM     29  C   UNL     1      42.626  11.197   8.125  1.00  0.00     0.114 C 
BRANCH  29  30
ATOM     30  O   UNL     1      43.638  12.125   7.833  1.00  0.00    -0.393 OA
ATOM     31  H   UNL     1      43.523  12.881   8.465  1.00  0.00     0.210 HD
ENDBRANCH  29  30
ENDBRANCH   1  11
TORSDOF 6
ENDMDL
MODEL 3
REMARK VINA RESULT:    -4.992     13.179     16.509
REMARK INTER + INTRA:          -7.191
REMARK INTER:                  -6.942
REMARK INTRA:                  -0.249
REMARK UNBOUND:                -0.594
REMARK SMILES CC[C@H](C=C[C@@H](C)[C@@H]1CC[C@@H]2C3=CC[C@@H]4C[C@H](O)CC[C@@]4(C)[C@@H]3CC[C@@]21C)C(C)C
REMARK SMILES IDX 6 1 7 2 5 3 4 4 3 5 2 6 1 7 28 8 29 9 30 10 8 11 9 12 26 13
REMARK SMILES IDX 10 14 11 15 25 16 27 17 12 18 24 19 23 20 13 21 21 22 14 23
REMARK SMILES IDX 15 24 20 25 22 26 16 27 19 28 17 29 18 30
REMARK H PARENT 18 31
REMARK Flexibility Score: inf
ROOT
ATOM      1  C   UNL     1      40.994  11.830   3.884  1.00  0.00     0.012 C 
ATOM      2  C   UNL     1      39.545  12.097   3.431  1.00  0.00     0.012 C 
ENDROOT
BRANCH   1   3
ATOM      3  C   UNL     1      41.624  10.826   2.942  1.00  0.00    -0.028 C 
ATOM      4  C   UNL     1      40.881  10.134   2.060  1.00  0.00    -0.027 C 
BRANCH   4   5
ATOM      5  C   UNL     1      41.492   9.161   1.070  1.00  0.00     0.014 C 
BRANCH   5   6
ATOM      6  C   UNL     1      40.737   7.800   1.141  1.00  0.00     0.004 C 
ATOM      7  C   UNL     1      40.738   7.201   2.549  1.00  0.00     0.004 C 
ENDBRANCH   5   6
BRANCH   5   8
ATOM      8  C   UNL     1      41.534   9.766  -0.370  1.00  0.00    -0.011 C 
ATOM      9  C   UNL     1      41.067   8.744  -1.423  1.00  0.00     0.008 C 
ATOM     10  C   UNL     1      40.670  11.033  -0.490  1.00  0.00     0.008 C 
ENDBRANCH   5   8
ENDBRANCH   4   5
ENDBRANCH   1   3
BRANCH   1  11
ATOM     11  C   UNL     1      41.155  11.338   5.369  1.00  0.00     0.002 C 
ATOM     12  C   UNL     1      42.105  10.146   5.499  1.00  0.00     0.005 C 
ATOM     13  C   UNL     1      39.865  10.910   6.166  1.00  0.00    -0.023 C 
ATOM     14  C   UNL     1      41.214   8.920   5.548  1.00  0.00     0.009 C 
ATOM     15  C   UNL     1      39.921   9.349   6.264  1.00  0.00     0.021 C 
ATOM     16  C   UNL     1      38.537  11.415   5.527  1.00  0.00     0.008 C 
ATOM     17  C   UNL     1      39.974  11.503   7.603  1.00  0.00     0.012 C 
ATOM     18  C   UNL     1      38.648   8.642   5.782  1.00  0.00    -0.067 C 
ATOM     19  C   UNL     1      37.302  10.809   6.193  1.00  0.00     0.009 C 
ATOM     20  C   UNL     1      37.286   9.250   6.160  1.00  0.00     0.021 C 
ATOM     21  C   UNL     1      38.716   7.359   5.339  1.00  0.00    -0.027 C 
ATOM     22  C   UNL     1      36.092   8.640   5.337  1.00  0.00    -0.023 C 
ATOM     23  C   UNL     1      37.527   6.581   4.845  1.00  0.00     0.031 C 
ATOM     24  C   UNL     1      36.214   7.084   5.452  1.00  0.00     0.002 C 
ATOM     25  C   UNL     1      34.727   9.062   5.969  1.00  0.00     0.010 C 
ATOM     26  C   UNL     1      36.163   9.123   3.857  1.00  0.00     0.012 C 
ATOM     27  C   UNL     1      35.006   6.328   4.860  1.00  0.00     0.036 C 
ATOM     28  C   UNL     1      33.528   8.302   5.378  1.00  0.00     0.032 C 
ATOM     29  C   UNL     1      33.700   6.784   5.519  1.00  0.00     0.114 C 
BRANCH  29  30
ATOM     30  O   UNL     1      32.622   6.123   4.909  1.00  0.00    -0.393 OA
ATOM     31  H   UNL     1      32.813   6.103   3.935  1.00  0.00     0.210 HD
ENDBRANCH  29  30
ENDBRANCH   1  11
TORSDOF 6
ENDMDL
MODEL 4
REMARK VINA RESULT:    -4.752      3.064      6.340
REMARK INTER + INTRA:          -6.873
REMARK INTER:                  -6.382
REMARK INTRA:                  -0.491
REMARK UNBOUND:                -0.594
REMARK SMILES CC[C@H](C=C[C@@H](C)[C@@H]1CC[C@@H]2C3=CC[C@@H]4C[C@H](O)CC[C@@]4(C)[C@@H]3CC[C@@]21C)C(C)C
REMARK SMILES IDX 6 1 7 2 5 3 4 4 3 5 2 6 1 7 28 8 29 9 30 10 8 11 9 12 26 13
REMARK SMILES IDX 10 14 11 15 25 16 27 17 12 18 24 19 23 20 13 21 21 22 14 23
REMARK SMILES IDX 15 24 20 25 22 26 16 27 19 28 17 29 18 30
REMARK H PARENT 18 31
REMARK Flexibility Score: inf
ROOT
ATOM      1  C   UNL     1      43.927   6.805  -9.066  1.00  0.00     0.012 C 
ATOM      2  C   UNL     1      43.808   5.785  -7.917  1.00  0.00     0.012 C 
ENDROOT
BRANCH   1   3
ATOM      3  C   UNL     1      42.706   7.700  -9.054  1.00  0.00    -0.028 C 
ATOM      4  C   UNL     1      41.662   7.446  -8.247  1.00  0.00    -0.027 C 
BRANCH   4   5
ATOM      5  C   UNL     1      40.448   8.354  -8.178  1.00  0.00     0.014 C 
BRANCH   5   6
ATOM      6  C   UNL     1      39.932   8.647  -9.618  1.00  0.00     0.004 C 
ATOM      7  C   UNL     1      39.833  10.146  -9.913  1.00  0.00     0.004 C 
ENDBRANCH   5   6
BRANCH   5   8
ATOM      8  C   UNL     1      39.348   7.761  -7.239  1.00  0.00    -0.011 C 
ATOM      9  C   UNL     1      39.507   6.237  -7.081  1.00  0.00     0.008 C 
ATOM     10  C   UNL     1      39.368   8.410  -5.845  1.00  0.00     0.008 C 
ENDBRANCH   5   8
ENDBRANCH   4   5
ENDBRANCH   1   3
BRANCH   1  11
ATOM     11  C   UNL     1      44.118   6.184 -10.499  1.00  0.00     0.002 C 
ATOM     12  C   UNL     1      43.969   7.218 -11.617  1.00  0.00     0.005 C 
ATOM     13  C   UNL     1      43.188   4.989 -10.933  1.00  0.00    -0.023 C 
ATOM     14  C   UNL     1      42.544   7.074 -12.115  1.00  0.00     0.009 C 
ATOM     15  C   UNL     1      42.179   5.585 -11.970  1.00  0.00     0.021 C 
ATOM     16  C   UNL     1      42.467   4.291  -9.741  1.00  0.00     0.008 C 
ATOM     17  C   UNL     1      44.077   3.933 -11.655  1.00  0.00     0.012 C 
ATOM     18  C   UNL     1      40.706   5.309 -11.646  1.00  0.00    -0.067 C 
ATOM     19  C   UNL     1      41.415   3.284 -10.205  1.00  0.00     0.009 C 
ATOM     20  C   UNL     1      40.322   3.913 -11.123  1.00  0.00     0.021 C 
ATOM     21  C   UNL     1      39.742   6.140 -12.123  1.00  0.00    -0.027 C 
ATOM     22  C   UNL     1      38.871   3.863 -10.516  1.00  0.00    -0.023 C 
ATOM     23  C   UNL     1      38.273   5.956 -11.860  1.00  0.00     0.031 C 
ATOM     24  C   UNL     1      37.915   4.492 -11.583  1.00  0.00     0.002 C 
ATOM     25  C   UNL     1      38.429   2.382 -10.290  1.00  0.00     0.010 C 
ATOM     26  C   UNL     1      38.831   4.640  -9.166  1.00  0.00     0.012 C 
ATOM     27  C   UNL     1      36.420   4.347 -11.230  1.00  0.00     0.036 C 
ATOM     28  C   UNL     1      36.938   2.243  -9.943  1.00  0.00     0.032 C 
ATOM     29  C   UNL     1      36.048   2.875 -11.021  1.00  0.00     0.114 C 
BRANCH  29  30
ATOM     30  O   UNL     1      34.701   2.791 -10.637  1.00  0.00    -0.393 OA
ATOM     31  H   UNL     1      34.175   3.264 -11.333  1.00  0.00     0.210 HD
ENDBRANCH  29  30
ENDBRANCH   1  11
TORSDOF 6
ENDMDL
MODEL 5
REMARK VINA RESULT:    -4.727     14.281     16.951
REMARK INTER + INTRA:          -6.841
REMARK INTER:                  -6.695
REMARK INTRA:                  -0.146
REMARK UNBOUND:                -0.594
REMARK SMILES CC[C@H](C=C[C@@H](C)[C@@H]1CC[C@@H]2C3=CC[C@@H]4C[C@H](O)CC[C@@]4(C)[C@@H]3CC[C@@]21C)C(C)C
REMARK SMILES IDX 6 1 7 2 5 3 4 4 3 5 2 6 1 7 28 8 29 9 30 10 8 11 9 12 26 13
REMARK SMILES IDX 10 14 11 15 25 16 27 17 12 18 24 19 23 20 13 21 21 22 14 23
REMARK SMILES IDX 15 24 20 25 22 26 16 27 19 28 17 29 18 30
REMARK H PARENT 18 31
REMARK Flexibility Score: inf
ROOT
ATOM      1  C   UNL     1      33.680   7.452   5.802  1.00  0.00     0.012 C 
ATOM      2  C   UNL     1      32.565   7.011   4.833  1.00  0.00     0.012 C 
ENDROOT
BRANCH   1   3
ATOM      3  C   UNL     1      34.463   8.580   5.164  1.00  0.00    -0.028 C 
ATOM      4  C   UNL     1      33.968   9.274   4.125  1.00  0.00    -0.027 C 
BRANCH   4   5
ATOM      5  C   UNL     1      34.708  10.442   3.500  1.00  0.00     0.014 C 
BRANCH   5   6
ATOM      6  C   UNL     1      34.417  10.488   1.971  1.00  0.00     0.004 C 
ATOM      7  C   UNL     1      34.006   9.125   1.410  1.00  0.00     0.004 C 
ENDBRANCH   5   6
BRANCH   5   8
ATOM      8  C   UNL     1      34.376  11.782   4.231  1.00  0.00    -0.011 C 
ATOM      9  C   UNL     1      32.878  12.125   4.122  1.00  0.00     0.008 C 
ATOM     10  C   UNL     1      34.770  11.744   5.717  1.00  0.00     0.008 C 
ENDBRANCH   5   8
ENDBRANCH   4   5
ENDBRANCH   1   3
BRANCH   1  11
ATOM     11  C   UNL     1      34.663   6.314   6.259  1.00  0.00     0.002 C 
ATOM     12  C   UNL     1      34.797   6.221   7.780  1.00  0.00     0.005 C 
ATOM     13  C   UNL     1      36.147   6.341   5.729  1.00  0.00    -0.023 C 
ATOM     14  C   UNL     1      36.060   6.985   8.125  1.00  0.00     0.009 C 
ATOM     15  C   UNL     1      37.028   6.781   6.945  1.00  0.00     0.021 C 
ATOM     16  C   UNL     1      36.353   7.259   4.488  1.00  0.00     0.008 C 
ATOM     17  C   UNL     1      36.538   4.886   5.333  1.00  0.00     0.012 C 
ATOM     18  C   UNL     1      37.955   7.968   6.655  1.00  0.00    -0.067 C 
ATOM     19  C   UNL     1      37.828   7.435   4.130  1.00  0.00     0.009 C 
ATOM     20  C   UNL     1      38.681   8.014   5.300  1.00  0.00     0.021 C 
ATOM     21  C   UNL     1      38.378   8.759   7.677  1.00  0.00    -0.027 C 
ATOM     22  C   UNL     1      39.318   9.420   4.992  1.00  0.00    -0.023 C 
ATOM     23  C   UNL     1      39.284   9.946   7.495  1.00  0.00     0.031 C 
ATOM     24  C   UNL     1      40.164   9.816   6.248  1.00  0.00     0.002 C 
ATOM     25  C   UNL     1      40.289   9.319   3.772  1.00  0.00     0.010 C 
ATOM     26  C   UNL     1      38.196  10.459   4.693  1.00  0.00     0.012 C 
ATOM     27  C   UNL     1      41.017  11.085   6.038  1.00  0.00     0.036 C 
ATOM     28  C   UNL     1      41.139  10.585   3.571  1.00  0.00     0.032 C 
ATOM     29  C   UNL     1      41.946  10.926   4.830  1.00  0.00     0.114 C 
BRANCH  29  30
ATOM     30  O   UNL     1      42.654  12.121   4.634  1.00  0.00    -0.393 OA
ATOM     31  H   UNL     1      42.370  12.481   3.754  1.00  0.00     0.210 HD
ENDBRANCH  29  30
ENDBRANCH   1  11
TORSDOF 6
ENDMDL
MODEL 6
REMARK VINA RESULT:    -4.649     13.090     16.019
REMARK INTER + INTRA:          -6.738
REMARK INTER:                  -6.373
REMARK INTRA:                  -0.365
REMARK UNBOUND:                -0.594
REMARK SMILES CC[C@H](C=C[C@@H](C)[C@@H]1CC[C@@H]2C3=CC[C@@H]4C[C@H](O)CC[C@@]4(C)[C@@H]3CC[C@@]21C)C(C)C
REMARK SMILES IDX 6 1 7 2 5 3 4 4 3 5 2 6 1 7 28 8 29 9 30 10 8 11 9 12 26 13
REMARK SMILES IDX 10 14 11 15 25 16 27 17 12 18 24 19 23 20 13 21 21 22 14 23
REMARK SMILES IDX 15 24 20 25 22 26 16 27 19 28 17 29 18 30
REMARK H PARENT 18 31
REMARK Flexibility Score: inf
ROOT
ATOM      1  C   UNL     1      41.171  10.053   5.314  1.00  0.00     0.012 C 
ATOM      2  C   UNL     1      41.020  11.583   5.210  1.00  0.00     0.012 C 
ENDROOT
BRANCH   1   3
ATOM      3  C   UNL     1      40.833   9.436   3.973  1.00  0.00    -0.028 C 
ATOM      4  C   UNL     1      40.971  10.129   2.830  1.00  0.00    -0.027 C 
BRANCH   4   5
ATOM      5  C   UNL     1      40.689   9.520   1.470  1.00  0.00     0.014 C 
BRANCH   5   6
ATOM      6  C   UNL     1      41.150  10.500   0.352  1.00  0.00     0.004 C 
ATOM      7  C   UNL     1      41.265  11.944   0.846  1.00  0.00     0.004 C 
ENDBRANCH   5   6
BRANCH   5   8
ATOM      8  C   UNL     1      41.323   8.097   1.342  1.00  0.00    -0.011 C 
ATOM      9  C   UNL     1      40.300   6.994   1.671  1.00  0.00     0.008 C 
ATOM     10  C   UNL     1      41.892   7.843  -0.064  1.00  0.00     0.008 C 
ENDBRANCH   5   8
ENDBRANCH   4   5
ENDBRANCH   1   3
BRANCH   1  11
ATOM     11  C   UNL     1      40.320   9.368   6.445  1.00  0.00     0.002 C 
ATOM     12  C   UNL     1      40.298   7.842   6.328  1.00  0.00     0.005 C 
ATOM     13  C   UNL     1      38.807   9.778   6.603  1.00  0.00    -0.023 C 
ATOM     14  C   UNL     1      39.000   7.508   5.618  1.00  0.00     0.009 C 
ATOM     15  C   UNL     1      37.976   8.569   6.060  1.00  0.00     0.021 C 
ATOM     16  C   UNL     1      38.442  11.114   5.889  1.00  0.00     0.008 C 
ATOM     17  C   UNL     1      38.514   9.939   8.125  1.00  0.00     0.012 C 
ATOM     18  C   UNL     1      36.935   8.945   4.998  1.00  0.00    -0.067 C 
ATOM     19  C   UNL     1      36.936  11.376   5.877  1.00  0.00     0.009 C 
ATOM     20  C   UNL     1      36.118  10.233   5.200  1.00  0.00     0.021 C 
ATOM     21  C   UNL     1      36.516   8.012   4.103  1.00  0.00    -0.027 C 
ATOM     22  C   UNL     1      35.346  10.680   3.904  1.00  0.00    -0.023 C 
ATOM     23  C   UNL     1      35.503   8.284   3.024  1.00  0.00     0.031 C 
ATOM     24  C   UNL     1      34.556   9.429   3.396  1.00  0.00     0.002 C 
ATOM     25  C   UNL     1      34.307  11.795   4.249  1.00  0.00     0.010 C 
ATOM     26  C   UNL     1      36.354  11.206   2.839  1.00  0.00     0.012 C 
ATOM     27  C   UNL     1      33.587   9.743   2.237  1.00  0.00     0.036 C 
ATOM     28  C   UNL     1      33.342  12.101   3.092  1.00  0.00     0.032 C 
ATOM     29  C   UNL     1      32.595  10.840   2.635  1.00  0.00     0.114 C 
BRANCH  29  30
ATOM     30  O   UNL     1      31.778  11.143   1.535  1.00  0.00    -0.393 OA
ATOM     31  H   UNL     1      32.376  11.474   0.817  1.00  0.00     0.210 HD
ENDBRANCH  29  30
ENDBRANCH   1  11
TORSDOF 6
ENDMDL
MODEL 7
REMARK VINA RESULT:    -4.248      1.441      2.371
REMARK INTER + INTRA:          -6.208
REMARK INTER:                  -5.987
REMARK INTRA:                  -0.221
REMARK UNBOUND:                -0.594
REMARK SMILES CC[C@H](C=C[C@@H](C)[C@@H]1CC[C@@H]2C3=CC[C@@H]4C[C@H](O)CC[C@@]4(C)[C@@H]3CC[C@@]21C)C(C)C
REMARK SMILES IDX 6 1 7 2 5 3 4 4 3 5 2 6 1 7 28 8 29 9 30 10 8 11 9 12 26 13
REMARK SMILES IDX 10 14 11 15 25 16 27 17 12 18 24 19 23 20 13 21 21 22 14 23
REMARK SMILES IDX 15 24 20 25 22 26 16 27 19 28 17 29 18 30
REMARK H PARENT 18 31
REMARK Flexibility Score: inf
ROOT
ATOM      1  C   UNL     1      39.475   1.183  -9.500  1.00  0.00     0.012 C 
ATOM      2  C   UNL     1      38.967   0.215  -8.413  1.00  0.00     0.012 C 
ENDROOT
BRANCH   1   3
ATOM      3  C   UNL     1      40.580   2.036  -8.917  1.00  0.00    -0.028 C 
ATOM      4  C   UNL     1      41.294   1.626  -7.855  1.00  0.00    -0.027 C 
BRANCH   4   5
ATOM      5  C   UNL     1      42.441   2.437  -7.282  1.00  0.00     0.014 C 
BRANCH   5   6
ATOM      6  C   UNL     1      42.524   2.211  -5.744  1.00  0.00     0.004 C 
ATOM      7  C   UNL     1      41.148   2.013  -5.103  1.00  0.00     0.004 C 
ENDBRANCH   5   6
BRANCH   5   8
ATOM      8  C   UNL     1      43.782   2.129  -8.023  1.00  0.00    -0.011 C 
ATOM      9  C   UNL     1      44.125   0.629  -7.962  1.00  0.00     0.008 C 
ATOM     10  C   UNL     1      43.743   2.570  -9.496  1.00  0.00     0.008 C 
ENDBRANCH   5   8
ENDBRANCH   4   5
ENDBRANCH   1   3
BRANCH   1  11
ATOM     11  C   UNL     1      38.377   2.104 -10.148  1.00  0.00     0.002 C 
ATOM     12  C   UNL     1      38.386   2.053 -11.677  1.00  0.00     0.005 C 
ATOM     13  C   UNL     1      38.380   3.641  -9.799  1.00  0.00    -0.023 C 
ATOM     14  C   UNL     1      39.181   3.266 -12.119  1.00  0.00     0.009 C 
ATOM     15  C   UNL     1      38.906   4.369 -11.080  1.00  0.00     0.021 C 
ATOM     16  C   UNL     1      39.215   3.994  -8.533  1.00  0.00     0.008 C 
ATOM     17  C   UNL     1      36.905   4.075  -9.551  1.00  0.00     0.012 C 
ATOM     18  C   UNL     1      40.079   5.324 -10.825  1.00  0.00    -0.067 C 
ATOM     19  C   UNL     1      39.378   5.502  -8.344  1.00  0.00     0.009 C 
ATOM     20  C   UNL     1      40.040   6.209  -9.566  1.00  0.00     0.021 C 
ATOM     21  C   UNL     1      40.938   5.622 -11.835  1.00  0.00    -0.027 C 
ATOM     22  C   UNL     1      41.427   6.879  -9.244  1.00  0.00    -0.023 C 
ATOM     23  C   UNL     1      42.117   6.544 -11.684  1.00  0.00     0.031 C 
ATOM     24  C   UNL     1      41.911   7.567 -10.563  1.00  0.00     0.002 C 
ATOM     25  C   UNL     1      41.253   7.989  -8.160  1.00  0.00     0.010 C 
ATOM     26  C   UNL     1      42.435   5.801  -8.744  1.00  0.00     0.012 C 
ATOM     27  C   UNL     1      43.170   8.440 -10.374  1.00  0.00     0.036 C 
ATOM     28  C   UNL     1      42.509   8.858  -7.978  1.00  0.00     0.032 C 
ATOM     29  C   UNL     1      42.938   9.508  -9.300  1.00  0.00     0.114 C 
BRANCH  29  30
ATOM     30  O   UNL     1      44.124  10.235  -9.110  1.00  0.00    -0.393 OA
ATOM     31  H   UNL     1      44.728   9.996  -9.860  1.00  0.00     0.210 HD
ENDBRANCH  29  30
ENDBRANCH   1  11
TORSDOF 6
ENDMDL
MODEL 8
REMARK VINA RESULT:    -4.210     15.284     17.569
REMARK INTER + INTRA:          -6.158
REMARK INTER:                  -4.860
REMARK INTRA:                  -1.297
REMARK UNBOUND:                -0.594
REMARK SMILES CC[C@H](C=C[C@@H](C)[C@@H]1CC[C@@H]2C3=CC[C@@H]4C[C@H](O)CC[C@@]4(C)[C@@H]3CC[C@@]21C)C(C)C
REMARK SMILES IDX 6 1 7 2 5 3 4 4 3 5 2 6 1 7 28 8 29 9 30 10 8 11 9 12 26 13
REMARK SMILES IDX 10 14 11 15 25 16 27 17 12 18 24 19 23 20 13 21 21 22 14 23
REMARK SMILES IDX 15 24 20 25 22 26 16 27 19 28 17 29 18 30
REMARK H PARENT 18 31
REMARK Flexibility Score: inf
ROOT
ATOM      1  C   UNL     1      40.978   7.930   6.224  1.00  0.00     0.012 C 
ATOM      2  C   UNL     1      40.816   7.534   4.743  1.00  0.00     0.012 C 
ENDROOT
BRANCH   1   3
ATOM      3  C   UNL     1      39.746   7.490   6.985  1.00  0.00    -0.028 C 
ATOM      4  C   UNL     1      38.633   7.094   6.344  1.00  0.00    -0.027 C 
BRANCH   4   5
ATOM      5  C   UNL     1      37.402   6.600   7.081  1.00  0.00     0.014 C 
BRANCH   5   6
ATOM      6  C   UNL     1      36.912   7.695   8.073  1.00  0.00     0.004 C 
ATOM      7  C   UNL     1      35.386   7.811   8.114  1.00  0.00     0.004 C 
ENDBRANCH   5   6
BRANCH   5   8
ATOM      8  C   UNL     1      36.293   6.131   6.084  1.00  0.00    -0.011 C 
ATOM      9  C   UNL     1      36.798   6.159   4.629  1.00  0.00     0.008 C 
ATOM     10  C   UNL     1      35.786   4.716   6.407  1.00  0.00     0.008 C 
ENDBRANCH   5   8
ENDBRANCH   4   5
ENDBRANCH   1   3
BRANCH   1  11
ATOM     11  C   UNL     1      41.248   9.457   6.486  1.00  0.00     0.002 C 
ATOM     12  C   UNL     1      41.103   9.839   7.960  1.00  0.00     0.005 C 
ATOM     13  C   UNL     1      40.382  10.520   5.710  1.00  0.00    -0.023 C 
ATOM     14  C   UNL     1      39.705  10.411   8.096  1.00  0.00     0.009 C 
ATOM     15  C   UNL     1      39.392  11.118   6.765  1.00  0.00     0.021 C 
ATOM     16  C   UNL     1      39.643   9.940   4.468  1.00  0.00     0.008 C 
ATOM     17  C   UNL     1      41.338  11.652   5.228  1.00  0.00     0.012 C 
ATOM     18  C   UNL     1      37.919  11.076   6.341  1.00  0.00    -0.067 C 
ATOM     19  C   UNL     1      38.648  10.933   3.865  1.00  0.00     0.009 C 
ATOM     20  C   UNL     1      37.569  11.417   4.881  1.00  0.00     0.021 C 
ATOM     21  C   UNL     1      36.944  11.075   7.287  1.00  0.00    -0.027 C 
ATOM     22  C   UNL     1      36.098  11.014   4.493  1.00  0.00    -0.023 C 
ATOM     23  C   UNL     1      35.473  11.034   6.973  1.00  0.00     0.031 C 
ATOM     24  C   UNL     1      35.161  11.617   5.592  1.00  0.00     0.002 C 
ATOM     25  C   UNL     1      35.705  11.654   3.124  1.00  0.00     0.010 C 
ATOM     26  C   UNL     1      35.976   9.463   4.408  1.00  0.00     0.012 C 
ATOM     27  C   UNL     1      33.660  11.480   5.261  1.00  0.00     0.036 C 
ATOM     28  C   UNL     1      34.207  11.518   2.801  1.00  0.00     0.032 C 
ATOM     29  C   UNL     1      33.337  12.125   3.909  1.00  0.00     0.114 C 
BRANCH  29  30
ATOM     30  O   UNL     1      31.980  11.921   3.615  1.00  0.00    -0.393 OA
ATOM     31  H   UNL     1      31.877  12.050   2.637  1.00  0.00     0.210 HD
ENDBRANCH  29  30
ENDBRANCH   1  11
TORSDOF 6
ENDMDL
MODEL 9
REMARK VINA RESULT:    -3.276      2.964      6.961
REMARK INTER + INTRA:          -4.923
REMARK INTER:                  -4.679
REMARK INTRA:                  -0.243
REMARK UNBOUND:                -0.594
REMARK SMILES CC[C@H](C=C[C@@H](C)[C@@H]1CC[C@@H]2C3=CC[C@@H]4C[C@H](O)CC[C@@]4(C)[C@@H]3CC[C@@]21C)C(C)C
REMARK SMILES IDX 6 1 7 2 5 3 4 4 3 5 2 6 1 7 28 8 29 9 30 10 8 11 9 12 26 13
REMARK SMILES IDX 10 14 11 15 25 16 27 17 12 18 24 19 23 20 13 21 21 22 14 23
REMARK SMILES IDX 15 24 20 25 22 26 16 27 19 28 17 29 18 30
REMARK H PARENT 18 31
REMARK Flexibility Score: inf
ROOT
ATOM      1  C   UNL     1      43.909   6.615  -9.007  1.00  0.00     0.012 C 
ATOM      2  C   UNL     1      42.671   6.221  -8.178  1.00  0.00     0.012 C 
ENDROOT
BRANCH   1   3
ATOM      3  C   UNL     1      43.842   8.096  -9.313  1.00  0.00    -0.028 C 
ATOM      4  C   UNL     1      42.665   8.718  -9.501  1.00  0.00    -0.027 C 
BRANCH   4   5
ATOM      5  C   UNL     1      42.565  10.210  -9.758  1.00  0.00     0.014 C 
BRANCH   5   6
ATOM      6  C   UNL     1      43.920  10.735 -10.319  1.00  0.00     0.004 C 
ATOM      7  C   UNL     1      44.039  10.553 -11.834  1.00  0.00     0.004 C 
ENDBRANCH   5   6
BRANCH   5   8
ATOM      8  C   UNL     1      41.346  10.547 -10.676  1.00  0.00    -0.011 C 
ATOM      9  C   UNL     1      40.173   9.580 -10.431  1.00  0.00     0.008 C 
ATOM     10  C   UNL     1      40.852  11.989 -10.474  1.00  0.00     0.008 C 
ENDBRANCH   5   8
ENDBRANCH   4   5
ENDBRANCH   1   3
BRANCH   1  11
ATOM     11  C   UNL     1      44.112   5.805 -10.339  1.00  0.00     0.002 C 
ATOM     12  C   UNL     1      44.062   6.692 -11.585  1.00  0.00     0.005 C 
ATOM     13  C   UNL     1      43.127   4.616 -10.656  1.00  0.00    -0.023 C 
ATOM     14  C   UNL     1      42.649   6.563 -12.120  1.00  0.00     0.009 C 
ATOM     15  C   UNL     1      42.192   5.128 -11.801  1.00  0.00     0.021 C 
ATOM     16  C   UNL     1      42.326   4.118  -9.416  1.00  0.00     0.008 C 
ATOM     17  C   UNL     1      43.976   3.428 -11.201  1.00  0.00     0.012 C 
ATOM     18  C   UNL     1      40.694   4.976 -11.507  1.00  0.00    -0.067 C 
ATOM     19  C   UNL     1      41.232   3.119  -9.792  1.00  0.00     0.009 C 
ATOM     20  C   UNL     1      40.211   3.683 -10.826  1.00  0.00     0.021 C 
ATOM     21  C   UNL     1      39.799   5.790 -12.125  1.00  0.00    -0.027 C 
ATOM     22  C   UNL     1      38.739   3.791 -10.279  1.00  0.00    -0.023 C 
ATOM     23  C   UNL     1      38.313   5.722 -11.902  1.00  0.00     0.031 C 
ATOM     24  C   UNL     1      37.859   4.328 -11.456  1.00  0.00     0.002 C 
ATOM     25  C   UNL     1      38.203   2.378  -9.885  1.00  0.00     0.010 C 
ATOM     26  C   UNL     1      38.700   4.737  -9.041  1.00  0.00     0.012 C 
ATOM     27  C   UNL     1      36.347   4.311 -11.149  1.00  0.00     0.036 C 
ATOM     28  C   UNL     1      36.695   2.366  -9.585  1.00  0.00     0.032 C 
ATOM     29  C   UNL     1      35.882   2.901 -10.770  1.00  0.00     0.114 C 
BRANCH  29  30
ATOM     30  O   UNL     1      34.519   2.941 -10.435  1.00  0.00    -0.393 OA
ATOM     31  H   UNL     1      34.465   3.260  -9.497  1.00  0.00     0.210 HD
ENDBRANCH  29  30
ENDBRANCH   1  11
TORSDOF 6
ENDMDL
