MODEL 1
REMARK VINA RESULT:    -3.068      0.000      0.000
REMARK INTER + INTRA:          -6.238
REMARK INTER:                  -5.399
REMARK INTRA:                  -0.839
REMARK UNBOUND:                -0.839
REMARK SMILES CCCCCCCCCCCCCCC(=O)[O-]
REMARK SMILES IDX 9 1 10 2 11 3 12 4 13 5 14 6 15 7 16 8 17 9 8 10 7 11 6 12
REMARK SMILES IDX 5 13 4 14 3 15 2 16 1 17
REMARK H PARENT
REMARK Flexibility Score: inf
ROOT
ATOM      1  C   UNL     1     -15.861  16.799  -8.399  1.00  0.00     0.000 C 
ENDROOT
BRANCH   1   2
ATOM      2  C   UNL     1     -16.831  17.504  -9.362  1.00  0.00     0.000 C 
BRANCH   2   3
ATOM      3  C   UNL     1     -17.113  18.960  -8.957  1.00  0.00     0.000 C 
BRANCH   3   4
ATOM      4  C   UNL     1     -17.048  19.930 -10.148  1.00  0.00     0.000 C 
BRANCH   4   5
ATOM      5  C   UNL     1     -15.762  19.715 -10.960  1.00  0.00     0.006 C 
BRANCH   5   6
ATOM      6  C   UNL     1     -15.362  20.966 -11.755  1.00  0.00     0.053 C 
BRANCH   6   7
ATOM      7  C   UNL     1     -13.909  20.950 -12.122  1.00  0.00     0.041 C 
ATOM      8  O   UNL     1     -13.348  19.869 -12.439  1.00  0.00    -0.550 OA
ATOM      9  O   UNL     1     -13.168  22.124 -12.079  1.00  0.00    -0.550 OA
ENDBRANCH   6   7
ENDBRANCH   5   6
ENDBRANCH   4   5
ENDBRANCH   3   4
ENDBRANCH   2   3
ENDBRANCH   1   2
BRANCH   1  10
ATOM     10  C   UNL     1     -16.579  15.864  -7.408  1.00  0.00     0.000 C 
BRANCH  10  11
ATOM     11  C   UNL     1     -16.205  14.372  -7.522  1.00  0.00    -0.000 C 
BRANCH  11  12
ATOM     12  C   UNL     1     -17.048  13.558  -8.520  1.00  0.00    -0.000 C 
BRANCH  12  13
ATOM     13  C   UNL     1     -16.405  13.478  -9.916  1.00  0.00    -0.000 C 
BRANCH  13  14
ATOM     14  C   UNL     1     -14.885  13.256  -9.853  1.00  0.00    -0.000 C 
BRANCH  14  15
ATOM     15  C   UNL     1     -14.462  11.901 -10.446  1.00  0.00    -0.000 C 
BRANCH  15  16
ATOM     16  C   UNL     1     -14.752  11.801 -11.951  1.00  0.00    -0.003 C 
ATOM     17  C   UNL     1     -14.198  12.985 -12.743  1.00  0.00     0.004 C 
ENDBRANCH  15  16
ENDBRANCH  14  15
ENDBRANCH  13  14
ENDBRANCH  12  13
ENDBRANCH  11  12
ENDBRANCH  10  11
ENDBRANCH   1  10
TORSDOF 13
ENDMDL
MODEL 2
REMARK VINA RESULT:    -2.957      1.403      2.521
REMARK INTER + INTRA:          -6.043
REMARK INTER:                  -5.027
REMARK INTRA:                  -1.016
REMARK UNBOUND:                -0.839
REMARK SMILES CCCCCCCCCCCCCCC(=O)[O-]
REMARK SMILES IDX 9 1 10 2 11 3 12 4 13 5 14 6 15 7 16 8 17 9 8 10 7 11 6 12
REMARK SMILES IDX 5 13 4 14 3 15 2 16 1 17
REMARK H PARENT
REMARK Flexibility Score: inf
ROOT
ATOM      1  C   UNL     1     -16.657  14.185  -7.074  1.00  0.00     0.000 C 
ENDROOT
BRANCH   1   2
ATOM      2  C   UNL     1     -16.429  15.704  -7.140  1.00  0.00     0.000 C 
BRANCH   2   3
ATOM      3  C   UNL     1     -16.846  16.306  -8.492  1.00  0.00     0.000 C 
BRANCH   3   4
ATOM      4  C   UNL     1     -15.744  17.174  -9.121  1.00  0.00     0.000 C 
BRANCH   4   5
ATOM      5  C   UNL     1     -16.310  18.525  -9.585  1.00  0.00     0.006 C 
BRANCH   5   6
ATOM      6  C   UNL     1     -16.322  18.655 -11.114  1.00  0.00     0.053 C 
BRANCH   6   7
ATOM      7  C   UNL     1     -15.407  19.742 -11.588  1.00  0.00     0.041 C 
ATOM      8  O   UNL     1     -14.229  19.471 -11.939  1.00  0.00    -0.550 OA
ATOM      9  O   UNL     1     -15.844  21.061 -11.607  1.00  0.00    -0.550 OA
ENDBRANCH   6   7
ENDBRANCH   5   6
ENDBRANCH   4   5
ENDBRANCH   3   4
ENDBRANCH   2   3
ENDBRANCH   1   2
BRANCH   1  10
ATOM     10  C   UNL     1     -15.346  13.390  -6.934  1.00  0.00     0.000 C 
BRANCH  10  11
ATOM     11  C   UNL     1     -14.551  13.195  -8.241  1.00  0.00    -0.000 C 
BRANCH  11  12
ATOM     12  C   UNL     1     -15.404  13.063  -9.516  1.00  0.00    -0.000 C 
BRANCH  12  13
ATOM     13  C   UNL     1     -14.590  12.587 -10.731  1.00  0.00    -0.000 C 
BRANCH  13  14
ATOM     14  C   UNL     1     -15.393  11.651 -11.649  1.00  0.00    -0.000 C 
BRANCH  14  15
ATOM     15  C   UNL     1     -15.684  12.277 -13.023  1.00  0.00    -0.000 C 
BRANCH  15  16
ATOM     16  C   UNL     1     -15.239  13.746 -13.106  1.00  0.00    -0.003 C 
ATOM     17  C   UNL     1     -16.405  14.726 -12.982  1.00  0.00     0.004 C 
ENDBRANCH  15  16
ENDBRANCH  14  15
ENDBRANCH  13  14
ENDBRANCH  12  13
ENDBRANCH  11  12
ENDBRANCH  10  11
ENDBRANCH   1  10
TORSDOF 13
ENDMDL
MODEL 3
REMARK VINA RESULT:    -2.923      3.392      7.114
REMARK INTER + INTRA:          -5.983
REMARK INTER:                  -5.250
REMARK INTRA:                  -0.733
REMARK UNBOUND:                -0.839
REMARK SMILES CCCCCCCCCCCCCCC(=O)[O-]
REMARK SMILES IDX 9 1 10 2 11 3 12 4 13 5 14 6 15 7 16 8 17 9 8 10 7 11 6 12
REMARK SMILES IDX 5 13 4 14 3 15 2 16 1 17
REMARK H PARENT
REMARK Flexibility Score: inf
ROOT
ATOM      1  C   UNL     1     -15.790  16.477  -7.683  1.00  0.00     0.000 C 
ENDROOT
BRANCH   1   2
ATOM      2  C   UNL     1     -16.869  15.382  -7.722  1.00  0.00     0.000 C 
BRANCH   2   3
ATOM      3  C   UNL     1     -16.658  14.384  -8.872  1.00  0.00     0.000 C 
BRANCH   3   4
ATOM      4  C   UNL     1     -15.247  13.775  -8.877  1.00  0.00     0.000 C 
BRANCH   4   5
ATOM      5  C   UNL     1     -14.898  13.213 -10.264  1.00  0.00     0.006 C 
BRANCH   5   6
ATOM      6  C   UNL     1     -16.093  12.511 -10.924  1.00  0.00     0.053 C 
BRANCH   6   7
ATOM      7  C   UNL     1     -15.704  11.835 -12.203  1.00  0.00     0.041 C 
ATOM      8  O   UNL     1     -14.490  11.686 -12.497  1.00  0.00    -0.550 OA
ATOM      9  O   UNL     1     -16.684  11.402 -13.087  1.00  0.00    -0.550 OA
ENDBRANCH   6   7
ENDBRANCH   5   6
ENDBRANCH   4   5
ENDBRANCH   3   4
ENDBRANCH   2   3
ENDBRANCH   1   2
BRANCH   1  10
ATOM     10  C   UNL     1     -15.828  17.396  -8.918  1.00  0.00     0.000 C 
BRANCH  10  11
ATOM     11  C   UNL     1     -16.966  18.437  -8.930  1.00  0.00    -0.000 C 
BRANCH  11  12
ATOM     12  C   UNL     1     -16.872  19.502 -10.037  1.00  0.00    -0.000 C 
BRANCH  12  13
ATOM     13  C   UNL     1     -15.958  19.074 -11.199  1.00  0.00    -0.000 C 
BRANCH  13  14
ATOM     14  C   UNL     1     -15.168  20.251 -11.793  1.00  0.00    -0.000 C 
BRANCH  14  15
ATOM     15  C   UNL     1     -13.825  19.814 -12.401  1.00  0.00    -0.000 C 
BRANCH  15  16
ATOM     16  C   UNL     1     -12.983  21.005 -12.884  1.00  0.00    -0.003 C 
ATOM     17  C   UNL     1     -12.890  22.125 -11.848  1.00  0.00     0.004 C 
ENDBRANCH  15  16
ENDBRANCH  14  15
ENDBRANCH  13  14
ENDBRANCH  12  13
ENDBRANCH  11  12
ENDBRANCH  10  11
ENDBRANCH   1  10
TORSDOF 13
ENDMDL
MODEL 4
REMARK VINA RESULT:    -2.907      1.370      2.690
REMARK INTER + INTRA:          -5.955
REMARK INTER:                  -4.818
REMARK INTRA:                  -1.138
REMARK UNBOUND:                -0.839
REMARK SMILES CCCCCCCCCCCCCCC(=O)[O-]
REMARK SMILES IDX 9 1 10 2 11 3 12 4 13 5 14 6 15 7 16 8 17 9 8 10 7 11 6 12
REMARK SMILES IDX 5 13 4 14 3 15 2 16 1 17
REMARK H PARENT
REMARK Flexibility Score: inf
ROOT
ATOM      1  C   UNL     1     -16.052  16.887  -8.975  1.00  0.00     0.000 C 
ENDROOT
BRANCH   1   2
ATOM      2  C   UNL     1     -16.381  18.382  -9.127  1.00  0.00     0.000 C 
BRANCH   2   3
ATOM      3  C   UNL     1     -15.961  18.944 -10.494  1.00  0.00     0.000 C 
BRANCH   3   4
ATOM      4  C   UNL     1     -16.852  20.106 -10.958  1.00  0.00     0.000 C 
BRANCH   4   5
ATOM      5  C   UNL     1     -16.324  20.713 -12.267  1.00  0.00     0.006 C 
BRANCH   5   6
ATOM      6  C   UNL     1     -15.254  21.786 -12.019  1.00  0.00     0.053 C 
BRANCH   6   7
ATOM      7  C   UNL     1     -13.872  21.257 -12.252  1.00  0.00     0.041 C 
ATOM      8  O   UNL     1     -12.874  21.868 -11.789  1.00  0.00    -0.550 OA
ATOM      9  O   UNL     1     -13.685  20.109 -13.010  1.00  0.00    -0.550 OA
ENDBRANCH   6   7
ENDBRANCH   5   6
ENDBRANCH   4   5
ENDBRANCH   3   4
ENDBRANCH   2   3
ENDBRANCH   1   2
BRANCH   1  10
ATOM     10  C   UNL     1     -17.125  15.974  -9.597  1.00  0.00     0.000 C 
BRANCH  10  11
ATOM     11  C   UNL     1     -16.622  15.028 -10.706  1.00  0.00    -0.000 C 
BRANCH  11  12
ATOM     12  C   UNL     1     -16.952  13.538 -10.499  1.00  0.00    -0.000 C 
BRANCH  12  13
ATOM     13  C   UNL     1     -15.722  12.705 -10.101  1.00  0.00    -0.000 C 
BRANCH  13  14
ATOM     14  C   UNL     1     -14.679  13.526  -9.324  1.00  0.00    -0.000 C 
BRANCH  14  15
ATOM     15  C   UNL     1     -14.577  13.106  -7.849  1.00  0.00    -0.000 C 
BRANCH  15  16
ATOM     16  C   UNL     1     -15.543  13.887  -6.945  1.00  0.00    -0.003 C 
ATOM     17  C   UNL     1     -16.838  13.126  -6.663  1.00  0.00     0.004 C 
ENDBRANCH  15  16
ENDBRANCH  14  15
ENDBRANCH  13  14
ENDBRANCH  12  13
ENDBRANCH  11  12
ENDBRANCH  10  11
ENDBRANCH   1  10
TORSDOF 13
ENDMDL
MODEL 5
REMARK VINA RESULT:    -2.799      3.133      6.496
REMARK INTER + INTRA:          -5.765
REMARK INTER:                  -4.682
REMARK INTRA:                  -1.083
REMARK UNBOUND:                -0.839
REMARK SMILES CCCCCCCCCCCCCCC(=O)[O-]
REMARK SMILES IDX 9 1 10 2 11 3 12 4 13 5 14 6 15 7 16 8 17 9 8 10 7 11 6 12
REMARK SMILES IDX 5 13 4 14 3 15 2 16 1 17
REMARK H PARENT
REMARK Flexibility Score: inf
ROOT
ATOM      1  C   UNL     1     -15.427  14.720  -7.950  1.00  0.00     0.000 C 
ENDROOT
BRANCH   1   2
ATOM      2  C   UNL     1     -15.776  13.444  -8.734  1.00  0.00     0.000 C 
BRANCH   2   3
ATOM      3  C   UNL     1     -17.074  13.585  -9.545  1.00  0.00     0.000 C 
BRANCH   3   4
ATOM      4  C   UNL     1     -16.837  14.161 -10.950  1.00  0.00     0.000 C 
BRANCH   4   5
ATOM      5  C   UNL     1     -16.358  13.067 -11.917  1.00  0.00     0.006 C 
BRANCH   5   6
ATOM      6  C   UNL     1     -14.997  13.399 -12.543  1.00  0.00     0.053 C 
BRANCH   6   7
ATOM      7  C   UNL     1     -13.930  12.450 -12.089  1.00  0.00     0.041 C 
ATOM      8  O   UNL     1     -12.803  12.450 -12.649  1.00  0.00    -0.550 OA
ATOM      9  O   UNL     1     -14.193  11.542 -11.072  1.00  0.00    -0.550 OA
ENDBRANCH   6   7
ENDBRANCH   5   6
ENDBRANCH   4   5
ENDBRANCH   3   4
ENDBRANCH   2   3
ENDBRANCH   1   2
BRANCH   1  10
ATOM     10  C   UNL     1     -16.667  15.414  -7.358  1.00  0.00     0.000 C 
BRANCH  10  11
ATOM     11  C   UNL     1     -17.078  16.730  -8.049  1.00  0.00    -0.000 C 
BRANCH  11  12
ATOM     12  C   UNL     1     -16.001  17.364  -8.949  1.00  0.00    -0.000 C 
BRANCH  12  13
ATOM     13  C   UNL     1     -16.590  18.023 -10.208  1.00  0.00    -0.000 C 
BRANCH  13  14
ATOM     14  C   UNL     1     -16.189  19.501 -10.342  1.00  0.00    -0.000 C 
BRANCH  14  15
ATOM     15  C   UNL     1     -15.775  19.873 -11.776  1.00  0.00    -0.000 C 
BRANCH  15  16
ATOM     16  C   UNL     1     -14.250  19.872 -11.967  1.00  0.00    -0.003 C 
ATOM     17  C   UNL     1     -13.668  21.279 -12.099  1.00  0.00     0.004 C 
ENDBRANCH  15  16
ENDBRANCH  14  15
ENDBRANCH  13  14
ENDBRANCH  12  13
ENDBRANCH  11  12
ENDBRANCH  10  11
ENDBRANCH   1  10
TORSDOF 13
ENDMDL
MODEL 6
REMARK VINA RESULT:    -2.655      1.418      2.472
REMARK INTER + INTRA:          -5.511
REMARK INTER:                  -4.388
REMARK INTRA:                  -1.123
REMARK UNBOUND:                -0.839
REMARK SMILES CCCCCCCCCCCCCCC(=O)[O-]
REMARK SMILES IDX 9 1 10 2 11 3 12 4 13 5 14 6 15 7 16 8 17 9 8 10 7 11 6 12
REMARK SMILES IDX 5 13 4 14 3 15 2 16 1 17
REMARK H PARENT
REMARK Flexibility Score: inf
ROOT
ATOM      1  C   UNL     1     -15.987  14.923  -8.981  1.00  0.00     0.000 C 
ENDROOT
BRANCH   1   2
ATOM      2  C   UNL     1     -15.679  16.427  -8.881  1.00  0.00     0.000 C 
BRANCH   2   3
ATOM      3  C   UNL     1     -16.926  17.264  -8.551  1.00  0.00     0.000 C 
BRANCH   3   4
ATOM      4  C   UNL     1     -16.817  18.713  -9.051  1.00  0.00     0.000 C 
BRANCH   4   5
ATOM      5  C   UNL     1     -16.379  18.753 -10.523  1.00  0.00     0.006 C 
BRANCH   5   6
ATOM      6  C   UNL     1     -16.353  20.182 -11.082  1.00  0.00     0.053 C 
BRANCH   6   7
ATOM      7  C   UNL     1     -15.061  20.482 -11.781  1.00  0.00     0.041 C 
ATOM      8  O   UNL     1     -14.745  21.672 -12.044  1.00  0.00    -0.550 OA
ATOM      9  O   UNL     1     -14.224  19.445 -12.171  1.00  0.00    -0.550 OA
ENDBRANCH   6   7
ENDBRANCH   5   6
ENDBRANCH   4   5
ENDBRANCH   3   4
ENDBRANCH   2   3
ENDBRANCH   1   2
BRANCH   1  10
ATOM     10  C   UNL     1     -17.112  14.610  -9.985  1.00  0.00     0.000 C 
BRANCH  10  11
ATOM     11  C   UNL     1     -16.843  15.057 -11.436  1.00  0.00    -0.000 C 
BRANCH  11  12
ATOM     12  C   UNL     1     -17.064  13.974 -12.508  1.00  0.00    -0.000 C 
BRANCH  12  13
ATOM     13  C   UNL     1     -17.125  12.555 -11.918  1.00  0.00    -0.000 C 
BRANCH  13  14
ATOM     14  C   UNL     1     -16.148  11.587 -12.606  1.00  0.00    -0.000 C 
BRANCH  14  15
ATOM     15  C   UNL     1     -14.823  12.264 -12.997  1.00  0.00    -0.000 C 
BRANCH  15  16
ATOM     16  C   UNL     1     -13.891  12.470 -11.793  1.00  0.00    -0.003 C 
ATOM     17  C   UNL     1     -14.300  11.639 -10.577  1.00  0.00     0.004 C 
ENDBRANCH  15  16
ENDBRANCH  14  15
ENDBRANCH  13  14
ENDBRANCH  12  13
ENDBRANCH  11  12
ENDBRANCH  10  11
ENDBRANCH   1  10
TORSDOF 13
ENDMDL
MODEL 7
REMARK VINA RESULT:    -0.634      2.101      3.744
REMARK INTER + INTRA:          -1.955
REMARK INTER:                  -1.273
REMARK INTRA:                  -0.681
REMARK UNBOUND:                -0.839
REMARK SMILES CCCCCCCCCCCCCCC(=O)[O-]
REMARK SMILES IDX 9 1 10 2 11 3 12 4 13 5 14 6 15 7 16 8 17 9 8 10 7 11 6 12
REMARK SMILES IDX 5 13 4 14 3 15 2 16 1 17
REMARK H PARENT
REMARK Flexibility Score: inf
ROOT
ATOM      1  C   UNL     1     -15.081  13.254  -8.443  1.00  0.00     0.000 C 
ENDROOT
BRANCH   1   2
ATOM      2  C   UNL     1     -15.516  14.671  -8.854  1.00  0.00     0.000 C 
BRANCH   2   3
ATOM      3  C   UNL     1     -16.488  14.669 -10.045  1.00  0.00     0.000 C 
BRANCH   3   4
ATOM      4  C   UNL     1     -17.111  16.050 -10.304  1.00  0.00     0.000 C 
BRANCH   4   5
ATOM      5  C   UNL     1     -16.026  17.134 -10.391  1.00  0.00     0.006 C 
BRANCH   5   6
ATOM      6  C   UNL     1     -16.435  18.293 -11.310  1.00  0.00     0.053 C 
BRANCH   6   7
ATOM      7  C   UNL     1     -16.091  19.624 -10.713  1.00  0.00     0.041 C 
ATOM      8  O   UNL     1     -16.791  20.100  -9.781  1.00  0.00    -0.550 OA
ATOM      9  O   UNL     1     -15.019  20.353 -11.210  1.00  0.00    -0.550 OA
ENDBRANCH   6   7
ENDBRANCH   5   6
ENDBRANCH   4   5
ENDBRANCH   3   4
ENDBRANCH   2   3
ENDBRANCH   1   2
BRANCH   1  10
ATOM     10  C   UNL     1     -14.909  12.311  -9.647  1.00  0.00     0.000 C 
BRANCH  10  11
ATOM     11  C   UNL     1     -14.027  12.855 -10.790  1.00  0.00    -0.000 C 
BRANCH  11  12
ATOM     12  C   UNL     1     -14.302  12.249 -12.178  1.00  0.00    -0.000 C 
BRANCH  12  13
ATOM     13  C   UNL     1     -15.584  12.803 -12.826  1.00  0.00    -0.000 C 
BRANCH  13  14
ATOM     14  C   UNL     1     -16.850  12.077 -12.342  1.00  0.00    -0.000 C 
BRANCH  14  15
ATOM     15  C   UNL     1     -17.123  10.781 -13.125  1.00  0.00    -0.000 C 
BRANCH  15  16
ATOM     16  C   UNL     1     -16.912   9.522 -12.271  1.00  0.00    -0.003 C 
ATOM     17  C   UNL     1     -17.069   9.787 -10.774  1.00  0.00     0.004 C 
ENDBRANCH  15  16
ENDBRANCH  14  15
ENDBRANCH  13  14
ENDBRANCH  12  13
ENDBRANCH  11  12
ENDBRANCH  10  11
ENDBRANCH   1  10
TORSDOF 13
ENDMDL
