MODEL 1
REMARK VINA RESULT:    -5.367      0.000      0.000
REMARK INTER + INTRA:          -5.367
REMARK INTER:                  -5.367
REMARK INTRA:                   0.000
REMARK UNBOUND:                 0.000
REMARK SMILES CC1=CC[C@]23C[C@H]1C(C)(C)[C@@H]2CC[C@H]3C
REMARK SMILES IDX 15 1 14 2 13 3 12 4 11 5 5 6 4 7 3 8 2 9 7 10 6 11 8 12 9 13
REMARK SMILES IDX 10 14 1 15
REMARK H PARENT
REMARK Flexibility Score: inf
ROOT
ATOM      1  C   UNL     1      31.936  10.388  36.777  1.00  0.00     0.008 C 
ATOM      2  C   UNL     1      30.820  10.587  35.738  1.00  0.00    -0.007 C 
ATOM      3  C   UNL     1      29.666   9.543  35.895  1.00  0.00     0.004 C 
ATOM      4  C   UNL     1      29.720   8.593  34.672  1.00  0.00     0.005 C 
ATOM      5  C   UNL     1      31.091   8.892  34.104  1.00  0.00     0.002 C 
ATOM      6  C   UNL     1      31.273  10.393  34.273  1.00  0.00    -0.020 C 
ATOM      7  C   UNL     1      30.363  11.301  33.343  1.00  0.00     0.035 C 
ATOM      8  C   UNL     1      30.843  11.436  31.908  1.00  0.00    -0.027 C 
ATOM      9  C   UNL     1      31.913  10.748  31.467  1.00  0.00    -0.074 C 
ATOM     10  C   UNL     1      32.584   9.780  32.422  1.00  0.00     0.021 C 
ATOM     11  C   UNL     1      32.717  10.520  33.787  1.00  0.00     0.016 C 
ATOM     12  C   UNL     1      31.658   8.530  32.714  1.00  0.00    -0.025 C 
ATOM     13  C   UNL     1      30.536   8.257  31.679  1.00  0.00     0.012 C 
ATOM     14  C   UNL     1      32.536   7.257  32.791  1.00  0.00     0.012 C 
ATOM     15  C   UNL     1      32.404  10.924  30.058  1.00  0.00     0.039 C 
ENDROOT
TORSDOF 0
ENDMDL
MODEL 2
REMARK VINA RESULT:    -5.315      1.637      3.502
REMARK INTER + INTRA:          -5.315
REMARK INTER:                  -5.315
REMARK INTRA:                   0.000
REMARK UNBOUND:                 0.000
REMARK SMILES CC1=CC[C@]23C[C@H]1C(C)(C)[C@@H]2CC[C@H]3C
REMARK SMILES IDX 15 1 14 2 13 3 12 4 11 5 5 6 4 7 3 8 2 9 7 10 6 11 8 12 9 13
REMARK SMILES IDX 10 14 1 15
REMARK H PARENT
REMARK Flexibility Score: inf
ROOT
ATOM      1  C   UNL     1      28.766   6.095  35.384  1.00  0.00     0.008 C 
ATOM      2  C   UNL     1      30.268   6.402  35.257  1.00  0.00    -0.007 C 
ATOM      3  C   UNL     1      30.922   6.762  36.631  1.00  0.00     0.004 C 
ATOM      4  C   UNL     1      31.291   8.267  36.598  1.00  0.00     0.005 C 
ATOM      5  C   UNL     1      30.504   8.756  35.402  1.00  0.00     0.002 C 
ATOM      6  C   UNL     1      30.593   7.633  34.380  1.00  0.00    -0.020 C 
ATOM      7  C   UNL     1      32.022   7.417  33.725  1.00  0.00     0.035 C 
ATOM      8  C   UNL     1      32.382   8.403  32.626  1.00  0.00    -0.027 C 
ATOM      9  C   UNL     1      31.565   9.428  32.320  1.00  0.00    -0.074 C 
ATOM     10  C   UNL     1      30.309   9.614  33.149  1.00  0.00     0.021 C 
ATOM     11  C   UNL     1      29.665   8.204  33.307  1.00  0.00     0.016 C 
ATOM     12  C   UNL     1      30.659  10.080  34.621  1.00  0.00    -0.025 C 
ATOM     13  C   UNL     1      32.061  10.713  34.820  1.00  0.00     0.012 C 
ATOM     14  C   UNL     1      29.611  11.120  35.085  1.00  0.00     0.012 C 
ATOM     15  C   UNL     1      31.911  10.371  31.202  1.00  0.00     0.039 C 
ENDROOT
TORSDOF 0
ENDMDL
MODEL 3
REMARK VINA RESULT:    -5.262      1.277      4.180
REMARK INTER + INTRA:          -5.262
REMARK INTER:                  -5.262
REMARK INTRA:                   0.000
REMARK UNBOUND:                 0.000
REMARK SMILES CC1=CC[C@]23C[C@H]1C(C)(C)[C@@H]2CC[C@H]3C
REMARK SMILES IDX 15 1 14 2 13 3 12 4 11 5 5 6 4 7 3 8 2 9 7 10 6 11 8 12 9 13
REMARK SMILES IDX 10 14 1 15
REMARK H PARENT
REMARK Flexibility Score: inf
ROOT
ATOM      1  C   UNL     1      33.125  12.267  30.747  1.00  0.00     0.008 C 
ATOM      2  C   UNL     1      32.068  11.175  30.510  1.00  0.00    -0.007 C 
ATOM      3  C   UNL     1      30.661  11.769  30.175  1.00  0.00     0.004 C 
ATOM      4  C   UNL     1      29.727  11.476  31.377  1.00  0.00     0.005 C 
ATOM      5  C   UNL     1      30.717  11.090  32.455  1.00  0.00     0.002 C 
ATOM      6  C   UNL     1      31.789  10.281  31.740  1.00  0.00    -0.020 C 
ATOM      7  C   UNL     1      31.338   8.850  31.227  1.00  0.00     0.035 C 
ATOM      8  C   UNL     1      31.281   7.771  32.296  1.00  0.00    -0.027 C 
ATOM      9  C   UNL     1      31.514   8.064  33.589  1.00  0.00    -0.074 C 
ATOM     10  C   UNL     1      31.764   9.514  33.961  1.00  0.00     0.021 C 
ATOM     11  C   UNL     1      32.760  10.080  32.904  1.00  0.00     0.016 C 
ATOM     12  C   UNL     1      30.448  10.380  33.800  1.00  0.00    -0.025 C 
ATOM     13  C   UNL     1      29.112   9.593  33.788  1.00  0.00     0.012 C 
ATOM     14  C   UNL     1      30.373  11.403  34.959  1.00  0.00     0.012 C 
ATOM     15  C   UNL     1      31.499   6.981  34.631  1.00  0.00     0.039 C 
ENDROOT
TORSDOF 0
ENDMDL
MODEL 4
REMARK VINA RESULT:    -5.197      1.385      4.369
REMARK INTER + INTRA:          -5.197
REMARK INTER:                  -5.197
REMARK INTRA:                   0.000
REMARK UNBOUND:                 0.000
REMARK SMILES CC1=CC[C@]23C[C@H]1C(C)(C)[C@@H]2CC[C@H]3C
REMARK SMILES IDX 15 1 14 2 13 3 12 4 11 5 5 6 4 7 3 8 2 9 7 10 6 11 8 12 9 13
REMARK SMILES IDX 10 14 1 15
REMARK H PARENT
REMARK Flexibility Score: inf
ROOT
ATOM      1  C   UNL     1      30.150  10.874  31.950  1.00  0.00     0.008 C 
ATOM      2  C   UNL     1      31.351  10.624  32.876  1.00  0.00    -0.007 C 
ATOM      3  C   UNL     1      32.367   9.599  32.274  1.00  0.00     0.004 C 
ATOM      4  C   UNL     1      32.292   8.305  33.124  1.00  0.00     0.005 C 
ATOM      5  C   UNL     1      31.007   8.513  33.896  1.00  0.00     0.002 C 
ATOM      6  C   UNL     1      30.983   9.994  34.240  1.00  0.00    -0.020 C 
ATOM      7  C   UNL     1      32.052  10.464  35.313  1.00  0.00     0.035 C 
ATOM      8  C   UNL     1      31.693  10.156  36.757  1.00  0.00    -0.027 C 
ATOM      9  C   UNL     1      30.586   9.453  37.061  1.00  0.00    -0.074 C 
ATOM     10  C   UNL     1      29.745   8.915  35.919  1.00  0.00     0.021 C 
ATOM     11  C   UNL     1      29.600  10.073  34.887  1.00  0.00     0.016 C 
ATOM     12  C   UNL     1      30.502   7.759  35.146  1.00  0.00    -0.025 C 
ATOM     13  C   UNL     1      31.656   7.067  35.916  1.00  0.00     0.012 C 
ATOM     14  C   UNL     1      29.482   6.662  34.754  1.00  0.00     0.012 C 
ATOM     15  C   UNL     1      30.218   9.192  38.494  1.00  0.00     0.039 C 
ENDROOT
TORSDOF 0
ENDMDL
MODEL 5
REMARK VINA RESULT:    -5.149      2.364      3.983
REMARK INTER + INTRA:          -5.149
REMARK INTER:                  -5.149
REMARK INTRA:                   0.000
REMARK UNBOUND:                 0.000
REMARK SMILES CC1=CC[C@]23C[C@H]1C(C)(C)[C@@H]2CC[C@H]3C
REMARK SMILES IDX 15 1 14 2 13 3 12 4 11 5 5 6 4 7 3 8 2 9 7 10 6 11 8 12 9 13
REMARK SMILES IDX 10 14 1 15
REMARK H PARENT
REMARK Flexibility Score: inf
ROOT
ATOM      1  C   UNL     1      32.737   9.388  32.567  1.00  0.00     0.008 C 
ATOM      2  C   UNL     1      31.304   9.760  32.151  1.00  0.00    -0.007 C 
ATOM      3  C   UNL     1      30.360   8.514  32.083  1.00  0.00     0.004 C 
ATOM      4  C   UNL     1      30.016   8.264  30.592  1.00  0.00     0.005 C 
ATOM      5  C   UNL     1      31.054   9.108  29.886  1.00  0.00     0.002 C 
ATOM      6  C   UNL     1      31.190  10.365  30.733  1.00  0.00    -0.020 C 
ATOM      7  C   UNL     1      29.943  11.346  30.706  1.00  0.00     0.035 C 
ATOM      8  C   UNL     1      29.844  12.226  29.471  1.00  0.00    -0.027 C 
ATOM      9  C   UNL     1      30.714  12.094  28.454  1.00  0.00    -0.074 C 
ATOM     10  C   UNL     1      31.754  10.992  28.540  1.00  0.00     0.021 C 
ATOM     11  C   UNL     1      32.337  11.042  29.984  1.00  0.00     0.016 C 
ATOM     12  C   UNL     1      31.085   9.563  28.410  1.00  0.00    -0.025 C 
ATOM     13  C   UNL     1      29.678   9.526  27.759  1.00  0.00     0.012 C 
ATOM     14  C   UNL     1      32.008   8.648  27.570  1.00  0.00     0.012 C 
ATOM     15  C   UNL     1      30.633  13.000  27.258  1.00  0.00     0.039 C 
ENDROOT
TORSDOF 0
ENDMDL
MODEL 6
REMARK VINA RESULT:    -5.119      1.152      4.026
REMARK INTER + INTRA:          -5.119
REMARK INTER:                  -5.119
REMARK INTRA:                   0.000
REMARK UNBOUND:                 0.000
REMARK SMILES CC1=CC[C@]23C[C@H]1C(C)(C)[C@@H]2CC[C@H]3C
REMARK SMILES IDX 15 1 14 2 13 3 12 4 11 5 5 6 4 7 3 8 2 9 7 10 6 11 8 12 9 13
REMARK SMILES IDX 10 14 1 15
REMARK H PARENT
REMARK Flexibility Score: inf
ROOT
ATOM      1  C   UNL     1      29.388  12.645  30.975  1.00  0.00     0.008 C 
ATOM      2  C   UNL     1      30.787  12.425  31.576  1.00  0.00    -0.007 C 
ATOM      3  C   UNL     1      31.835  11.984  30.502  1.00  0.00     0.004 C 
ATOM      4  C   UNL     1      32.210  10.508  30.786  1.00  0.00     0.005 C 
ATOM      5  C   UNL     1      31.108  10.082  31.731  1.00  0.00     0.002 C 
ATOM      6  C   UNL     1      30.858  11.289  32.623  1.00  0.00    -0.020 C 
ATOM      7  C   UNL     1      32.016  11.630  33.653  1.00  0.00     0.035 C 
ATOM      8  C   UNL     1      32.047  10.758  34.896  1.00  0.00    -0.027 C 
ATOM      9  C   UNL     1      31.199   9.723  35.039  1.00  0.00    -0.074 C 
ATOM     10  C   UNL     1      30.258   9.406  33.892  1.00  0.00     0.021 C 
ATOM     11  C   UNL     1      29.662  10.764  33.416  1.00  0.00     0.016 C 
ATOM     12  C   UNL     1      31.049   8.837  32.644  1.00  0.00    -0.025 C 
ATOM     13  C   UNL     1      32.458   8.260  32.936  1.00  0.00     0.012 C 
ATOM     14  C   UNL     1      30.214   7.711  31.988  1.00  0.00     0.012 C 
ATOM     15  C   UNL     1      31.210   8.895  36.293  1.00  0.00     0.039 C 
ENDROOT
TORSDOF 0
ENDMDL
MODEL 7
REMARK VINA RESULT:    -5.089      4.231      7.022
REMARK INTER + INTRA:          -5.089
REMARK INTER:                  -5.089
REMARK INTRA:                   0.000
REMARK UNBOUND:                 0.000
REMARK SMILES CC1=CC[C@]23C[C@H]1C(C)(C)[C@@H]2CC[C@H]3C
REMARK SMILES IDX 15 1 14 2 13 3 12 4 11 5 5 6 4 7 3 8 2 9 7 10 6 11 8 12 9 13
REMARK SMILES IDX 10 14 1 15
REMARK H PARENT
REMARK Flexibility Score: inf
ROOT
ATOM      1  C   UNL     1      29.779   7.416  25.858  1.00  0.00     0.008 C 
ATOM      2  C   UNL     1      29.168   8.350  26.916  1.00  0.00    -0.007 C 
ATOM      3  C   UNL     1      28.076   9.296  26.318  1.00  0.00     0.004 C 
ATOM      4  C   UNL     1      28.641  10.739  26.336  1.00  0.00     0.005 C 
ATOM      5  C   UNL     1      30.116  10.494  26.571  1.00  0.00     0.002 C 
ATOM      6  C   UNL     1      30.175   9.334  27.554  1.00  0.00    -0.020 C 
ATOM      7  C   UNL     1      29.690   9.662  29.028  1.00  0.00     0.035 C 
ATOM      8  C   UNL     1      30.701  10.401  29.889  1.00  0.00    -0.027 C 
ATOM      9  C   UNL     1      31.876  10.814  29.378  1.00  0.00    -0.074 C 
ATOM     10  C   UNL     1      32.134  10.584  27.901  1.00  0.00     0.021 C 
ATOM     11  C   UNL     1      31.689   9.123  27.592  1.00  0.00     0.016 C 
ATOM     12  C   UNL     1      31.202  11.502  27.009  1.00  0.00    -0.025 C 
ATOM     13  C   UNL     1      30.596  12.745  27.710  1.00  0.00     0.012 C 
ATOM     14  C   UNL     1      32.010  12.007  25.788  1.00  0.00     0.012 C 
ATOM     15  C   UNL     1      32.885  11.505  30.250  1.00  0.00     0.039 C 
ENDROOT
TORSDOF 0
ENDMDL
MODEL 8
REMARK VINA RESULT:    -5.041      2.259      5.167
REMARK INTER + INTRA:          -5.041
REMARK INTER:                  -5.041
REMARK INTRA:                   0.000
REMARK UNBOUND:                 0.000
REMARK SMILES CC1=CC[C@]23C[C@H]1C(C)(C)[C@@H]2CC[C@H]3C
REMARK SMILES IDX 15 1 14 2 13 3 12 4 11 5 5 6 4 7 3 8 2 9 7 10 6 11 8 12 9 13
REMARK SMILES IDX 10 14 1 15
REMARK H PARENT
REMARK Flexibility Score: inf
ROOT
ATOM      1  C   UNL     1      31.595   8.652  27.762  1.00  0.00     0.008 C 
ATOM      2  C   UNL     1      31.156  10.071  28.161  1.00  0.00    -0.007 C 
ATOM      3  C   UNL     1      32.325  11.105  28.072  1.00  0.00     0.004 C 
ATOM      4  C   UNL     1      32.689  11.531  29.517  1.00  0.00     0.005 C 
ATOM      5  C   UNL     1      31.999  10.465  30.341  1.00  0.00     0.002 C 
ATOM      6  C   UNL     1      30.682  10.201  29.627  1.00  0.00    -0.020 C 
ATOM      7  C   UNL     1      29.615  11.372  29.706  1.00  0.00     0.035 C 
ATOM      8  C   UNL     1      28.851  11.460  31.017  1.00  0.00    -0.027 C 
ATOM      9  C   UNL     1      29.147  10.647  32.048  1.00  0.00    -0.074 C 
ATOM     10  C   UNL     1      30.313   9.688  31.890  1.00  0.00     0.021 C 
ATOM     11  C   UNL     1      30.170   9.040  30.481  1.00  0.00     0.016 C 
ATOM     12  C   UNL     1      31.692  10.466  31.855  1.00  0.00    -0.025 C 
ATOM     13  C   UNL     1      31.682  11.898  32.448  1.00  0.00     0.012 C 
ATOM     14  C   UNL     1      32.752   9.649  32.633  1.00  0.00     0.012 C 
ATOM     15  C   UNL     1      28.356  10.713  33.323  1.00  0.00     0.039 C 
ENDROOT
TORSDOF 0
ENDMDL
MODEL 9
REMARK VINA RESULT:    -5.027      3.686      6.018
REMARK INTER + INTRA:          -5.027
REMARK INTER:                  -5.027
REMARK INTRA:                   0.000
REMARK UNBOUND:                 0.000
REMARK SMILES CC1=CC[C@]23C[C@H]1C(C)(C)[C@@H]2CC[C@H]3C
REMARK SMILES IDX 15 1 14 2 13 3 12 4 11 5 5 6 4 7 3 8 2 9 7 10 6 11 8 12 9 13
REMARK SMILES IDX 10 14 1 15
REMARK H PARENT
REMARK Flexibility Score: inf
ROOT
ATOM      1  C   UNL     1      27.469   6.622  27.998  1.00  0.00     0.008 C 
ATOM      2  C   UNL     1      28.986   6.516  28.229  1.00  0.00    -0.007 C 
ATOM      3  C   UNL     1      29.336   5.915  29.630  1.00  0.00     0.004 C 
ATOM      4  C   UNL     1      29.958   7.047  30.487  1.00  0.00     0.005 C 
ATOM      5  C   UNL     1      29.584   8.280  29.694  1.00  0.00     0.002 C 
ATOM      6  C   UNL     1      29.725   7.874  28.235  1.00  0.00    -0.020 C 
ATOM      7  C   UNL     1      31.211   7.637  27.731  1.00  0.00     0.035 C 
ATOM      8  C   UNL     1      31.994   8.902  27.422  1.00  0.00    -0.027 C 
ATOM      9  C   UNL     1      31.468  10.118  27.656  1.00  0.00    -0.074 C 
ATOM     10  C   UNL     1      30.099  10.192  28.305  1.00  0.00     0.021 C 
ATOM     11  C   UNL     1      29.202   9.149  27.574  1.00  0.00     0.016 C 
ATOM     12  C   UNL     1      30.154   9.711  29.813  1.00  0.00    -0.025 C 
ATOM     13  C   UNL     1      31.551   9.729  30.483  1.00  0.00     0.012 C 
ATOM     14  C   UNL     1      29.221  10.607  30.663  1.00  0.00     0.012 C 
ATOM     15  C   UNL     1      32.235  11.361  27.305  1.00  0.00     0.039 C 
ENDROOT
TORSDOF 0
ENDMDL
