MODEL 1
REMARK VINA RESULT:    -6.477      0.000      0.000
REMARK INTER + INTRA:         -12.492
REMARK INTER:                 -11.400
REMARK INTRA:                  -1.092
REMARK UNBOUND:                -1.092
REMARK SMILES CCCCCCCCCCCCCCC(=O)[O-]
REMARK SMILES IDX 9 1 10 2 11 3 12 4 13 5 14 6 15 7 16 8 17 9 8 10 7 11 6 12
REMARK SMILES IDX 5 13 4 14 3 15 2 16 1 17
REMARK H PARENT
REMARK Flexibility Score: inf
ROOT
ATOM      1  C   UNL     1      -4.139   1.641   3.876  1.00  0.00     0.000 C 
ENDROOT
BRANCH   1   2
ATOM      2  C   UNL     1      -4.023   0.813   2.578  1.00  0.00     0.000 C 
BRANCH   2   3
ATOM      3  C   UNL     1      -5.394   0.317   2.084  1.00  0.00     0.000 C 
BRANCH   3   4
ATOM      4  C   UNL     1      -6.421   0.183   3.219  1.00  0.00     0.000 C 
BRANCH   4   5
ATOM      5  C   UNL     1      -6.671  -1.281   3.621  1.00  0.00     0.006 C 
BRANCH   5   6
ATOM      6  C   UNL     1      -6.202  -1.577   5.052  1.00  0.00     0.053 C 
BRANCH   6   7
ATOM      7  C   UNL     1      -4.735  -1.874   5.109  1.00  0.00     0.041 C 
ATOM      8  O   UNL     1      -4.153  -2.385   4.115  1.00  0.00    -0.550 OA
ATOM      9  O   UNL     1      -4.017  -1.618   6.270  1.00  0.00    -0.550 OA
ENDBRANCH   6   7
ENDBRANCH   5   6
ENDBRANCH   4   5
ENDBRANCH   3   4
ENDBRANCH   2   3
ENDBRANCH   1   2
BRANCH   1  10
ATOM     10  C   UNL     1      -3.083   2.752   3.995  1.00  0.00     0.000 C 
BRANCH  10  11
ATOM     11  C   UNL     1      -3.180   3.528   5.318  1.00  0.00    -0.000 C 
BRANCH  11  12
ATOM     12  C   UNL     1      -4.364   4.513   5.353  1.00  0.00    -0.000 C 
BRANCH  12  13
ATOM     13  C   UNL     1      -4.148   5.832   4.588  1.00  0.00    -0.000 C 
BRANCH  13  14
ATOM     14  C   UNL     1      -5.467   6.513   4.184  1.00  0.00    -0.000 C 
BRANCH  14  15
ATOM     15  C   UNL     1      -6.378   5.591   3.355  1.00  0.00    -0.000 C 
BRANCH  15  16
ATOM     16  C   UNL     1      -6.914   6.275   2.088  1.00  0.00    -0.003 C 
ATOM     17  C   UNL     1      -5.788   6.949   1.310  1.00  0.00     0.004 C 
ENDBRANCH  15  16
ENDBRANCH  14  15
ENDBRANCH  13  14
ENDBRANCH  12  13
ENDBRANCH  11  12
ENDBRANCH  10  11
ENDBRANCH   1  10
TORSDOF 13
ENDMDL
MODEL 2
REMARK VINA RESULT:    -6.362      1.212      2.209
REMARK INTER + INTRA:         -12.289
REMARK INTER:                 -11.288
REMARK INTRA:                  -1.001
REMARK UNBOUND:                -1.092
REMARK SMILES CCCCCCCCCCCCCCC(=O)[O-]
REMARK SMILES IDX 9 1 10 2 11 3 12 4 13 5 14 6 15 7 16 8 17 9 8 10 7 11 6 12
REMARK SMILES IDX 5 13 4 14 3 15 2 16 1 17
REMARK H PARENT
REMARK Flexibility Score: inf
ROOT
ATOM      1  C   UNL     1      -5.043   0.424   2.515  1.00  0.00     0.000 C 
ENDROOT
BRANCH   1   2
ATOM      2  C   UNL     1      -6.430   0.208   3.157  1.00  0.00     0.000 C 
BRANCH   2   3
ATOM      3  C   UNL     1      -6.660  -1.260   3.557  1.00  0.00     0.000 C 
BRANCH   3   4
ATOM      4  C   UNL     1      -6.183  -1.568   4.985  1.00  0.00     0.000 C 
BRANCH   4   5
ATOM      5  C   UNL     1      -4.838  -2.314   5.011  1.00  0.00     0.006 C 
BRANCH   5   6
ATOM      6  C   UNL     1      -3.831  -1.659   5.967  1.00  0.00     0.053 C 
BRANCH   6   7
ATOM      7  C   UNL     1      -2.928  -2.670   6.605  1.00  0.00     0.041 C 
ATOM      8  O   UNL     1      -1.755  -2.352   6.936  1.00  0.00    -0.550 OA
ATOM      9  O   UNL     1      -3.370  -3.972   6.803  1.00  0.00    -0.550 OA
ENDBRANCH   6   7
ENDBRANCH   5   6
ENDBRANCH   4   5
ENDBRANCH   3   4
ENDBRANCH   2   3
ENDBRANCH   1   2
BRANCH   1  10
ATOM     10  C   UNL     1      -4.024   1.087   3.456  1.00  0.00     0.000 C 
BRANCH  10  11
ATOM     11  C   UNL     1      -4.398   2.533   3.817  1.00  0.00    -0.000 C 
BRANCH  11  12
ATOM     12  C   UNL     1      -3.356   3.217   4.722  1.00  0.00    -0.000 C 
BRANCH  12  13
ATOM     13  C   UNL     1      -3.580   4.721   4.968  1.00  0.00    -0.000 C 
BRANCH  13  14
ATOM     14  C   UNL     1      -5.066   5.089   5.121  1.00  0.00    -0.000 C 
BRANCH  14  15
ATOM     15  C   UNL     1      -5.454   6.331   4.301  1.00  0.00    -0.000 C 
BRANCH  15  16
ATOM     16  C   UNL     1      -6.508   6.024   3.226  1.00  0.00    -0.003 C 
ATOM     17  C   UNL     1      -6.151   6.693   1.901  1.00  0.00     0.004 C 
ENDBRANCH  15  16
ENDBRANCH  14  15
ENDBRANCH  13  14
ENDBRANCH  12  13
ENDBRANCH  11  12
ENDBRANCH  10  11
ENDBRANCH   1  10
TORSDOF 13
ENDMDL
MODEL 3
REMARK VINA RESULT:    -6.308      3.772      4.994
REMARK INTER + INTRA:         -12.194
REMARK INTER:                 -11.524
REMARK INTRA:                  -0.670
REMARK UNBOUND:                -1.092
REMARK SMILES CCCCCCCCCCCCCCC(=O)[O-]
REMARK SMILES IDX 9 1 10 2 11 3 12 4 13 5 14 6 15 7 16 8 17 9 8 10 7 11 6 12
REMARK SMILES IDX 5 13 4 14 3 15 2 16 1 17
REMARK H PARENT
REMARK Flexibility Score: inf
ROOT
ATOM      1  C   UNL     1      -4.322   4.671   5.408  1.00  0.00     0.000 C 
ENDROOT
BRANCH   1   2
ATOM      2  C   UNL     1      -3.178   3.678   5.106  1.00  0.00     0.000 C 
BRANCH   2   3
ATOM      3  C   UNL     1      -2.906   2.733   6.289  1.00  0.00     0.000 C 
BRANCH   3   4
ATOM      4  C   UNL     1      -3.334   3.331   7.639  1.00  0.00     0.000 C 
BRANCH   4   5
ATOM      5  C   UNL     1      -2.924   2.451   8.832  1.00  0.00     0.006 C 
BRANCH   5   6
ATOM      6  C   UNL     1      -2.318   1.113   8.384  1.00  0.00     0.053 C 
BRANCH   6   7
ATOM      7  C   UNL     1      -0.991   0.858   9.029  1.00  0.00     0.041 C 
ATOM      8  O   UNL     1      -0.823  -0.162   9.750  1.00  0.00    -0.550 OA
ATOM      9  O   UNL     1       0.050   1.762   8.863  1.00  0.00    -0.550 OA
ENDBRANCH   6   7
ENDBRANCH   5   6
ENDBRANCH   4   5
ENDBRANCH   3   4
ENDBRANCH   2   3
ENDBRANCH   1   2
BRANCH   1  10
ATOM     10  C   UNL     1      -5.429   4.681   4.341  1.00  0.00     0.000 C 
BRANCH  10  11
ATOM     11  C   UNL     1      -6.059   6.069   4.148  1.00  0.00    -0.000 C 
BRANCH  11  12
ATOM     12  C   UNL     1      -5.722   6.699   2.784  1.00  0.00    -0.000 C 
BRANCH  12  13
ATOM     13  C   UNL     1      -6.720   6.396   1.651  1.00  0.00    -0.000 C 
BRANCH  13  14
ATOM     14  C   UNL     1      -8.107   5.979   2.169  1.00  0.00    -0.000 C 
BRANCH  14  15
ATOM     15  C   UNL     1      -9.169   5.951   1.057  1.00  0.00    -0.000 C 
BRANCH  15  16
ATOM     16  C   UNL     1     -10.597   5.804   1.606  1.00  0.00    -0.003 C 
ATOM     17  C   UNL     1     -10.597   5.778   3.131  1.00  0.00     0.004 C 
ENDBRANCH  15  16
ENDBRANCH  14  15
ENDBRANCH  13  14
ENDBRANCH  12  13
ENDBRANCH  11  12
ENDBRANCH  10  11
ENDBRANCH   1  10
TORSDOF 13
ENDMDL
MODEL 4
REMARK VINA RESULT:    -6.282      3.514      6.851
REMARK INTER + INTRA:         -12.149
REMARK INTER:                 -11.261
REMARK INTRA:                  -0.888
REMARK UNBOUND:                -1.092
REMARK SMILES CCCCCCCCCCCCCCC(=O)[O-]
REMARK SMILES IDX 9 1 10 2 11 3 12 4 13 5 14 6 15 7 16 8 17 9 8 10 7 11 6 12
REMARK SMILES IDX 5 13 4 14 3 15 2 16 1 17
REMARK H PARENT
REMARK Flexibility Score: inf
ROOT
ATOM      1  C   UNL     1      -4.738   4.670   5.141  1.00  0.00     0.000 C 
ENDROOT
BRANCH   1   2
ATOM      2  C   UNL     1      -4.323   5.967   4.414  1.00  0.00     0.000 C 
BRANCH   2   3
ATOM      3  C   UNL     1      -5.540   6.749   3.889  1.00  0.00     0.000 C 
BRANCH   3   4
ATOM      4  C   UNL     1      -5.610   6.781   2.354  1.00  0.00     0.000 C 
BRANCH   4   5
ATOM      5  C   UNL     1      -6.976   6.327   1.814  1.00  0.00     0.006 C 
BRANCH   5   6
ATOM      6  C   UNL     1      -7.862   5.723   2.914  1.00  0.00     0.053 C 
BRANCH   6   7
ATOM      7  C   UNL     1      -9.279   5.555   2.460  1.00  0.00     0.041 C 
ATOM      8  O   UNL     1      -9.699   6.179   1.450  1.00  0.00    -0.550 OA
ATOM      9  O   UNL     1     -10.145   4.734   3.171  1.00  0.00    -0.550 OA
ENDBRANCH   6   7
ENDBRANCH   5   6
ENDBRANCH   4   5
ENDBRANCH   3   4
ENDBRANCH   2   3
ENDBRANCH   1   2
BRANCH   1  10
ATOM     10  C   UNL     1      -3.548   3.790   5.559  1.00  0.00     0.000 C 
BRANCH  10  11
ATOM     11  C   UNL     1      -3.142   2.781   4.473  1.00  0.00    -0.000 C 
BRANCH  11  12
ATOM     12  C   UNL     1      -4.347   2.211   3.700  1.00  0.00    -0.000 C 
BRANCH  12  13
ATOM     13  C   UNL     1      -4.132   0.820   3.075  1.00  0.00    -0.000 C 
BRANCH  13  14
ATOM     14  C   UNL     1      -5.383   0.284   2.359  1.00  0.00    -0.000 C 
BRANCH  14  15
ATOM     15  C   UNL     1      -6.553   0.030   3.326  1.00  0.00    -0.000 C 
BRANCH  15  16
ATOM     16  C   UNL     1      -6.614  -1.428   3.809  1.00  0.00    -0.003 C 
ATOM     17  C   UNL     1      -5.912  -1.588   5.155  1.00  0.00     0.004 C 
ENDBRANCH  15  16
ENDBRANCH  14  15
ENDBRANCH  13  14
ENDBRANCH  12  13
ENDBRANCH  11  12
ENDBRANCH  10  11
ENDBRANCH   1  10
TORSDOF 13
ENDMDL
MODEL 5
REMARK VINA RESULT:    -6.248      3.223      6.999
REMARK INTER + INTRA:         -12.089
REMARK INTER:                 -10.787
REMARK INTRA:                  -1.302
REMARK UNBOUND:                -1.092
REMARK SMILES CCCCCCCCCCCCCCC(=O)[O-]
REMARK SMILES IDX 9 1 10 2 11 3 12 4 13 5 14 6 15 7 16 8 17 9 8 10 7 11 6 12
REMARK SMILES IDX 5 13 4 14 3 15 2 16 1 17
REMARK H PARENT
REMARK Flexibility Score: inf
ROOT
ATOM      1  C   UNL     1      -3.267   2.272   4.822  1.00  0.00     0.000 C 
ENDROOT
BRANCH   1   2
ATOM      2  C   UNL     1      -2.891   3.735   5.143  1.00  0.00     0.000 C 
BRANCH   2   3
ATOM      3  C   UNL     1      -4.120   4.662   5.136  1.00  0.00     0.000 C 
BRANCH   3   4
ATOM      4  C   UNL     1      -3.876   5.968   4.363  1.00  0.00     0.000 C 
BRANCH   4   5
ATOM      5  C   UNL     1      -5.180   6.611   3.862  1.00  0.00     0.006 C 
BRANCH   5   6
ATOM      6  C   UNL     1      -6.387   5.676   4.026  1.00  0.00     0.053 C 
BRANCH   6   7
ATOM      7  C   UNL     1      -7.361   5.819   2.897  1.00  0.00     0.041 C 
ATOM      8  O   UNL     1      -7.010   6.380   1.825  1.00  0.00    -0.550 OA
ATOM      9  O   UNL     1      -8.665   5.362   3.040  1.00  0.00    -0.550 OA
ENDBRANCH   6   7
ENDBRANCH   5   6
ENDBRANCH   4   5
ENDBRANCH   3   4
ENDBRANCH   2   3
ENDBRANCH   1   2
BRANCH   1  10
ATOM     10  C   UNL     1      -4.272   2.132   3.666  1.00  0.00     0.000 C 
BRANCH  10  11
ATOM     11  C   UNL     1      -4.085   0.832   2.868  1.00  0.00    -0.000 C 
BRANCH  11  12
ATOM     12  C   UNL     1      -5.392   0.324   2.231  1.00  0.00    -0.000 C 
BRANCH  12  13
ATOM     13  C   UNL     1      -6.563   0.108   3.208  1.00  0.00    -0.000 C 
BRANCH  13  14
ATOM     14  C   UNL     1      -6.690  -1.350   3.680  1.00  0.00    -0.000 C 
BRANCH  14  15
ATOM     15  C   UNL     1      -6.127  -1.563   5.096  1.00  0.00    -0.000 C 
BRANCH  15  16
ATOM     16  C   UNL     1      -4.720  -2.180   5.086  1.00  0.00    -0.003 C 
ATOM     17  C   UNL     1      -3.763  -1.378   5.963  1.00  0.00     0.004 C 
ENDBRANCH  15  16
ENDBRANCH  14  15
ENDBRANCH  13  14
ENDBRANCH  12  13
ENDBRANCH  11  12
ENDBRANCH  10  11
ENDBRANCH   1  10
TORSDOF 13
ENDMDL
MODEL 6
REMARK VINA RESULT:    -6.204      3.444      4.572
REMARK INTER + INTRA:         -12.012
REMARK INTER:                 -11.320
REMARK INTRA:                  -0.691
REMARK UNBOUND:                -1.092
REMARK SMILES CCCCCCCCCCCCCCC(=O)[O-]
REMARK SMILES IDX 9 1 10 2 11 3 12 4 13 5 14 6 15 7 16 8 17 9 8 10 7 11 6 12
REMARK SMILES IDX 5 13 4 14 3 15 2 16 1 17
REMARK H PARENT
REMARK Flexibility Score: inf
ROOT
ATOM      1  C   UNL     1      -4.115   0.622   2.905  1.00  0.00     0.000 C 
ENDROOT
BRANCH   1   2
ATOM      2  C   UNL     1      -5.017   0.413   1.669  1.00  0.00     0.000 C 
BRANCH   2   3
ATOM      3  C   UNL     1      -4.203   0.342   0.365  1.00  0.00     0.000 C 
BRANCH   3   4
ATOM      4  C   UNL     1      -5.086   0.140  -0.877  1.00  0.00     0.000 C 
BRANCH   4   5
ATOM      5  C   UNL     1      -4.278   0.154  -2.185  1.00  0.00     0.006 C 
BRANCH   5   6
ATOM      6  C   UNL     1      -4.455  -1.142  -2.989  1.00  0.00     0.053 C 
BRANCH   6   7
ATOM      7  C   UNL     1      -3.244  -2.020  -2.907  1.00  0.00     0.041 C 
ATOM      8  O   UNL     1      -3.197  -3.097  -3.559  1.00  0.00    -0.550 OA
ATOM      9  O   UNL     1      -2.181  -1.666  -2.086  1.00  0.00    -0.550 OA
ENDBRANCH   6   7
ENDBRANCH   5   6
ENDBRANCH   4   5
ENDBRANCH   3   4
ENDBRANCH   2   3
ENDBRANCH   1   2
BRANCH   1  10
ATOM     10  C   UNL     1      -4.444   1.896   3.701  1.00  0.00     0.000 C 
BRANCH  10  11
ATOM     11  C   UNL     1      -3.189   2.668   4.137  1.00  0.00    -0.000 C 
BRANCH  11  12
ATOM     12  C   UNL     1      -3.299   3.239   5.564  1.00  0.00    -0.000 C 
BRANCH  12  13
ATOM     13  C   UNL     1      -4.275   4.419   5.729  1.00  0.00    -0.000 C 
BRANCH  13  14
ATOM     14  C   UNL     1      -4.105   5.496   4.644  1.00  0.00    -0.000 C 
BRANCH  14  15
ATOM     15  C   UNL     1      -5.416   6.241   4.341  1.00  0.00    -0.000 C 
BRANCH  15  16
ATOM     16  C   UNL     1      -6.174   5.640   3.146  1.00  0.00    -0.003 C 
ATOM     17  C   UNL     1      -6.182   6.603   1.962  1.00  0.00     0.004 C 
ENDBRANCH  15  16
ENDBRANCH  14  15
ENDBRANCH  13  14
ENDBRANCH  12  13
ENDBRANCH  11  12
ENDBRANCH  10  11
ENDBRANCH   1  10
TORSDOF 13
ENDMDL
MODEL 7
REMARK VINA RESULT:    -6.034      3.808      6.682
REMARK INTER + INTRA:         -11.713
REMARK INTER:                 -11.107
REMARK INTRA:                  -0.606
REMARK UNBOUND:                -1.092
REMARK SMILES CCCCCCCCCCCCCCC(=O)[O-]
REMARK SMILES IDX 9 1 10 2 11 3 12 4 13 5 14 6 15 7 16 8 17 9 8 10 7 11 6 12
REMARK SMILES IDX 5 13 4 14 3 15 2 16 1 17
REMARK H PARENT
REMARK Flexibility Score: inf
ROOT
ATOM      1  C   UNL     1      -5.701   5.485   3.916  1.00  0.00     0.000 C 
ENDROOT
BRANCH   1   2
ATOM      2  C   UNL     1      -5.833   6.621   2.878  1.00  0.00     0.000 C 
BRANCH   2   3
ATOM      3  C   UNL     1      -6.875   6.293   1.794  1.00  0.00     0.000 C 
BRANCH   3   4
ATOM      4  C   UNL     1      -8.244   5.915   2.379  1.00  0.00     0.000 C 
BRANCH   4   5
ATOM      5  C   UNL     1      -9.350   5.866   1.312  1.00  0.00     0.006 C 
BRANCH   5   6
ATOM      6  C   UNL     1     -10.754   5.951   1.928  1.00  0.00     0.053 C 
BRANCH   6   7
ATOM      7  C   UNL     1     -10.782   5.424   3.329  1.00  0.00     0.041 C 
ATOM      8  O   UNL     1     -10.739   4.182   3.540  1.00  0.00    -0.550 OA
ATOM      9  O   UNL     1     -10.889   6.300   4.401  1.00  0.00    -0.550 OA
ENDBRANCH   6   7
ENDBRANCH   5   6
ENDBRANCH   4   5
ENDBRANCH   3   4
ENDBRANCH   2   3
ENDBRANCH   1   2
BRANCH   1  10
ATOM     10  C   UNL     1      -4.365   5.498   4.678  1.00  0.00     0.000 C 
BRANCH  10  11
ATOM     11  C   UNL     1      -4.301   4.437   5.787  1.00  0.00    -0.000 C 
BRANCH  11  12
ATOM     12  C   UNL     1      -3.178   3.405   5.569  1.00  0.00    -0.000 C 
BRANCH  12  13
ATOM     13  C   UNL     1      -3.147   2.748   4.176  1.00  0.00    -0.000 C 
BRANCH  13  14
ATOM     14  C   UNL     1      -3.913   1.415   4.123  1.00  0.00    -0.000 C 
BRANCH  14  15
ATOM     15  C   UNL     1      -4.570   1.166   2.755  1.00  0.00    -0.000 C 
BRANCH  15  16
ATOM     16  C   UNL     1      -5.618   0.042   2.799  1.00  0.00    -0.003 C 
ATOM     17  C   UNL     1      -5.457  -0.808   4.056  1.00  0.00     0.004 C 
ENDBRANCH  15  16
ENDBRANCH  14  15
ENDBRANCH  13  14
ENDBRANCH  12  13
ENDBRANCH  11  12
ENDBRANCH  10  11
ENDBRANCH   1  10
TORSDOF 13
ENDMDL
MODEL 8
REMARK VINA RESULT:    -6.014      1.725      3.098
REMARK INTER + INTRA:         -11.676
REMARK INTER:                 -10.751
REMARK INTRA:                  -0.925
REMARK UNBOUND:                -1.092
REMARK SMILES CCCCCCCCCCCCCCC(=O)[O-]
REMARK SMILES IDX 9 1 10 2 11 3 12 4 13 5 14 6 15 7 16 8 17 9 8 10 7 11 6 12
REMARK SMILES IDX 5 13 4 14 3 15 2 16 1 17
REMARK H PARENT
REMARK Flexibility Score: inf
ROOT
ATOM      1  C   UNL     1      -4.041   4.375   5.464  1.00  0.00     0.000 C 
ENDROOT
BRANCH   1   2
ATOM      2  C   UNL     1      -3.200   3.083   5.398  1.00  0.00     0.000 C 
BRANCH   2   3
ATOM      3  C   UNL     1      -3.263   2.422   4.010  1.00  0.00     0.000 C 
BRANCH   3   4
ATOM      4  C   UNL     1      -4.697   2.070   3.584  1.00  0.00     0.000 C 
BRANCH   4   5
ATOM      5  C   UNL     1      -4.803   0.664   2.970  1.00  0.00     0.006 C 
BRANCH   5   6
ATOM      6  C   UNL     1      -4.401  -0.434   3.965  1.00  0.00     0.053 C 
BRANCH   6   7
ATOM      7  C   UNL     1      -5.563  -1.304   4.335  1.00  0.00     0.041 C 
ATOM      8  O   UNL     1      -5.560  -1.936   5.425  1.00  0.00    -0.550 OA
ATOM      9  O   UNL     1      -6.634  -1.445   3.462  1.00  0.00    -0.550 OA
ENDBRANCH   6   7
ENDBRANCH   5   6
ENDBRANCH   4   5
ENDBRANCH   3   4
ENDBRANCH   2   3
ENDBRANCH   1   2
BRANCH   1  10
ATOM     10  C   UNL     1      -3.423   5.554   4.693  1.00  0.00     0.000 C 
BRANCH  10  11
ATOM     11  C   UNL     1      -4.464   6.360   3.901  1.00  0.00    -0.000 C 
BRANCH  11  12
ATOM     12  C   UNL     1      -5.915   6.003   4.276  1.00  0.00    -0.000 C 
BRANCH  12  13
ATOM     13  C   UNL     1      -6.691   5.199   3.216  1.00  0.00    -0.000 C 
BRANCH  13  14
ATOM     14  C   UNL     1      -7.440   6.093   2.214  1.00  0.00    -0.000 C 
BRANCH  14  15
ATOM     15  C   UNL     1      -8.963   5.879   2.256  1.00  0.00    -0.000 C 
BRANCH  15  16
ATOM     16  C   UNL     1      -9.601   5.894   0.857  1.00  0.00    -0.003 C 
ATOM     17  C   UNL     1     -10.939   6.628   0.873  1.00  0.00     0.004 C 
ENDBRANCH  15  16
ENDBRANCH  14  15
ENDBRANCH  13  14
ENDBRANCH  12  13
ENDBRANCH  11  12
ENDBRANCH  10  11
ENDBRANCH   1  10
TORSDOF 13
ENDMDL
MODEL 9
REMARK VINA RESULT:    -6.010     10.763     12.949
REMARK INTER + INTRA:         -11.670
REMARK INTER:                 -11.058
REMARK INTRA:                  -0.612
REMARK UNBOUND:                -1.092
REMARK SMILES CCCCCCCCCCCCCCC(=O)[O-]
REMARK SMILES IDX 9 1 10 2 11 3 12 4 13 5 14 6 15 7 16 8 17 9 8 10 7 11 6 12
REMARK SMILES IDX 5 13 4 14 3 15 2 16 1 17
REMARK H PARENT
REMARK Flexibility Score: inf
ROOT
ATOM      1  C   UNL     1       0.878  -3.631  -8.006  1.00  0.00     0.000 C 
ENDROOT
BRANCH   1   2
ATOM      2  C   UNL     1       2.289  -4.048  -7.537  1.00  0.00     0.000 C 
BRANCH   2   3
ATOM      3  C   UNL     1       3.382  -3.126  -8.104  1.00  0.00     0.000 C 
BRANCH   3   4
ATOM      4  C   UNL     1       4.593  -2.994  -7.168  1.00  0.00     0.000 C 
BRANCH   4   5
ATOM      5  C   UNL     1       4.666  -1.618  -6.485  1.00  0.00     0.006 C 
BRANCH   5   6
ATOM      6  C   UNL     1       4.209  -1.672  -5.021  1.00  0.00     0.053 C 
BRANCH   6   7
ATOM      7  C   UNL     1       5.342  -1.428  -4.073  1.00  0.00     0.041 C 
ATOM      8  O   UNL     1       5.221  -1.715  -2.852  1.00  0.00    -0.550 OA
ATOM      9  O   UNL     1       6.521  -0.852  -4.530  1.00  0.00    -0.550 OA
ENDBRANCH   6   7
ENDBRANCH   5   6
ENDBRANCH   4   5
ENDBRANCH   3   4
ENDBRANCH   2   3
ENDBRANCH   1   2
BRANCH   1  10
ATOM     10  C   UNL     1      -0.258  -4.330  -7.240  1.00  0.00     0.000 C 
BRANCH  10  11
ATOM     11  C   UNL     1      -0.210  -4.064  -5.727  1.00  0.00    -0.000 C 
BRANCH  11  12
ATOM     12  C   UNL     1      -0.490  -2.593  -5.365  1.00  0.00    -0.000 C 
BRANCH  12  13
ATOM     13  C   UNL     1      -1.495  -2.375  -4.220  1.00  0.00    -0.000 C 
BRANCH  13  14
ATOM     14  C   UNL     1      -2.097  -0.959  -4.210  1.00  0.00    -0.000 C 
BRANCH  14  15
ATOM     15  C   UNL     1      -3.486  -0.913  -3.551  1.00  0.00    -0.000 C 
BRANCH  15  16
ATOM     16  C   UNL     1      -3.688   0.340  -2.685  1.00  0.00    -0.003 C 
ATOM     17  C   UNL     1      -4.571   0.035  -1.478  1.00  0.00     0.004 C 
ENDBRANCH  15  16
ENDBRANCH  14  15
ENDBRANCH  13  14
ENDBRANCH  12  13
ENDBRANCH  11  12
ENDBRANCH  10  11
ENDBRANCH   1  10
TORSDOF 13
ENDMDL
