MODEL 1
REMARK VINA RESULT:    -4.123      0.000      0.000
REMARK INTER + INTRA:         -10.363
REMARK INTER:                  -7.979
REMARK INTRA:                  -2.383
REMARK UNBOUND:                -2.383
REMARK SMILES CCCCCCCCCCCCCCCCCC(=O)[O-]
REMARK SMILES IDX 10 1 11 2 12 3 13 4 14 5 15 6 16 7 17 8 18 9 19 10 20 11
REMARK SMILES IDX 9 12 8 13 7 14 6 15 5 16 4 17 3 18 2 19 1 20
REMARK H PARENT
REMARK Flexibility Score: inf
ROOT
ATOM      1  C   UNL     1      98.775   4.697 -29.005  1.00  0.00     0.000 C 
ENDROOT
BRANCH   1   2
ATOM      2  C   UNL     1      97.931   3.784 -29.909  1.00  0.00     0.000 C 
BRANCH   2   3
ATOM      3  C   UNL     1      98.029   2.302 -29.506  1.00  0.00     0.000 C 
BRANCH   3   4
ATOM      4  C   UNL     1      99.455   1.738 -29.682  1.00  0.00     0.000 C 
BRANCH   4   5
ATOM      5  C   UNL     1     100.072   1.195 -28.379  1.00  0.00     0.000 C 
BRANCH   5   6
ATOM      6  C   UNL     1      99.076   0.513 -27.422  1.00  0.00     0.000 C 
BRANCH   6   7
ATOM      7  C   UNL     1      99.592   0.305 -25.986  1.00  0.00     0.006 C 
BRANCH   7   8
ATOM      8  C   UNL     1      98.515  -0.234 -25.036  1.00  0.00     0.053 C 
BRANCH   8   9
ATOM      9  C   UNL     1      98.589   0.462 -23.713  1.00  0.00     0.041 C 
ATOM     10  O   UNL     1      99.597   1.156 -23.415  1.00  0.00    -0.550 OA
ATOM     11  O   UNL     1      97.555   0.321 -22.796  1.00  0.00    -0.550 OA
ENDBRANCH   8   9
ENDBRANCH   7   8
ENDBRANCH   6   7
ENDBRANCH   5   6
ENDBRANCH   4   5
ENDBRANCH   3   4
ENDBRANCH   2   3
ENDBRANCH   1   2
BRANCH   1  12
ATOM     12  C   UNL     1      98.154   4.883 -27.610  1.00  0.00     0.000 C 
BRANCH  12  13
ATOM     13  C   UNL     1      98.969   4.195 -26.503  1.00  0.00    -0.000 C 
BRANCH  13  14
ATOM     14  C   UNL     1      98.076   3.568 -25.419  1.00  0.00    -0.000 C 
BRANCH  14  15
ATOM     15  C   UNL     1      96.661   3.250 -25.927  1.00  0.00    -0.000 C 
BRANCH  15  16
ATOM     16  C   UNL     1      95.674   2.932 -24.788  1.00  0.00    -0.000 C 
BRANCH  16  17
ATOM     17  C   UNL     1      94.246   3.429 -25.102  1.00  0.00    -0.000 C 
BRANCH  17  18
ATOM     18  C   UNL     1      94.183   4.413 -26.286  1.00  0.00    -0.000 C 
BRANCH  18  19
ATOM     19  C   UNL     1      93.194   5.576 -26.097  1.00  0.00    -0.003 C 
ATOM     20  C   UNL     1      92.648   5.664 -24.671  1.00  0.00     0.004 C 
ENDBRANCH  18  19
ENDBRANCH  17  18
ENDBRANCH  16  17
ENDBRANCH  15  16
ENDBRANCH  14  15
ENDBRANCH  13  14
ENDBRANCH  12  13
ENDBRANCH   1  12
TORSDOF 16
ENDMDL
MODEL 2
REMARK VINA RESULT:    -4.097      3.744      7.574
REMARK INTER + INTRA:         -10.312
REMARK INTER:                  -8.289
REMARK INTRA:                  -2.023
REMARK UNBOUND:                -2.383
REMARK SMILES CCCCCCCCCCCCCCCCCC(=O)[O-]
REMARK SMILES IDX 10 1 11 2 12 3 13 4 14 5 15 6 16 7 17 8 18 9 19 10 20 11
REMARK SMILES IDX 9 12 8 13 7 14 6 15 5 16 4 17 3 18 2 19 1 20
REMARK H PARENT
REMARK Flexibility Score: inf
ROOT
ATOM      1  C   UNL     1      97.191   2.708 -26.048  1.00  0.00     0.000 C 
ENDROOT
BRANCH   1   2
ATOM      2  C   UNL     1      95.792   3.184 -25.623  1.00  0.00     0.000 C 
BRANCH   2   3
ATOM      3  C   UNL     1      95.021   3.850 -26.777  1.00  0.00     0.000 C 
BRANCH   3   4
ATOM      4  C   UNL     1      93.667   4.433 -26.320  1.00  0.00     0.000 C 
BRANCH   4   5
ATOM      5  C   UNL     1      93.644   5.972 -26.253  1.00  0.00     0.000 C 
BRANCH   5   6
ATOM      6  C   UNL     1      92.253   6.610 -26.419  1.00  0.00     0.000 C 
BRANCH   6   7
ATOM      7  C   UNL     1      91.223   5.742 -27.165  1.00  0.00     0.006 C 
BRANCH   7   8
ATOM      8  C   UNL     1      90.685   6.412 -28.436  1.00  0.00     0.053 C 
BRANCH   8   9
ATOM      9  C   UNL     1      91.452   5.951 -29.635  1.00  0.00     0.041 C 
ATOM     10  O   UNL     1      92.138   4.895 -29.584  1.00  0.00    -0.550 OA
ATOM     11  O   UNL     1      91.433   6.702 -30.803  1.00  0.00    -0.550 OA
ENDBRANCH   8   9
ENDBRANCH   7   8
ENDBRANCH   6   7
ENDBRANCH   5   6
ENDBRANCH   4   5
ENDBRANCH   3   4
ENDBRANCH   2   3
ENDBRANCH   1   2
BRANCH   1  12
ATOM     12  C   UNL     1      98.295   3.712 -25.672  1.00  0.00     0.000 C 
BRANCH  12  13
ATOM     13  C   UNL     1      99.113   4.173 -26.888  1.00  0.00    -0.000 C 
BRANCH  13  14
ATOM     14  C   UNL     1      98.286   5.024 -27.866  1.00  0.00    -0.000 C 
BRANCH  14  15
ATOM     15  C   UNL     1      98.401   4.537 -29.319  1.00  0.00    -0.000 C 
BRANCH  15  16
ATOM     16  C   UNL     1      97.360   3.459 -29.674  1.00  0.00    -0.000 C 
BRANCH  16  17
ATOM     17  C   UNL     1      98.016   2.185 -30.248  1.00  0.00    -0.000 C 
BRANCH  17  18
ATOM     18  C   UNL     1      99.549   2.158 -30.092  1.00  0.00    -0.000 C 
BRANCH  18  19
ATOM     19  C   UNL     1     100.052   1.395 -28.855  1.00  0.00    -0.003 C 
ATOM     20  C   UNL     1      99.010   0.427 -28.292  1.00  0.00     0.004 C 
ENDBRANCH  18  19
ENDBRANCH  17  18
ENDBRANCH  16  17
ENDBRANCH  15  16
ENDBRANCH  14  15
ENDBRANCH  13  14
ENDBRANCH  12  13
ENDBRANCH   1  12
TORSDOF 16
ENDMDL
MODEL 3
REMARK VINA RESULT:    -4.047      1.173      2.674
REMARK INTER + INTRA:         -10.216
REMARK INTER:                  -7.831
REMARK INTRA:                  -2.385
REMARK UNBOUND:                -2.383
REMARK SMILES CCCCCCCCCCCCCCCCCC(=O)[O-]
REMARK SMILES IDX 10 1 11 2 12 3 13 4 14 5 15 6 16 7 17 8 18 9 19 10 20 11
REMARK SMILES IDX 9 12 8 13 7 14 6 15 5 16 4 17 3 18 2 19 1 20
REMARK H PARENT
REMARK Flexibility Score: inf
ROOT
ATOM      1  C   UNL     1      98.583   2.108 -29.774  1.00  0.00     0.000 C 
ENDROOT
BRANCH   1   2
ATOM      2  C   UNL     1      99.486   1.032 -29.151  1.00  0.00     0.000 C 
BRANCH   2   3
ATOM      3  C   UNL     1      98.995   0.581 -27.764  1.00  0.00     0.000 C 
BRANCH   3   4
ATOM      4  C   UNL     1      99.978   0.966 -26.638  1.00  0.00     0.000 C 
BRANCH   4   5
ATOM      5  C   UNL     1      99.736   0.209 -25.318  1.00  0.00     0.000 C 
BRANCH   5   6
ATOM      6  C   UNL     1      98.989  -1.130 -25.463  1.00  0.00     0.000 C 
BRANCH   6   7
ATOM      7  C   UNL     1      97.973  -1.432 -24.346  1.00  0.00     0.006 C 
BRANCH   7   8
ATOM      8  C   UNL     1      96.899  -0.345 -24.204  1.00  0.00     0.053 C 
BRANCH   8   9
ATOM      9  C   UNL     1      96.878   0.192 -22.808  1.00  0.00     0.041 C 
ATOM     10  O   UNL     1      95.850   0.767 -22.362  1.00  0.00    -0.550 OA
ATOM     11  O   UNL     1      98.007   0.081 -22.004  1.00  0.00    -0.550 OA
ENDBRANCH   8   9
ENDBRANCH   7   8
ENDBRANCH   6   7
ENDBRANCH   5   6
ENDBRANCH   4   5
ENDBRANCH   3   4
ENDBRANCH   2   3
ENDBRANCH   1   2
BRANCH   1  12
ATOM     12  C   UNL     1      99.295   3.466 -29.916  1.00  0.00     0.000 C 
BRANCH  12  13
ATOM     13  C   UNL     1      98.650   4.563 -29.054  1.00  0.00    -0.000 C 
BRANCH  13  14
ATOM     14  C   UNL     1      99.457   4.858 -27.778  1.00  0.00    -0.000 C 
BRANCH  14  15
ATOM     15  C   UNL     1      98.705   4.465 -26.497  1.00  0.00    -0.000 C 
BRANCH  15  16
ATOM     16  C   UNL     1      97.291   3.923 -26.776  1.00  0.00    -0.000 C 
BRANCH  16  17
ATOM     17  C   UNL     1      96.848   2.886 -25.721  1.00  0.00    -0.000 C 
BRANCH  17  18
ATOM     18  C   UNL     1      95.335   2.911 -25.431  1.00  0.00    -0.000 C 
BRANCH  18  19
ATOM     19  C   UNL     1      94.487   3.586 -26.522  1.00  0.00    -0.003 C 
ATOM     20  C   UNL     1      93.793   4.857 -26.033  1.00  0.00     0.004 C 
ENDBRANCH  18  19
ENDBRANCH  17  18
ENDBRANCH  16  17
ENDBRANCH  15  16
ENDBRANCH  14  15
ENDBRANCH  13  14
ENDBRANCH  12  13
ENDBRANCH   1  12
TORSDOF 16
ENDMDL
MODEL 4
REMARK VINA RESULT:    -4.043      1.444      2.099
REMARK INTER + INTRA:         -10.209
REMARK INTER:                  -7.951
REMARK INTRA:                  -2.257
REMARK UNBOUND:                -2.383
REMARK SMILES CCCCCCCCCCCCCCCCCC(=O)[O-]
REMARK SMILES IDX 10 1 11 2 12 3 13 4 14 5 15 6 16 7 17 8 18 9 19 10 20 11
REMARK SMILES IDX 9 12 8 13 7 14 6 15 5 16 4 17 3 18 2 19 1 20
REMARK H PARENT
REMARK Flexibility Score: inf
ROOT
ATOM      1  C   UNL     1      99.363   3.363 -29.749  1.00  0.00     0.000 C 
ENDROOT
BRANCH   1   2
ATOM      2  C   UNL     1      98.378   2.205 -29.973  1.00  0.00     0.000 C 
BRANCH   2   3
ATOM      3  C   UNL     1      98.920   0.861 -29.454  1.00  0.00     0.000 C 
BRANCH   3   4
ATOM      4  C   UNL     1      99.764   1.023 -28.171  1.00  0.00     0.000 C 
BRANCH   4   5
ATOM      5  C   UNL     1      99.164   0.318 -26.940  1.00  0.00     0.000 C 
BRANCH   5   6
ATOM      6  C   UNL     1      99.852   0.647 -25.602  1.00  0.00     0.000 C 
BRANCH   6   7
ATOM      7  C   UNL     1      99.176   0.043 -24.358  1.00  0.00     0.006 C 
BRANCH   7   8
ATOM      8  C   UNL     1      97.820  -0.604 -24.669  1.00  0.00     0.053 C 
BRANCH   8   9
ATOM      9  C   UNL     1      97.795  -2.021 -24.189  1.00  0.00     0.041 C 
ATOM     10  O   UNL     1      96.742  -2.706 -24.283  1.00  0.00    -0.550 OA
ATOM     11  O   UNL     1      98.928  -2.579 -23.610  1.00  0.00    -0.550 OA
ENDBRANCH   8   9
ENDBRANCH   7   8
ENDBRANCH   6   7
ENDBRANCH   5   6
ENDBRANCH   4   5
ENDBRANCH   3   4
ENDBRANCH   2   3
ENDBRANCH   1   2
BRANCH   1  12
ATOM     12  C   UNL     1      98.662   4.654 -29.290  1.00  0.00     0.000 C 
BRANCH  12  13
ATOM     13  C   UNL     1      99.246   5.212 -27.983  1.00  0.00    -0.000 C 
BRANCH  13  14
ATOM     14  C   UNL     1      98.993   4.284 -26.783  1.00  0.00    -0.000 C 
BRANCH  14  15
ATOM     15  C   UNL     1      97.521   3.865 -26.657  1.00  0.00    -0.000 C 
BRANCH  15  16
ATOM     16  C   UNL     1      97.203   3.189 -25.311  1.00  0.00    -0.000 C 
BRANCH  16  17
ATOM     17  C   UNL     1      95.745   2.686 -25.243  1.00  0.00    -0.000 C 
BRANCH  17  18
ATOM     18  C   UNL     1      94.885   3.127 -26.443  1.00  0.00    -0.000 C 
BRANCH  18  19
ATOM     19  C   UNL     1      93.864   4.233 -26.125  1.00  0.00    -0.003 C 
ATOM     20  C   UNL     1      93.374   4.188 -24.677  1.00  0.00     0.004 C 
ENDBRANCH  18  19
ENDBRANCH  17  18
ENDBRANCH  16  17
ENDBRANCH  15  16
ENDBRANCH  14  15
ENDBRANCH  13  14
ENDBRANCH  12  13
ENDBRANCH   1  12
TORSDOF 16
ENDMDL
MODEL 5
REMARK VINA RESULT:    -3.944      2.280      5.138
REMARK INTER + INTRA:         -10.017
REMARK INTER:                  -7.531
REMARK INTRA:                  -2.487
REMARK UNBOUND:                -2.383
REMARK SMILES CCCCCCCCCCCCCCCCCC(=O)[O-]
REMARK SMILES IDX 10 1 11 2 12 3 13 4 14 5 15 6 16 7 17 8 18 9 19 10 20 11
REMARK SMILES IDX 9 12 8 13 7 14 6 15 5 16 4 17 3 18 2 19 1 20
REMARK H PARENT
REMARK Flexibility Score: inf
ROOT
ATOM      1  C   UNL     1      99.826   3.613 -29.333  1.00  0.00     0.000 C 
ENDROOT
BRANCH   1   2
ATOM      2  C   UNL     1      99.992   4.590 -28.159  1.00  0.00     0.000 C 
BRANCH   2   3
ATOM      3  C   UNL     1      98.665   4.864 -27.428  1.00  0.00     0.000 C 
BRANCH   3   4
ATOM      4  C   UNL     1      98.570   4.118 -26.080  1.00  0.00     0.000 C 
BRANCH   4   5
ATOM      5  C   UNL     1      97.265   3.320 -25.902  1.00  0.00     0.000 C 
BRANCH   5   6
ATOM      6  C   UNL     1      96.245   3.478 -27.046  1.00  0.00     0.000 C 
BRANCH   6   7
ATOM      7  C   UNL     1      94.791   3.705 -26.593  1.00  0.00     0.006 C 
BRANCH   7   8
ATOM      8  C   UNL     1      94.537   3.252 -25.149  1.00  0.00     0.053 C 
BRANCH   8   9
ATOM      9  C   UNL     1      93.203   2.584 -25.037  1.00  0.00     0.041 C 
ATOM     10  O   UNL     1      93.128   1.343 -24.836  1.00  0.00    -0.550 OA
ATOM     11  O   UNL     1      92.039   3.329 -25.183  1.00  0.00    -0.550 OA
ENDBRANCH   8   9
ENDBRANCH   7   8
ENDBRANCH   6   7
ENDBRANCH   5   6
ENDBRANCH   4   5
ENDBRANCH   3   4
ENDBRANCH   2   3
ENDBRANCH   1   2
BRANCH   1  12
ATOM     12  C   UNL     1     100.117   2.155 -28.933  1.00  0.00     0.000 C 
BRANCH  12  13
ATOM     13  C   UNL     1      98.836   1.344 -28.685  1.00  0.00    -0.000 C 
BRANCH  13  14
ATOM     14  C   UNL     1      99.018   0.277 -27.592  1.00  0.00    -0.000 C 
BRANCH  14  15
ATOM     15  C   UNL     1      99.832   0.789 -26.394  1.00  0.00    -0.000 C 
BRANCH  15  16
ATOM     16  C   UNL     1     100.039  -0.284 -25.309  1.00  0.00    -0.000 C 
BRANCH  16  17
ATOM     17  C   UNL     1      98.819  -1.222 -25.179  1.00  0.00    -0.000 C 
BRANCH  17  18
ATOM     18  C   UNL     1      97.913  -0.891 -23.977  1.00  0.00    -0.000 C 
BRANCH  18  19
ATOM     19  C   UNL     1      96.760   0.076 -24.295  1.00  0.00    -0.003 C 
ATOM     20  C   UNL     1      96.149   0.702 -23.041  1.00  0.00     0.004 C 
ENDBRANCH  18  19
ENDBRANCH  17  18
ENDBRANCH  16  17
ENDBRANCH  15  16
ENDBRANCH  14  15
ENDBRANCH  13  14
ENDBRANCH  12  13
ENDBRANCH   1  12
TORSDOF 16
ENDMDL
MODEL 6
REMARK VINA RESULT:    -3.860      3.168      6.007
REMARK INTER + INTRA:          -9.853
REMARK INTER:                  -7.575
REMARK INTRA:                  -2.279
REMARK UNBOUND:                -2.383
REMARK SMILES CCCCCCCCCCCCCCCCCC(=O)[O-]
REMARK SMILES IDX 10 1 11 2 12 3 13 4 14 5 15 6 16 7 17 8 18 9 19 10 20 11
REMARK SMILES IDX 9 12 8 13 7 14 6 15 5 16 4 17 3 18 2 19 1 20
REMARK H PARENT
REMARK Flexibility Score: inf
ROOT
ATOM      1  C   UNL     1      92.543   4.011 -23.676  1.00  0.00     0.000 C 
ENDROOT
BRANCH   1   2
ATOM      2  C   UNL     1      93.961   3.583 -24.090  1.00  0.00     0.000 C 
BRANCH   2   3
ATOM      3  C   UNL     1      93.954   2.500 -25.184  1.00  0.00     0.000 C 
BRANCH   3   4
ATOM      4  C   UNL     1      94.365   3.056 -26.564  1.00  0.00     0.000 C 
BRANCH   4   5
ATOM      5  C   UNL     1      95.664   3.882 -26.538  1.00  0.00     0.000 C 
BRANCH   5   6
ATOM      6  C   UNL     1      96.937   3.083 -26.199  1.00  0.00     0.000 C 
BRANCH   6   7
ATOM      7  C   UNL     1      98.248   3.887 -26.270  1.00  0.00     0.006 C 
BRANCH   7   8
ATOM      8  C   UNL     1      99.043   3.621 -27.555  1.00  0.00     0.053 C 
BRANCH   8   9
ATOM      9  C   UNL     1      98.613   4.557 -28.640  1.00  0.00     0.041 C 
ATOM     10  O   UNL     1      98.970   5.765 -28.616  1.00  0.00    -0.550 OA
ATOM     11  O   UNL     1      97.794   4.102 -29.666  1.00  0.00    -0.550 OA
ENDBRANCH   8   9
ENDBRANCH   7   8
ENDBRANCH   6   7
ENDBRANCH   5   6
ENDBRANCH   4   5
ENDBRANCH   3   4
ENDBRANCH   2   3
ENDBRANCH   1   2
BRANCH   1  12
ATOM     12  C   UNL     1      91.963   5.098 -24.598  1.00  0.00     0.000 C 
BRANCH  12  13
ATOM     13  C   UNL     1      92.980   6.207 -24.916  1.00  0.00    -0.000 C 
BRANCH  13  14
ATOM     14  C   UNL     1      92.668   6.928 -26.238  1.00  0.00    -0.000 C 
BRANCH  14  15
ATOM     15  C   UNL     1      92.225   5.965 -27.350  1.00  0.00    -0.000 C 
BRANCH  15  16
ATOM     16  C   UNL     1      90.999   6.473 -28.129  1.00  0.00    -0.000 C 
BRANCH  16  17
ATOM     17  C   UNL     1      89.950   5.362 -28.352  1.00  0.00    -0.000 C 
BRANCH  17  18
ATOM     18  C   UNL     1      89.299   4.859 -27.049  1.00  0.00    -0.000 C 
BRANCH  18  19
ATOM     19  C   UNL     1      89.472   3.353 -26.789  1.00  0.00    -0.003 C 
ATOM     20  C   UNL     1      90.774   2.798 -27.369  1.00  0.00     0.004 C 
ENDBRANCH  18  19
ENDBRANCH  17  18
ENDBRANCH  16  17
ENDBRANCH  15  16
ENDBRANCH  14  15
ENDBRANCH  13  14
ENDBRANCH  12  13
ENDBRANCH   1  12
TORSDOF 16
ENDMDL
MODEL 7
REMARK VINA RESULT:    -3.806      2.994      6.066
REMARK INTER + INTRA:          -9.749
REMARK INTER:                  -7.890
REMARK INTRA:                  -1.860
REMARK UNBOUND:                -2.383
REMARK SMILES CCCCCCCCCCCCCCCCCC(=O)[O-]
REMARK SMILES IDX 10 1 11 2 12 3 13 4 14 5 15 6 16 7 17 8 18 9 19 10 20 11
REMARK SMILES IDX 9 12 8 13 7 14 6 15 5 16 4 17 3 18 2 19 1 20
REMARK H PARENT
REMARK Flexibility Score: inf
ROOT
ATOM      1  C   UNL     1      99.922   1.462 -28.194  1.00  0.00     0.000 C 
ENDROOT
BRANCH   1   2
ATOM      2  C   UNL     1      99.141   2.358 -29.169  1.00  0.00     0.000 C 
BRANCH   2   3
ATOM      3  C   UNL     1      99.645   3.813 -29.164  1.00  0.00     0.000 C 
BRANCH   3   4
ATOM      4  C   UNL     1      99.833   4.366 -27.735  1.00  0.00     0.000 C 
BRANCH   4   5
ATOM      5  C   UNL     1      98.512   4.575 -26.972  1.00  0.00     0.000 C 
BRANCH   5   6
ATOM      6  C   UNL     1      98.411   3.828 -25.629  1.00  0.00     0.000 C 
BRANCH   6   7
ATOM      7  C   UNL     1      97.183   2.910 -25.486  1.00  0.00     0.006 C 
BRANCH   7   8
ATOM      8  C   UNL     1      96.194   3.049 -26.651  1.00  0.00     0.053 C 
BRANCH   8   9
ATOM      9  C   UNL     1      94.850   3.474 -26.149  1.00  0.00     0.041 C 
ATOM     10  O   UNL     1      94.072   2.633 -25.623  1.00  0.00    -0.550 OA
ATOM     11  O   UNL     1      94.443   4.795 -26.285  1.00  0.00    -0.550 OA
ENDBRANCH   8   9
ENDBRANCH   7   8
ENDBRANCH   6   7
ENDBRANCH   5   6
ENDBRANCH   4   5
ENDBRANCH   3   4
ENDBRANCH   2   3
ENDBRANCH   1   2
BRANCH   1  12
ATOM     12  C   UNL     1      99.031   0.399 -27.527  1.00  0.00     0.000 C 
BRANCH  12  13
ATOM     13  C   UNL     1      99.459   0.090 -26.084  1.00  0.00    -0.000 C 
BRANCH  13  14
ATOM     14  C   UNL     1      98.640  -1.052 -25.459  1.00  0.00    -0.000 C 
BRANCH  14  15
ATOM     15  C   UNL     1      97.864  -0.610 -24.209  1.00  0.00    -0.000 C 
BRANCH  15  16
ATOM     16  C   UNL     1      96.592  -1.444 -23.968  1.00  0.00    -0.000 C 
BRANCH  16  17
ATOM     17  C   UNL     1      96.851  -2.958 -24.126  1.00  0.00    -0.000 C 
BRANCH  17  18
ATOM     18  C   UNL     1      97.773  -3.542 -23.038  1.00  0.00    -0.000 C 
BRANCH  18  19
ATOM     19  C   UNL     1      97.195  -4.762 -22.301  1.00  0.00    -0.003 C 
ATOM     20  C   UNL     1      97.256  -6.042 -23.135  1.00  0.00     0.004 C 
ENDBRANCH  18  19
ENDBRANCH  17  18
ENDBRANCH  16  17
ENDBRANCH  15  16
ENDBRANCH  14  15
ENDBRANCH  13  14
ENDBRANCH  12  13
ENDBRANCH   1  12
TORSDOF 16
ENDMDL
MODEL 8
REMARK VINA RESULT:    -3.800      1.511      5.606
REMARK INTER + INTRA:          -9.738
REMARK INTER:                  -7.096
REMARK INTRA:                  -2.643
REMARK UNBOUND:                -2.383
REMARK SMILES CCCCCCCCCCCCCCCCCC(=O)[O-]
REMARK SMILES IDX 10 1 11 2 12 3 13 4 14 5 15 6 16 7 17 8 18 9 19 10 20 11
REMARK SMILES IDX 9 12 8 13 7 14 6 15 5 16 4 17 3 18 2 19 1 20
REMARK H PARENT
REMARK Flexibility Score: inf
ROOT
ATOM      1  C   UNL     1      97.226   3.339 -25.369  1.00  0.00     0.000 C 
ENDROOT
BRANCH   1   2
ATOM      2  C   UNL     1      96.331   2.865 -26.526  1.00  0.00     0.000 C 
BRANCH   2   3
ATOM      3  C   UNL     1      95.099   3.765 -26.725  1.00  0.00     0.000 C 
BRANCH   3   4
ATOM      4  C   UNL     1      93.870   3.263 -25.937  1.00  0.00     0.000 C 
BRANCH   4   5
ATOM      5  C   UNL     1      93.278   4.311 -24.976  1.00  0.00     0.000 C 
BRANCH   5   6
ATOM      6  C   UNL     1      93.173   3.862 -23.507  1.00  0.00     0.000 C 
BRANCH   6   7
ATOM      7  C   UNL     1      94.479   3.319 -22.897  1.00  0.00     0.006 C 
BRANCH   7   8
ATOM      8  C   UNL     1      94.348   1.875 -22.394  1.00  0.00     0.053 C 
BRANCH   8   9
ATOM      9  C   UNL     1      95.229   0.963 -23.188  1.00  0.00     0.041 C 
ATOM     10  O   UNL     1      94.804   0.431 -24.248  1.00  0.00    -0.550 OA
ATOM     11  O   UNL     1      96.514   0.676 -22.742  1.00  0.00    -0.550 OA
ENDBRANCH   8   9
ENDBRANCH   7   8
ENDBRANCH   6   7
ENDBRANCH   5   6
ENDBRANCH   4   5
ENDBRANCH   3   4
ENDBRANCH   2   3
ENDBRANCH   1   2
BRANCH   1  12
ATOM     12  C   UNL     1      98.645   3.710 -25.835  1.00  0.00     0.000 C 
BRANCH  12  13
ATOM     13  C   UNL     1      98.641   4.703 -27.009  1.00  0.00    -0.000 C 
BRANCH  13  14
ATOM     14  C   UNL     1      99.662   4.330 -28.097  1.00  0.00    -0.000 C 
BRANCH  14  15
ATOM     15  C   UNL     1      98.997   3.954 -29.430  1.00  0.00    -0.000 C 
BRANCH  15  16
ATOM     16  C   UNL     1      98.563   2.478 -29.486  1.00  0.00    -0.000 C 
BRANCH  16  17
ATOM     17  C   UNL     1      99.590   1.544 -28.809  1.00  0.00    -0.000 C 
BRANCH  17  18
ATOM     18  C   UNL     1      98.944   0.439 -27.950  1.00  0.00    -0.000 C 
BRANCH  18  19
ATOM     19  C   UNL     1      99.541   0.297 -26.540  1.00  0.00    -0.003 C 
ATOM     20  C   UNL     1      98.542  -0.266 -25.528  1.00  0.00     0.004 C 
ENDBRANCH  18  19
ENDBRANCH  17  18
ENDBRANCH  16  17
ENDBRANCH  15  16
ENDBRANCH  14  15
ENDBRANCH  13  14
ENDBRANCH  12  13
ENDBRANCH   1  12
TORSDOF 16
ENDMDL
MODEL 9
REMARK VINA RESULT:    -3.726      2.451      5.191
REMARK INTER + INTRA:          -9.595
REMARK INTER:                  -7.435
REMARK INTRA:                  -2.159
REMARK UNBOUND:                -2.383
REMARK SMILES CCCCCCCCCCCCCCCCCC(=O)[O-]
REMARK SMILES IDX 10 1 11 2 12 3 13 4 14 5 15 6 16 7 17 8 18 9 19 10 20 11
REMARK SMILES IDX 9 12 8 13 7 14 6 15 5 16 4 17 3 18 2 19 1 20
REMARK H PARENT
REMARK Flexibility Score: inf
ROOT
ATOM      1  C   UNL     1      93.713   2.469 -26.277  1.00  0.00     0.000 C 
ENDROOT
BRANCH   1   2
ATOM      2  C   UNL     1      94.929   2.721 -25.372  1.00  0.00     0.000 C 
BRANCH   2   3
ATOM      3  C   UNL     1      96.087   3.409 -26.117  1.00  0.00     0.000 C 
BRANCH   3   4
ATOM      4  C   UNL     1      97.468   2.878 -25.676  1.00  0.00     0.000 C 
BRANCH   4   5
ATOM      5  C   UNL     1      98.597   3.920 -25.785  1.00  0.00     0.000 C 
BRANCH   5   6
ATOM      6  C   UNL     1      98.742   4.580 -27.169  1.00  0.00     0.000 C 
BRANCH   6   7
ATOM      7  C   UNL     1      99.825   3.963 -28.074  1.00  0.00     0.006 C 
BRANCH   7   8
ATOM      8  C   UNL     1      99.242   3.097 -29.199  1.00  0.00     0.053 C 
BRANCH   8   9
ATOM      9  C   UNL     1      99.488   1.647 -28.925  1.00  0.00     0.041 C 
ATOM     10  O   UNL     1      99.099   0.771 -29.742  1.00  0.00    -0.550 OA
ATOM     11  O   UNL     1     100.123   1.260 -27.752  1.00  0.00    -0.550 OA
ENDBRANCH   8   9
ENDBRANCH   7   8
ENDBRANCH   6   7
ENDBRANCH   5   6
ENDBRANCH   4   5
ENDBRANCH   3   4
ENDBRANCH   2   3
ENDBRANCH   1   2
BRANCH   1  12
ATOM     12  C   UNL     1      92.650   1.582 -25.605  1.00  0.00     0.000 C 
BRANCH  12  13
ATOM     13  C   UNL     1      91.323   2.323 -25.374  1.00  0.00    -0.000 C 
BRANCH  13  14
ATOM     14  C   UNL     1      91.416   3.355 -24.237  1.00  0.00    -0.000 C 
BRANCH  14  15
ATOM     15  C   UNL     1      91.237   4.799 -24.731  1.00  0.00    -0.000 C 
BRANCH  15  16
ATOM     16  C   UNL     1      92.547   5.606 -24.708  1.00  0.00    -0.000 C 
BRANCH  16  17
ATOM     17  C   UNL     1      92.920   6.149 -26.105  1.00  0.00    -0.000 C 
BRANCH  17  18
ATOM     18  C   UNL     1      91.776   6.042 -27.133  1.00  0.00    -0.000 C 
BRANCH  18  19
ATOM     19  C   UNL     1      92.043   5.058 -28.285  1.00  0.00    -0.003 C 
ATOM     20  C   UNL     1      90.863   4.122 -28.550  1.00  0.00     0.004 C 
ENDBRANCH  18  19
ENDBRANCH  17  18
ENDBRANCH  16  17
ENDBRANCH  15  16
ENDBRANCH  14  15
ENDBRANCH  13  14
ENDBRANCH  12  13
ENDBRANCH   1  12
TORSDOF 16
ENDMDL
