MODEL 1
REMARK VINA RESULT:    -2.874      0.000      0.000
REMARK INTER + INTRA:          -3.759
REMARK INTER:                  -3.378
REMARK INTRA:                  -0.381
REMARK UNBOUND:                -0.381
REMARK SMILES [NH3+][C@H](CO)C(=O)[O-]
REMARK SMILES IDX 3 1 2 2 1 3 5 7 6 8 7 9 4 10
REMARK H PARENT 1 4 1 5 1 6 4 11
REMARK Flexibility Score: inf
ROOT
ATOM      1  C   UNL     1     165.132 176.548 166.792  1.00  0.00     0.227 C 
ENDROOT
BRANCH   1   2
ATOM      2  C   UNL     1     165.179 177.772 167.725  1.00  0.00     0.253 C 
BRANCH   2   3
ATOM      3  N   UNL     1     166.339 178.615 167.412  1.00  0.00    -0.348 N 
ATOM      4  H   UNL     1     167.129 178.387 168.060  1.00  0.00     0.345 HD
ATOM      5  H   UNL     1     166.097 179.628 167.509  1.00  0.00     0.345 HD
ATOM      6  H   UNL     1     166.656 178.432 166.433  1.00  0.00     0.345 HD
ENDBRANCH   2   3
BRANCH   2   7
ATOM      7  C   UNL     1     163.908 178.571 167.613  1.00  0.00     0.102 C 
ATOM      8  O   UNL     1     163.035 178.501 168.517  1.00  0.00    -0.544 OA
ATOM      9  O   UNL     1     163.685 179.381 166.506  1.00  0.00    -0.544 OA
ENDBRANCH   2   7
ENDBRANCH   1   2
BRANCH   1  10
ATOM     10  O   UNL     1     163.825 176.318 166.339  1.00  0.00    -0.390 OA
ATOM     11  H   UNL     1     163.905 175.924 165.432  1.00  0.00     0.210 HD
ENDBRANCH   1  10
TORSDOF 4
ENDMDL
MODEL 2
REMARK VINA RESULT:    -2.796      1.163      2.474
REMARK INTER + INTRA:          -3.667
REMARK INTER:                  -3.278
REMARK INTRA:                  -0.389
REMARK UNBOUND:                -0.381
REMARK SMILES [NH3+][C@H](CO)C(=O)[O-]
REMARK SMILES IDX 3 1 2 2 1 3 5 7 6 8 7 9 4 10
REMARK H PARENT 1 4 1 5 1 6 4 11
REMARK Flexibility Score: inf
ROOT
ATOM      1  C   UNL     1     164.084 178.862 168.016  1.00  0.00     0.227 C 
ENDROOT
BRANCH   1   2
ATOM      2  C   UNL     1     165.076 178.397 166.936  1.00  0.00     0.253 C 
BRANCH   2   3
ATOM      3  N   UNL     1     166.459 178.567 167.396  1.00  0.00    -0.348 N 
ATOM      4  H   UNL     1     167.076 177.858 166.935  1.00  0.00     0.345 HD
ATOM      5  H   UNL     1     166.521 178.453 168.434  1.00  0.00     0.345 HD
ATOM      6  H   UNL     1     166.804 179.519 167.136  1.00  0.00     0.345 HD
ENDBRANCH   2   3
BRANCH   2   7
ATOM      7  C   UNL     1     164.822 176.958 166.569  1.00  0.00     0.102 C 
ATOM      8  O   UNL     1     165.470 176.038 167.132  1.00  0.00    -0.544 OA
ATOM      9  O   UNL     1     163.879 176.638 165.600  1.00  0.00    -0.544 OA
ENDBRANCH   2   7
ENDBRANCH   1   2
BRANCH   1  10
ATOM     10  O   UNL     1     163.316 177.786 168.485  1.00  0.00    -0.390 OA
ATOM     11  H   UNL     1     162.390 177.936 168.161  1.00  0.00     0.210 HD
ENDBRANCH   1  10
TORSDOF 4
ENDMDL
MODEL 3
REMARK VINA RESULT:    -2.697     13.294     13.583
REMARK INTER + INTRA:          -3.551
REMARK INTER:                  -3.378
REMARK INTRA:                  -0.173
REMARK UNBOUND:                -0.381
REMARK SMILES [NH3+][C@H](CO)C(=O)[O-]
REMARK SMILES IDX 3 1 2 2 1 3 5 7 6 8 7 9 4 10
REMARK H PARENT 1 4 1 5 1 6 4 11
REMARK Flexibility Score: inf
ROOT
ATOM      1  C   UNL     1     175.966 178.104 170.464  1.00  0.00     0.227 C 
ENDROOT
BRANCH   1   2
ATOM      2  C   UNL     1     176.735 179.198 171.226  1.00  0.00     0.253 C 
BRANCH   2   3
ATOM      3  N   UNL     1     177.164 178.707 172.541  1.00  0.00    -0.348 N 
ATOM      4  H   UNL     1     176.355 178.717 173.204  1.00  0.00     0.345 HD
ATOM      5  H   UNL     1     177.933 179.304 172.926  1.00  0.00     0.345 HD
ATOM      6  H   UNL     1     177.506 177.723 172.457  1.00  0.00     0.345 HD
ENDBRANCH   2   3
BRANCH   2   7
ATOM      7  C   UNL     1     177.926 179.660 170.428  1.00  0.00     0.102 C 
ATOM      8  O   UNL     1     178.039 179.338 169.216  1.00  0.00    -0.544 OA
ATOM      9  O   UNL     1     178.913 180.434 171.026  1.00  0.00    -0.544 OA
ENDBRANCH   2   7
ENDBRANCH   1   2
BRANCH   1  10
ATOM     10  O   UNL     1     176.595 176.859 170.609  1.00  0.00    -0.390 OA
ATOM     11  H   UNL     1     175.939 176.174 170.317  1.00  0.00     0.210 HD
ENDBRANCH   1  10
TORSDOF 4
ENDMDL
MODEL 4
REMARK VINA RESULT:    -2.669      1.907      2.154
REMARK INTER + INTRA:          -3.518
REMARK INTER:                  -3.296
REMARK INTRA:                  -0.222
REMARK UNBOUND:                -0.381
REMARK SMILES [NH3+][C@H](CO)C(=O)[O-]
REMARK SMILES IDX 3 1 2 2 1 3 5 7 6 8 7 9 4 10
REMARK H PARENT 1 4 1 5 1 6 4 11
REMARK Flexibility Score: inf
ROOT
ATOM      1  C   UNL     1     165.651 178.597 166.353  1.00  0.00     0.227 C 
ENDROOT
BRANCH   1   2
ATOM      2  C   UNL     1     164.496 177.595 166.520  1.00  0.00     0.253 C 
BRANCH   2   3
ATOM      3  N   UNL     1     165.012 176.259 166.844  1.00  0.00    -0.348 N 
ATOM      4  H   UNL     1     164.321 175.531 166.548  1.00  0.00     0.345 HD
ATOM      5  H   UNL     1     165.188 176.170 167.871  1.00  0.00     0.345 HD
ATOM      6  H   UNL     1     165.906 176.091 166.328  1.00  0.00     0.345 HD
ENDBRANCH   2   3
BRANCH   2   7
ATOM      7  C   UNL     1     163.543 178.059 167.590  1.00  0.00     0.102 C 
ATOM      8  O   UNL     1     163.905 178.074 168.795  1.00  0.00    -0.544 OA
ATOM      9  O   UNL     1     162.256 178.463 167.256  1.00  0.00    -0.544 OA
ENDBRANCH   2   7
ENDBRANCH   1   2
BRANCH   1  10
ATOM     10  O   UNL     1     166.554 178.499 167.422  1.00  0.00    -0.390 OA
ATOM     11  H   UNL     1     167.447 178.329 167.024  1.00  0.00     0.210 HD
ENDBRANCH   1  10
TORSDOF 4
ENDMDL
MODEL 5
REMARK VINA RESULT:    -2.597      2.255      2.763
REMARK INTER + INTRA:          -3.433
REMARK INTER:                  -3.205
REMARK INTRA:                  -0.228
REMARK UNBOUND:                -0.381
REMARK SMILES [NH3+][C@H](CO)C(=O)[O-]
REMARK SMILES IDX 3 1 2 2 1 3 5 7 6 8 7 9 4 10
REMARK H PARENT 1 4 1 5 1 6 4 11
REMARK Flexibility Score: inf
ROOT
ATOM      1  C   UNL     1     162.515 178.437 167.135  1.00  0.00     0.227 C 
ENDROOT
BRANCH   1   2
ATOM      2  C   UNL     1     163.507 178.491 168.310  1.00  0.00     0.253 C 
BRANCH   2   3
ATOM      3  N   UNL     1     163.011 177.702 169.443  1.00  0.00    -0.348 N 
ATOM      4  H   UNL     1     162.206 178.195 169.894  1.00  0.00     0.345 HD
ATOM      5  H   UNL     1     163.766 177.556 170.152  1.00  0.00     0.345 HD
ATOM      6  H   UNL     1     162.675 176.771 169.106  1.00  0.00     0.345 HD
ENDBRANCH   2   3
BRANCH   2   7
ATOM      7  C   UNL     1     164.862 177.993 167.881  1.00  0.00     0.102 C 
ATOM      8  O   UNL     1     165.859 178.760 167.919  1.00  0.00    -0.544 OA
ATOM      9  O   UNL     1     165.018 176.688 167.430  1.00  0.00    -0.544 OA
ENDBRANCH   2   7
ENDBRANCH   1   2
BRANCH   1  10
ATOM     10  O   UNL     1     162.173 177.111 166.832  1.00  0.00    -0.390 OA
ATOM     11  H   UNL     1     161.184 177.080 166.767  1.00  0.00     0.210 HD
ENDBRANCH   1  10
TORSDOF 4
ENDMDL
MODEL 6
REMARK VINA RESULT:    -2.556      2.569      3.072
REMARK INTER + INTRA:          -3.385
REMARK INTER:                  -3.135
REMARK INTRA:                  -0.250
REMARK UNBOUND:                -0.381
REMARK SMILES [NH3+][C@H](CO)C(=O)[O-]
REMARK SMILES IDX 3 1 2 2 1 3 5 7 6 8 7 9 4 10
REMARK H PARENT 1 4 1 5 1 6 4 11
REMARK Flexibility Score: inf
ROOT
ATOM      1  C   UNL     1     161.315 178.123 167.660  1.00  0.00     0.227 C 
ENDROOT
BRANCH   1   2
ATOM      2  C   UNL     1     162.290 178.517 168.782  1.00  0.00     0.253 C 
BRANCH   2   3
ATOM      3  N   UNL     1     162.307 177.495 169.836  1.00  0.00    -0.348 N 
ATOM      4  H   UNL     1     162.135 177.942 170.766  1.00  0.00     0.345 HD
ATOM      5  H   UNL     1     163.229 177.001 169.857  1.00  0.00     0.345 HD
ATOM      6  H   UNL     1     161.549 176.796 169.663  1.00  0.00     0.345 HD
ENDBRANCH   2   3
BRANCH   2   7
ATOM      7  C   UNL     1     163.676 178.721 168.231  1.00  0.00     0.102 C 
ATOM      8  O   UNL     1     164.046 179.863 167.854  1.00  0.00    -0.544 OA
ATOM      9  O   UNL     1     164.552 177.647 168.123  1.00  0.00    -0.544 OA
ENDBRANCH   2   7
ENDBRANCH   1   2
BRANCH   1  10
ATOM     10  O   UNL     1     161.889 177.162 166.815  1.00  0.00    -0.390 OA
ATOM     11  H   UNL     1     162.848 177.400 166.725  1.00  0.00     0.210 HD
ENDBRANCH   1  10
TORSDOF 4
ENDMDL
MODEL 7
REMARK VINA RESULT:    -2.536      1.885      2.819
REMARK INTER + INTRA:          -3.361
REMARK INTER:                  -2.979
REMARK INTRA:                  -0.382
REMARK UNBOUND:                -0.381
REMARK SMILES [NH3+][C@H](CO)C(=O)[O-]
REMARK SMILES IDX 3 1 2 2 1 3 5 7 6 8 7 9 4 10
REMARK H PARENT 1 4 1 5 1 6 4 11
REMARK Flexibility Score: inf
ROOT
ATOM      1  C   UNL     1     163.505 178.354 168.286  1.00  0.00     0.227 C 
ENDROOT
BRANCH   1   2
ATOM      2  C   UNL     1     164.908 177.819 167.947  1.00  0.00     0.253 C 
BRANCH   2   3
ATOM      3  N   UNL     1     164.816 176.536 167.242  1.00  0.00    -0.348 N 
ATOM      4  H   UNL     1     165.634 175.934 167.492  1.00  0.00     0.345 HD
ATOM      5  H   UNL     1     164.801 176.683 166.206  1.00  0.00     0.345 HD
ATOM      6  H   UNL     1     163.943 176.036 167.528  1.00  0.00     0.345 HD
ENDBRANCH   2   3
BRANCH   2   7
ATOM      7  C   UNL     1     165.667 178.818 167.115  1.00  0.00     0.102 C 
ATOM      8  O   UNL     1     165.611 178.769 165.859  1.00  0.00    -0.544 OA
ATOM      9  O   UNL     1     166.445 179.794 167.728  1.00  0.00    -0.544 OA
ENDBRANCH   2   7
ENDBRANCH   1   2
BRANCH   1  10
ATOM     10  O   UNL     1     163.391 179.708 167.942  1.00  0.00    -0.390 OA
ATOM     11  H   UNL     1     164.142 179.909 167.324  1.00  0.00     0.210 HD
ENDBRANCH   1  10
TORSDOF 4
ENDMDL
MODEL 8
REMARK VINA RESULT:    -2.528      2.229      2.538
REMARK INTER + INTRA:          -3.351
REMARK INTER:                  -3.131
REMARK INTRA:                  -0.221
REMARK UNBOUND:                -0.381
REMARK SMILES [NH3+][C@H](CO)C(=O)[O-]
REMARK SMILES IDX 3 1 2 2 1 3 5 7 6 8 7 9 4 10
REMARK H PARENT 1 4 1 5 1 6 4 11
REMARK Flexibility Score: inf
ROOT
ATOM      1  C   UNL     1     163.991 177.044 165.926  1.00  0.00     0.227 C 
ENDROOT
BRANCH   1   2
ATOM      2  C   UNL     1     163.186 177.977 166.847  1.00  0.00     0.253 C 
BRANCH   2   3
ATOM      3  N   UNL     1     161.820 177.471 167.030  1.00  0.00    -0.348 N 
ATOM      4  H   UNL     1     161.781 176.456 166.776  1.00  0.00     0.345 HD
ATOM      5  H   UNL     1     161.145 178.002 166.432  1.00  0.00     0.345 HD
ATOM      6  H   UNL     1     161.538 177.568 168.032  1.00  0.00     0.345 HD
ENDBRANCH   2   3
BRANCH   2   7
ATOM      7  C   UNL     1     163.870 178.124 168.180  1.00  0.00     0.102 C 
ATOM      8  O   UNL     1     165.113 178.314 168.236  1.00  0.00    -0.544 OA
ATOM      9  O   UNL     1     163.138 178.038 169.358  1.00  0.00    -0.544 OA
ENDBRANCH   2   7
ENDBRANCH   1   2
BRANCH   1  10
ATOM     10  O   UNL     1     164.714 176.105 166.676  1.00  0.00    -0.390 OA
ATOM     11  H   UNL     1     164.465 176.249 167.626  1.00  0.00     0.210 HD
ENDBRANCH   1  10
TORSDOF 4
ENDMDL
MODEL 9
REMARK VINA RESULT:    -2.469      3.853      4.325
REMARK INTER + INTRA:          -3.283
REMARK INTER:                  -2.893
REMARK INTRA:                  -0.390
REMARK UNBOUND:                -0.381
REMARK SMILES [NH3+][C@H](CO)C(=O)[O-]
REMARK SMILES IDX 3 1 2 2 1 3 5 7 6 8 7 9 4 10
REMARK H PARENT 1 4 1 5 1 6 4 11
REMARK Flexibility Score: inf
ROOT
ATOM      1  C   UNL     1     159.680 177.226 168.664  1.00  0.00     0.227 C 
ENDROOT
BRANCH   1   2
ATOM      2  C   UNL     1     160.363 178.453 169.295  1.00  0.00     0.253 C 
BRANCH   2   3
ATOM      3  N   UNL     1     160.348 178.357 170.759  1.00  0.00    -0.348 N 
ATOM      4  H   UNL     1     160.864 179.167 171.173  1.00  0.00     0.345 HD
ATOM      5  H   UNL     1     160.794 177.465 171.077  1.00  0.00     0.345 HD
ATOM      6  H   UNL     1     159.361 178.387 171.106  1.00  0.00     0.345 HD
ENDBRANCH   2   3
BRANCH   2   7
ATOM      7  C   UNL     1     161.778 178.585 168.796  1.00  0.00     0.102 C 
ATOM      8  O   UNL     1     162.728 178.081 169.449  1.00  0.00    -0.544 OA
ATOM      9  O   UNL     1     162.044 179.274 167.619  1.00  0.00    -0.544 OA
ENDBRANCH   2   7
ENDBRANCH   1   2
BRANCH   1  10
ATOM     10  O   UNL     1     160.520 176.620 167.718  1.00  0.00    -0.390 OA
ATOM     11  H   UNL     1     160.382 177.106 166.864  1.00  0.00     0.210 HD
ENDBRANCH   1  10
TORSDOF 4
ENDMDL
