MODEL 1
REMARK VINA RESULT:    10.210      0.000      0.000
REMARK INTER + INTRA:          15.956
REMARK INTER:                  13.792
REMARK INTRA:                   2.165
REMARK UNBOUND:                 2.165
REMARK SMILES O=c1c(-c2ccc(O)cc2)coc2c([C@H]3O[C@H](CO)[C@H](O)[C@H](O)[C@@H]3O)c(O)ccc12
REMARK SMILES IDX 3 1 11 2 12 3 13 4 30 5 2 6 1 7 29 8 28 9 26 10 14 11 4 12
REMARK SMILES IDX 5 13 6 14 7 15 10 16 9 17 8 18 15 20 24 21 16 22 22 23 17 24
REMARK SMILES IDX 20 25 25 26 23 28 18 30 19 31 21 33 27 35
REMARK H PARENT 8 19 25 27 23 29 19 32 21 34 27 36
REMARK Flexibility Score: inf
ROOT
ATOM      1  C   UNL     1      14.099  -8.989  26.198  1.00  0.00     0.065 A 
ATOM      2  C   UNL     1      14.485 -10.334  26.265  1.00  0.00     0.208 A 
ATOM      3  O   UNL     1      14.123 -11.096  27.288  1.00  0.00    -0.463 OA
ATOM      4  C   UNL     1      13.386 -10.659  28.307  1.00  0.00     0.147 A 
ATOM      5  C   UNL     1      12.991  -9.299  28.337  1.00  0.00     0.066 A 
ATOM      6  C   UNL     1      13.333  -8.468  27.254  1.00  0.00     0.200 A 
ATOM      7  O   UNL     1      12.950  -7.264  27.227  1.00  0.00    -0.288 OA
ATOM      8  C   UNL     1      12.306  -8.804  29.454  1.00  0.00     0.020 A 
ATOM      9  C   UNL     1      12.115  -9.615  30.565  1.00  0.00     0.047 A 
ATOM     10  C   UNL     1      12.533 -10.951  30.559  1.00  0.00     0.125 A 
ATOM     11  C   UNL     1      13.036 -11.541  29.366  1.00  0.00     0.069 A 
ENDROOT
BRANCH   1  12
ATOM     12  C   UNL     1      14.535  -8.153  25.048  1.00  0.00    -0.011 A 
ATOM     13  C   UNL     1      14.555  -8.683  23.747  1.00  0.00     0.013 A 
ATOM     14  C   UNL     1      14.940  -7.886  22.665  1.00  0.00     0.047 A 
ATOM     15  C   UNL     1      15.302  -6.550  22.869  1.00  0.00     0.115 A 
ATOM     16  C   UNL     1      14.892  -6.809  25.244  1.00  0.00     0.013 A 
ATOM     17  C   UNL     1      15.275  -6.014  24.161  1.00  0.00     0.047 A 
BRANCH  15  18
ATOM     18  O   UNL     1      15.691  -5.747  21.802  1.00  0.00    -0.508 OA
ATOM     19  H   UNL     1      15.171  -4.919  21.542  1.00  0.00     0.293 HD
ENDBRANCH  15  18
ENDBRANCH   1  12
BRANCH  11  20
ATOM     20  C   UNL     1      13.404 -13.037  29.266  1.00  0.00     0.188 C 
ATOM     21  C   UNL     1      14.855 -13.339  28.763  1.00  0.00     0.179 C 
ATOM     22  O   UNL     1      12.436 -13.852  28.601  1.00  0.00    -0.362 OA
ATOM     23  C   UNL     1      14.940 -13.330  27.226  1.00  0.00     0.177 C 
ATOM     24  C   UNL     1      12.498 -13.779  27.179  1.00  0.00     0.176 C 
ATOM     25  C   UNL     1      13.860 -14.235  26.636  1.00  0.00     0.177 C 
BRANCH  21  26
ATOM     26  O   UNL     1      15.244 -14.596  29.264  1.00  0.00    -0.387 OA
ATOM     27  H   UNL     1      14.919 -14.655  30.200  1.00  0.00     0.211 HD
ENDBRANCH  21  26
BRANCH  23  28
ATOM     28  O   UNL     1      16.207 -13.754  26.795  1.00  0.00    -0.387 OA
ATOM     29  H   UNL     1      16.637 -12.972  26.357  1.00  0.00     0.211 HD
ENDBRANCH  23  28
BRANCH  24  30
ATOM     30  C   UNL     1      11.377 -14.652  26.591  1.00  0.00     0.191 C 
BRANCH  30  31
ATOM     31  O   UNL     1      10.122 -14.068  26.816  1.00  0.00    -0.394 OA
ATOM     32  H   UNL     1       9.442 -14.726  26.517  1.00  0.00     0.210 HD
ENDBRANCH  30  31
ENDBRANCH  24  30
BRANCH  25  33
ATOM     33  O   UNL     1      14.087 -15.584  26.971  1.00  0.00    -0.388 OA
ATOM     34  H   UNL     1      14.532 -16.005  26.190  1.00  0.00     0.211 HD
ENDBRANCH  25  33
ENDBRANCH  11  20
BRANCH  10  35
ATOM     35  O   UNL     1      12.496 -11.662  31.758  1.00  0.00    -0.507 OA
ATOM     36  H   UNL     1      11.732 -11.567  32.415  1.00  0.00     0.293 HD
ENDBRANCH  10  35
TORSDOF 9
ENDMDL
MODEL 2
REMARK VINA RESULT:    11.383      1.461      2.059
REMARK INTER + INTRA:          17.540
REMARK INTER:                  15.828
REMARK INTRA:                   1.712
REMARK UNBOUND:                 2.165
REMARK SMILES O=c1c(-c2ccc(O)cc2)coc2c([C@H]3O[C@H](CO)[C@H](O)[C@H](O)[C@@H]3O)c(O)ccc12
REMARK SMILES IDX 3 1 11 2 12 3 13 4 30 5 2 6 1 7 29 8 28 9 26 10 14 11 4 12
REMARK SMILES IDX 5 13 6 14 7 15 10 16 9 17 8 18 15 20 24 21 16 22 22 23 17 24
REMARK SMILES IDX 20 25 25 26 23 28 18 30 19 31 21 33 27 35
REMARK H PARENT 8 19 25 27 23 29 19 32 21 34 27 36
REMARK Flexibility Score: inf
ROOT
ATOM      1  C   UNL     1      13.493  -9.376  26.521  1.00  0.00     0.065 A 
ATOM      2  C   UNL     1      14.082 -10.588  26.903  1.00  0.00     0.208 A 
ATOM      3  O   UNL     1      13.474 -11.400  27.758  1.00  0.00    -0.463 OA
ATOM      4  C   UNL     1      12.291 -11.138  28.308  1.00  0.00     0.147 A 
ATOM      5  C   UNL     1      11.647  -9.912  28.006  1.00  0.00     0.066 A 
ATOM      6  C   UNL     1      12.249  -9.038  27.082  1.00  0.00     0.200 A 
ATOM      7  O   UNL     1      11.675  -7.963  26.752  1.00  0.00    -0.288 OA
ATOM      8  C   UNL     1      10.453  -9.580  28.660  1.00  0.00     0.020 A 
ATOM      9  C   UNL     1       9.967 -10.397  29.671  1.00  0.00     0.047 A 
ATOM     10  C   UNL     1      10.614 -11.594  30.001  1.00  0.00     0.125 A 
ATOM     11  C   UNL     1      11.703 -12.063  29.214  1.00  0.00     0.069 A 
ENDROOT
BRANCH   1  12
ATOM     12  C   UNL     1      14.205  -8.477  25.575  1.00  0.00    -0.011 A 
ATOM     13  C   UNL     1      14.345  -8.829  24.222  1.00  0.00     0.013 A 
ATOM     14  C   UNL     1      14.994  -7.968  23.331  1.00  0.00     0.047 A 
ATOM     15  C   UNL     1      15.501  -6.744  23.779  1.00  0.00     0.115 A 
ATOM     16  C   UNL     1      14.711  -7.242  26.015  1.00  0.00     0.013 A 
ATOM     17  C   UNL     1      15.356  -6.383  25.122  1.00  0.00     0.047 A 
BRANCH  15  18
ATOM     18  O   UNL     1      16.151  -5.880  22.903  1.00  0.00    -0.508 OA
ATOM     19  H   UNL     1      16.159  -6.043  21.904  1.00  0.00     0.293 HD
ENDBRANCH  15  18
ENDBRANCH   1  12
BRANCH  11  20
ATOM     20  C   UNL     1      12.381 -13.429  29.458  1.00  0.00     0.188 C 
ATOM     21  C   UNL     1      13.536 -13.425  30.515  1.00  0.00     0.179 C 
ATOM     22  O   UNL     1      12.755 -14.135  28.272  1.00  0.00    -0.362 OA
ATOM     23  C   UNL     1      14.876 -12.994  29.894  1.00  0.00     0.177 C 
ATOM     24  C   UNL     1      13.969 -13.676  27.685  1.00  0.00     0.176 C 
ATOM     25  C   UNL     1      15.163 -13.820  28.640  1.00  0.00     0.177 C 
BRANCH  21  26
ATOM     26  O   UNL     1      13.643 -14.720  31.055  1.00  0.00    -0.387 OA
ATOM     27  H   UNL     1      14.610 -14.926  31.142  1.00  0.00     0.211 HD
ENDBRANCH  21  26
BRANCH  23  28
ATOM     28  O   UNL     1      15.923 -13.148  30.817  1.00  0.00    -0.387 OA
ATOM     29  H   UNL     1      15.838 -12.405  31.473  1.00  0.00     0.211 HD
ENDBRANCH  23  28
BRANCH  24  30
ATOM     30  C   UNL     1      14.227 -14.476  26.396  1.00  0.00     0.191 C 
BRANCH  30  31
ATOM     31  O   UNL     1      15.588 -14.791  26.272  1.00  0.00    -0.394 OA
ATOM     32  H   UNL     1      15.990 -14.688  27.174  1.00  0.00     0.210 HD
ENDBRANCH  30  31
ENDBRANCH  24  30
BRANCH  25  33
ATOM     33  O   UNL     1      15.367 -15.176  28.959  1.00  0.00    -0.388 OA
ATOM     34  H   UNL     1      16.343 -15.343  28.902  1.00  0.00     0.211 HD
ENDBRANCH  25  33
ENDBRANCH  11  20
BRANCH  10  35
ATOM     35  O   UNL     1      10.201 -12.275  31.146  1.00  0.00    -0.507 OA
ATOM     36  H   UNL     1       9.919 -13.247  31.120  1.00  0.00     0.293 HD
ENDBRANCH  10  35
TORSDOF 9
ENDMDL
MODEL 3
REMARK VINA RESULT:    12.703      1.752      2.797
REMARK INTER + INTRA:          19.324
REMARK INTER:                  18.965
REMARK INTRA:                   0.359
REMARK UNBOUND:                 2.165
REMARK SMILES O=c1c(-c2ccc(O)cc2)coc2c([C@H]3O[C@H](CO)[C@H](O)[C@H](O)[C@@H]3O)c(O)ccc12
REMARK SMILES IDX 3 1 11 2 12 3 13 4 30 5 2 6 1 7 29 8 28 9 26 10 14 11 4 12
REMARK SMILES IDX 5 13 6 14 7 15 10 16 9 17 8 18 15 20 24 21 16 22 22 23 17 24
REMARK SMILES IDX 20 25 25 26 23 28 18 30 19 31 21 33 27 35
REMARK H PARENT 8 19 25 27 23 29 19 32 21 34 27 36
REMARK Flexibility Score: inf
ROOT
ATOM      1  C   UNL     1      14.255  -9.447  26.454  1.00  0.00     0.065 A 
ATOM      2  C   UNL     1      15.281 -10.379  26.650  1.00  0.00     0.208 A 
ATOM      3  O   UNL     1      15.146 -11.365  27.527  1.00  0.00    -0.463 OA
ATOM      4  C   UNL     1      14.059 -11.543  28.273  1.00  0.00     0.147 A 
ATOM      5  C   UNL     1      12.991 -10.617  28.166  1.00  0.00     0.066 A 
ATOM      6  C   UNL     1      13.087  -9.575  27.225  1.00  0.00     0.200 A 
ATOM      7  O   UNL     1      12.130  -8.766  27.069  1.00  0.00    -0.288 OA
ATOM      8  C   UNL     1      11.887 -10.735  29.021  1.00  0.00     0.020 A 
ATOM      9  C   UNL     1      11.894 -11.685  30.034  1.00  0.00     0.047 A 
ATOM     10  C   UNL     1      12.959 -12.583  30.170  1.00  0.00     0.125 A 
ATOM     11  C   UNL     1      13.990 -12.628  29.190  1.00  0.00     0.069 A 
ENDROOT
BRANCH   1  12
ATOM     12  C   UNL     1      14.440  -8.341  25.476  1.00  0.00    -0.011 A 
ATOM     13  C   UNL     1      14.470  -7.004  25.907  1.00  0.00     0.013 A 
ATOM     14  C   UNL     1      14.671  -5.971  24.987  1.00  0.00     0.047 A 
ATOM     15  C   UNL     1      14.851  -6.261  23.630  1.00  0.00     0.115 A 
ATOM     16  C   UNL     1      14.629  -8.626  24.114  1.00  0.00     0.013 A 
ATOM     17  C   UNL     1      14.831  -7.590  23.197  1.00  0.00     0.047 A 
BRANCH  15  18
ATOM     18  O   UNL     1      15.048  -5.241  22.705  1.00  0.00    -0.508 OA
ATOM     19  H   UNL     1      15.375  -5.430  21.767  1.00  0.00     0.293 HD
ENDBRANCH  15  18
ENDBRANCH   1  12
BRANCH  11  20
ATOM     20  C   UNL     1      15.128 -13.671  29.224  1.00  0.00     0.188 C 
ATOM     21  C   UNL     1      15.282 -14.538  27.930  1.00  0.00     0.179 C 
ATOM     22  O   UNL     1      15.171 -14.477  30.405  1.00  0.00    -0.362 OA
ATOM     23  C   UNL     1      14.326 -15.744  27.933  1.00  0.00     0.177 C 
ATOM     24  C   UNL     1      14.234 -15.551  30.407  1.00  0.00     0.176 C 
ATOM     25  C   UNL     1      14.466 -16.522  29.240  1.00  0.00     0.177 C 
BRANCH  21  26
ATOM     26  O   UNL     1      16.617 -14.976  27.849  1.00  0.00    -0.387 OA
ATOM     27  H   UNL     1      16.620 -15.953  28.025  1.00  0.00     0.211 HD
ENDBRANCH  21  26
BRANCH  23  28
ATOM     28  O   UNL     1      14.589 -16.589  26.843  1.00  0.00    -0.387 OA
ATOM     29  H   UNL     1      14.550 -17.521  27.187  1.00  0.00     0.211 HD
ENDBRANCH  23  28
BRANCH  24  30
ATOM     30  C   UNL     1      14.344 -16.300  31.746  1.00  0.00     0.191 C 
BRANCH  30  31
ATOM     31  O   UNL     1      15.678 -16.640  32.016  1.00  0.00    -0.394 OA
ATOM     32  H   UNL     1      15.903 -17.406  31.426  1.00  0.00     0.210 HD
ENDBRANCH  30  31
ENDBRANCH  24  30
BRANCH  25  33
ATOM     33  O   UNL     1      15.741 -17.111  29.348  1.00  0.00    -0.388 OA
ATOM     34  H   UNL     1      16.272 -16.542  29.964  1.00  0.00     0.211 HD
ENDBRANCH  25  33
ENDBRANCH  11  20
BRANCH  10  35
ATOM     35  O   UNL     1      13.010 -13.381  31.312  1.00  0.00    -0.507 OA
ATOM     36  H   UNL     1      13.682 -14.131  31.414  1.00  0.00     0.293 HD
ENDBRANCH  10  35
TORSDOF 9
ENDMDL
