MODEL 1
REMARK VINA RESULT:    -3.646      0.000      0.000
REMARK INTER + INTRA:          -4.322
REMARK INTER:                  -4.286
REMARK INTRA:                  -0.037
REMARK UNBOUND:                -0.037
REMARK SMILES CCCCC(=O)[O-]
REMARK SMILES IDX 4 1 5 2 6 3 7 4 3 5 2 6 1 7
REMARK H PARENT
REMARK Flexibility Score: inf
ROOT
ATOM      1  C   UNL     1       4.864  22.200 -54.667  1.00  0.00     0.053 C 
ENDROOT
BRANCH   1   2
ATOM      2  C   UNL     1       5.550  21.220 -53.765  1.00  0.00     0.041 C 
ATOM      3  O   UNL     1       6.173  20.240 -54.252  1.00  0.00    -0.550 OA
ATOM      4  O   UNL     1       5.474  21.371 -52.386  1.00  0.00    -0.550 OA
ENDBRANCH   1   2
BRANCH   1   5
ATOM      5  C   UNL     1       4.806  23.601 -54.045  1.00  0.00     0.006 C 
BRANCH   5   6
ATOM      6  C   UNL     1       4.487  24.685 -55.085  1.00  0.00    -0.003 C 
ATOM      7  C   UNL     1       4.445  24.100 -56.494  1.00  0.00     0.004 C 
ENDBRANCH   5   6
ENDBRANCH   1   5
TORSDOF 3
ENDMDL
MODEL 2
REMARK VINA RESULT:    -3.264     17.157     18.010
REMARK INTER + INTRA:          -3.873
REMARK INTER:                  -3.838
REMARK INTRA:                  -0.036
REMARK UNBOUND:                -0.037
REMARK SMILES CCCCC(=O)[O-]
REMARK SMILES IDX 4 1 5 2 6 3 7 4 3 5 2 6 1 7
REMARK H PARENT
REMARK Flexibility Score: inf
ROOT
ATOM      1  C   UNL     1      -4.460   8.173 -59.032  1.00  0.00     0.053 C 
ENDROOT
BRANCH   1   2
ATOM      2  C   UNL     1      -3.041   8.431 -58.630  1.00  0.00     0.041 C 
ATOM      3  O   UNL     1      -2.406   7.574 -57.961  1.00  0.00    -0.550 OA
ATOM      4  O   UNL     1      -2.429   9.633 -58.966  1.00  0.00    -0.550 OA
ENDBRANCH   1   2
BRANCH   1   5
ATOM      5  C   UNL     1      -5.425   8.324 -57.848  1.00  0.00     0.006 C 
BRANCH   5   6
ATOM      6  C   UNL     1      -6.316   7.088 -57.664  1.00  0.00    -0.003 C 
ATOM      7  C   UNL     1      -7.780   7.418 -57.941  1.00  0.00     0.004 C 
ENDBRANCH   5   6
ENDBRANCH   1   5
TORSDOF 3
ENDMDL
MODEL 3
REMARK VINA RESULT:    -3.234      1.659      2.099
REMARK INTER + INTRA:          -3.838
REMARK INTER:                  -3.817
REMARK INTRA:                  -0.021
REMARK UNBOUND:                -0.037
REMARK SMILES CCCCC(=O)[O-]
REMARK SMILES IDX 4 1 5 2 6 3 7 4 3 5 2 6 1 7
REMARK H PARENT
REMARK Flexibility Score: inf
ROOT
ATOM      1  C   UNL     1       5.124  22.199 -53.985  1.00  0.00     0.053 C 
ENDROOT
BRANCH   1   2
ATOM      2  C   UNL     1       6.065  21.051 -53.779  1.00  0.00     0.041 C 
ATOM      3  O   UNL     1       6.089  20.097 -54.599  1.00  0.00    -0.550 OA
ATOM      4  O   UNL     1       6.891  21.020 -52.662  1.00  0.00    -0.550 OA
ENDBRANCH   1   2
BRANCH   1   5
ATOM      5  C   UNL     1       5.075  23.122 -52.760  1.00  0.00     0.006 C 
BRANCH   5   6
ATOM      6  C   UNL     1       4.552  24.523 -53.110  1.00  0.00    -0.003 C 
ATOM      7  C   UNL     1       3.665  25.072 -51.996  1.00  0.00     0.004 C 
ENDBRANCH   5   6
ENDBRANCH   1   5
TORSDOF 3
ENDMDL
MODEL 4
REMARK VINA RESULT:    -3.217     17.713     18.568
REMARK INTER + INTRA:          -3.818
REMARK INTER:                  -3.770
REMARK INTRA:                  -0.047
REMARK UNBOUND:                -0.037
REMARK SMILES CCCCC(=O)[O-]
REMARK SMILES IDX 4 1 5 2 6 3 7 4 3 5 2 6 1 7
REMARK H PARENT
REMARK Flexibility Score: inf
ROOT
ATOM      1  C   UNL     1      -4.858   7.461 -58.789  1.00  0.00     0.053 C 
ENDROOT
BRANCH   1   2
ATOM      2  C   UNL     1      -3.911   8.621 -58.731  1.00  0.00     0.041 C 
ATOM      3  O   UNL     1      -4.354   9.796 -58.647  1.00  0.00    -0.550 OA
ATOM      4  O   UNL     1      -2.541   8.405 -58.803  1.00  0.00    -0.550 OA
ENDBRANCH   1   2
BRANCH   1   5
ATOM      5  C   UNL     1      -5.821   7.452 -57.594  1.00  0.00     0.006 C 
BRANCH   5   6
ATOM      6  C   UNL     1      -7.285   7.604 -58.028  1.00  0.00    -0.003 C 
ATOM      7  C   UNL     1      -8.090   6.349 -57.703  1.00  0.00     0.004 C 
ENDBRANCH   5   6
ENDBRANCH   1   5
TORSDOF 3
ENDMDL
MODEL 5
REMARK VINA RESULT:    -3.182     14.463     14.970
REMARK INTER + INTRA:          -3.777
REMARK INTER:                  -3.739
REMARK INTRA:                  -0.038
REMARK UNBOUND:                -0.037
REMARK SMILES CCCCC(=O)[O-]
REMARK SMILES IDX 4 1 5 2 6 3 7 4 3 5 2 6 1 7
REMARK H PARENT
REMARK Flexibility Score: inf
ROOT
ATOM      1  C   UNL     1      -6.988  17.095 -61.743  1.00  0.00     0.053 C 
ENDROOT
BRANCH   1   2
ATOM      2  C   UNL     1      -8.111  16.179 -61.365  1.00  0.00     0.041 C 
ATOM      3  O   UNL     1      -9.305  16.532 -61.546  1.00  0.00    -0.550 OA
ATOM      4  O   UNL     1      -7.838  14.947 -60.782  1.00  0.00    -0.550 OA
ENDBRANCH   1   2
BRANCH   1   5
ATOM      5  C   UNL     1      -5.768  16.907 -60.832  1.00  0.00     0.006 C 
BRANCH   5   6
ATOM      6  C   UNL     1      -5.607  18.061 -59.832  1.00  0.00    -0.003 C 
ATOM      7  C   UNL     1      -4.136  18.414 -59.630  1.00  0.00     0.004 C 
ENDBRANCH   5   6
ENDBRANCH   1   5
TORSDOF 3
ENDMDL
MODEL 6
REMARK VINA RESULT:    -3.134     17.413     18.196
REMARK INTER + INTRA:          -3.720
REMARK INTER:                  -3.626
REMARK INTRA:                  -0.095
REMARK UNBOUND:                -0.037
REMARK SMILES CCCCC(=O)[O-]
REMARK SMILES IDX 4 1 5 2 6 3 7 4 3 5 2 6 1 7
REMARK H PARENT
REMARK Flexibility Score: inf
ROOT
ATOM      1  C   UNL     1      -5.146   7.879 -58.961  1.00  0.00     0.053 C 
ENDROOT
BRANCH   1   2
ATOM      2  C   UNL     1      -6.129   7.481 -57.903  1.00  0.00     0.041 C 
ATOM      3  O   UNL     1      -5.738   6.876 -56.872  1.00  0.00    -0.550 OA
ATOM      4  O   UNL     1      -7.482   7.751 -58.073  1.00  0.00    -0.550 OA
ENDBRANCH   1   2
BRANCH   1   5
ATOM      5  C   UNL     1      -4.558   9.272 -58.697  1.00  0.00     0.006 C 
BRANCH   5   6
ATOM      6  C   UNL     1      -3.056   9.217 -58.382  1.00  0.00    -0.003 C 
ATOM      7  C   UNL     1      -2.471   7.851 -58.729  1.00  0.00     0.004 C 
ENDBRANCH   5   6
ENDBRANCH   1   5
TORSDOF 3
ENDMDL
MODEL 7
REMARK VINA RESULT:    -3.112     16.817     17.708
REMARK INTER + INTRA:          -3.694
REMARK INTER:                  -3.573
REMARK INTRA:                  -0.121
REMARK UNBOUND:                -0.037
REMARK SMILES CCCCC(=O)[O-]
REMARK SMILES IDX 4 1 5 2 6 3 7 4 3 5 2 6 1 7
REMARK H PARENT
REMARK Flexibility Score: inf
ROOT
ATOM      1  C   UNL     1      -3.146   9.057 -58.626  1.00  0.00     0.053 C 
ENDROOT
BRANCH   1   2
ATOM      2  C   UNL     1      -2.508   7.726 -58.373  1.00  0.00     0.041 C 
ATOM      3  O   UNL     1      -2.391   7.293 -57.197  1.00  0.00    -0.550 OA
ATOM      4  O   UNL     1      -2.015   6.977 -59.434  1.00  0.00    -0.550 OA
ENDBRANCH   1   2
BRANCH   1   5
ATOM      5  C   UNL     1      -4.618   9.075 -58.193  1.00  0.00     0.006 C 
BRANCH   5   6
ATOM      6  C   UNL     1      -5.418   7.918 -58.808  1.00  0.00    -0.003 C 
ATOM      7  C   UNL     1      -6.275   7.221 -57.755  1.00  0.00     0.004 C 
ENDBRANCH   5   6
ENDBRANCH   1   5
TORSDOF 3
ENDMDL
MODEL 8
REMARK VINA RESULT:    -3.030     16.337     17.085
REMARK INTER + INTRA:          -3.598
REMARK INTER:                  -3.502
REMARK INTRA:                  -0.096
REMARK UNBOUND:                -0.037
REMARK SMILES CCCCC(=O)[O-]
REMARK SMILES IDX 4 1 5 2 6 3 7 4 3 5 2 6 1 7
REMARK H PARENT
REMARK Flexibility Score: inf
ROOT
ATOM      1  C   UNL     1      -3.609   8.407 -56.433  1.00  0.00     0.053 C 
ENDROOT
BRANCH   1   2
ATOM      2  C   UNL     1      -2.532   7.374 -56.298  1.00  0.00     0.041 C 
ATOM      3  O   UNL     1      -2.160   6.712 -57.301  1.00  0.00    -0.550 OA
ATOM      4  O   UNL     1      -1.963   7.121 -55.056  1.00  0.00    -0.550 OA
ENDBRANCH   1   2
BRANCH   1   5
ATOM      5  C   UNL     1      -3.430   9.252 -57.701  1.00  0.00     0.006 C 
BRANCH   5   6
ATOM      6  C   UNL     1      -4.510   8.957 -58.752  1.00  0.00    -0.003 C 
ATOM      7  C   UNL     1      -5.672   8.176 -58.143  1.00  0.00     0.004 C 
ENDBRANCH   5   6
ENDBRANCH   1   5
TORSDOF 3
ENDMDL
MODEL 9
REMARK VINA RESULT:    -2.962     16.926     17.826
REMARK INTER + INTRA:          -3.518
REMARK INTER:                  -3.408
REMARK INTRA:                  -0.110
REMARK UNBOUND:                -0.037
REMARK SMILES CCCCC(=O)[O-]
REMARK SMILES IDX 4 1 5 2 6 3 7 4 3 5 2 6 1 7
REMARK H PARENT
REMARK Flexibility Score: inf
ROOT
ATOM      1  C   UNL     1      -5.027   8.368 -58.122  1.00  0.00     0.053 C 
ENDROOT
BRANCH   1   2
ATOM      2  C   UNL     1      -3.720   8.967 -57.702  1.00  0.00     0.041 C 
ATOM      3  O   UNL     1      -3.148   9.815 -58.434  1.00  0.00    -0.550 OA
ATOM      4  O   UNL     1      -3.118   8.563 -56.516  1.00  0.00    -0.550 OA
ENDBRANCH   1   2
BRANCH   1   5
ATOM      5  C   UNL     1      -4.867   6.910 -58.573  1.00  0.00     0.006 C 
BRANCH   5   6
ATOM      6  C   UNL     1      -4.204   6.800 -59.953  1.00  0.00    -0.003 C 
ATOM      7  C   UNL     1      -2.890   6.027 -59.872  1.00  0.00     0.004 C 
ENDBRANCH   5   6
ENDBRANCH   1   5
TORSDOF 3
ENDMDL
