MODEL 1
REMARK VINA RESULT:    -3.768      0.000      0.000
REMARK INTER + INTRA:          -6.218
REMARK INTER:                  -5.751
REMARK INTRA:                  -0.467
REMARK UNBOUND:                -0.467
REMARK SMILES O=C([O-])CCCCCCCCC(=O)[O-]
REMARK SMILES IDX 7 1 6 2 5 3 4 4 2 5 1 6 3 7 8 8 9 9 10 10 11 11 12 12 13 13
REMARK SMILES IDX 14 14
REMARK H PARENT
REMARK Flexibility Score: inf
ROOT
ATOM      1  C   UNL     1      -6.739 -65.531  -1.070  1.00  0.00     0.000 C 
ENDROOT
BRANCH   1   2
ATOM      2  C   UNL     1      -5.257 -65.854  -1.312  1.00  0.00     0.000 C 
BRANCH   2   3
ATOM      3  C   UNL     1      -5.059 -67.087  -2.207  1.00  0.00     0.006 C 
BRANCH   3   4
ATOM      4  C   UNL     1      -4.304 -66.761  -3.503  1.00  0.00     0.053 C 
BRANCH   4   5
ATOM      5  C   UNL     1      -4.450 -67.879  -4.486  1.00  0.00     0.041 C 
ATOM      6  O   UNL     1      -3.955 -67.778  -5.640  1.00  0.00    -0.550 OA
ATOM      7  O   UNL     1      -5.092 -69.054  -4.113  1.00  0.00    -0.550 OA
ENDBRANCH   4   5
ENDBRANCH   3   4
ENDBRANCH   2   3
ENDBRANCH   1   2
BRANCH   1   8
ATOM      8  C   UNL     1      -7.531 -66.803  -0.728  1.00  0.00     0.000 C 
BRANCH   8   9
ATOM      9  C   UNL     1      -9.006 -66.499  -0.392  1.00  0.00     0.000 C 
BRANCH   9  10
ATOM     10  C   UNL     1      -9.202 -65.848   0.988  1.00  0.00     0.006 C 
BRANCH  10  11
ATOM     11  C   UNL     1      -8.359 -66.508   2.085  1.00  0.00     0.053 C 
BRANCH  11  12
ATOM     12  C   UNL     1      -7.514 -65.488   2.779  1.00  0.00     0.041 C 
ATOM     13  O   UNL     1      -7.626 -64.268   2.490  1.00  0.00    -0.550 OA
ATOM     14  O   UNL     1      -6.636 -65.880   3.783  1.00  0.00    -0.550 OA
ENDBRANCH  11  12
ENDBRANCH  10  11
ENDBRANCH   9  10
ENDBRANCH   8   9
ENDBRANCH   1   8
TORSDOF 9
ENDMDL
MODEL 2
REMARK VINA RESULT:    -3.734      2.222      6.411
REMARK INTER + INTRA:          -6.165
REMARK INTER:                  -5.546
REMARK INTRA:                  -0.619
REMARK UNBOUND:                -0.467
REMARK SMILES O=C([O-])CCCCCCCCC(=O)[O-]
REMARK SMILES IDX 7 1 6 2 5 3 4 4 2 5 1 6 3 7 8 8 9 9 10 10 11 11 12 12 13 13
REMARK SMILES IDX 14 14
REMARK H PARENT
REMARK Flexibility Score: inf
ROOT
ATOM      1  C   UNL     1      -5.467 -64.677  -0.240  1.00  0.00     0.000 C 
ENDROOT
BRANCH   1   2
ATOM      2  C   UNL     1      -6.010 -65.018   1.155  1.00  0.00     0.000 C 
BRANCH   2   3
ATOM      3  C   UNL     1      -7.546 -65.021   1.208  1.00  0.00     0.006 C 
BRANCH   3   4
ATOM      4  C   UNL     1      -8.143 -66.412   0.957  1.00  0.00     0.053 C 
BRANCH   4   5
ATOM      5  C   UNL     1      -8.833 -66.451  -0.369  1.00  0.00     0.041 C 
ATOM      6  O   UNL     1      -9.398 -67.507  -0.760  1.00  0.00    -0.550 OA
ATOM      7  O   UNL     1      -8.895 -65.306  -1.155  1.00  0.00    -0.550 OA
ENDBRANCH   4   5
ENDBRANCH   3   4
ENDBRANCH   2   3
ENDBRANCH   1   2
BRANCH   1   8
ATOM      8  C   UNL     1      -4.662 -65.851  -0.820  1.00  0.00     0.000 C 
BRANCH   8   9
ATOM      9  C   UNL     1      -5.508 -66.728  -1.765  1.00  0.00     0.000 C 
BRANCH   9  10
ATOM     10  C   UNL     1      -4.711 -67.310  -2.945  1.00  0.00     0.006 C 
BRANCH  10  11
ATOM     11  C   UNL     1      -4.015 -66.232  -3.784  1.00  0.00     0.053 C 
BRANCH  11  12
ATOM     12  C   UNL     1      -4.101 -66.566  -5.239  1.00  0.00     0.041 C 
ATOM     13  O   UNL     1      -4.887 -65.932  -5.991  1.00  0.00    -0.550 OA
ATOM     14  O   UNL     1      -3.276 -67.547  -5.777  1.00  0.00    -0.550 OA
ENDBRANCH  11  12
ENDBRANCH  10  11
ENDBRANCH   9  10
ENDBRANCH   8   9
ENDBRANCH   1   8
TORSDOF 9
ENDMDL
MODEL 3
REMARK VINA RESULT:    -3.721      1.674      6.141
REMARK INTER + INTRA:          -6.146
REMARK INTER:                  -5.203
REMARK INTRA:                  -0.943
REMARK UNBOUND:                -0.467
REMARK SMILES O=C([O-])CCCCCCCCC(=O)[O-]
REMARK SMILES IDX 7 1 6 2 5 3 4 4 2 5 1 6 3 7 8 8 9 9 10 10 11 11 12 12 13 13
REMARK SMILES IDX 14 14
REMARK H PARENT
REMARK Flexibility Score: inf
ROOT
ATOM      1  C   UNL     1      -7.477 -63.472  -0.494  1.00  0.00     0.000 C 
ENDROOT
BRANCH   1   2
ATOM      2  C   UNL     1      -8.363 -64.588  -1.067  1.00  0.00     0.000 C 
BRANCH   2   3
ATOM      3  C   UNL     1      -9.279 -65.219  -0.008  1.00  0.00     0.006 C 
BRANCH   3   4
ATOM      4  C   UNL     1      -8.674 -66.483   0.620  1.00  0.00     0.053 C 
BRANCH   4   5
ATOM      5  C   UNL     1      -8.373 -66.254   2.066  1.00  0.00     0.041 C 
ATOM      6  O   UNL     1      -8.180 -65.087   2.497  1.00  0.00    -0.550 OA
ATOM      7  O   UNL     1      -8.353 -67.327   2.950  1.00  0.00    -0.550 OA
ENDBRANCH   4   5
ENDBRANCH   3   4
ENDBRANCH   2   3
ENDBRANCH   1   2
BRANCH   1   8
ATOM      8  C   UNL     1      -5.994 -63.738  -0.793  1.00  0.00     0.000 C 
BRANCH   8   9
ATOM      9  C   UNL     1      -5.393 -64.807   0.144  1.00  0.00     0.000 C 
BRANCH   9  10
ATOM     10  C   UNL     1      -4.529 -65.850  -0.585  1.00  0.00     0.006 C 
BRANCH  10  11
ATOM     11  C   UNL     1      -5.298 -66.607  -1.673  1.00  0.00     0.053 C 
BRANCH  11  12
ATOM     12  C   UNL     1      -4.525 -66.610  -2.954  1.00  0.00     0.041 C 
ATOM     13  O   UNL     1      -3.774 -65.643  -3.244  1.00  0.00    -0.550 OA
ATOM     14  O   UNL     1      -4.597 -67.706  -3.805  1.00  0.00    -0.550 OA
ENDBRANCH  11  12
ENDBRANCH  10  11
ENDBRANCH   9  10
ENDBRANCH   8   9
ENDBRANCH   1   8
TORSDOF 9
ENDMDL
MODEL 4
REMARK VINA RESULT:    -3.719      2.103      3.156
REMARK INTER + INTRA:          -6.143
REMARK INTER:                  -5.628
REMARK INTRA:                  -0.515
REMARK UNBOUND:                -0.467
REMARK SMILES O=C([O-])CCCCCCCCC(=O)[O-]
REMARK SMILES IDX 7 1 6 2 5 3 4 4 2 5 1 6 3 7 8 8 9 9 10 10 11 11 12 12 13 13
REMARK SMILES IDX 14 14
REMARK H PARENT
REMARK Flexibility Score: inf
ROOT
ATOM      1  C   UNL     1      -5.257 -66.880  -2.155  1.00  0.00     0.000 C 
ENDROOT
BRANCH   1   2
ATOM      2  C   UNL     1      -4.266 -66.598  -3.293  1.00  0.00     0.000 C 
BRANCH   2   3
ATOM      3  C   UNL     1      -4.369 -67.622  -4.434  1.00  0.00     0.006 C 
BRANCH   3   4
ATOM      4  C   UNL     1      -3.603 -67.186  -5.691  1.00  0.00     0.053 C 
BRANCH   4   5
ATOM      5  C   UNL     1      -4.406 -67.478  -6.919  1.00  0.00     0.041 C 
ATOM      6  O   UNL     1      -4.453 -68.648  -7.382  1.00  0.00    -0.550 OA
ATOM      7  O   UNL     1      -5.142 -66.467  -7.524  1.00  0.00    -0.550 OA
ENDBRANCH   4   5
ENDBRANCH   3   4
ENDBRANCH   2   3
ENDBRANCH   1   2
BRANCH   1   8
ATOM      8  C   UNL     1      -4.849 -66.138  -0.873  1.00  0.00     0.000 C 
BRANCH   8   9
ATOM      9  C   UNL     1      -5.986 -65.251  -0.325  1.00  0.00     0.000 C 
BRANCH   9  10
ATOM     10  C   UNL     1      -7.103 -64.979  -1.348  1.00  0.00     0.006 C 
BRANCH  10  11
ATOM     11  C   UNL     1      -8.503 -65.257  -0.790  1.00  0.00     0.053 C 
BRANCH  11  12
ATOM     12  C   UNL     1      -8.605 -66.672  -0.315  1.00  0.00     0.041 C 
ATOM     13  O   UNL     1      -8.559 -67.623  -1.138  1.00  0.00    -0.550 OA
ATOM     14  O   UNL     1      -8.700 -66.943   1.044  1.00  0.00    -0.550 OA
ENDBRANCH  11  12
ENDBRANCH  10  11
ENDBRANCH   9  10
ENDBRANCH   8   9
ENDBRANCH   1   8
TORSDOF 9
ENDMDL
MODEL 5
REMARK VINA RESULT:    -3.685      2.314      7.552
REMARK INTER + INTRA:          -6.091
REMARK INTER:                  -5.797
REMARK INTRA:                  -0.294
REMARK UNBOUND:                -0.467
REMARK SMILES O=C([O-])CCCCCCCCC(=O)[O-]
REMARK SMILES IDX 7 1 6 2 5 3 4 4 2 5 1 6 3 7 8 8 9 9 10 10 11 11 12 12 13 13
REMARK SMILES IDX 14 14
REMARK H PARENT
REMARK Flexibility Score: inf
ROOT
ATOM      1  C   UNL     1      -5.142 -66.858  -1.917  1.00  0.00     0.000 C 
ENDROOT
BRANCH   1   2
ATOM      2  C   UNL     1      -5.311 -65.582  -1.080  1.00  0.00     0.000 C 
BRANCH   2   3
ATOM      3  C   UNL     1      -6.463 -65.686  -0.069  1.00  0.00     0.006 C 
BRANCH   3   4
ATOM      4  C   UNL     1      -7.832 -65.842  -0.745  1.00  0.00     0.053 C 
BRANCH   4   5
ATOM      5  C   UNL     1      -8.665 -66.844  -0.014  1.00  0.00     0.041 C 
ATOM      6  O   UNL     1      -8.709 -66.836   1.245  1.00  0.00    -0.550 OA
ATOM      7  O   UNL     1      -9.434 -67.760  -0.723  1.00  0.00    -0.550 OA
ENDBRANCH   4   5
ENDBRANCH   3   4
ENDBRANCH   2   3
ENDBRANCH   1   2
BRANCH   1   8
ATOM      8  C   UNL     1      -4.461 -66.549  -3.260  1.00  0.00     0.000 C 
BRANCH   8   9
ATOM      9  C   UNL     1      -4.477 -67.761  -4.214  1.00  0.00     0.000 C 
BRANCH   9  10
ATOM     10  C   UNL     1      -3.673 -67.540  -5.507  1.00  0.00     0.006 C 
BRANCH  10  11
ATOM     11  C   UNL     1      -4.344 -66.549  -6.465  1.00  0.00     0.053 C 
BRANCH  11  12
ATOM     12  C   UNL     1      -4.756 -67.240  -7.726  1.00  0.00     0.041 C 
ATOM     13  O   UNL     1      -5.453 -66.636  -8.582  1.00  0.00    -0.550 OA
ATOM     14  O   UNL     1      -4.327 -68.537  -7.979  1.00  0.00    -0.550 OA
ENDBRANCH  11  12
ENDBRANCH  10  11
ENDBRANCH   9  10
ENDBRANCH   8   9
ENDBRANCH   1   8
TORSDOF 9
ENDMDL
MODEL 6
REMARK VINA RESULT:    -3.662      2.005      2.834
REMARK INTER + INTRA:          -6.056
REMARK INTER:                  -5.397
REMARK INTRA:                  -0.659
REMARK UNBOUND:                -0.467
REMARK SMILES O=C([O-])CCCCCCCCC(=O)[O-]
REMARK SMILES IDX 7 1 6 2 5 3 4 4 2 5 1 6 3 7 8 8 9 9 10 10 11 11 12 12 13 13
REMARK SMILES IDX 14 14
REMARK H PARENT
REMARK Flexibility Score: inf
ROOT
ATOM      1  C   UNL     1      -4.581 -65.779  -0.601  1.00  0.00     0.000 C 
ENDROOT
BRANCH   1   2
ATOM      2  C   UNL     1      -5.232 -66.413  -1.839  1.00  0.00     0.000 C 
BRANCH   2   3
ATOM      3  C   UNL     1      -4.383 -66.239  -3.108  1.00  0.00     0.006 C 
BRANCH   3   4
ATOM      4  C   UNL     1      -4.343 -67.507  -3.971  1.00  0.00     0.053 C 
BRANCH   4   5
ATOM      5  C   UNL     1      -4.408 -67.153  -5.422  1.00  0.00     0.041 C 
ATOM      6  O   UNL     1      -4.603 -65.960  -5.776  1.00  0.00    -0.550 OA
ATOM      7  O   UNL     1      -4.203 -68.132  -6.387  1.00  0.00    -0.550 OA
ENDBRANCH   4   5
ENDBRANCH   3   4
ENDBRANCH   2   3
ENDBRANCH   1   2
BRANCH   1   8
ATOM      8  C   UNL     1      -5.555 -64.823   0.105  1.00  0.00     0.000 C 
BRANCH   8   9
ATOM      9  C   UNL     1      -6.622 -64.262  -0.858  1.00  0.00     0.000 C 
BRANCH   9  10
ATOM     10  C   UNL     1      -8.060 -64.387  -0.326  1.00  0.00     0.006 C 
BRANCH  10  11
ATOM     11  C   UNL     1      -8.875 -65.461  -1.054  1.00  0.00     0.053 C 
BRANCH  11  12
ATOM     12  C   UNL     1      -8.712 -66.787  -0.380  1.00  0.00     0.041 C 
ATOM     13  O   UNL     1      -8.460 -66.845   0.852  1.00  0.00    -0.550 OA
ATOM     14  O   UNL     1      -8.887 -67.960  -1.103  1.00  0.00    -0.550 OA
ENDBRANCH  11  12
ENDBRANCH  10  11
ENDBRANCH   9  10
ENDBRANCH   8   9
ENDBRANCH   1   8
TORSDOF 9
ENDMDL
MODEL 7
REMARK VINA RESULT:    -3.661      2.237      2.985
REMARK INTER + INTRA:          -6.054
REMARK INTER:                  -5.335
REMARK INTRA:                  -0.719
REMARK UNBOUND:                -0.467
REMARK SMILES O=C([O-])CCCCCCCCC(=O)[O-]
REMARK SMILES IDX 7 1 6 2 5 3 4 4 2 5 1 6 3 7 8 8 9 9 10 10 11 11 12 12 13 13
REMARK SMILES IDX 14 14
REMARK H PARENT
REMARK Flexibility Score: inf
ROOT
ATOM      1  C   UNL     1      -4.478 -64.282  -0.123  1.00  0.00     0.000 C 
ENDROOT
BRANCH   1   2
ATOM      2  C   UNL     1      -4.650 -65.764  -0.486  1.00  0.00     0.000 C 
BRANCH   2   3
ATOM      3  C   UNL     1      -5.323 -65.965  -1.853  1.00  0.00     0.006 C 
BRANCH   3   4
ATOM      4  C   UNL     1      -4.744 -67.156  -2.628  1.00  0.00     0.053 C 
BRANCH   4   5
ATOM      5  C   UNL     1      -4.211 -66.707  -3.952  1.00  0.00     0.041 C 
ATOM      6  O   UNL     1      -4.317 -65.502  -4.303  1.00  0.00    -0.550 OA
ATOM      7  O   UNL     1      -3.553 -67.610  -4.778  1.00  0.00    -0.550 OA
ENDBRANCH   4   5
ENDBRANCH   3   4
ENDBRANCH   2   3
ENDBRANCH   1   2
BRANCH   1   8
ATOM      8  C   UNL     1      -5.618 -63.802   0.788  1.00  0.00     0.000 C 
BRANCH   8   9
ATOM      9  C   UNL     1      -6.274 -64.965   1.562  1.00  0.00     0.000 C 
BRANCH   9  10
ATOM     10  C   UNL     1      -7.794 -65.070   1.346  1.00  0.00     0.006 C 
BRANCH  10  11
ATOM     11  C   UNL     1      -8.251 -66.491   1.001  1.00  0.00     0.053 C 
BRANCH  11  12
ATOM     12  C   UNL     1      -8.788 -66.543  -0.394  1.00  0.00     0.041 C 
ATOM     13  O   UNL     1      -9.279 -67.610  -0.846  1.00  0.00    -0.550 OA
ATOM     14  O   UNL     1      -8.791 -65.397  -1.180  1.00  0.00    -0.550 OA
ENDBRANCH  11  12
ENDBRANCH  10  11
ENDBRANCH   9  10
ENDBRANCH   8   9
ENDBRANCH   1   8
TORSDOF 9
ENDMDL
MODEL 8
REMARK VINA RESULT:    -3.608      1.568      1.998
REMARK INTER + INTRA:          -5.974
REMARK INTER:                  -5.535
REMARK INTRA:                  -0.439
REMARK UNBOUND:                -0.467
REMARK SMILES O=C([O-])CCCCCCCCC(=O)[O-]
REMARK SMILES IDX 7 1 6 2 5 3 4 4 2 5 1 6 3 7 8 8 9 9 10 10 11 11 12 12 13 13
REMARK SMILES IDX 14 14
REMARK H PARENT
REMARK Flexibility Score: inf
ROOT
ATOM      1  C   UNL     1      -7.303 -66.518  -0.755  1.00  0.00     0.000 C 
ENDROOT
BRANCH   1   2
ATOM      2  C   UNL     1      -6.151 -65.506  -0.844  1.00  0.00     0.000 C 
BRANCH   2   3
ATOM      3  C   UNL     1      -4.850 -66.135  -1.369  1.00  0.00     0.006 C 
BRANCH   3   4
ATOM      4  C   UNL     1      -5.105 -67.276  -2.363  1.00  0.00     0.053 C 
BRANCH   4   5
ATOM      5  C   UNL     1      -4.342 -67.045  -3.629  1.00  0.00     0.041 C 
ATOM      6  O   UNL     1      -3.695 -65.978  -3.793  1.00  0.00    -0.550 OA
ATOM      7  O   UNL     1      -4.307 -68.030  -4.608  1.00  0.00    -0.550 OA
ENDBRANCH   4   5
ENDBRANCH   3   4
ENDBRANCH   2   3
ENDBRANCH   1   2
BRANCH   1   8
ATOM      8  C   UNL     1      -8.664 -65.809  -0.823  1.00  0.00     0.000 C 
BRANCH   8   9
ATOM      9  C   UNL     1      -9.216 -65.471   0.578  1.00  0.00     0.000 C 
BRANCH   9  10
ATOM     10  C   UNL     1      -8.716 -66.418   1.683  1.00  0.00     0.006 C 
BRANCH  10  11
ATOM     11  C   UNL     1      -8.387 -65.688   2.990  1.00  0.00     0.053 C 
BRANCH  11  12
ATOM     12  C   UNL     1      -8.908 -66.458   4.162  1.00  0.00     0.041 C 
ATOM     13  O   UNL     1      -8.324 -67.506   4.543  1.00  0.00    -0.550 OA
ATOM     14  O   UNL     1     -10.010 -65.989   4.866  1.00  0.00    -0.550 OA
ENDBRANCH  11  12
ENDBRANCH  10  11
ENDBRANCH   9  10
ENDBRANCH   8   9
ENDBRANCH   1   8
TORSDOF 9
ENDMDL
MODEL 9
REMARK VINA RESULT:    -3.598      2.462      3.521
REMARK INTER + INTRA:          -5.959
REMARK INTER:                  -5.475
REMARK INTRA:                  -0.484
REMARK UNBOUND:                -0.467
REMARK SMILES O=C([O-])CCCCCCCCC(=O)[O-]
REMARK SMILES IDX 7 1 6 2 5 3 4 4 2 5 1 6 3 7 8 8 9 9 10 10 11 11 12 12 13 13
REMARK SMILES IDX 14 14
REMARK H PARENT
REMARK Flexibility Score: inf
ROOT
ATOM      1  C   UNL     1      -4.349 -65.716  -3.664  1.00  0.00     0.000 C 
ENDROOT
BRANCH   1   2
ATOM      2  C   UNL     1      -4.375 -67.250  -3.603  1.00  0.00     0.000 C 
BRANCH   2   3
ATOM      3  C   UNL     1      -4.357 -67.898  -4.996  1.00  0.00     0.006 C 
BRANCH   3   4
ATOM      4  C   UNL     1      -3.905 -66.926  -6.094  1.00  0.00     0.053 C 
BRANCH   4   5
ATOM      5  C   UNL     1      -4.375 -67.397  -7.433  1.00  0.00     0.041 C 
ATOM      6  O   UNL     1      -4.524 -66.577  -8.378  1.00  0.00    -0.550 OA
ATOM      7  O   UNL     1      -4.602 -68.750  -7.654  1.00  0.00    -0.550 OA
ENDBRANCH   4   5
ENDBRANCH   3   4
ENDBRANCH   2   3
ENDBRANCH   1   2
BRANCH   1   8
ATOM      8  C   UNL     1      -4.464 -65.107  -2.258  1.00  0.00     0.000 C 
BRANCH   8   9
ATOM      9  C   UNL     1      -4.948 -66.135  -1.215  1.00  0.00     0.000 C 
BRANCH   9  10
ATOM     10  C   UNL     1      -6.043 -65.596  -0.279  1.00  0.00     0.006 C 
BRANCH  10  11
ATOM     11  C   UNL     1      -7.446 -66.084  -0.658  1.00  0.00     0.053 C 
BRANCH  11  12
ATOM     12  C   UNL     1      -8.392 -64.929  -0.755  1.00  0.00     0.041 C 
ATOM     13  O   UNL     1      -8.125 -63.951  -1.500  1.00  0.00    -0.550 OA
ATOM     14  O   UNL     1      -9.594 -64.956  -0.058  1.00  0.00    -0.550 OA
ENDBRANCH  11  12
ENDBRANCH  10  11
ENDBRANCH   9  10
ENDBRANCH   8   9
ENDBRANCH   1   8
TORSDOF 9
ENDMDL
