MODEL 1
REMARK VINA RESULT:    -4.515      0.000      0.000
REMARK INTER + INTRA:         -10.221
REMARK INTER:                  -8.474
REMARK INTRA:                  -1.747
REMARK UNBOUND:                -1.747
REMARK SMILES O=C([O-])CCCCCCCCCCCCCCC(=O)[O-]
REMARK SMILES IDX 10 1 9 2 8 3 7 4 6 5 5 6 4 7 2 8 1 9 3 10 11 11 12 12 13 13
REMARK SMILES IDX 14 14 15 15 16 16 17 17 18 18 19 19 20 20
REMARK H PARENT
REMARK Flexibility Score: inf
ROOT
ATOM      1  C   UNL     1      95.791   4.257  25.116  1.00  0.00     0.000 C 
ENDROOT
BRANCH   1   2
ATOM      2  C   UNL     1      97.315   4.091  25.209  1.00  0.00     0.000 C 
BRANCH   2   3
ATOM      3  C   UNL     1      97.971   3.836  23.840  1.00  0.00     0.000 C 
BRANCH   3   4
ATOM      4  C   UNL     1      99.419   4.352  23.704  1.00  0.00     0.000 C 
BRANCH   4   5
ATOM      5  C   UNL     1     100.430   3.335  23.140  1.00  0.00     0.000 C 
BRANCH   5   6
ATOM      6  C   UNL     1     101.508   2.861  24.133  1.00  0.00     0.006 C 
BRANCH   6   7
ATOM      7  C   UNL     1     101.364   1.389  24.557  1.00  0.00     0.053 C 
BRANCH   7   8
ATOM      8  C   UNL     1      99.972   1.048  25.000  1.00  0.00     0.041 C 
ATOM      9  O   UNL     1      99.535   1.473  26.102  1.00  0.00    -0.550 OA
ATOM     10  O   UNL     1      99.171   0.232  24.212  1.00  0.00    -0.550 OA
ENDBRANCH   7   8
ENDBRANCH   6   7
ENDBRANCH   5   6
ENDBRANCH   4   5
ENDBRANCH   3   4
ENDBRANCH   2   3
ENDBRANCH   1   2
BRANCH   1  11
ATOM     11  C   UNL     1      95.360   5.648  25.601  1.00  0.00     0.000 C 
BRANCH  11  12
ATOM     12  C   UNL     1      95.702   6.723  24.557  1.00  0.00     0.000 C 
BRANCH  12  13
ATOM     13  C   UNL     1      94.947   6.525  23.232  1.00  0.00     0.000 C 
BRANCH  13  14
ATOM     14  C   UNL     1      95.895   6.342  22.036  1.00  0.00     0.000 C 
BRANCH  14  15
ATOM     15  C   UNL     1      97.274   6.981  22.272  1.00  0.00     0.000 C 
BRANCH  15  16
ATOM     16  C   UNL     1      98.222   6.810  21.072  1.00  0.00     0.006 C 
BRANCH  16  17
ATOM     17  C   UNL     1      97.508   7.036  19.734  1.00  0.00     0.053 C 
BRANCH  17  18
ATOM     18  C   UNL     1      98.469   7.025  18.585  1.00  0.00     0.041 C 
ATOM     19  O   UNL     1      99.596   6.479  18.706  1.00  0.00    -0.550 OA
ATOM     20  O   UNL     1      98.131   7.649  17.391  1.00  0.00    -0.550 OA
ENDBRANCH  17  18
ENDBRANCH  16  17
ENDBRANCH  15  16
ENDBRANCH  14  15
ENDBRANCH  13  14
ENDBRANCH  12  13
ENDBRANCH  11  12
ENDBRANCH   1  11
TORSDOF 15
ENDMDL
MODEL 2
REMARK VINA RESULT:    -4.506      1.105      6.459
REMARK INTER + INTRA:         -10.205
REMARK INTER:                  -8.107
REMARK INTRA:                  -2.098
REMARK UNBOUND:                -1.747
REMARK SMILES O=C([O-])CCCCCCCCCCCCCCC(=O)[O-]
REMARK SMILES IDX 10 1 9 2 8 3 7 4 6 5 5 6 4 7 2 8 1 9 3 10 11 11 12 12 13 13
REMARK SMILES IDX 14 14 15 15 16 16 17 17 18 18 19 19 20 20
REMARK H PARENT
REMARK Flexibility Score: inf
ROOT
ATOM      1  C   UNL     1      95.357   5.592  25.509  1.00  0.00     0.000 C 
ENDROOT
BRANCH   1   2
ATOM      2  C   UNL     1      96.020   6.973  25.398  1.00  0.00     0.000 C 
BRANCH   2   3
ATOM      3  C   UNL     1      95.741   7.663  24.051  1.00  0.00     0.000 C 
BRANCH   3   4
ATOM      4  C   UNL     1      95.068   6.772  22.986  1.00  0.00     0.000 C 
BRANCH   4   5
ATOM      5  C   UNL     1      95.958   6.390  21.789  1.00  0.00     0.000 C 
BRANCH   5   6
ATOM      6  C   UNL     1      97.381   6.980  21.814  1.00  0.00     0.006 C 
BRANCH   6   7
ATOM      7  C   UNL     1      98.188   6.721  20.529  1.00  0.00     0.053 C 
BRANCH   7   8
ATOM      8  C   UNL     1      97.911   7.732  19.458  1.00  0.00     0.041 C 
ATOM      9  O   UNL     1      98.504   8.843  19.465  1.00  0.00    -0.550 OA
ATOM     10  O   UNL     1      96.972   7.463  18.471  1.00  0.00    -0.550 OA
ENDBRANCH   7   8
ENDBRANCH   6   7
ENDBRANCH   5   6
ENDBRANCH   4   5
ENDBRANCH   3   4
ENDBRANCH   2   3
ENDBRANCH   1   2
BRANCH   1  11
ATOM     11  C   UNL     1      96.393   4.510  25.837  1.00  0.00     0.000 C 
BRANCH  11  12
ATOM     12  C   UNL     1      96.559   3.534  24.663  1.00  0.00     0.000 C 
BRANCH  12  13
ATOM     13  C   UNL     1      97.731   3.908  23.741  1.00  0.00     0.000 C 
BRANCH  13  14
ATOM     14  C   UNL     1      98.813   4.728  24.464  1.00  0.00     0.000 C 
BRANCH  14  15
ATOM     15  C   UNL     1     100.204   4.080  24.371  1.00  0.00     0.000 C 
BRANCH  15  16
ATOM     16  C   UNL     1     100.323   3.094  23.195  1.00  0.00     0.006 C 
BRANCH  16  17
ATOM     17  C   UNL     1     100.920   1.748  23.628  1.00  0.00     0.053 C 
BRANCH  17  18
ATOM     18  C   UNL     1      99.854   0.729  23.890  1.00  0.00     0.041 C 
ATOM     19  O   UNL     1      99.688  -0.234  23.097  1.00  0.00    -0.550 OA
ATOM     20  O   UNL     1      99.021   0.863  24.994  1.00  0.00    -0.550 OA
ENDBRANCH  17  18
ENDBRANCH  16  17
ENDBRANCH  15  16
ENDBRANCH  14  15
ENDBRANCH  13  14
ENDBRANCH  12  13
ENDBRANCH  11  12
ENDBRANCH   1  11
TORSDOF 15
ENDMDL
MODEL 3
REMARK VINA RESULT:    -4.492      3.101      5.715
REMARK INTER + INTRA:         -10.178
REMARK INTER:                  -8.257
REMARK INTRA:                  -1.920
REMARK UNBOUND:                -1.747
REMARK SMILES O=C([O-])CCCCCCCCCCCCCCC(=O)[O-]
REMARK SMILES IDX 10 1 9 2 8 3 7 4 6 5 5 6 4 7 2 8 1 9 3 10 11 11 12 12 13 13
REMARK SMILES IDX 14 14 15 15 16 16 17 17 18 18 19 19 20 20
REMARK H PARENT
REMARK Flexibility Score: inf
ROOT
ATOM      1  C   UNL     1      96.271   5.644  22.635  1.00  0.00     0.000 C 
ENDROOT
BRANCH   1   2
ATOM      2  C   UNL     1      95.295   6.320  23.610  1.00  0.00     0.000 C 
BRANCH   2   3
ATOM      3  C   UNL     1      95.928   6.610  24.983  1.00  0.00     0.000 C 
BRANCH   3   4
ATOM      4  C   UNL     1      95.739   5.499  26.037  1.00  0.00     0.000 C 
BRANCH   4   5
ATOM      5  C   UNL     1      97.041   4.930  26.634  1.00  0.00     0.000 C 
BRANCH   5   6
ATOM      6  C   UNL     1      97.401   3.502  26.182  1.00  0.00     0.006 C 
BRANCH   6   7
ATOM      7  C   UNL     1      96.406   2.894  25.177  1.00  0.00     0.053 C 
BRANCH   7   8
ATOM      8  C   UNL     1      96.976   1.723  24.435  1.00  0.00     0.041 C 
ATOM      9  O   UNL     1      98.146   1.326  24.678  1.00  0.00    -0.550 OA
ATOM     10  O   UNL     1      96.229   1.091  23.450  1.00  0.00    -0.550 OA
ENDBRANCH   7   8
ENDBRANCH   6   7
ENDBRANCH   5   6
ENDBRANCH   4   5
ENDBRANCH   3   4
ENDBRANCH   2   3
ENDBRANCH   1   2
BRANCH   1  11
ATOM     11  C   UNL     1      97.453   6.567  22.314  1.00  0.00     0.000 C 
BRANCH  11  12
ATOM     12  C   UNL     1      98.755   5.764  22.175  1.00  0.00     0.000 C 
BRANCH  12  13
ATOM     13  C   UNL     1      99.060   4.907  23.415  1.00  0.00     0.000 C 
BRANCH  13  14
ATOM     14  C   UNL     1     100.149   3.854  23.151  1.00  0.00     0.000 C 
BRANCH  14  15
ATOM     15  C   UNL     1     100.959   3.515  24.414  1.00  0.00     0.000 C 
BRANCH  15  16
ATOM     16  C   UNL     1     101.865   2.285  24.226  1.00  0.00     0.006 C 
BRANCH  16  17
ATOM     17  C   UNL     1     101.332   1.332  23.149  1.00  0.00     0.053 C 
BRANCH  17  18
ATOM     18  C   UNL     1     101.737  -0.085  23.414  1.00  0.00     0.041 C 
ATOM     19  O   UNL     1     100.902  -0.907  23.875  1.00  0.00    -0.550 OA
ATOM     20  O   UNL     1     103.046  -0.488  23.185  1.00  0.00    -0.550 OA
ENDBRANCH  17  18
ENDBRANCH  16  17
ENDBRANCH  15  16
ENDBRANCH  14  15
ENDBRANCH  13  14
ENDBRANCH  12  13
ENDBRANCH  11  12
ENDBRANCH   1  11
TORSDOF 15
ENDMDL
MODEL 4
REMARK VINA RESULT:    -4.376      1.748      2.221
REMARK INTER + INTRA:          -9.962
REMARK INTER:                  -7.955
REMARK INTRA:                  -2.006
REMARK UNBOUND:                -1.747
REMARK SMILES O=C([O-])CCCCCCCCCCCCCCC(=O)[O-]
REMARK SMILES IDX 10 1 9 2 8 3 7 4 6 5 5 6 4 7 2 8 1 9 3 10 11 11 12 12 13 13
REMARK SMILES IDX 14 14 15 15 16 16 17 17 18 18 19 19 20 20
REMARK H PARENT
REMARK Flexibility Score: inf
ROOT
ATOM      1  C   UNL     1      96.877   5.277  26.802  1.00  0.00     0.000 C 
ENDROOT
BRANCH   1   2
ATOM      2  C   UNL     1      97.622   3.978  26.462  1.00  0.00     0.000 C 
BRANCH   2   3
ATOM      3  C   UNL     1      96.775   3.006  25.620  1.00  0.00     0.000 C 
BRANCH   3   4
ATOM      4  C   UNL     1      97.373   2.642  24.245  1.00  0.00     0.000 C 
BRANCH   4   5
ATOM      5  C   UNL     1      98.767   1.988  24.286  1.00  0.00     0.000 C 
BRANCH   5   6
ATOM      6  C   UNL     1      99.865   2.733  23.503  1.00  0.00     0.006 C 
BRANCH   6   7
ATOM      7  C   UNL     1     100.442   3.954  24.243  1.00  0.00     0.053 C 
BRANCH   7   8
ATOM      8  C   UNL     1     101.484   3.579  25.253  1.00  0.00     0.041 C 
ATOM      9  O   UNL     1     101.172   3.435  26.464  1.00  0.00    -0.550 OA
ATOM     10  O   UNL     1     102.808   3.424  24.863  1.00  0.00    -0.550 OA
ENDBRANCH   7   8
ENDBRANCH   6   7
ENDBRANCH   5   6
ENDBRANCH   4   5
ENDBRANCH   3   4
ENDBRANCH   2   3
ENDBRANCH   1   2
BRANCH   1  11
ATOM     11  C   UNL     1      95.616   5.428  25.940  1.00  0.00     0.000 C 
BRANCH  11  12
ATOM     12  C   UNL     1      95.715   6.665  25.035  1.00  0.00     0.000 C 
BRANCH  12  13
ATOM     13  C   UNL     1      95.136   6.422  23.631  1.00  0.00     0.000 C 
BRANCH  13  14
ATOM     14  C   UNL     1      96.098   5.635  22.726  1.00  0.00     0.000 C 
BRANCH  14  15
ATOM     15  C   UNL     1      97.574   5.954  23.015  1.00  0.00     0.000 C 
BRANCH  15  16
ATOM     16  C   UNL     1      98.338   6.421  21.763  1.00  0.00     0.006 C 
BRANCH  16  17
ATOM     17  C   UNL     1      97.914   7.827  21.318  1.00  0.00     0.053 C 
BRANCH  17  18
ATOM     18  C   UNL     1      97.779   7.918  19.829  1.00  0.00     0.041 C 
ATOM     19  O   UNL     1      98.040   8.996  19.234  1.00  0.00    -0.550 OA
ATOM     20  O   UNL     1      97.330   6.823  19.104  1.00  0.00    -0.550 OA
ENDBRANCH  17  18
ENDBRANCH  16  17
ENDBRANCH  15  16
ENDBRANCH  14  15
ENDBRANCH  13  14
ENDBRANCH  12  13
ENDBRANCH  11  12
ENDBRANCH   1  11
TORSDOF 15
ENDMDL
MODEL 5
REMARK VINA RESULT:    -4.367      1.611      2.250
REMARK INTER + INTRA:          -9.944
REMARK INTER:                  -8.032
REMARK INTRA:                  -1.911
REMARK UNBOUND:                -1.747
REMARK SMILES O=C([O-])CCCCCCCCCCCCCCC(=O)[O-]
REMARK SMILES IDX 10 1 9 2 8 3 7 4 6 5 5 6 4 7 2 8 1 9 3 10 11 11 12 12 13 13
REMARK SMILES IDX 14 14 15 15 16 16 17 17 18 18 19 19 20 20
REMARK H PARENT
REMARK Flexibility Score: inf
ROOT
ATOM      1  C   UNL     1      97.539   3.685  26.462  1.00  0.00     0.000 C 
ENDROOT
BRANCH   1   2
ATOM      2  C   UNL     1      99.007   4.101  26.634  1.00  0.00     0.000 C 
BRANCH   2   3
ATOM      3  C   UNL     1      99.986   3.139  25.937  1.00  0.00     0.000 C 
BRANCH   3   4
ATOM      4  C   UNL     1     100.781   3.751  24.765  1.00  0.00     0.000 C 
BRANCH   4   5
ATOM      5  C   UNL     1     100.536   3.099  23.392  1.00  0.00     0.000 C 
BRANCH   5   6
ATOM      6  C   UNL     1     101.570   2.035  22.975  1.00  0.00     0.006 C 
BRANCH   6   7
ATOM      7  C   UNL     1     101.622   0.814  23.909  1.00  0.00     0.053 C 
BRANCH   7   8
ATOM      8  C   UNL     1     100.436  -0.090  23.748  1.00  0.00     0.041 C 
ATOM      9  O   UNL     1      99.551  -0.141  24.642  1.00  0.00    -0.550 OA
ATOM     10  O   UNL     1     100.327  -0.902  22.627  1.00  0.00    -0.550 OA
ENDBRANCH   7   8
ENDBRANCH   6   7
ENDBRANCH   5   6
ENDBRANCH   4   5
ENDBRANCH   3   4
ENDBRANCH   2   3
ENDBRANCH   1   2
BRANCH   1  11
ATOM     11  C   UNL     1      97.411   2.521  25.471  1.00  0.00     0.000 C 
BRANCH  11  12
ATOM     12  C   UNL     1      96.653   2.956  24.208  1.00  0.00     0.000 C 
BRANCH  12  13
ATOM     13  C   UNL     1      95.999   4.340  24.355  1.00  0.00     0.000 C 
BRANCH  13  14
ATOM     14  C   UNL     1      96.444   5.321  23.257  1.00  0.00     0.000 C 
BRANCH  14  15
ATOM     15  C   UNL     1      97.934   5.684  23.360  1.00  0.00     0.000 C 
BRANCH  15  16
ATOM     16  C   UNL     1      98.540   6.098  22.006  1.00  0.00     0.006 C 
BRANCH  16  17
ATOM     17  C   UNL     1      97.888   7.368  21.446  1.00  0.00     0.053 C 
BRANCH  17  18
ATOM     18  C   UNL     1      97.387   7.163  20.049  1.00  0.00     0.041 C 
ATOM     19  O   UNL     1      98.192   6.896  19.119  1.00  0.00    -0.550 OA
ATOM     20  O   UNL     1      96.033   7.302  19.769  1.00  0.00    -0.550 OA
ENDBRANCH  17  18
ENDBRANCH  16  17
ENDBRANCH  15  16
ENDBRANCH  14  15
ENDBRANCH  13  14
ENDBRANCH  12  13
ENDBRANCH  11  12
ENDBRANCH   1  11
TORSDOF 15
ENDMDL
MODEL 6
REMARK VINA RESULT:    -4.348      1.743      6.473
REMARK INTER + INTRA:          -9.908
REMARK INTER:                  -7.855
REMARK INTRA:                  -2.053
REMARK UNBOUND:                -1.747
REMARK SMILES O=C([O-])CCCCCCCCCCCCCCC(=O)[O-]
REMARK SMILES IDX 10 1 9 2 8 3 7 4 6 5 5 6 4 7 2 8 1 9 3 10 11 11 12 12 13 13
REMARK SMILES IDX 14 14 15 15 16 16 17 17 18 18 19 19 20 20
REMARK H PARENT
REMARK Flexibility Score: inf
ROOT
ATOM      1  C   UNL     1      96.392   3.482  23.987  1.00  0.00     0.000 C 
ENDROOT
BRANCH   1   2
ATOM      2  C   UNL     1      96.461   4.821  23.238  1.00  0.00     0.000 C 
BRANCH   2   3
ATOM      3  C   UNL     1      96.296   6.035  24.169  1.00  0.00     0.000 C 
BRANCH   3   4
ATOM      4  C   UNL     1      95.705   7.295  23.502  1.00  0.00     0.000 C 
BRANCH   4   5
ATOM      5  C   UNL     1      94.618   7.031  22.443  1.00  0.00     0.000 C 
BRANCH   5   6
ATOM      6  C   UNL     1      95.025   7.347  20.991  1.00  0.00     0.006 C 
BRANCH   6   7
ATOM      7  C   UNL     1      96.427   7.969  20.856  1.00  0.00     0.053 C 
BRANCH   7   8
ATOM      8  C   UNL     1      97.403   7.051  20.183  1.00  0.00     0.041 C 
ATOM      9  O   UNL     1      97.284   6.786  18.957  1.00  0.00    -0.550 OA
ATOM     10  O   UNL     1      98.424   6.461  20.916  1.00  0.00    -0.550 OA
ENDBRANCH   7   8
ENDBRANCH   6   7
ENDBRANCH   5   6
ENDBRANCH   4   5
ENDBRANCH   3   4
ENDBRANCH   2   3
ENDBRANCH   1   2
BRANCH   1  11
ATOM     11  C   UNL     1      96.330   3.704  25.503  1.00  0.00     0.000 C 
BRANCH  11  12
ATOM     12  C   UNL     1      97.494   2.992  26.210  1.00  0.00     0.000 C 
BRANCH  12  13
ATOM     13  C   UNL     1      98.640   3.949  26.576  1.00  0.00     0.000 C 
BRANCH  13  14
ATOM     14  C   UNL     1      99.921   3.669  25.773  1.00  0.00     0.000 C 
BRANCH  14  15
ATOM     15  C   UNL     1      99.941   4.401  24.421  1.00  0.00     0.000 C 
BRANCH  15  16
ATOM     16  C   UNL     1     100.128   3.444  23.229  1.00  0.00     0.006 C 
BRANCH  16  17
ATOM     17  C   UNL     1     100.000   1.973  23.644  1.00  0.00     0.053 C 
BRANCH  17  18
ATOM     18  C   UNL     1     101.264   1.212  23.383  1.00  0.00     0.041 C 
ATOM     19  O   UNL     1     102.337   1.827  23.148  1.00  0.00    -0.550 OA
ATOM     20  O   UNL     1     101.248  -0.177  23.365  1.00  0.00    -0.550 OA
ENDBRANCH  17  18
ENDBRANCH  16  17
ENDBRANCH  15  16
ENDBRANCH  14  15
ENDBRANCH  13  14
ENDBRANCH  12  13
ENDBRANCH  11  12
ENDBRANCH   1  11
TORSDOF 15
ENDMDL
MODEL 7
REMARK VINA RESULT:    -4.348      2.277      4.642
REMARK INTER + INTRA:          -9.907
REMARK INTER:                  -7.990
REMARK INTRA:                  -1.917
REMARK UNBOUND:                -1.747
REMARK SMILES O=C([O-])CCCCCCCCCCCCCCC(=O)[O-]
REMARK SMILES IDX 10 1 9 2 8 3 7 4 6 5 5 6 4 7 2 8 1 9 3 10 11 11 12 12 13 13
REMARK SMILES IDX 14 14 15 15 16 16 17 17 18 18 19 19 20 20
REMARK H PARENT
REMARK Flexibility Score: inf
ROOT
ATOM      1  C   UNL     1     102.294   4.401  26.285  1.00  0.00     0.000 C 
ENDROOT
BRANCH   1   2
ATOM      2  C   UNL     1     102.804   3.025  26.736  1.00  0.00     0.000 C 
BRANCH   2   3
ATOM      3  C   UNL     1     104.152   2.649  26.095  1.00  0.00     0.000 C 
BRANCH   3   4
ATOM      4  C   UNL     1     104.050   1.829  24.792  1.00  0.00     0.000 C 
BRANCH   4   5
ATOM      5  C   UNL     1     102.663   1.226  24.500  1.00  0.00     0.000 C 
BRANCH   5   6
ATOM      6  C   UNL     1     101.909   1.856  23.313  1.00  0.00     0.006 C 
BRANCH   6   7
ATOM      7  C   UNL     1     100.387   1.630  23.349  1.00  0.00     0.053 C 
BRANCH   7   8
ATOM      8  C   UNL     1     100.019   0.219  23.695  1.00  0.00     0.041 C 
ATOM      9  O   UNL     1     100.158  -0.700  22.844  1.00  0.00    -0.550 OA
ATOM     10  O   UNL     1      99.490  -0.078  24.944  1.00  0.00    -0.550 OA
ENDBRANCH   7   8
ENDBRANCH   6   7
ENDBRANCH   5   6
ENDBRANCH   4   5
ENDBRANCH   3   4
ENDBRANCH   2   3
ENDBRANCH   1   2
BRANCH   1  11
ATOM     11  C   UNL     1     100.815   4.332  25.882  1.00  0.00     0.000 C 
BRANCH  11  12
ATOM     12  C   UNL     1     100.119   3.136  26.549  1.00  0.00     0.000 C 
BRANCH  12  13
ATOM     13  C   UNL     1      98.623   3.386  26.803  1.00  0.00     0.000 C 
BRANCH  13  14
ATOM     14  C   UNL     1      97.740   2.912  25.636  1.00  0.00     0.000 C 
BRANCH  14  15
ATOM     15  C   UNL     1      96.526   3.828  25.406  1.00  0.00     0.000 C 
BRANCH  15  16
ATOM     16  C   UNL     1      96.411   4.308  23.948  1.00  0.00     0.006 C 
BRANCH  16  17
ATOM     17  C   UNL     1      97.639   5.115  23.507  1.00  0.00     0.053 C 
BRANCH  17  18
ATOM     18  C   UNL     1      97.347   5.952  22.300  1.00  0.00     0.041 C 
ATOM     19  O   UNL     1      96.158   6.146  21.935  1.00  0.00    -0.550 OA
ATOM     20  O   UNL     1      98.391   6.490  21.558  1.00  0.00    -0.550 OA
ENDBRANCH  17  18
ENDBRANCH  16  17
ENDBRANCH  15  16
ENDBRANCH  14  15
ENDBRANCH  13  14
ENDBRANCH  12  13
ENDBRANCH  11  12
ENDBRANCH   1  11
TORSDOF 15
ENDMDL
MODEL 8
REMARK VINA RESULT:    -4.328      2.720      4.669
REMARK INTER + INTRA:          -9.871
REMARK INTER:                  -7.490
REMARK INTRA:                  -2.382
REMARK UNBOUND:                -1.747
REMARK SMILES O=C([O-])CCCCCCCCCCCCCCC(=O)[O-]
REMARK SMILES IDX 10 1 9 2 8 3 7 4 6 5 5 6 4 7 2 8 1 9 3 10 11 11 12 12 13 13
REMARK SMILES IDX 14 14 15 15 16 16 17 17 18 18 19 19 20 20
REMARK H PARENT
REMARK Flexibility Score: inf
ROOT
ATOM      1  C   UNL     1      95.292   6.740  21.676  1.00  0.00     0.000 C 
ENDROOT
BRANCH   1   2
ATOM      2  C   UNL     1      96.557   7.571  21.422  1.00  0.00     0.000 C 
BRANCH   2   3
ATOM      3  C   UNL     1      97.756   6.714  20.979  1.00  0.00     0.000 C 
BRANCH   3   4
ATOM      4  C   UNL     1      98.741   6.335  22.106  1.00  0.00     0.000 C 
BRANCH   4   5
ATOM      5  C   UNL     1      98.687   4.865  22.561  1.00  0.00     0.000 C 
BRANCH   5   6
ATOM      6  C   UNL     1      99.816   4.430  23.514  1.00  0.00     0.006 C 
BRANCH   6   7
ATOM      7  C   UNL     1     100.397   3.038  23.202  1.00  0.00     0.053 C 
BRANCH   7   8
ATOM      8  C   UNL     1     101.103   2.430  24.377  1.00  0.00     0.041 C 
ATOM      9  O   UNL     1     100.563   2.434  25.514  1.00  0.00    -0.550 OA
ATOM     10  O   UNL     1     102.373   1.890  24.222  1.00  0.00    -0.550 OA
ENDBRANCH   7   8
ENDBRANCH   6   7
ENDBRANCH   5   6
ENDBRANCH   4   5
ENDBRANCH   3   4
ENDBRANCH   2   3
ENDBRANCH   1   2
BRANCH   1  11
ATOM     11  C   UNL     1      95.201   6.314  23.147  1.00  0.00     0.000 C 
BRANCH  11  12
ATOM     12  C   UNL     1      95.609   7.466  24.078  1.00  0.00     0.000 C 
BRANCH  12  13
ATOM     13  C   UNL     1      95.997   6.984  25.485  1.00  0.00     0.000 C 
BRANCH  13  14
ATOM     14  C   UNL     1      97.492   6.641  25.600  1.00  0.00     0.000 C 
BRANCH  14  15
ATOM     15  C   UNL     1      97.732   5.249  26.206  1.00  0.00     0.000 C 
BRANCH  15  16
ATOM     16  C   UNL     1      96.608   4.252  25.872  1.00  0.00     0.006 C 
BRANCH  16  17
ATOM     17  C   UNL     1      97.124   2.810  25.778  1.00  0.00     0.053 C 
BRANCH  17  18
ATOM     18  C   UNL     1      96.906   2.233  24.412  1.00  0.00     0.041 C 
ATOM     19  O   UNL     1      96.065   2.750  23.632  1.00  0.00    -0.550 OA
ATOM     20  O   UNL     1      97.609   1.102  24.016  1.00  0.00    -0.550 OA
ENDBRANCH  17  18
ENDBRANCH  16  17
ENDBRANCH  15  16
ENDBRANCH  14  15
ENDBRANCH  13  14
ENDBRANCH  12  13
ENDBRANCH  11  12
ENDBRANCH   1  11
TORSDOF 15
ENDMDL
MODEL 9
REMARK VINA RESULT:    -4.321      3.180      4.557
REMARK INTER + INTRA:          -9.857
REMARK INTER:                  -7.434
REMARK INTRA:                  -2.423
REMARK UNBOUND:                -1.747
REMARK SMILES O=C([O-])CCCCCCCCCCCCCCC(=O)[O-]
REMARK SMILES IDX 10 1 9 2 8 3 7 4 6 5 5 6 4 7 2 8 1 9 3 10 11 11 12 12 13 13
REMARK SMILES IDX 14 14 15 15 16 16 17 17 18 18 19 19 20 20
REMARK H PARENT
REMARK Flexibility Score: inf
ROOT
ATOM      1  C   UNL     1      97.247   5.139  26.965  1.00  0.00     0.000 C 
ENDROOT
BRANCH   1   2
ATOM      2  C   UNL     1      98.585   5.874  26.795  1.00  0.00     0.000 C 
BRANCH   2   3
ATOM      3  C   UNL     1      99.764   5.124  27.439  1.00  0.00     0.000 C 
BRANCH   3   4
ATOM      4  C   UNL     1     100.941   4.817  26.489  1.00  0.00     0.000 C 
BRANCH   4   5
ATOM      5  C   UNL     1     102.127   4.071  27.130  1.00  0.00     0.000 C 
BRANCH   5   6
ATOM      6  C   UNL     1     102.721   2.930  26.282  1.00  0.00     0.006 C 
BRANCH   6   7
ATOM      7  C   UNL     1     102.527   3.112  24.765  1.00  0.00     0.053 C 
BRANCH   7   8
ATOM      8  C   UNL     1     102.723   1.838  24.000  1.00  0.00     0.041 C 
ATOM      9  O   UNL     1     103.674   1.064  24.289  1.00  0.00    -0.550 OA
ATOM     10  O   UNL     1     101.878   1.522  22.944  1.00  0.00    -0.550 OA
ENDBRANCH   7   8
ENDBRANCH   6   7
ENDBRANCH   5   6
ENDBRANCH   4   5
ENDBRANCH   3   4
ENDBRANCH   2   3
ENDBRANCH   1   2
BRANCH   1  11
ATOM     11  C   UNL     1      96.214   5.636  25.945  1.00  0.00     0.000 C 
BRANCH  11  12
ATOM     12  C   UNL     1      96.734   6.873  25.196  1.00  0.00     0.000 C 
BRANCH  12  13
ATOM     13  C   UNL     1      96.662   6.716  23.668  1.00  0.00     0.000 C 
BRANCH  13  14
ATOM     14  C   UNL     1      97.144   5.334  23.194  1.00  0.00     0.000 C 
BRANCH  14  15
ATOM     15  C   UNL     1      98.676   5.245  23.100  1.00  0.00     0.000 C 
BRANCH  15  16
ATOM     16  C   UNL     1      99.207   3.826  23.373  1.00  0.00     0.006 C 
BRANCH  16  17
ATOM     17  C   UNL     1      98.190   2.964  24.130  1.00  0.00     0.053 C 
BRANCH  17  18
ATOM     18  C   UNL     1      98.804   1.690  24.625  1.00  0.00     0.041 C 
ATOM     19  O   UNL     1      98.731   0.641  23.934  1.00  0.00    -0.550 OA
ATOM     20  O   UNL     1      99.426   1.655  25.866  1.00  0.00    -0.550 OA
ENDBRANCH  17  18
ENDBRANCH  16  17
ENDBRANCH  15  16
ENDBRANCH  14  15
ENDBRANCH  13  14
ENDBRANCH  12  13
ENDBRANCH  11  12
ENDBRANCH   1  11
TORSDOF 15
ENDMDL
