MODEL 1
REMARK VINA RESULT:    -0.876      0.000      0.000
REMARK INTER + INTRA:          -1.308
REMARK INTER:                  -0.927
REMARK INTRA:                  -0.381
REMARK UNBOUND:                -0.381
REMARK SMILES CC1=C[C@H]2C(=C(C)CC[C@@H]2C(C)C)CC1
REMARK SMILES IDX 1 1 2 2 3 3 4 4 10 5 9 6 8 7 6 8 5 9 14 10 15 11 7 12 11 13
REMARK SMILES IDX 12 14 13 15
REMARK H PARENT
REMARK Flexibility Score: inf
ROOT
ATOM      1  C   UNL     1     147.431 148.957 130.697  1.00  0.00     0.039 C 
ATOM      2  C   UNL     1     146.809 147.908 131.577  1.00  0.00    -0.076 C 
ATOM      3  C   UNL     1     146.853 146.615 131.215  1.00  0.00    -0.020 C 
ATOM      4  C   UNL     1     146.227 145.529 132.080  1.00  0.00     0.041 C 
ATOM      5  C   UNL     1     146.068 144.190 131.259  1.00  0.00     0.003 C 
ATOM      6  C   UNL     1     144.733 143.443 131.526  1.00  0.00     0.009 C 
ATOM      7  C   UNL     1     144.194 143.702 132.929  1.00  0.00     0.031 C 
ATOM      8  C   UNL     1     143.962 145.177 133.109  1.00  0.00    -0.073 C 
ATOM      9  C   UNL     1     144.925 146.049 132.712  1.00  0.00    -0.064 C 
ATOM     10  C   UNL     1     144.774 147.544 132.975  1.00  0.00     0.036 C 
ATOM     11  C   UNL     1     146.109 148.287 132.855  1.00  0.00     0.035 C 
ATOM     12  C   UNL     1     142.652 145.646 133.701  1.00  0.00     0.039 C 
ENDROOT
BRANCH   5  13
ATOM     13  C   UNL     1     147.298 143.223 131.366  1.00  0.00    -0.013 C 
ATOM     14  C   UNL     1     148.298 143.408 130.214  1.00  0.00     0.007 C 
ATOM     15  C   UNL     1     148.033 143.281 132.719  1.00  0.00     0.007 C 
ENDBRANCH   5  13
TORSDOF 1
ENDMDL
MODEL 2
REMARK VINA RESULT:    -0.852      1.821      5.072
REMARK INTER + INTRA:          -1.283
REMARK INTER:                  -0.914
REMARK INTRA:                  -0.369
REMARK UNBOUND:                -0.381
REMARK SMILES CC1=C[C@H]2C(=C(C)CC[C@@H]2C(C)C)CC1
REMARK SMILES IDX 1 1 2 2 3 3 4 4 10 5 9 6 8 7 6 8 5 9 14 10 15 11 7 12 11 13
REMARK SMILES IDX 12 14 13 15
REMARK H PARENT
REMARK Flexibility Score: inf
ROOT
ATOM      1  C   UNL     1     143.267 141.757 130.646  1.00  0.00     0.039 C 
ATOM      2  C   UNL     1     143.887 142.793 131.542  1.00  0.00    -0.076 C 
ATOM      3  C   UNL     1     143.885 144.086 131.179  1.00  0.00    -0.020 C 
ATOM      4  C   UNL     1     144.511 145.158 132.061  1.00  0.00     0.041 C 
ATOM      5  C   UNL     1     144.725 146.492 131.244  1.00  0.00     0.003 C 
ATOM      6  C   UNL     1     146.070 147.207 131.550  1.00  0.00     0.009 C 
ATOM      7  C   UNL     1     146.561 146.938 132.968  1.00  0.00     0.031 C 
ATOM      8  C   UNL     1     146.753 145.457 133.155  1.00  0.00    -0.073 C 
ATOM      9  C   UNL     1     145.781 144.608 132.731  1.00  0.00    -0.064 C 
ATOM     10  C   UNL     1     145.889 143.110 132.999  1.00  0.00     0.036 C 
ATOM     11  C   UNL     1     144.541 142.399 132.841  1.00  0.00     0.035 C 
ATOM     12  C   UNL     1     148.034 144.958 133.786  1.00  0.00     0.039 C 
ENDROOT
BRANCH   5  13
ATOM     13  C   UNL     1     143.515 147.488 131.316  1.00  0.00    -0.013 C 
ATOM     14  C   UNL     1     142.507 147.274 130.176  1.00  0.00     0.007 C 
ATOM     15  C   UNL     1     142.787 147.503 132.672  1.00  0.00     0.007 C 
ENDBRANCH   5  13
TORSDOF 1
ENDMDL
MODEL 3
REMARK VINA RESULT:    -0.822      1.039      4.051
REMARK INTER + INTRA:          -1.251
REMARK INTER:                  -0.919
REMARK INTRA:                  -0.332
REMARK UNBOUND:                -0.381
REMARK SMILES CC1=C[C@H]2C(=C(C)CC[C@@H]2C(C)C)CC1
REMARK SMILES IDX 1 1 2 2 3 3 4 4 10 5 9 6 8 7 6 8 5 9 14 10 15 11 7 12 11 13
REMARK SMILES IDX 12 14 13 15
REMARK H PARENT
REMARK Flexibility Score: inf
ROOT
ATOM      1  C   UNL     1     148.374 142.810 132.249  1.00  0.00     0.039 C 
ATOM      2  C   UNL     1     147.164 143.698 132.155  1.00  0.00    -0.076 C 
ATOM      3  C   UNL     1     147.304 145.033 132.197  1.00  0.00    -0.020 C 
ATOM      4  C   UNL     1     146.099 145.960 132.111  1.00  0.00     0.041 C 
ATOM      5  C   UNL     1     146.487 147.418 132.574  1.00  0.00     0.003 C 
ATOM      6  C   UNL     1     145.400 148.112 133.441  1.00  0.00     0.009 C 
ATOM      7  C   UNL     1     143.995 147.623 133.111  1.00  0.00     0.031 C 
ATOM      8  C   UNL     1     143.917 146.138 133.344  1.00  0.00    -0.073 C 
ATOM      9  C   UNL     1     144.911 145.344 132.868  1.00  0.00    -0.064 C 
ATOM     10  C   UNL     1     144.815 143.826 132.989  1.00  0.00     0.036 C 
ATOM     11  C   UNL     1     145.782 143.111 132.039  1.00  0.00     0.035 C 
ATOM     12  C   UNL     1     142.749 145.579 134.125  1.00  0.00     0.039 C 
ENDROOT
BRANCH   5  13
ATOM     13  C   UNL     1     146.977 148.351 131.412  1.00  0.00    -0.013 C 
ATOM     14  C   UNL     1     148.454 148.747 131.556  1.00  0.00     0.007 C 
ATOM     15  C   UNL     1     146.712 147.795 130.000  1.00  0.00     0.007 C 
ENDBRANCH   5  13
TORSDOF 1
ENDMDL
MODEL 4
REMARK VINA RESULT:    -0.810      1.832      3.614
REMARK INTER + INTRA:          -1.238
REMARK INTER:                  -0.906
REMARK INTRA:                  -0.331
REMARK UNBOUND:                -0.381
REMARK SMILES CC1=C[C@H]2C(=C(C)CC[C@@H]2C(C)C)CC1
REMARK SMILES IDX 1 1 2 2 3 3 4 4 10 5 9 6 8 7 6 8 5 9 14 10 15 11 7 12 11 13
REMARK SMILES IDX 12 14 13 15
REMARK H PARENT
REMARK Flexibility Score: inf
ROOT
ATOM      1  C   UNL     1     142.360 148.016 131.866  1.00  0.00     0.039 C 
ATOM      2  C   UNL     1     143.539 147.082 131.880  1.00  0.00    -0.076 C 
ATOM      3  C   UNL     1     143.348 145.761 132.030  1.00  0.00    -0.020 C 
ATOM      4  C   UNL     1     144.521 144.789 132.055  1.00  0.00     0.041 C 
ATOM      5  C   UNL     1     144.068 143.389 132.628  1.00  0.00     0.003 C 
ATOM      6  C   UNL     1     145.106 142.734 133.579  1.00  0.00     0.009 C 
ATOM      7  C   UNL     1     146.536 143.145 133.248  1.00  0.00     0.031 C 
ATOM      8  C   UNL     1     146.663 144.640 133.359  1.00  0.00    -0.073 C 
ATOM      9  C   UNL     1     145.712 145.425 132.790  1.00  0.00    -0.064 C 
ATOM     10  C   UNL     1     145.860 146.944 132.786  1.00  0.00     0.036 C 
ATOM     11  C   UNL     1     144.944 147.609 131.754  1.00  0.00     0.035 C 
ATOM     12  C   UNL     1     147.832 145.222 134.122  1.00  0.00     0.039 C 
ENDROOT
BRANCH   5  13
ATOM     13  C   UNL     1     143.572 142.380 131.535  1.00  0.00    -0.013 C 
ATOM     14  C   UNL     1     142.078 142.047 131.672  1.00  0.00     0.007 C 
ATOM     15  C   UNL     1     143.890 142.805 130.089  1.00  0.00     0.007 C 
ENDBRANCH   5  13
TORSDOF 1
ENDMDL
MODEL 5
REMARK VINA RESULT:     0.080      1.817      3.328
REMARK INTER + INTRA:          -0.297
REMARK INTER:                  -0.028
REMARK INTRA:                  -0.269
REMARK UNBOUND:                -0.381
REMARK SMILES CC1=C[C@H]2C(=C(C)CC[C@@H]2C(C)C)CC1
REMARK SMILES IDX 1 1 2 2 3 3 4 4 10 5 9 6 8 7 6 8 5 9 14 10 15 11 7 12 11 13
REMARK SMILES IDX 12 14 13 15
REMARK H PARENT
REMARK Flexibility Score: inf
ROOT
ATOM      1  C   UNL     1     145.383 145.652 127.656  1.00  0.00     0.039 C 
ATOM      2  C   UNL     1     145.591 145.785 129.139  1.00  0.00    -0.076 C 
ATOM      3  C   UNL     1     144.781 145.140 129.993  1.00  0.00    -0.020 C 
ATOM      4  C   UNL     1     144.961 145.259 131.501  1.00  0.00     0.041 C 
ATOM      5  C   UNL     1     143.673 144.743 132.255  1.00  0.00     0.003 C 
ATOM      6  C   UNL     1     143.272 145.610 133.480  1.00  0.00     0.009 C 
ATOM      7  C   UNL     1     144.472 146.294 134.124  1.00  0.00     0.031 C 
ATOM      8  C   UNL     1     145.145 147.179 133.111  1.00  0.00    -0.073 C 
ATOM      9  C   UNL     1     145.383 146.692 131.865  1.00  0.00    -0.064 C 
ATOM     10  C   UNL     1     146.157 147.519 130.844  1.00  0.00     0.036 C 
ATOM     11  C   UNL     1     146.687 146.660 129.690  1.00  0.00     0.035 C 
ATOM     12  C   UNL     1     145.510 148.594 133.501  1.00  0.00     0.039 C 
ENDROOT
BRANCH   5  13
ATOM     13  C   UNL     1     143.712 143.217 132.619  1.00  0.00    -0.013 C 
ATOM     14  C   UNL     1     143.391 142.315 131.417  1.00  0.00     0.007 C 
ATOM     15  C   UNL     1     145.021 142.760 133.290  1.00  0.00     0.007 C 
ENDBRANCH   5  13
TORSDOF 1
ENDMDL
MODEL 6
REMARK VINA RESULT:     0.093      1.467      3.620
REMARK INTER + INTRA:          -0.283
REMARK INTER:                   0.105
REMARK INTRA:                  -0.387
REMARK UNBOUND:                -0.381
REMARK SMILES CC1=C[C@H]2C(=C(C)CC[C@@H]2C(C)C)CC1
REMARK SMILES IDX 1 1 2 2 3 3 4 4 10 5 9 6 8 7 6 8 5 9 14 10 15 11 7 12 11 13
REMARK SMILES IDX 12 14 13 15
REMARK H PARENT
REMARK Flexibility Score: inf
ROOT
ATOM      1  C   UNL     1     141.687 147.824 131.427  1.00  0.00     0.039 C 
ATOM      2  C   UNL     1     142.835 147.090 132.064  1.00  0.00    -0.076 C 
ATOM      3  C   UNL     1     144.051 147.118 131.493  1.00  0.00    -0.020 C 
ATOM      4  C   UNL     1     145.232 146.380 132.109  1.00  0.00     0.041 C 
ATOM      5  C   UNL     1     146.407 146.245 131.063  1.00  0.00     0.003 C 
ATOM      6  C   UNL     1     147.119 144.864 131.093  1.00  0.00     0.009 C 
ATOM      7  C   UNL     1     147.070 144.216 132.471  1.00  0.00     0.031 C 
ATOM      8  C   UNL     1     145.634 144.022 132.879  1.00  0.00    -0.073 C 
ATOM      9  C   UNL     1     144.759 145.048 132.714  1.00  0.00    -0.064 C 
ATOM     10  C   UNL     1     143.322 144.929 133.214  1.00  0.00     0.036 C 
ATOM     11  C   UNL     1     142.638 146.296 133.328  1.00  0.00     0.035 C 
ATOM     12  C   UNL     1     145.205 142.684 133.436  1.00  0.00     0.039 C 
ENDROOT
BRANCH   5  13
ATOM     13  C   UNL     1     147.440 147.425 131.103  1.00  0.00    -0.013 C 
ATOM     14  C   UNL     1     147.238 148.425 129.954  1.00  0.00     0.007 C 
ATOM     15  C   UNL     1     147.498 148.169 132.450  1.00  0.00     0.007 C 
ENDBRANCH   5  13
TORSDOF 1
ENDMDL
MODEL 7
REMARK VINA RESULT:     0.149      1.619      3.617
REMARK INTER + INTRA:          -0.224
REMARK INTER:                   0.166
REMARK INTRA:                  -0.390
REMARK UNBOUND:                -0.381
REMARK SMILES CC1=C[C@H]2C(=C(C)CC[C@@H]2C(C)C)CC1
REMARK SMILES IDX 1 1 2 2 3 3 4 4 10 5 9 6 8 7 6 8 5 9 14 10 15 11 7 12 11 13
REMARK SMILES IDX 12 14 13 15
REMARK H PARENT
REMARK Flexibility Score: inf
ROOT
ATOM      1  C   UNL     1     149.007 143.093 131.490  1.00  0.00     0.039 C 
ATOM      2  C   UNL     1     147.844 143.805 132.125  1.00  0.00    -0.076 C 
ATOM      3  C   UNL     1     146.632 143.762 131.547  1.00  0.00    -0.020 C 
ATOM      4  C   UNL     1     145.436 144.478 132.160  1.00  0.00     0.041 C 
ATOM      5  C   UNL     1     144.265 144.601 131.108  1.00  0.00     0.003 C 
ATOM      6  C   UNL     1     143.531 145.970 131.141  1.00  0.00     0.009 C 
ATOM      7  C   UNL     1     143.563 146.611 132.524  1.00  0.00     0.031 C 
ATOM      8  C   UNL     1     144.993 146.825 132.942  1.00  0.00    -0.073 C 
ATOM      9  C   UNL     1     145.885 145.813 132.775  1.00  0.00    -0.064 C 
ATOM     10  C   UNL     1     147.317 145.951 133.284  1.00  0.00     0.036 C 
ATOM     11  C   UNL     1     148.021 144.595 133.395  1.00  0.00     0.035 C 
ATOM     12  C   UNL     1     145.398 148.166 133.509  1.00  0.00     0.039 C 
ENDROOT
BRANCH   5  13
ATOM     13  C   UNL     1     143.251 143.405 131.135  1.00  0.00    -0.013 C 
ATOM     14  C   UNL     1     143.498 142.396 130.003  1.00  0.00     0.007 C 
ATOM     15  C   UNL     1     143.170 142.674 132.488  1.00  0.00     0.007 C 
ENDBRANCH   5  13
TORSDOF 1
ENDMDL
MODEL 8
REMARK VINA RESULT:     0.270      1.726      3.959
REMARK INTER + INTRA:          -0.095
REMARK INTER:                   0.256
REMARK INTRA:                  -0.351
REMARK UNBOUND:                -0.381
REMARK SMILES CC1=C[C@H]2C(=C(C)CC[C@@H]2C(C)C)CC1
REMARK SMILES IDX 1 1 2 2 3 3 4 4 10 5 9 6 8 7 6 8 5 9 14 10 15 11 7 12 11 13
REMARK SMILES IDX 12 14 13 15
REMARK H PARENT
REMARK Flexibility Score: inf
ROOT
ATOM      1  C   UNL     1     147.981 148.646 131.873  1.00  0.00     0.039 C 
ATOM      2  C   UNL     1     147.071 147.450 131.892  1.00  0.00    -0.076 C 
ATOM      3  C   UNL     1     145.749 147.612 132.068  1.00  0.00    -0.020 C 
ATOM      4  C   UNL     1     144.801 146.420 132.098  1.00  0.00     0.041 C 
ATOM      5  C   UNL     1     143.404 146.839 132.702  1.00  0.00     0.003 C 
ATOM      6  C   UNL     1     142.787 145.778 133.654  1.00  0.00     0.009 C 
ATOM      7  C   UNL     1     143.220 144.360 133.300  1.00  0.00     0.031 C 
ATOM      8  C   UNL     1     144.719 144.261 133.381  1.00  0.00    -0.073 C 
ATOM      9  C   UNL     1     145.474 145.234 132.808  1.00  0.00    -0.064 C 
ATOM     10  C   UNL     1     146.995 145.117 132.775  1.00  0.00     0.036 C 
ATOM     11  C   UNL     1     147.623 146.056 131.740  1.00  0.00     0.035 C 
ATOM     12  C   UNL     1     145.338 143.097 134.120  1.00  0.00     0.039 C 
ENDROOT
BRANCH   5  13
ATOM     13  C   UNL     1     142.364 147.326 131.633  1.00  0.00    -0.013 C 
ATOM     14  C   UNL     1     142.061 148.828 131.746  1.00  0.00     0.007 C 
ATOM     15  C   UNL     1     142.733 146.967 130.182  1.00  0.00     0.007 C 
ENDBRANCH   5  13
TORSDOF 1
ENDMDL
MODEL 9
REMARK VINA RESULT:     1.234      1.784      3.937
REMARK INTER + INTRA:           0.925
REMARK INTER:                   1.153
REMARK INTRA:                  -0.228
REMARK UNBOUND:                -0.381
REMARK SMILES CC1=C[C@H]2C(=C(C)CC[C@@H]2C(C)C)CC1
REMARK SMILES IDX 1 1 2 2 3 3 4 4 10 5 9 6 8 7 6 8 5 9 14 10 15 11 7 12 11 13
REMARK SMILES IDX 12 14 13 15
REMARK H PARENT
REMARK Flexibility Score: inf
ROOT
ATOM      1  C   UNL     1     145.370 145.104 127.632  1.00  0.00     0.039 C 
ATOM      2  C   UNL     1     145.125 144.990 129.111  1.00  0.00    -0.076 C 
ATOM      3  C   UNL     1     145.931 145.626 129.978  1.00  0.00    -0.020 C 
ATOM      4  C   UNL     1     145.714 145.524 131.482  1.00  0.00     0.041 C 
ATOM      5  C   UNL     1     146.995 146.019 132.261  1.00  0.00     0.003 C 
ATOM      6  C   UNL     1     147.349 145.155 133.502  1.00  0.00     0.009 C 
ATOM      7  C   UNL     1     146.119 144.504 134.125  1.00  0.00     0.031 C 
ATOM      8  C   UNL     1     145.450 143.624 133.104  1.00  0.00    -0.073 C 
ATOM      9  C   UNL     1     145.251 144.105 131.849  1.00  0.00    -0.064 C 
ATOM     10  C   UNL     1     144.482 143.285 130.817  1.00  0.00     0.036 C 
ATOM     11  C   UNL     1     143.998 144.145 129.645  1.00  0.00     0.035 C 
ATOM     12  C   UNL     1     145.044 142.222 133.498  1.00  0.00     0.039 C 
ENDROOT
BRANCH   5  13
ATOM     13  C   UNL     1     146.982 147.548 132.610  1.00  0.00    -0.013 C 
ATOM     14  C   UNL     1     147.260 148.436 131.387  1.00  0.00     0.007 C 
ATOM     15  C   UNL     1     145.705 148.022 133.329  1.00  0.00     0.007 C 
ENDBRANCH   5  13
TORSDOF 1
ENDMDL
