MODEL 1
REMARK VINA RESULT:    -4.154      0.000      0.000
REMARK INTER + INTRA:         -10.968
REMARK INTER:                  -8.040
REMARK INTRA:                  -2.928
REMARK UNBOUND:                -2.928
REMARK SMILES CCCCCCCCCCCCCCCCCC(=O)[O-]
REMARK SMILES IDX 10 1 11 2 12 3 13 4 14 5 15 6 16 7 17 8 18 9 19 10 20 11
REMARK SMILES IDX 9 12 8 13 7 14 6 15 5 16 4 17 3 18 2 19 1 20
REMARK H PARENT
REMARK Flexibility Score: inf
ROOT
ATOM      1  C   UNL     1     136.934  98.558  92.401  1.00  0.00     0.000 C 
ENDROOT
BRANCH   1   2
ATOM      2  C   UNL     1     135.625  99.348  92.565  1.00  0.00     0.000 C 
BRANCH   2   3
ATOM      3  C   UNL     1     135.610 100.644  91.736  1.00  0.00     0.000 C 
BRANCH   3   4
ATOM      4  C   UNL     1     135.050 101.840  92.524  1.00  0.00     0.000 C 
BRANCH   4   5
ATOM      5  C   UNL     1     134.879 101.531  94.022  1.00  0.00     0.000 C 
BRANCH   5   6
ATOM      6  C   UNL     1     135.120 102.760  94.910  1.00  0.00     0.000 C 
BRANCH   6   7
ATOM      7  C   UNL     1     133.825 103.513  95.250  1.00  0.00     0.006 C 
BRANCH   7   8
ATOM      8  C   UNL     1     132.682 102.535  95.537  1.00  0.00     0.053 C 
BRANCH   8   9
ATOM      9  C   UNL     1     131.423 102.988  94.867  1.00  0.00     0.041 C 
ATOM     10  O   UNL     1     131.006 102.398  93.836  1.00  0.00    -0.550 OA
ATOM     11  O   UNL     1     130.684 104.033  95.408  1.00  0.00    -0.550 OA
ENDBRANCH   8   9
ENDBRANCH   7   8
ENDBRANCH   6   7
ENDBRANCH   5   6
ENDBRANCH   4   5
ENDBRANCH   3   4
ENDBRANCH   2   3
ENDBRANCH   1   2
BRANCH   1  12
ATOM     12  C   UNL     1     137.434  97.952  93.724  1.00  0.00     0.000 C 
BRANCH  12  13
ATOM     13  C   UNL     1     136.689  98.511  94.946  1.00  0.00    -0.000 C 
BRANCH  13  14
ATOM     14  C   UNL     1     137.556  99.478  95.774  1.00  0.00    -0.000 C 
BRANCH  14  15
ATOM     15  C   UNL     1     139.057  99.325  95.481  1.00  0.00    -0.000 C 
BRANCH  15  16
ATOM     16  C   UNL     1     139.674 100.596  94.877  1.00  0.00    -0.000 C 
BRANCH  16  17
ATOM     17  C   UNL     1     138.607 101.674  94.659  1.00  0.00    -0.000 C 
BRANCH  17  18
ATOM     18  C   UNL     1     138.669 102.228  93.227  1.00  0.00    -0.000 C 
BRANCH  18  19
ATOM     19  C   UNL     1     139.265 101.223  92.230  1.00  0.00    -0.003 C 
ATOM     20  C   UNL     1     139.302 101.760  90.800  1.00  0.00     0.004 C 
ENDBRANCH  18  19
ENDBRANCH  17  18
ENDBRANCH  16  17
ENDBRANCH  15  16
ENDBRANCH  14  15
ENDBRANCH  13  14
ENDBRANCH  12  13
ENDBRANCH   1  12
TORSDOF 16
ENDMDL
MODEL 2
REMARK VINA RESULT:    -4.145      1.035      2.248
REMARK INTER + INTRA:         -10.950
REMARK INTER:                  -8.335
REMARK INTRA:                  -2.616
REMARK UNBOUND:                -2.928
REMARK SMILES CCCCCCCCCCCCCCCCCC(=O)[O-]
REMARK SMILES IDX 10 1 11 2 12 3 13 4 14 5 15 6 16 7 17 8 18 9 19 10 20 11
REMARK SMILES IDX 9 12 8 13 7 14 6 15 5 16 4 17 3 18 2 19 1 20
REMARK H PARENT
REMARK Flexibility Score: inf
ROOT
ATOM      1  C   UNL     1     136.341 100.931  92.382  1.00  0.00     0.000 C 
ENDROOT
BRANCH   1   2
ATOM      2  C   UNL     1     134.995 101.274  93.041  1.00  0.00     0.000 C 
BRANCH   2   3
ATOM      3  C   UNL     1     135.145 101.656  94.524  1.00  0.00     0.000 C 
BRANCH   3   4
ATOM      4  C   UNL     1     135.628 103.104  94.713  1.00  0.00     0.000 C 
BRANCH   4   5
ATOM      5  C   UNL     1     134.692 103.924  95.618  1.00  0.00     0.000 C 
BRANCH   5   6
ATOM      6  C   UNL     1     133.407 104.360  94.898  1.00  0.00     0.000 C 
BRANCH   6   7
ATOM      7  C   UNL     1     132.133 103.900  95.623  1.00  0.00     0.006 C 
BRANCH   7   8
ATOM      8  C   UNL     1     131.657 102.546  95.090  1.00  0.00     0.053 C 
BRANCH   8   9
ATOM      9  C   UNL     1     130.749 102.733  93.915  1.00  0.00     0.041 C 
ATOM     10  O   UNL     1     130.070 103.786  93.802  1.00  0.00    -0.550 OA
ATOM     11  O   UNL     1     130.688 101.763  92.923  1.00  0.00    -0.550 OA
ENDBRANCH   8   9
ENDBRANCH   7   8
ENDBRANCH   6   7
ENDBRANCH   5   6
ENDBRANCH   4   5
ENDBRANCH   3   4
ENDBRANCH   2   3
ENDBRANCH   1   2
BRANCH   1  12
ATOM     12  C   UNL     1     136.406  99.477  91.882  1.00  0.00     0.000 C 
BRANCH  12  13
ATOM     13  C   UNL     1     137.372  98.613  92.706  1.00  0.00    -0.000 C 
BRANCH  13  14
ATOM     14  C   UNL     1     136.682  97.934  93.903  1.00  0.00    -0.000 C 
BRANCH  14  15
ATOM     15  C   UNL     1     137.013  98.614  95.240  1.00  0.00    -0.000 C 
BRANCH  15  16
ATOM     16  C   UNL     1     138.463  99.118  95.305  1.00  0.00    -0.000 C 
BRANCH  16  17
ATOM     17  C   UNL     1     138.530 100.517  95.928  1.00  0.00    -0.000 C 
BRANCH  17  18
ATOM     18  C   UNL     1     139.057 101.546  94.916  1.00  0.00    -0.000 C 
BRANCH  18  19
ATOM     19  C   UNL     1     140.117 100.957  93.972  1.00  0.00    -0.003 C 
ATOM     20  C   UNL     1     139.954 101.434  92.530  1.00  0.00     0.004 C 
ENDBRANCH  18  19
ENDBRANCH  17  18
ENDBRANCH  16  17
ENDBRANCH  15  16
ENDBRANCH  14  15
ENDBRANCH  13  14
ENDBRANCH  12  13
ENDBRANCH   1  12
TORSDOF 16
ENDMDL
MODEL 3
REMARK VINA RESULT:    -4.120      2.062      4.539
REMARK INTER + INTRA:         -10.901
REMARK INTER:                  -8.497
REMARK INTRA:                  -2.404
REMARK UNBOUND:                -2.928
REMARK SMILES CCCCCCCCCCCCCCCCCC(=O)[O-]
REMARK SMILES IDX 10 1 11 2 12 3 13 4 14 5 15 6 16 7 17 8 18 9 19 10 20 11
REMARK SMILES IDX 9 12 8 13 7 14 6 15 5 16 4 17 3 18 2 19 1 20
REMARK H PARENT
REMARK Flexibility Score: inf
ROOT
ATOM      1  C   UNL     1     138.418  99.026  95.561  1.00  0.00     0.000 C 
ENDROOT
BRANCH   1   2
ATOM      2  C   UNL     1     138.695 100.489  95.943  1.00  0.00     0.000 C 
BRANCH   2   3
ATOM      3  C   UNL     1     139.427 101.261  94.831  1.00  0.00     0.000 C 
BRANCH   3   4
ATOM      4  C   UNL     1     138.485 102.176  94.032  1.00  0.00     0.000 C 
BRANCH   4   5
ATOM      5  C   UNL     1     137.114 102.347  94.711  1.00  0.00     0.000 C 
BRANCH   5   6
ATOM      6  C   UNL     1     135.944 102.012  93.773  1.00  0.00     0.000 C 
BRANCH   6   7
ATOM      7  C   UNL     1     134.654 101.666  94.531  1.00  0.00     0.006 C 
BRANCH   7   8
ATOM      8  C   UNL     1     133.449 102.387  93.919  1.00  0.00     0.053 C 
BRANCH   8   9
ATOM      9  C   UNL     1     133.156 103.649  94.667  1.00  0.00     0.041 C 
ATOM     10  O   UNL     1     133.725 104.724  94.343  1.00  0.00    -0.550 OA
ATOM     11  O   UNL     1     132.219 103.648  95.693  1.00  0.00    -0.550 OA
ENDBRANCH   8   9
ENDBRANCH   7   8
ENDBRANCH   6   7
ENDBRANCH   5   6
ENDBRANCH   4   5
ENDBRANCH   3   4
ENDBRANCH   2   3
ENDBRANCH   1   2
BRANCH   1  12
ATOM     12  C   UNL     1     136.929  98.754  95.286  1.00  0.00     0.000 C 
BRANCH  12  13
ATOM     13  C   UNL     1     136.699  98.036  93.948  1.00  0.00    -0.000 C 
BRANCH  13  14
ATOM     14  C   UNL     1     137.310  98.797  92.757  1.00  0.00    -0.000 C 
BRANCH  14  15
ATOM     15  C   UNL     1     136.509  98.607  91.460  1.00  0.00    -0.000 C 
BRANCH  15  16
ATOM     16  C   UNL     1     135.025  98.304  91.719  1.00  0.00    -0.000 C 
BRANCH  16  17
ATOM     17  C   UNL     1     134.168  99.562  91.539  1.00  0.00    -0.000 C 
BRANCH  17  18
ATOM     18  C   UNL     1     132.736  99.198  91.120  1.00  0.00    -0.000 C 
BRANCH  18  19
ATOM     19  C   UNL     1     132.583  97.709  90.772  1.00  0.00    -0.003 C 
ATOM     20  C   UNL     1     131.168  97.187  91.020  1.00  0.00     0.004 C 
ENDBRANCH  18  19
ENDBRANCH  17  18
ENDBRANCH  16  17
ENDBRANCH  15  16
ENDBRANCH  14  15
ENDBRANCH  13  14
ENDBRANCH  12  13
ENDBRANCH   1  12
TORSDOF 16
ENDMDL
MODEL 4
REMARK VINA RESULT:    -4.094      1.484      3.420
REMARK INTER + INTRA:         -10.852
REMARK INTER:                  -8.476
REMARK INTRA:                  -2.376
REMARK UNBOUND:                -2.928
REMARK SMILES CCCCCCCCCCCCCCCCCC(=O)[O-]
REMARK SMILES IDX 10 1 11 2 12 3 13 4 14 5 15 6 16 7 17 8 18 9 19 10 20 11
REMARK SMILES IDX 9 12 8 13 7 14 6 15 5 16 4 17 3 18 2 19 1 20
REMARK H PARENT
REMARK Flexibility Score: inf
ROOT
ATOM      1  C   UNL     1     135.482 101.703  93.718  1.00  0.00     0.000 C 
ENDROOT
BRANCH   1   2
ATOM      2  C   UNL     1     135.858 103.147  93.347  1.00  0.00     0.000 C 
BRANCH   2   3
ATOM      3  C   UNL     1     134.993 104.188  94.080  1.00  0.00     0.000 C 
BRANCH   3   4
ATOM      4  C   UNL     1     134.930 103.939  95.596  1.00  0.00     0.000 C 
BRANCH   4   5
ATOM      5  C   UNL     1     133.486 103.864  96.121  1.00  0.00     0.000 C 
BRANCH   5   6
ATOM      6  C   UNL     1     132.782 102.556  95.728  1.00  0.00     0.000 C 
BRANCH   6   7
ATOM      7  C   UNL     1     131.403 102.789  95.093  1.00  0.00     0.006 C 
BRANCH   7   8
ATOM      8  C   UNL     1     131.482 102.707  93.566  1.00  0.00     0.053 C 
BRANCH   8   9
ATOM      9  C   UNL     1     130.172 102.263  92.995  1.00  0.00     0.041 C 
ATOM     10  O   UNL     1     130.108 101.220  92.293  1.00  0.00    -0.550 OA
ATOM     11  O   UNL     1     129.014 102.976  93.276  1.00  0.00    -0.550 OA
ENDBRANCH   8   9
ENDBRANCH   7   8
ENDBRANCH   6   7
ENDBRANCH   5   6
ENDBRANCH   4   5
ENDBRANCH   3   4
ENDBRANCH   2   3
ENDBRANCH   1   2
BRANCH   1  12
ATOM     12  C   UNL     1     134.635 101.012  92.635  1.00  0.00     0.000 C 
BRANCH  12  13
ATOM     13  C   UNL     1     135.241  99.677  92.176  1.00  0.00    -0.000 C 
BRANCH  13  14
ATOM     14  C   UNL     1     136.775  99.738  92.051  1.00  0.00    -0.000 C 
BRANCH  14  15
ATOM     15  C   UNL     1     137.475  98.601  92.810  1.00  0.00    -0.000 C 
BRANCH  15  16
ATOM     16  C   UNL     1     136.613  98.027  93.945  1.00  0.00    -0.000 C 
BRANCH  16  17
ATOM     17  C   UNL     1     136.947  98.699  95.282  1.00  0.00    -0.000 C 
BRANCH  17  18
ATOM     18  C   UNL     1     138.410  99.165  95.314  1.00  0.00    -0.000 C 
BRANCH  18  19
ATOM     19  C   UNL     1     138.551 100.643  95.709  1.00  0.00    -0.003 C 
ATOM     20  C   UNL     1     139.195 101.489  94.611  1.00  0.00     0.004 C 
ENDBRANCH  18  19
ENDBRANCH  17  18
ENDBRANCH  16  17
ENDBRANCH  15  16
ENDBRANCH  14  15
ENDBRANCH  13  14
ENDBRANCH  12  13
ENDBRANCH   1  12
TORSDOF 16
ENDMDL
MODEL 5
REMARK VINA RESULT:    -4.057      2.699      5.944
REMARK INTER + INTRA:         -10.779
REMARK INTER:                  -8.116
REMARK INTRA:                  -2.663
REMARK UNBOUND:                -2.928
REMARK SMILES CCCCCCCCCCCCCCCCCC(=O)[O-]
REMARK SMILES IDX 10 1 11 2 12 3 13 4 14 5 15 6 16 7 17 8 18 9 19 10 20 11
REMARK SMILES IDX 9 12 8 13 7 14 6 15 5 16 4 17 3 18 2 19 1 20
REMARK H PARENT
REMARK Flexibility Score: inf
ROOT
ATOM      1  C   UNL     1     137.178  99.477  92.002  1.00  0.00     0.000 C 
ENDROOT
BRANCH   1   2
ATOM      2  C   UNL     1     136.421  98.355  92.730  1.00  0.00     0.000 C 
BRANCH   2   3
ATOM      3  C   UNL     1     137.164  97.858  93.983  1.00  0.00     0.000 C 
BRANCH   3   4
ATOM      4  C   UNL     1     136.638  98.506  95.274  1.00  0.00     0.000 C 
BRANCH   4   5
ATOM      5  C   UNL     1     137.524  99.670  95.753  1.00  0.00     0.000 C 
BRANCH   5   6
ATOM      6  C   UNL     1     139.000  99.484  95.371  1.00  0.00     0.000 C 
BRANCH   6   7
ATOM      7  C   UNL     1     139.576 100.690  94.612  1.00  0.00     0.006 C 
BRANCH   7   8
ATOM      8  C   UNL     1     138.566 101.840  94.565  1.00  0.00     0.053 C 
BRANCH   8   9
ATOM      9  C   UNL     1     138.839 102.730  93.394  1.00  0.00     0.041 C 
ATOM     10  O   UNL     1     139.354 102.259  92.346  1.00  0.00    -0.550 OA
ATOM     11  O   UNL     1     138.484 104.072  93.443  1.00  0.00    -0.550 OA
ENDBRANCH   8   9
ENDBRANCH   7   8
ENDBRANCH   6   7
ENDBRANCH   5   6
ENDBRANCH   4   5
ENDBRANCH   3   4
ENDBRANCH   2   3
ENDBRANCH   1   2
BRANCH   1  12
ATOM     12  C   UNL     1     136.255 100.622  91.549  1.00  0.00     0.000 C 
BRANCH  12  13
ATOM     13  C   UNL     1     134.968 100.705  92.384  1.00  0.00    -0.000 C 
BRANCH  13  14
ATOM     14  C   UNL     1     134.819 102.055  93.107  1.00  0.00    -0.000 C 
BRANCH  14  15
ATOM     15  C   UNL     1     134.788 101.907  94.636  1.00  0.00    -0.000 C 
BRANCH  15  16
ATOM     16  C   UNL     1     133.872 102.938  95.312  1.00  0.00    -0.000 C 
BRANCH  16  17
ATOM     17  C   UNL     1     132.428 102.427  95.383  1.00  0.00    -0.000 C 
BRANCH  17  18
ATOM     18  C   UNL     1     131.496 103.290  94.519  1.00  0.00    -0.000 C 
BRANCH  18  19
ATOM     19  C   UNL     1     130.509 102.450  93.695  1.00  0.00    -0.003 C 
ATOM     20  C   UNL     1     131.156 101.820  92.462  1.00  0.00     0.004 C 
ENDBRANCH  18  19
ENDBRANCH  17  18
ENDBRANCH  16  17
ENDBRANCH  15  16
ENDBRANCH  14  15
ENDBRANCH  13  14
ENDBRANCH  12  13
ENDBRANCH   1  12
TORSDOF 16
ENDMDL
MODEL 6
REMARK VINA RESULT:    -4.046      1.281      3.151
REMARK INTER + INTRA:         -10.758
REMARK INTER:                  -7.965
REMARK INTRA:                  -2.794
REMARK UNBOUND:                -2.928
REMARK SMILES CCCCCCCCCCCCCCCCCC(=O)[O-]
REMARK SMILES IDX 10 1 11 2 12 3 13 4 14 5 15 6 16 7 17 8 18 9 19 10 20 11
REMARK SMILES IDX 9 12 8 13 7 14 6 15 5 16 4 17 3 18 2 19 1 20
REMARK H PARENT
REMARK Flexibility Score: inf
ROOT
ATOM      1  C   UNL     1     135.442 102.142  92.072  1.00  0.00     0.000 C 
ENDROOT
BRANCH   1   2
ATOM      2  C   UNL     1     135.252 101.033  93.120  1.00  0.00     0.000 C 
BRANCH   2   3
ATOM      3  C   UNL     1     134.875 101.589  94.505  1.00  0.00     0.000 C 
BRANCH   3   4
ATOM      4  C   UNL     1     135.448 102.994  94.751  1.00  0.00     0.000 C 
BRANCH   4   5
ATOM      5  C   UNL     1     134.490 103.887  95.559  1.00  0.00     0.000 C 
BRANCH   5   6
ATOM      6  C   UNL     1     133.211 103.149  95.984  1.00  0.00     0.000 C 
BRANCH   6   7
ATOM      7  C   UNL     1     131.938 103.783  95.405  1.00  0.00     0.006 C 
BRANCH   7   8
ATOM      8  C   UNL     1     131.180 102.785  94.524  1.00  0.00     0.053 C 
BRANCH   8   9
ATOM      9  C   UNL     1     131.748 102.770  93.139  1.00  0.00     0.041 C 
ATOM     10  O   UNL     1     131.823 101.690  92.497  1.00  0.00    -0.550 OA
ATOM     11  O   UNL     1     132.152 103.956  92.541  1.00  0.00    -0.550 OA
ENDBRANCH   8   9
ENDBRANCH   7   8
ENDBRANCH   6   7
ENDBRANCH   5   6
ENDBRANCH   4   5
ENDBRANCH   3   4
ENDBRANCH   2   3
ENDBRANCH   1   2
BRANCH   1  12
ATOM     12  C   UNL     1     136.888 102.228  91.551  1.00  0.00     0.000 C 
BRANCH  12  13
ATOM     13  C   UNL     1     137.688 100.944  91.820  1.00  0.00    -0.000 C 
BRANCH  13  14
ATOM     14  C   UNL     1     139.032 101.221  92.516  1.00  0.00    -0.000 C 
BRANCH  14  15
ATOM     15  C   UNL     1     138.860 101.739  93.952  1.00  0.00    -0.000 C 
BRANCH  15  16
ATOM     16  C   UNL     1     139.658 100.919  94.977  1.00  0.00    -0.000 C 
BRANCH  16  17
ATOM     17  C   UNL     1     138.760 100.460  96.131  1.00  0.00    -0.000 C 
BRANCH  17  18
ATOM     18  C   UNL     1     137.601  99.593  95.616  1.00  0.00    -0.000 C 
BRANCH  18  19
ATOM     19  C   UNL     1     138.086  98.329  94.889  1.00  0.00    -0.003 C 
ATOM     20  C   UNL     1     137.089  97.830  93.844  1.00  0.00     0.004 C 
ENDBRANCH  18  19
ENDBRANCH  17  18
ENDBRANCH  16  17
ENDBRANCH  15  16
ENDBRANCH  14  15
ENDBRANCH  13  14
ENDBRANCH  12  13
ENDBRANCH   1  12
TORSDOF 16
ENDMDL
MODEL 7
REMARK VINA RESULT:    -4.028      1.026      2.056
REMARK INTER + INTRA:         -10.724
REMARK INTER:                  -8.063
REMARK INTRA:                  -2.660
REMARK UNBOUND:                -2.928
REMARK SMILES CCCCCCCCCCCCCCCCCC(=O)[O-]
REMARK SMILES IDX 10 1 11 2 12 3 13 4 14 5 15 6 16 7 17 8 18 9 19 10 20 11
REMARK SMILES IDX 9 12 8 13 7 14 6 15 5 16 4 17 3 18 2 19 1 20
REMARK H PARENT
REMARK Flexibility Score: inf
ROOT
ATOM      1  C   UNL     1     136.830 100.856  91.356  1.00  0.00     0.000 C 
ENDROOT
BRANCH   1   2
ATOM      2  C   UNL     1     137.340 102.213  91.864  1.00  0.00     0.000 C 
BRANCH   2   3
ATOM      3  C   UNL     1     136.331 102.914  92.791  1.00  0.00     0.000 C 
BRANCH   3   4
ATOM      4  C   UNL     1     135.097 102.044  93.083  1.00  0.00     0.000 C 
BRANCH   4   5
ATOM      5  C   UNL     1     134.770 101.970  94.585  1.00  0.00     0.000 C 
BRANCH   5   6
ATOM      6  C   UNL     1     134.652 103.358  95.232  1.00  0.00     0.000 C 
BRANCH   6   7
ATOM      7  C   UNL     1     133.399 103.501  96.110  1.00  0.00     0.006 C 
BRANCH   7   8
ATOM      8  C   UNL     1     132.321 102.496  95.694  1.00  0.00     0.053 C 
BRANCH   8   9
ATOM      9  C   UNL     1     131.268 103.166  94.869  1.00  0.00     0.041 C 
ATOM     10  O   UNL     1     130.735 104.234  95.268  1.00  0.00    -0.550 OA
ATOM     11  O   UNL     1     130.908 102.635  93.637  1.00  0.00    -0.550 OA
ENDBRANCH   8   9
ENDBRANCH   7   8
ENDBRANCH   6   7
ENDBRANCH   5   6
ENDBRANCH   4   5
ENDBRANCH   3   4
ENDBRANCH   2   3
ENDBRANCH   1   2
BRANCH   1  12
ATOM     12  C   UNL     1     137.670  99.673  91.870  1.00  0.00     0.000 C 
BRANCH  12  13
ATOM     13  C   UNL     1     136.815  98.599  92.559  1.00  0.00    -0.000 C 
BRANCH  13  14
ATOM     14  C   UNL     1     137.401  98.156  93.912  1.00  0.00    -0.000 C 
BRANCH  14  15
ATOM     15  C   UNL     1     136.770  98.897  95.101  1.00  0.00    -0.000 C 
BRANCH  15  16
ATOM     16  C   UNL     1     137.811  99.626  95.964  1.00  0.00    -0.000 C 
BRANCH  16  17
ATOM     17  C   UNL     1     138.299 100.905  95.272  1.00  0.00    -0.000 C 
BRANCH  17  18
ATOM     18  C   UNL     1     139.768 100.773  94.844  1.00  0.00    -0.000 C 
BRANCH  18  19
ATOM     19  C   UNL     1     140.253 101.975  94.018  1.00  0.00    -0.003 C 
ATOM     20  C   UNL     1     140.890 101.560  92.692  1.00  0.00     0.004 C 
ENDBRANCH  18  19
ENDBRANCH  17  18
ENDBRANCH  16  17
ENDBRANCH  15  16
ENDBRANCH  14  15
ENDBRANCH  13  14
ENDBRANCH  12  13
ENDBRANCH   1  12
TORSDOF 16
ENDMDL
MODEL 8
REMARK VINA RESULT:    -4.017      3.549      6.229
REMARK INTER + INTRA:         -10.702
REMARK INTER:                  -9.114
REMARK INTRA:                  -1.588
REMARK UNBOUND:                -2.928
REMARK SMILES CCCCCCCCCCCCCCCCCC(=O)[O-]
REMARK SMILES IDX 10 1 11 2 12 3 13 4 14 5 15 6 16 7 17 8 18 9 19 10 20 11
REMARK SMILES IDX 9 12 8 13 7 14 6 15 5 16 4 17 3 18 2 19 1 20
REMARK H PARENT
REMARK Flexibility Score: inf
ROOT
ATOM      1  C   UNL     1     136.840  98.321  92.468  1.00  0.00     0.000 C 
ENDROOT
BRANCH   1   2
ATOM      2  C   UNL     1     136.842  97.883  93.941  1.00  0.00     0.000 C 
BRANCH   2   3
ATOM      3  C   UNL     1     137.998  98.509  94.741  1.00  0.00     0.000 C 
BRANCH   3   4
ATOM      4  C   UNL     1     137.557  99.740  95.549  1.00  0.00     0.000 C 
BRANCH   4   5
ATOM      5  C   UNL     1     137.971 101.063  94.880  1.00  0.00     0.000 C 
BRANCH   5   6
ATOM      6  C   UNL     1     136.793 102.034  94.712  1.00  0.00     0.000 C 
BRANCH   6   7
ATOM      7  C   UNL     1     135.453 101.314  94.499  1.00  0.00     0.006 C 
BRANCH   7   8
ATOM      8  C   UNL     1     134.380 102.287  94.002  1.00  0.00     0.053 C 
BRANCH   8   9
ATOM      9  C   UNL     1     133.939 103.193  95.108  1.00  0.00     0.041 C 
ATOM     10  O   UNL     1     133.129 102.780  95.979  1.00  0.00    -0.550 OA
ATOM     11  O   UNL     1     134.458 104.478  95.204  1.00  0.00    -0.550 OA
ENDBRANCH   8   9
ENDBRANCH   7   8
ENDBRANCH   6   7
ENDBRANCH   5   6
ENDBRANCH   4   5
ENDBRANCH   3   4
ENDBRANCH   2   3
ENDBRANCH   1   2
BRANCH   1  12
ATOM     12  C   UNL     1     135.425  98.599  91.930  1.00  0.00     0.000 C 
BRANCH  12  13
ATOM     13  C   UNL     1     134.686  97.314  91.526  1.00  0.00    -0.000 C 
BRANCH  13  14
ATOM     14  C   UNL     1     133.542  97.581  90.531  1.00  0.00    -0.000 C 
BRANCH  14  15
ATOM     15  C   UNL     1     132.817  98.908  90.804  1.00  0.00    -0.000 C 
BRANCH  15  16
ATOM     16  C   UNL     1     131.345  98.709  91.194  1.00  0.00    -0.000 C 
BRANCH  16  17
ATOM     17  C   UNL     1     130.742  97.502  90.466  1.00  0.00    -0.000 C 
BRANCH  17  18
ATOM     18  C   UNL     1     129.529  96.949  91.229  1.00  0.00    -0.000 C 
BRANCH  18  19
ATOM     19  C   UNL     1     129.636  95.439  91.494  1.00  0.00    -0.003 C 
ATOM     20  C   UNL     1     131.048  94.899  91.267  1.00  0.00     0.004 C 
ENDBRANCH  18  19
ENDBRANCH  17  18
ENDBRANCH  16  17
ENDBRANCH  15  16
ENDBRANCH  14  15
ENDBRANCH  13  14
ENDBRANCH  12  13
ENDBRANCH   1  12
TORSDOF 16
ENDMDL
MODEL 9
REMARK VINA RESULT:    -4.006      3.227      6.441
REMARK INTER + INTRA:         -10.680
REMARK INTER:                  -8.297
REMARK INTRA:                  -2.383
REMARK UNBOUND:                -2.928
REMARK SMILES CCCCCCCCCCCCCCCCCC(=O)[O-]
REMARK SMILES IDX 10 1 11 2 12 3 13 4 14 5 15 6 16 7 17 8 18 9 19 10 20 11
REMARK SMILES IDX 9 12 8 13 7 14 6 15 5 16 4 17 3 18 2 19 1 20
REMARK H PARENT
REMARK Flexibility Score: inf
ROOT
ATOM      1  C   UNL     1     134.970 100.532  92.179  1.00  0.00     0.000 C 
ENDROOT
BRANCH   1   2
ATOM      2  C   UNL     1     136.491 100.538  91.953  1.00  0.00     0.000 C 
BRANCH   2   3
ATOM      3  C   UNL     1     137.101  99.126  92.009  1.00  0.00     0.000 C 
BRANCH   3   4
ATOM      4  C   UNL     1     136.480  98.260  93.118  1.00  0.00     0.000 C 
BRANCH   4   5
ATOM      5  C   UNL     1     137.495  97.891  94.214  1.00  0.00     0.000 C 
BRANCH   5   6
ATOM      6  C   UNL     1     137.565  98.942  95.333  1.00  0.00     0.000 C 
BRANCH   6   7
ATOM      7  C   UNL     1     138.952  99.589  95.456  1.00  0.00     0.006 C 
BRANCH   7   8
ATOM      8  C   UNL     1     138.913 101.057  95.019  1.00  0.00     0.053 C 
BRANCH   8   9
ATOM      9  C   UNL     1     140.039 101.355  94.079  1.00  0.00     0.041 C 
ATOM     10  O   UNL     1     141.177 101.651  94.528  1.00  0.00    -0.550 OA
ATOM     11  O   UNL     1     139.842 101.262  92.707  1.00  0.00    -0.550 OA
ENDBRANCH   8   9
ENDBRANCH   7   8
ENDBRANCH   6   7
ENDBRANCH   5   6
ENDBRANCH   4   5
ENDBRANCH   3   4
ENDBRANCH   2   3
ENDBRANCH   1   2
BRANCH   1  12
ATOM     12  C   UNL     1     134.505 101.651  93.127  1.00  0.00     0.000 C 
BRANCH  12  13
ATOM     13  C   UNL     1     135.256 101.638  94.467  1.00  0.00    -0.000 C 
BRANCH  13  14
ATOM     14  C   UNL     1     135.733 103.039  94.890  1.00  0.00    -0.000 C 
BRANCH  14  15
ATOM     15  C   UNL     1     134.578 104.045  95.011  1.00  0.00    -0.000 C 
BRANCH  15  16
ATOM     16  C   UNL     1     133.530 103.622  96.051  1.00  0.00    -0.000 C 
BRANCH  16  17
ATOM     17  C   UNL     1     132.110 103.871  95.532  1.00  0.00    -0.000 C 
BRANCH  17  18
ATOM     18  C   UNL     1     131.408 102.548  95.189  1.00  0.00    -0.000 C 
BRANCH  18  19
ATOM     19  C   UNL     1     131.052 102.436  93.699  1.00  0.00    -0.003 C 
ATOM     20  C   UNL     1     131.048 103.790  92.990  1.00  0.00     0.004 C 
ENDBRANCH  18  19
ENDBRANCH  17  18
ENDBRANCH  16  17
ENDBRANCH  15  16
ENDBRANCH  14  15
ENDBRANCH  13  14
ENDBRANCH  12  13
ENDBRANCH   1  12
TORSDOF 16
ENDMDL
