MODEL 1
REMARK VINA RESULT:     3.353      0.000      0.000
REMARK INTER + INTRA:           4.276
REMARK INTER:                   4.530
REMARK INTRA:                  -0.253
REMARK UNBOUND:                -0.253
REMARK SMILES CCCCCCC=CC(=O)[O-]
REMARK SMILES IDX 5 1 6 2 7 3 8 4 9 5 10 6 11 7 4 8 3 9 2 10 1 11
REMARK H PARENT
REMARK Flexibility Score: inf
ROOT
ATOM      1  C   UNL     1      -4.804 110.905  66.815  1.00  0.00     0.004 C 
ENDROOT
BRANCH   1   2
ATOM      2  C   UNL     1      -3.636 111.904  66.805  1.00  0.00     0.027 C 
BRANCH   2   3
ATOM      3  C   UNL     1      -4.090 113.319  67.028  1.00  0.00    -0.025 C 
ATOM      4  C   UNL     1      -5.349 113.603  67.374  1.00  0.00     0.020 C 
BRANCH   4   5
ATOM      5  C   UNL     1      -5.804 114.982  67.603  1.00  0.00     0.064 C 
ATOM      6  O   UNL     1      -6.302 115.639  66.652  1.00  0.00    -0.545 OA
ATOM      7  O   UNL     1      -5.692 115.574  68.856  1.00  0.00    -0.545 OA
ENDBRANCH   4   5
ENDBRANCH   2   3
ENDBRANCH   1   2
BRANCH   1   8
ATOM      8  C   UNL     1      -4.386 109.521  66.289  1.00  0.00     0.000 C 
BRANCH   8   9
ATOM      9  C   UNL     1      -5.554 108.523  66.261  1.00  0.00    -0.000 C 
BRANCH   9  10
ATOM     10  C   UNL     1      -5.257 107.240  67.052  1.00  0.00    -0.003 C 
ATOM     11  C   UNL     1      -4.081 107.442  68.004  1.00  0.00     0.004 C 
ENDBRANCH   9  10
ENDBRANCH   8   9
ENDBRANCH   1   8
TORSDOF 6
ENDMDL
MODEL 2
REMARK VINA RESULT:     3.394      3.659      6.081
REMARK INTER + INTRA:           4.332
REMARK INTER:                   4.587
REMARK INTRA:                  -0.256
REMARK UNBOUND:                -0.253
REMARK SMILES CCCCCCC=CC(=O)[O-]
REMARK SMILES IDX 5 1 6 2 7 3 8 4 9 5 10 6 11 7 4 8 3 9 2 10 1 11
REMARK H PARENT
REMARK Flexibility Score: inf
ROOT
ATOM      1  C   UNL     1      -3.243 111.961  65.718  1.00  0.00     0.004 C 
ENDROOT
BRANCH   1   2
ATOM      2  C   UNL     1      -3.314 110.489  65.284  1.00  0.00     0.027 C 
BRANCH   2   3
ATOM      3  C   UNL     1      -4.432 109.746  65.961  1.00  0.00    -0.025 C 
ATOM      4  C   UNL     1      -4.427 108.412  66.057  1.00  0.00     0.020 C 
BRANCH   4   5
ATOM      5  C   UNL     1      -5.509 107.674  66.723  1.00  0.00     0.064 C 
ATOM      6  O   UNL     1      -5.241 106.632  67.376  1.00  0.00    -0.545 OA
ATOM      7  O   UNL     1      -6.827 108.108  66.642  1.00  0.00    -0.545 OA
ENDBRANCH   4   5
ENDBRANCH   2   3
ENDBRANCH   1   2
BRANCH   1   8
ATOM      8  C   UNL     1      -4.065 112.231  66.990  1.00  0.00     0.000 C 
BRANCH   8   9
ATOM      9  C   UNL     1      -4.165 113.727  67.323  1.00  0.00    -0.000 C 
BRANCH   9  10
ATOM     10  C   UNL     1      -5.617 114.222  67.394  1.00  0.00    -0.003 C 
ATOM     11  C   UNL     1      -5.717 115.520  68.191  1.00  0.00     0.004 C 
ENDBRANCH   9  10
ENDBRANCH   8   9
ENDBRANCH   1   8
TORSDOF 6
ENDMDL
MODEL 3
REMARK VINA RESULT:     3.592      1.818      2.964
REMARK INTER + INTRA:           4.599
REMARK INTER:                   5.147
REMARK INTRA:                  -0.548
REMARK UNBOUND:                -0.253
REMARK SMILES CCCCCCC=CC(=O)[O-]
REMARK SMILES IDX 5 1 6 2 7 3 8 4 9 5 10 6 11 7 4 8 3 9 2 10 1 11
REMARK H PARENT
REMARK Flexibility Score: inf
ROOT
ATOM      1  C   UNL     1      -4.527 108.036  67.187  1.00  0.00     0.004 C 
ENDROOT
BRANCH   1   2
ATOM      2  C   UNL     1      -4.317 109.253  66.273  1.00  0.00     0.027 C 
BRANCH   2   3
ATOM      3  C   UNL     1      -4.294 110.547  67.037  1.00  0.00    -0.025 C 
ATOM      4  C   UNL     1      -4.305 111.729  66.413  1.00  0.00     0.020 C 
BRANCH   4   5
ATOM      5  C   UNL     1      -4.290 113.001  67.148  1.00  0.00     0.064 C 
ATOM      6  O   UNL     1      -3.255 113.346  67.775  1.00  0.00    -0.545 OA
ATOM      7  O   UNL     1      -5.405 113.832  67.163  1.00  0.00    -0.545 OA
ENDBRANCH   4   5
ENDBRANCH   2   3
ENDBRANCH   1   2
BRANCH   1   8
ATOM      8  C   UNL     1      -5.850 107.310  66.890  1.00  0.00     0.000 C 
BRANCH   8   9
ATOM      9  C   UNL     1      -6.738 108.080  65.900  1.00  0.00    -0.000 C 
BRANCH   9  10
ATOM     10  C   UNL     1      -8.122 108.409  66.477  1.00  0.00    -0.003 C 
ATOM     11  C   UNL     1      -8.027 109.483  67.557  1.00  0.00     0.004 C 
ENDBRANCH   9  10
ENDBRANCH   8   9
ENDBRANCH   1   8
TORSDOF 6
ENDMDL
MODEL 4
REMARK VINA RESULT:     4.480     16.234     17.523
REMARK INTER + INTRA:           5.799
REMARK INTER:                   5.996
REMARK INTRA:                  -0.197
REMARK UNBOUND:                -0.253
REMARK SMILES CCCCCCC=CC(=O)[O-]
REMARK SMILES IDX 5 1 6 2 7 3 8 4 9 5 10 6 11 7 4 8 3 9 2 10 1 11
REMARK H PARENT
REMARK Flexibility Score: inf
ROOT
ATOM      1  C   UNL     1       9.234 100.879  68.427  1.00  0.00     0.004 C 
ENDROOT
BRANCH   1   2
ATOM      2  C   UNL     1      10.146 101.770  69.285  1.00  0.00     0.027 C 
BRANCH   2   3
ATOM      3  C   UNL     1       9.487 103.065  69.669  1.00  0.00    -0.025 C 
ATOM      4  C   UNL     1      10.163 104.217  69.678  1.00  0.00     0.020 C 
BRANCH   4   5
ATOM      5  C   UNL     1       9.529 105.492  70.043  1.00  0.00     0.064 C 
ATOM      6  O   UNL     1       9.369 106.381  69.167  1.00  0.00    -0.545 OA
ATOM      7  O   UNL     1       9.102 105.732  71.344  1.00  0.00    -0.545 OA
ENDBRANCH   4   5
ENDBRANCH   2   3
ENDBRANCH   1   2
BRANCH   1   8
ATOM      8  C   UNL     1       8.066 100.293  69.240  1.00  0.00     0.000 C 
BRANCH   8   9
ATOM      9  C   UNL     1       8.280  98.815  69.600  1.00  0.00    -0.000 C 
BRANCH   9  10
ATOM     10  C   UNL     1       9.738  98.367  69.422  1.00  0.00    -0.003 C 
ATOM     11  C   UNL     1       9.814  96.991  68.765  1.00  0.00     0.004 C 
ENDBRANCH   9  10
ENDBRANCH   8   9
ENDBRANCH   1   8
TORSDOF 6
ENDMDL
