MODEL 1
REMARK VINA RESULT:    -3.663      0.000      0.000
REMARK INTER + INTRA:          -4.696
REMARK INTER:                  -4.626
REMARK INTRA:                  -0.069
REMARK UNBOUND:                -0.069
REMARK SMILES CSCC[C@H]([NH3+])C(=O)[O-]
REMARK SMILES IDX 4 1 5 2 6 3 7 7 8 8 9 9 3 10 2 11 1 12
REMARK H PARENT 6 4 6 5 6 6
REMARK Flexibility Score: inf
ROOT
ATOM      1  C   UNL     1      23.789  -2.230   0.096  1.00  0.00     0.082 C 
ENDROOT
BRANCH   1   2
ATOM      2  C   UNL     1      23.177  -3.386  -0.728  1.00  0.00     0.228 C 
BRANCH   2   3
ATOM      3  N   UNL     1      22.987  -3.018  -2.138  1.00  0.00    -0.350 N 
ATOM      4  H   UNL     1      22.957  -1.976  -2.232  1.00  0.00     0.345 HD
ATOM      5  H   UNL     1      22.105  -3.423  -2.524  1.00  0.00     0.345 HD
ATOM      6  H   UNL     1      23.794  -3.373  -2.703  1.00  0.00     0.345 HD
ENDBRANCH   2   3
BRANCH   2   7
ATOM      7  C   UNL     1      21.892  -3.883  -0.113  1.00  0.00     0.099 C 
ATOM      8  O   UNL     1      21.908  -4.894   0.638  1.00  0.00    -0.544 OA
ATOM      9  O   UNL     1      20.695  -3.209  -0.324  1.00  0.00    -0.544 OA
ENDBRANCH   2   7
ENDBRANCH   1   2
BRANCH   1  10
ATOM     10  C   UNL     1      25.010  -2.631   0.935  1.00  0.00     0.076 C 
BRANCH  10  11
ATOM     11  S   UNL     1      24.944  -1.833   2.579  1.00  0.00    -0.165 SA
ATOM     12  C   UNL     1      26.475  -0.861   2.380  1.00  0.00     0.085 C 
ENDBRANCH  10  11
ENDBRANCH   1  10
TORSDOF 5
ENDMDL
MODEL 2
REMARK VINA RESULT:    -3.618      0.400      1.047
REMARK INTER + INTRA:          -4.639
REMARK INTER:                  -4.584
REMARK INTRA:                  -0.055
REMARK UNBOUND:                -0.069
REMARK SMILES CSCC[C@H]([NH3+])C(=O)[O-]
REMARK SMILES IDX 4 1 5 2 6 3 7 7 8 8 9 9 3 10 2 11 1 12
REMARK H PARENT 6 4 6 5 6 6
REMARK Flexibility Score: inf
ROOT
ATOM      1  C   UNL     1      23.792  -2.161   0.067  1.00  0.00     0.082 C 
ENDROOT
BRANCH   1   2
ATOM      2  C   UNL     1      23.078  -3.294  -0.706  1.00  0.00     0.228 C 
BRANCH   2   3
ATOM      3  N   UNL     1      23.008  -3.019  -2.147  1.00  0.00    -0.350 N 
ATOM      4  H   UNL     1      23.103  -1.991  -2.318  1.00  0.00     0.345 HD
ATOM      5  H   UNL     1      22.106  -3.353  -2.557  1.00  0.00     0.345 HD
ATOM      6  H   UNL     1      23.797  -3.504  -2.634  1.00  0.00     0.345 HD
ENDBRANCH   2   3
BRANCH   2   7
ATOM      7  C   UNL     1      21.711  -3.576  -0.133  1.00  0.00     0.099 C 
ATOM      8  O   UNL     1      20.926  -2.622   0.111  1.00  0.00    -0.544 OA
ATOM      9  O   UNL     1      21.286  -4.882   0.083  1.00  0.00    -0.544 OA
ENDBRANCH   2   7
ENDBRANCH   1   2
BRANCH   1  10
ATOM     10  C   UNL     1      24.981  -2.630   0.917  1.00  0.00     0.076 C 
BRANCH  10  11
ATOM     11  S   UNL     1      24.930  -1.854   2.571  1.00  0.00    -0.165 SA
ATOM     12  C   UNL     1      26.439  -0.852   2.359  1.00  0.00     0.085 C 
ENDBRANCH  10  11
ENDBRANCH   1  10
TORSDOF 5
ENDMDL
MODEL 3
REMARK VINA RESULT:    -3.437     13.986     14.538
REMARK INTER + INTRA:          -4.410
REMARK INTER:                  -4.191
REMARK INTRA:                  -0.220
REMARK UNBOUND:                -0.069
REMARK SMILES CSCC[C@H]([NH3+])C(=O)[O-]
REMARK SMILES IDX 4 1 5 2 6 3 7 7 8 8 9 9 3 10 2 11 1 12
REMARK H PARENT 6 4 6 5 6 6
REMARK Flexibility Score: inf
ROOT
ATOM      1  C   UNL     1      31.979  -4.523  10.047  1.00  0.00     0.082 C 
ENDROOT
BRANCH   1   2
ATOM      2  C   UNL     1      33.008  -3.371  10.116  1.00  0.00     0.228 C 
BRANCH   2   3
ATOM      3  N   UNL     1      33.685  -3.158   8.831  1.00  0.00    -0.350 N 
ATOM      4  H   UNL     1      33.732  -2.135   8.618  1.00  0.00     0.345 HD
ATOM      5  H   UNL     1      33.190  -3.648   8.051  1.00  0.00     0.345 HD
ATOM      6  H   UNL     1      34.664  -3.524   8.887  1.00  0.00     0.345 HD
ENDBRANCH   2   3
BRANCH   2   7
ATOM      7  C   UNL     1      34.001  -3.585  11.232  1.00  0.00     0.099 C 
ATOM      8  O   UNL     1      34.253  -2.648  12.035  1.00  0.00    -0.544 OA
ATOM      9  O   UNL     1      34.608  -4.822  11.415  1.00  0.00    -0.544 OA
ENDBRANCH   2   7
ENDBRANCH   1   2
BRANCH   1  10
ATOM     10  C   UNL     1      31.068  -4.630  11.278  1.00  0.00     0.076 C 
BRANCH  10  11
ATOM     11  S   UNL     1      29.991  -3.158  11.404  1.00  0.00    -0.165 SA
ATOM     12  C   UNL     1      30.742  -2.503  12.932  1.00  0.00     0.085 C 
ENDBRANCH  10  11
ENDBRANCH   1  10
TORSDOF 5
ENDMDL
MODEL 4
REMARK VINA RESULT:    -3.411      2.775      3.710
REMARK INTER + INTRA:          -4.377
REMARK INTER:                  -4.169
REMARK INTRA:                  -0.208
REMARK UNBOUND:                -0.069
REMARK SMILES CSCC[C@H]([NH3+])C(=O)[O-]
REMARK SMILES IDX 4 1 5 2 6 3 7 7 8 8 9 9 3 10 2 11 1 12
REMARK H PARENT 6 4 6 5 6 6
REMARK Flexibility Score: inf
ROOT
ATOM      1  C   UNL     1      22.225  -4.207   0.095  1.00  0.00     0.082 C 
ENDROOT
BRANCH   1   2
ATOM      2  C   UNL     1      22.751  -2.936  -0.610  1.00  0.00     0.228 C 
BRANCH   2   3
ATOM      3  N   UNL     1      23.007  -3.163  -2.039  1.00  0.00    -0.350 N 
ATOM      4  H   UNL     1      24.036  -3.137  -2.224  1.00  0.00     0.345 HD
ATOM      5  H   UNL     1      22.532  -2.445  -2.632  1.00  0.00     0.345 HD
ATOM      6  H   UNL     1      22.651  -4.109  -2.310  1.00  0.00     0.345 HD
ENDBRANCH   2   3
BRANCH   2   7
ATOM      7  C   UNL     1      23.972  -2.385   0.085  1.00  0.00     0.099 C 
ATOM      8  O   UNL     1      24.047  -1.153   0.335  1.00  0.00    -0.544 OA
ATOM      9  O   UNL     1      24.996  -3.228   0.499  1.00  0.00    -0.544 OA
ENDBRANCH   2   7
ENDBRANCH   1   2
BRANCH   1  10
ATOM     10  C   UNL     1      21.131  -3.943   1.138  1.00  0.00     0.076 C 
BRANCH  10  11
ATOM     11  S   UNL     1      20.327  -2.331   0.824  1.00  0.00    -0.165 SA
ATOM     12  C   UNL     1      20.931  -1.518   2.340  1.00  0.00     0.085 C 
ENDBRANCH  10  11
ENDBRANCH   1  10
TORSDOF 5
ENDMDL
MODEL 5
REMARK VINA RESULT:    -3.356      2.967      4.106
REMARK INTER + INTRA:          -4.308
REMARK INTER:                  -4.224
REMARK INTRA:                  -0.084
REMARK UNBOUND:                -0.069
REMARK SMILES CSCC[C@H]([NH3+])C(=O)[O-]
REMARK SMILES IDX 4 1 5 2 6 3 7 7 8 8 9 9 3 10 2 11 1 12
REMARK H PARENT 6 4 6 5 6 6
REMARK Flexibility Score: inf
ROOT
ATOM      1  C   UNL     1      22.014  -4.371   0.372  1.00  0.00     0.082 C 
ENDROOT
BRANCH   1   2
ATOM      2  C   UNL     1      22.351  -3.148  -0.512  1.00  0.00     0.228 C 
BRANCH   2   3
ATOM      3  N   UNL     1      22.280  -3.467  -1.944  1.00  0.00    -0.350 N 
ATOM      4  H   UNL     1      21.397  -3.079  -2.351  1.00  0.00     0.345 HD
ATOM      5  H   UNL     1      22.310  -4.499  -2.108  1.00  0.00     0.345 HD
ATOM      6  H   UNL     1      23.089  -3.026  -2.440  1.00  0.00     0.345 HD
ENDBRANCH   2   3
BRANCH   2   7
ATOM      7  C   UNL     1      23.690  -2.556  -0.147  1.00  0.00     0.099 C 
ATOM      8  O   UNL     1      23.863  -1.310  -0.215  1.00  0.00    -0.544 OA
ATOM      9  O   UNL     1      24.723  -3.364   0.312  1.00  0.00    -0.544 OA
ENDBRANCH   2   7
ENDBRANCH   1   2
BRANCH   1  10
ATOM     10  C   UNL     1      21.484  -4.013   1.768  1.00  0.00     0.076 C 
BRANCH  10  11
ATOM     11  S   UNL     1      21.059  -5.529   2.697  1.00  0.00    -0.165 SA
ATOM     12  C   UNL     1      19.964  -4.711   3.905  1.00  0.00     0.085 C 
ENDBRANCH  10  11
ENDBRANCH   1  10
TORSDOF 5
ENDMDL
MODEL 6
REMARK VINA RESULT:    -3.304      3.592      4.661
REMARK INTER + INTRA:          -4.242
REMARK INTER:                  -4.118
REMARK INTRA:                  -0.125
REMARK UNBOUND:                -0.069
REMARK SMILES CSCC[C@H]([NH3+])C(=O)[O-]
REMARK SMILES IDX 4 1 5 2 6 3 7 7 8 8 9 9 3 10 2 11 1 12
REMARK H PARENT 6 4 6 5 6 6
REMARK Flexibility Score: inf
ROOT
ATOM      1  C   UNL     1      24.880  -2.577   0.998  1.00  0.00     0.082 C 
ENDROOT
BRANCH   1   2
ATOM      2  C   UNL     1      25.280  -1.600   2.128  1.00  0.00     0.228 C 
BRANCH   2   3
ATOM      3  N   UNL     1      26.732  -1.384   2.182  1.00  0.00    -0.350 N 
ATOM      4  H   UNL     1      27.001  -0.609   1.533  1.00  0.00     0.345 HD
ATOM      5  H   UNL     1      27.258  -2.249   1.921  1.00  0.00     0.345 HD
ATOM      6  H   UNL     1      27.007  -1.106   3.153  1.00  0.00     0.345 HD
ENDBRANCH   2   3
BRANCH   2   7
ATOM      7  C   UNL     1      24.742  -2.051   3.464  1.00  0.00     0.099 C 
ATOM      8  O   UNL     1      23.651  -2.678   3.519  1.00  0.00    -0.544 OA
ATOM      9  O   UNL     1      25.460  -1.827   4.632  1.00  0.00    -0.544 OA
ENDBRANCH   2   7
ENDBRANCH   1   2
BRANCH   1  10
ATOM     10  C   UNL     1      23.870  -2.002  -0.004  1.00  0.00     0.076 C 
BRANCH  10  11
ATOM     11  S   UNL     1      23.052  -3.349  -0.930  1.00  0.00    -0.165 SA
ATOM     12  C   UNL     1      22.277  -4.135   0.522  1.00  0.00     0.085 C 
ENDBRANCH  10  11
ENDBRANCH   1  10
TORSDOF 5
ENDMDL
MODEL 7
REMARK VINA RESULT:    -3.276      2.964      3.931
REMARK INTER + INTRA:          -4.207
REMARK INTER:                  -4.080
REMARK INTRA:                  -0.128
REMARK UNBOUND:                -0.069
REMARK SMILES CSCC[C@H]([NH3+])C(=O)[O-]
REMARK SMILES IDX 4 1 5 2 6 3 7 7 8 8 9 9 3 10 2 11 1 12
REMARK H PARENT 6 4 6 5 6 6
REMARK Flexibility Score: inf
ROOT
ATOM      1  C   UNL     1      23.509  -2.805   2.017  1.00  0.00     0.082 C 
ENDROOT
BRANCH   1   2
ATOM      2  C   UNL     1      24.319  -3.015   0.717  1.00  0.00     0.228 C 
BRANCH   2   3
ATOM      3  N   UNL     1      25.673  -2.455   0.815  1.00  0.00    -0.350 N 
ATOM      4  H   UNL     1      25.727  -1.560   0.274  1.00  0.00     0.345 HD
ATOM      5  H   UNL     1      26.391  -3.121   0.450  1.00  0.00     0.345 HD
ATOM      6  H   UNL     1      25.891  -2.243   1.817  1.00  0.00     0.345 HD
ENDBRANCH   2   3
BRANCH   2   7
ATOM      7  C   UNL     1      23.585  -2.472  -0.484  1.00  0.00     0.099 C 
ATOM      8  O   UNL     1      23.563  -1.230  -0.695  1.00  0.00    -0.544 OA
ATOM      9  O   UNL     1      22.971  -3.329  -1.390  1.00  0.00    -0.544 OA
ENDBRANCH   2   7
ENDBRANCH   1   2
BRANCH   1  10
ATOM     10  C   UNL     1      22.433  -3.872   2.269  1.00  0.00     0.076 C 
BRANCH  10  11
ATOM     11  S   UNL     1      20.764  -3.141   2.124  1.00  0.00    -0.165 SA
ATOM     12  C   UNL     1      19.899  -4.456   3.045  1.00  0.00     0.085 C 
ENDBRANCH  10  11
ENDBRANCH   1  10
TORSDOF 5
ENDMDL
MODEL 8
REMARK VINA RESULT:    -3.248      3.673      4.790
REMARK INTER + INTRA:          -4.171
REMARK INTER:                  -4.043
REMARK INTRA:                  -0.128
REMARK UNBOUND:                -0.069
REMARK SMILES CSCC[C@H]([NH3+])C(=O)[O-]
REMARK SMILES IDX 4 1 5 2 6 3 7 7 8 8 9 9 3 10 2 11 1 12
REMARK H PARENT 6 4 6 5 6 6
REMARK Flexibility Score: inf
ROOT
ATOM      1  C   UNL     1      23.543  -2.099   2.018  1.00  0.00     0.082 C 
ENDROOT
BRANCH   1   2
ATOM      2  C   UNL     1      24.935  -1.738   1.452  1.00  0.00     0.228 C 
BRANCH   2   3
ATOM      3  N   UNL     1      25.475  -2.802   0.596  1.00  0.00    -0.350 N 
ATOM      4  H   UNL     1      24.693  -3.298   0.109  1.00  0.00     0.345 HD
ATOM      5  H   UNL     1      26.030  -3.494   1.149  1.00  0.00     0.345 HD
ATOM      6  H   UNL     1      26.098  -2.381  -0.133  1.00  0.00     0.345 HD
ENDBRANCH   2   3
BRANCH   2   7
ATOM      7  C   UNL     1      25.901  -1.375   2.553  1.00  0.00     0.099 C 
ATOM      8  O   UNL     1      26.841  -0.569   2.321  1.00  0.00    -0.544 OA
ATOM      9  O   UNL     1      25.739  -1.883   3.836  1.00  0.00    -0.544 OA
ENDBRANCH   2   7
ENDBRANCH   1   2
BRANCH   1  10
ATOM     10  C   UNL     1      22.972  -3.423   1.490  1.00  0.00     0.076 C 
BRANCH  10  11
ATOM     11  S   UNL     1      21.579  -3.106   0.349  1.00  0.00    -0.165 SA
ATOM     12  C   UNL     1      22.486  -3.514  -1.179  1.00  0.00     0.085 C 
ENDBRANCH  10  11
ENDBRANCH   1  10
TORSDOF 5
ENDMDL
MODEL 9
REMARK VINA RESULT:    -3.170     13.583     14.697
REMARK INTER + INTRA:          -4.073
REMARK INTER:                  -3.948
REMARK INTRA:                  -0.125
REMARK UNBOUND:                -0.069
REMARK SMILES CSCC[C@H]([NH3+])C(=O)[O-]
REMARK SMILES IDX 4 1 5 2 6 3 7 7 8 8 9 9 3 10 2 11 1 12
REMARK H PARENT 6 4 6 5 6 6
REMARK Flexibility Score: inf
ROOT
ATOM      1  C   UNL     1      33.467  -2.981  11.389  1.00  0.00     0.082 C 
ENDROOT
BRANCH   1   2
ATOM      2  C   UNL     1      33.509  -3.818  10.090  1.00  0.00     0.228 C 
BRANCH   2   3
ATOM      3  N   UNL     1      33.630  -2.974   8.894  1.00  0.00    -0.350 N 
ATOM      4  H   UNL     1      32.738  -2.450   8.736  1.00  0.00     0.345 HD
ATOM      5  H   UNL     1      33.850  -3.543   8.044  1.00  0.00     0.345 HD
ATOM      6  H   UNL     1      34.397  -2.276   9.036  1.00  0.00     0.345 HD
ENDBRANCH   2   3
BRANCH   2   7
ATOM      7  C   UNL     1      32.321  -4.743   9.991  1.00  0.00     0.099 C 
ATOM      8  O   UNL     1      31.158  -4.287  10.151  1.00  0.00    -0.544 OA
ATOM      9  O   UNL     1      32.489  -6.086   9.675  1.00  0.00    -0.544 OA
ENDBRANCH   2   7
ENDBRANCH   1   2
BRANCH   1  10
ATOM     10  C   UNL     1      34.109  -3.668  12.602  1.00  0.00     0.076 C 
BRANCH  10  11
ATOM     11  S   UNL     1      32.820  -4.269  13.751  1.00  0.00    -0.165 SA
ATOM     12  C   UNL     1      33.653  -5.836  14.170  1.00  0.00     0.085 C 
ENDBRANCH  10  11
ENDBRANCH   1  10
TORSDOF 5
ENDMDL
