MODEL 1
REMARK VINA RESULT:    -3.610      0.000      0.000
REMARK INTER + INTRA:          -8.022
REMARK INTER:                  -6.353
REMARK INTRA:                  -1.669
REMARK UNBOUND:                -1.669
REMARK SMILES CCCCCCC=CCCCCCCCC(=O)[O-]
REMARK SMILES IDX 10 1 11 2 12 3 13 4 14 5 15 6 16 7 17 8 18 9 9 10 8 11 7 12
REMARK SMILES IDX 6 13 5 14 4 15 3 16 2 17 1 18
REMARK H PARENT
REMARK Flexibility Score: inf
ROOT
ATOM      1  C   UNL     1      65.431  28.290  60.705  1.00  0.00     0.004 C 
ENDROOT
BRANCH   1   2
ATOM      2  C   UNL     1      64.556  27.351  59.848  1.00  0.00     0.000 C 
BRANCH   2   3
ATOM      3  C   UNL     1      63.746  26.311  60.643  1.00  0.00     0.000 C 
BRANCH   3   4
ATOM      4  C   UNL     1      62.245  26.624  60.782  1.00  0.00     0.000 C 
BRANCH   4   5
ATOM      5  C   UNL     1      61.817  26.987  62.221  1.00  0.00     0.006 C 
BRANCH   5   6
ATOM      6  C   UNL     1      61.551  25.749  63.085  1.00  0.00     0.053 C 
BRANCH   6   7
ATOM      7  C   UNL     1      60.081  25.495  63.197  1.00  0.00     0.041 C 
ATOM      8  O   UNL     1      59.264  26.215  62.564  1.00  0.00    -0.550 OA
ATOM      9  O   UNL     1      59.615  24.433  63.960  1.00  0.00    -0.550 OA
ENDBRANCH   6   7
ENDBRANCH   5   6
ENDBRANCH   4   5
ENDBRANCH   3   4
ENDBRANCH   2   3
ENDBRANCH   1   2
BRANCH   1  10
ATOM     10  C   UNL     1      65.017  29.771  60.653  1.00  0.00     0.027 C 
BRANCH  10  11
ATOM     11  C   UNL     1      63.785  30.057  61.470  1.00  0.00    -0.031 C 
ATOM     12  C   UNL     1      62.638  30.451  60.900  1.00  0.00    -0.031 C 
BRANCH  12  13
ATOM     13  C   UNL     1      61.424  30.738  61.740  1.00  0.00     0.027 C 
BRANCH  13  14
ATOM     14  C   UNL     1      60.762  32.059  61.323  1.00  0.00     0.004 C 
BRANCH  14  15
ATOM     15  C   UNL     1      61.533  32.789  60.207  1.00  0.00     0.000 C 
BRANCH  15  16
ATOM     16  C   UNL     1      61.559  34.325  60.327  1.00  0.00    -0.000 C 
BRANCH  16  17
ATOM     17  C   UNL     1      62.817  34.904  61.000  1.00  0.00    -0.003 C 
ATOM     18  C   UNL     1      63.998  33.936  60.984  1.00  0.00     0.004 C 
ENDBRANCH  16  17
ENDBRANCH  15  16
ENDBRANCH  14  15
ENDBRANCH  13  14
ENDBRANCH  12  13
ENDBRANCH  10  11
ENDBRANCH   1  10
TORSDOF 13
ENDMDL
MODEL 2
REMARK VINA RESULT:    -3.475      4.987      6.528
REMARK INTER + INTRA:          -7.784
REMARK INTER:                  -6.885
REMARK INTRA:                  -0.899
REMARK UNBOUND:                -1.669
REMARK SMILES CCCCCCC=CCCCCCCCC(=O)[O-]
REMARK SMILES IDX 10 1 11 2 12 3 13 4 14 5 15 6 16 7 17 8 18 9 9 10 8 11 7 12
REMARK SMILES IDX 6 13 5 14 4 15 3 16 2 17 1 18
REMARK H PARENT
REMARK Flexibility Score: inf
ROOT
ATOM      1  C   UNL     1      64.178  29.117  60.181  1.00  0.00     0.004 C 
ENDROOT
BRANCH   1   2
ATOM      2  C   UNL     1      65.553  29.592  60.696  1.00  0.00     0.000 C 
BRANCH   2   3
ATOM      3  C   UNL     1      66.539  28.464  61.052  1.00  0.00     0.000 C 
BRANCH   3   4
ATOM      4  C   UNL     1      67.844  28.931  61.725  1.00  0.00     0.000 C 
BRANCH   4   5
ATOM      5  C   UNL     1      68.905  29.449  60.730  1.00  0.00     0.006 C 
BRANCH   5   6
ATOM      6  C   UNL     1      70.156  29.989  61.432  1.00  0.00     0.053 C 
BRANCH   6   7
ATOM      7  C   UNL     1      70.866  30.970  60.555  1.00  0.00     0.041 C 
ATOM      8  O   UNL     1      72.054  31.302  60.809  1.00  0.00    -0.550 OA
ATOM      9  O   UNL     1      70.235  31.481  59.429  1.00  0.00    -0.550 OA
ENDBRANCH   6   7
ENDBRANCH   5   6
ENDBRANCH   4   5
ENDBRANCH   3   4
ENDBRANCH   2   3
ENDBRANCH   1   2
BRANCH   1  10
ATOM     10  C   UNL     1      63.155  28.807  61.287  1.00  0.00     0.027 C 
BRANCH  10  11
ATOM     11  C   UNL     1      62.393  30.027  61.731  1.00  0.00    -0.031 C 
ATOM     12  C   UNL     1      61.637  30.734  60.881  1.00  0.00    -0.031 C 
BRANCH  12  13
ATOM     13  C   UNL     1      60.891  31.953  61.348  1.00  0.00     0.027 C 
BRANCH  13  14
ATOM     14  C   UNL     1      61.298  33.194  60.541  1.00  0.00     0.004 C 
BRANCH  14  15
ATOM     15  C   UNL     1      62.753  33.132  60.041  1.00  0.00     0.000 C 
BRANCH  15  16
ATOM     16  C   UNL     1      63.796  33.769  60.982  1.00  0.00    -0.000 C 
BRANCH  16  17
ATOM     17  C   UNL     1      63.521  35.237  61.357  1.00  0.00    -0.003 C 
ATOM     18  C   UNL     1      64.758  35.957  61.889  1.00  0.00     0.004 C 
ENDBRANCH  16  17
ENDBRANCH  15  16
ENDBRANCH  14  15
ENDBRANCH  13  14
ENDBRANCH  12  13
ENDBRANCH  10  11
ENDBRANCH   1  10
TORSDOF 13
ENDMDL
MODEL 3
REMARK VINA RESULT:    -3.460     12.523     13.537
REMARK INTER + INTRA:          -7.758
REMARK INTER:                  -6.868
REMARK INTRA:                  -0.890
REMARK UNBOUND:                -1.669
REMARK SMILES CCCCCCC=CCCCCCCCC(=O)[O-]
REMARK SMILES IDX 10 1 11 2 12 3 13 4 14 5 15 6 16 7 17 8 18 9 9 10 8 11 7 12
REMARK SMILES IDX 6 13 5 14 4 15 3 16 2 17 1 18
REMARK H PARENT
REMARK Flexibility Score: inf
ROOT
ATOM      1  C   UNL     1      59.780  24.586  50.956  1.00  0.00     0.004 C 
ENDROOT
BRANCH   1   2
ATOM      2  C   UNL     1      60.485  23.222  51.114  1.00  0.00     0.000 C 
BRANCH   2   3
ATOM      3  C   UNL     1      61.120  22.664  49.826  1.00  0.00     0.000 C 
BRANCH   3   4
ATOM      4  C   UNL     1      60.273  21.612  49.087  1.00  0.00     0.000 C 
BRANCH   4   5
ATOM      5  C   UNL     1      59.931  20.375  49.946  1.00  0.00     0.006 C 
BRANCH   5   6
ATOM      6  C   UNL     1      58.729  19.594  49.400  1.00  0.00     0.053 C 
BRANCH   6   7
ATOM      7  C   UNL     1      58.757  18.182  49.891  1.00  0.00     0.041 C 
ATOM      8  O   UNL     1      59.700  17.415  49.561  1.00  0.00    -0.550 OA
ATOM      9  O   UNL     1      57.768  17.725  50.752  1.00  0.00    -0.550 OA
ENDBRANCH   6   7
ENDBRANCH   5   6
ENDBRANCH   4   5
ENDBRANCH   3   4
ENDBRANCH   2   3
ENDBRANCH   1   2
BRANCH   1  10
ATOM     10  C   UNL     1      60.264  25.418  49.756  1.00  0.00     0.027 C 
BRANCH  10  11
ATOM     11  C   UNL     1      59.372  26.596  49.469  1.00  0.00    -0.031 C 
ATOM     12  C   UNL     1      59.852  27.846  49.412  1.00  0.00    -0.031 C 
BRANCH  12  13
ATOM     13  C   UNL     1      58.939  29.006  49.131  1.00  0.00     0.027 C 
BRANCH  13  14
ATOM     14  C   UNL     1      58.062  29.328  50.349  1.00  0.00     0.004 C 
BRANCH  14  15
ATOM     15  C   UNL     1      56.583  28.955  50.137  1.00  0.00     0.000 C 
BRANCH  15  16
ATOM     16  C   UNL     1      56.136  27.645  50.817  1.00  0.00    -0.000 C 
BRANCH  16  17
ATOM     17  C   UNL     1      55.313  26.698  49.924  1.00  0.00    -0.003 C 
ATOM     18  C   UNL     1      53.876  27.173  49.718  1.00  0.00     0.004 C 
ENDBRANCH  16  17
ENDBRANCH  15  16
ENDBRANCH  14  15
ENDBRANCH  13  14
ENDBRANCH  12  13
ENDBRANCH  10  11
ENDBRANCH   1  10
TORSDOF 13
ENDMDL
MODEL 4
REMARK VINA RESULT:    -3.414      5.719      7.605
REMARK INTER + INTRA:          -7.677
REMARK INTER:                  -6.929
REMARK INTRA:                  -0.748
REMARK UNBOUND:                -1.669
REMARK SMILES CCCCCCC=CCCCCCCCC(=O)[O-]
REMARK SMILES IDX 10 1 11 2 12 3 13 4 14 5 15 6 16 7 17 8 18 9 9 10 8 11 7 12
REMARK SMILES IDX 6 13 5 14 4 15 3 16 2 17 1 18
REMARK H PARENT
REMARK Flexibility Score: inf
ROOT
ATOM      1  C   UNL     1      66.895  29.268  60.821  1.00  0.00     0.004 C 
ENDROOT
BRANCH   1   2
ATOM      2  C   UNL     1      68.129  28.939  61.688  1.00  0.00     0.000 C 
BRANCH   2   3
ATOM      3  C   UNL     1      69.488  29.173  61.001  1.00  0.00     0.000 C 
BRANCH   3   4
ATOM      4  C   UNL     1      70.308  30.347  61.566  1.00  0.00     0.000 C 
BRANCH   4   5
ATOM      5  C   UNL     1      71.479  30.781  60.658  1.00  0.00     0.006 C 
BRANCH   5   6
ATOM      6  C   UNL     1      71.665  32.302  60.624  1.00  0.00     0.053 C 
BRANCH   6   7
ATOM      7  C   UNL     1      70.915  32.895  59.474  1.00  0.00     0.041 C 
ATOM      8  O   UNL     1      70.350  32.148  58.632  1.00  0.00    -0.550 OA
ATOM      9  O   UNL     1      70.797  34.274  59.357  1.00  0.00    -0.550 OA
ENDBRANCH   6   7
ENDBRANCH   5   6
ENDBRANCH   4   5
ENDBRANCH   3   4
ENDBRANCH   2   3
ENDBRANCH   1   2
BRANCH   1  10
ATOM     10  C   UNL     1      65.885  28.115  60.687  1.00  0.00     0.027 C 
BRANCH  10  11
ATOM     11  C   UNL     1      64.458  28.575  60.818  1.00  0.00    -0.031 C 
ATOM     12  C   UNL     1      64.150  29.779  61.320  1.00  0.00    -0.031 C 
BRANCH  12  13
ATOM     13  C   UNL     1      62.716  30.213  61.447  1.00  0.00     0.027 C 
BRANCH  13  14
ATOM     14  C   UNL     1      62.541  31.679  61.027  1.00  0.00     0.004 C 
BRANCH  14  15
ATOM     15  C   UNL     1      63.875  32.445  60.959  1.00  0.00     0.000 C 
BRANCH  15  16
ATOM     16  C   UNL     1      63.763  33.915  60.508  1.00  0.00    -0.000 C 
BRANCH  16  17
ATOM     17  C   UNL     1      64.191  34.952  61.563  1.00  0.00    -0.003 C 
ATOM     18  C   UNL     1      63.352  36.228  61.517  1.00  0.00     0.004 C 
ENDBRANCH  16  17
ENDBRANCH  15  16
ENDBRANCH  14  15
ENDBRANCH  13  14
ENDBRANCH  12  13
ENDBRANCH  10  11
ENDBRANCH   1  10
TORSDOF 13
ENDMDL
MODEL 5
REMARK VINA RESULT:    -3.368      2.628      4.911
REMARK INTER + INTRA:          -7.597
REMARK INTER:                  -5.924
REMARK INTRA:                  -1.673
REMARK UNBOUND:                -1.669
REMARK SMILES CCCCCCC=CCCCCCCCC(=O)[O-]
REMARK SMILES IDX 10 1 11 2 12 3 13 4 14 5 15 6 16 7 17 8 18 9 9 10 8 11 7 12
REMARK SMILES IDX 6 13 5 14 4 15 3 16 2 17 1 18
REMARK H PARENT
REMARK Flexibility Score: inf
ROOT
ATOM      1  C   UNL     1      63.219  32.269  59.373  1.00  0.00     0.004 C 
ENDROOT
BRANCH   1   2
ATOM      2  C   UNL     1      61.704  32.496  59.561  1.00  0.00     0.000 C 
BRANCH   2   3
ATOM      3  C   UNL     1      61.242  32.634  61.023  1.00  0.00     0.000 C 
BRANCH   3   4
ATOM      4  C   UNL     1      60.636  31.357  61.636  1.00  0.00     0.000 C 
BRANCH   4   5
ATOM      5  C   UNL     1      61.196  30.052  61.031  1.00  0.00     0.006 C 
BRANCH   5   6
ATOM      6  C   UNL     1      62.425  29.533  61.787  1.00  0.00     0.053 C 
BRANCH   6   7
ATOM      7  C   UNL     1      63.133  28.490  60.982  1.00  0.00     0.041 C 
ATOM      8  O   UNL     1      63.054  27.276  61.308  1.00  0.00    -0.550 OA
ATOM      9  O   UNL     1      63.839  28.852  59.842  1.00  0.00    -0.550 OA
ENDBRANCH   6   7
ENDBRANCH   5   6
ENDBRANCH   4   5
ENDBRANCH   3   4
ENDBRANCH   2   3
ENDBRANCH   1   2
BRANCH   1  10
ATOM     10  C   UNL     1      64.090  32.813  60.519  1.00  0.00     0.027 C 
BRANCH  10  11
ATOM     11  C   UNL     1      64.158  34.317  60.533  1.00  0.00    -0.031 C 
ATOM     12  C   UNL     1      64.204  35.009  61.679  1.00  0.00    -0.031 C 
BRANCH  12  13
ATOM     13  C   UNL     1      64.264  36.512  61.666  1.00  0.00     0.027 C 
BRANCH  13  14
ATOM     14  C   UNL     1      63.261  37.097  60.663  1.00  0.00     0.004 C 
BRANCH  14  15
ATOM     15  C   UNL     1      61.810  37.058  61.176  1.00  0.00     0.000 C 
BRANCH  15  16
ATOM     16  C   UNL     1      60.851  36.169  60.360  1.00  0.00    -0.000 C 
BRANCH  16  17
ATOM     17  C   UNL     1      60.624  36.621  58.906  1.00  0.00    -0.003 C 
ATOM     18  C   UNL     1      61.179  35.632  57.882  1.00  0.00     0.004 C 
ENDBRANCH  16  17
ENDBRANCH  15  16
ENDBRANCH  14  15
ENDBRANCH  13  14
ENDBRANCH  12  13
ENDBRANCH  10  11
ENDBRANCH   1  10
TORSDOF 13
ENDMDL
MODEL 6
REMARK VINA RESULT:    -3.335      4.477      5.803
REMARK INTER + INTRA:          -7.538
REMARK INTER:                  -6.589
REMARK INTRA:                  -0.949
REMARK UNBOUND:                -1.669
REMARK SMILES CCCCCCC=CCCCCCCCC(=O)[O-]
REMARK SMILES IDX 10 1 11 2 12 3 13 4 14 5 15 6 16 7 17 8 18 9 9 10 8 11 7 12
REMARK SMILES IDX 6 13 5 14 4 15 3 16 2 17 1 18
REMARK H PARENT
REMARK Flexibility Score: inf
ROOT
ATOM      1  C   UNL     1      62.592  30.613  61.817  1.00  0.00     0.004 C 
ENDROOT
BRANCH   1   2
ATOM      2  C   UNL     1      63.341  29.967  60.632  1.00  0.00     0.000 C 
BRANCH   2   3
ATOM      3  C   UNL     1      64.877  30.022  60.725  1.00  0.00     0.000 C 
BRANCH   3   4
ATOM      4  C   UNL     1      65.559  28.671  61.010  1.00  0.00     0.000 C 
BRANCH   4   5
ATOM      5  C   UNL     1      67.046  28.627  60.597  1.00  0.00     0.006 C 
BRANCH   5   6
ATOM      6  C   UNL     1      67.983  29.081  61.723  1.00  0.00     0.053 C 
BRANCH   6   7
ATOM      7  C   UNL     1      69.384  29.214  61.217  1.00  0.00     0.041 C 
ATOM      8  O   UNL     1      69.824  28.411  60.352  1.00  0.00    -0.550 OA
ATOM      9  O   UNL     1      70.189  30.255  61.663  1.00  0.00    -0.550 OA
ENDBRANCH   6   7
ENDBRANCH   5   6
ENDBRANCH   4   5
ENDBRANCH   3   4
ENDBRANCH   2   3
ENDBRANCH   1   2
BRANCH   1  10
ATOM     10  C   UNL     1      61.098  30.877  61.560  1.00  0.00     0.027 C 
BRANCH  10  11
ATOM     11  C   UNL     1      60.847  32.213  60.915  1.00  0.00    -0.031 C 
ATOM     12  C   UNL     1      60.734  32.344  59.586  1.00  0.00    -0.031 C 
BRANCH  12  13
ATOM     13  C   UNL     1      60.490  33.692  58.966  1.00  0.00     0.027 C 
BRANCH  13  14
ATOM     14  C   UNL     1      61.809  34.446  58.743  1.00  0.00     0.004 C 
BRANCH  14  15
ATOM     15  C   UNL     1      61.854  35.801  59.473  1.00  0.00     0.000 C 
BRANCH  15  16
ATOM     16  C   UNL     1      62.270  35.732  60.956  1.00  0.00    -0.000 C 
BRANCH  16  17
ATOM     17  C   UNL     1      63.579  34.968  61.229  1.00  0.00    -0.003 C 
ATOM     18  C   UNL     1      64.629  35.821  61.937  1.00  0.00     0.004 C 
ENDBRANCH  16  17
ENDBRANCH  15  16
ENDBRANCH  14  15
ENDBRANCH  13  14
ENDBRANCH  12  13
ENDBRANCH  10  11
ENDBRANCH   1  10
TORSDOF 13
ENDMDL
MODEL 7
REMARK VINA RESULT:    -3.319     11.832     13.398
REMARK INTER + INTRA:          -7.510
REMARK INTER:                  -5.432
REMARK INTRA:                  -2.078
REMARK UNBOUND:                -1.669
REMARK SMILES CCCCCCC=CCCCCCCCC(=O)[O-]
REMARK SMILES IDX 10 1 11 2 12 3 13 4 14 5 15 6 16 7 17 8 18 9 9 10 8 11 7 12
REMARK SMILES IDX 6 13 5 14 4 15 3 16 2 17 1 18
REMARK H PARENT
REMARK Flexibility Score: inf
ROOT
ATOM      1  C   UNL     1      58.440  25.535  50.058  1.00  0.00     0.004 C 
ENDROOT
BRANCH   1   2
ATOM      2  C   UNL     1      59.945  25.830  49.890  1.00  0.00     0.000 C 
BRANCH   2   3
ATOM      3  C   UNL     1      60.320  27.324  49.900  1.00  0.00     0.000 C 
BRANCH   3   4
ATOM      4  C   UNL     1      59.377  28.236  49.094  1.00  0.00     0.000 C 
BRANCH   4   5
ATOM      5  C   UNL     1      59.091  29.591  49.776  1.00  0.00     0.006 C 
BRANCH   5   6
ATOM      6  C   UNL     1      59.622  29.650  51.213  1.00  0.00     0.053 C 
BRANCH   6   7
ATOM      7  C   UNL     1      58.680  30.415  52.088  1.00  0.00     0.041 C 
ATOM      8  O   UNL     1      59.123  31.270  52.900  1.00  0.00    -0.550 OA
ATOM      9  O   UNL     1      57.310  30.221  51.972  1.00  0.00    -0.550 OA
ENDBRANCH   6   7
ENDBRANCH   5   6
ENDBRANCH   4   5
ENDBRANCH   3   4
ENDBRANCH   2   3
ENDBRANCH   1   2
BRANCH   1  10
ATOM     10  C   UNL     1      57.873  25.885  51.445  1.00  0.00     0.027 C 
BRANCH  10  11
ATOM     11  C   UNL     1      56.781  26.919  51.380  1.00  0.00    -0.031 C 
ATOM     12  C   UNL     1      56.095  27.150  50.253  1.00  0.00    -0.031 C 
BRANCH  12  13
ATOM     13  C   UNL     1      55.013  28.193  50.213  1.00  0.00     0.027 C 
BRANCH  13  14
ATOM     14  C   UNL     1      53.697  27.607  49.682  1.00  0.00     0.004 C 
BRANCH  14  15
ATOM     15  C   UNL     1      53.801  26.107  49.350  1.00  0.00     0.000 C 
BRANCH  15  16
ATOM     16  C   UNL     1      52.914  25.184  50.209  1.00  0.00    -0.000 C 
BRANCH  16  17
ATOM     17  C   UNL     1      53.470  24.867  51.609  1.00  0.00    -0.003 C 
ATOM     18  C   UNL     1      52.875  25.754  52.701  1.00  0.00     0.004 C 
ENDBRANCH  16  17
ENDBRANCH  15  16
ENDBRANCH  14  15
ENDBRANCH  13  14
ENDBRANCH  12  13
ENDBRANCH  10  11
ENDBRANCH   1  10
TORSDOF 13
ENDMDL
MODEL 8
REMARK VINA RESULT:    -3.290      3.514      6.104
REMARK INTER + INTRA:          -7.459
REMARK INTER:                  -5.594
REMARK INTRA:                  -1.866
REMARK UNBOUND:                -1.669
REMARK SMILES CCCCCCC=CCCCCCCCC(=O)[O-]
REMARK SMILES IDX 10 1 11 2 12 3 13 4 14 5 15 6 16 7 17 8 18 9 9 10 8 11 7 12
REMARK SMILES IDX 6 13 5 14 4 15 3 16 2 17 1 18
REMARK H PARENT
REMARK Flexibility Score: inf
ROOT
ATOM      1  C   UNL     1      64.253  35.414  61.750  1.00  0.00     0.004 C 
ENDROOT
BRANCH   1   2
ATOM      2  C   UNL     1      64.130  34.396  60.597  1.00  0.00     0.000 C 
BRANCH   2   3
ATOM      3  C   UNL     1      63.439  33.071  60.969  1.00  0.00     0.000 C 
BRANCH   3   4
ATOM      4  C   UNL     1      62.319  32.631  60.008  1.00  0.00     0.000 C 
BRANCH   4   5
ATOM      5  C   UNL     1      60.931  32.532  60.675  1.00  0.00     0.006 C 
BRANCH   5   6
ATOM      6  C   UNL     1      60.886  31.479  61.788  1.00  0.00     0.053 C 
BRANCH   6   7
ATOM      7  C   UNL     1      61.287  30.139  61.258  1.00  0.00     0.041 C 
ATOM      8  O   UNL     1      62.269  29.529  61.756  1.00  0.00    -0.550 OA
ATOM      9  O   UNL     1      60.546  29.541  60.246  1.00  0.00    -0.550 OA
ENDBRANCH   6   7
ENDBRANCH   5   6
ENDBRANCH   4   5
ENDBRANCH   3   4
ENDBRANCH   2   3
ENDBRANCH   1   2
BRANCH   1  10
ATOM     10  C   UNL     1      63.290  36.610  61.649  1.00  0.00     0.027 C 
BRANCH  10  11
ATOM     11  C   UNL     1      62.352  36.502  60.477  1.00  0.00    -0.031 C 
ATOM     12  C   UNL     1      61.054  36.212  60.637  1.00  0.00    -0.031 C 
BRANCH  12  13
ATOM     13  C   UNL     1      60.139  36.103  59.449  1.00  0.00     0.027 C 
BRANCH  13  14
ATOM     14  C   UNL     1      60.925  35.763  58.175  1.00  0.00     0.004 C 
BRANCH  14  15
ATOM     15  C   UNL     1      60.117  34.904  57.184  1.00  0.00     0.000 C 
BRANCH  15  16
ATOM     16  C   UNL     1      59.100  33.943  57.830  1.00  0.00    -0.000 C 
BRANCH  16  17
ATOM     17  C   UNL     1      57.697  33.958  57.194  1.00  0.00    -0.003 C 
ATOM     18  C   UNL     1      57.700  33.498  55.738  1.00  0.00     0.004 C 
ENDBRANCH  16  17
ENDBRANCH  15  16
ENDBRANCH  14  15
ENDBRANCH  13  14
ENDBRANCH  12  13
ENDBRANCH  10  11
ENDBRANCH   1  10
TORSDOF 13
ENDMDL
MODEL 9
REMARK VINA RESULT:    -3.282     11.513     13.232
REMARK INTER + INTRA:          -7.444
REMARK INTER:                  -5.417
REMARK INTRA:                  -2.027
REMARK UNBOUND:                -1.669
REMARK SMILES CCCCCCC=CCCCCCCCC(=O)[O-]
REMARK SMILES IDX 10 1 11 2 12 3 13 4 14 5 15 6 16 7 17 8 18 9 9 10 8 11 7 12
REMARK SMILES IDX 6 13 5 14 4 15 3 16 2 17 1 18
REMARK H PARENT
REMARK Flexibility Score: inf
ROOT
ATOM      1  C   UNL     1      53.753  29.958  50.521  1.00  0.00     0.004 C 
ENDROOT
BRANCH   1   2
ATOM      2  C   UNL     1      53.071  30.309  51.860  1.00  0.00     0.000 C 
BRANCH   2   3
ATOM      3  C   UNL     1      54.001  30.304  53.086  1.00  0.00     0.000 C 
BRANCH   3   4
ATOM      4  C   UNL     1      54.829  29.018  53.268  1.00  0.00     0.000 C 
BRANCH   4   5
ATOM      5  C   UNL     1      56.334  29.275  53.500  1.00  0.00     0.006 C 
BRANCH   5   6
ATOM      6  C   UNL     1      56.998  29.983  52.313  1.00  0.00     0.053 C 
BRANCH   6   7
ATOM      7  C   UNL     1      57.683  31.233  52.766  1.00  0.00     0.041 C 
ATOM      8  O   UNL     1      57.006  32.233  53.123  1.00  0.00    -0.550 OA
ATOM      9  O   UNL     1      59.069  31.279  52.842  1.00  0.00    -0.550 OA
ENDBRANCH   6   7
ENDBRANCH   5   6
ENDBRANCH   4   5
ENDBRANCH   3   4
ENDBRANCH   2   3
ENDBRANCH   1   2
BRANCH   1  10
ATOM     10  C   UNL     1      53.127  28.764  49.781  1.00  0.00     0.027 C 
BRANCH  10  11
ATOM     11  C   UNL     1      53.931  27.500  49.932  1.00  0.00    -0.031 C 
ATOM     12  C   UNL     1      55.267  27.524  50.040  1.00  0.00    -0.031 C 
BRANCH  12  13
ATOM     13  C   UNL     1      56.048  26.247  50.183  1.00  0.00     0.027 C 
BRANCH  13  14
ATOM     14  C   UNL     1      57.449  26.516  50.750  1.00  0.00     0.004 C 
BRANCH  14  15
ATOM     15  C   UNL     1      58.575  26.094  49.788  1.00  0.00     0.000 C 
BRANCH  15  16
ATOM     16  C   UNL     1      59.567  27.213  49.413  1.00  0.00    -0.000 C 
BRANCH  16  17
ATOM     17  C   UNL     1      58.935  28.604  49.221  1.00  0.00    -0.003 C 
ATOM     18  C   UNL     1      59.794  29.731  49.792  1.00  0.00     0.004 C 
ENDBRANCH  16  17
ENDBRANCH  15  16
ENDBRANCH  14  15
ENDBRANCH  13  14
ENDBRANCH  12  13
ENDBRANCH  10  11
ENDBRANCH   1  10
TORSDOF 13
ENDMDL
