MODEL 1
REMARK VINA RESULT:    18.631      0.000      0.000
REMARK INTER + INTRA:          34.268
REMARK INTER:                  34.968
REMARK INTRA:                  -0.700
REMARK UNBOUND:                -0.700
REMARK SMILES O=C([O-])CCCCCCCCCCCCCCC(=O)[O-]
REMARK SMILES IDX 10 1 9 2 8 3 7 4 6 5 5 6 4 7 2 8 1 9 3 10 11 11 12 12 13 13
REMARK SMILES IDX 14 14 15 15 16 16 17 17 18 18 19 19 20 20
REMARK H PARENT
REMARK Flexibility Score: inf
ROOT
ATOM      1  C   UNL     1      56.945  46.992  22.686  1.00  0.00     0.000 C 
ENDROOT
BRANCH   1   2
ATOM      2  C   UNL     1      57.335  47.682  21.366  1.00  0.00     0.000 C 
BRANCH   2   3
ATOM      3  C   UNL     1      56.127  48.314  20.654  1.00  0.00     0.000 C 
BRANCH   3   4
ATOM      4  C   UNL     1      55.933  47.769  19.229  1.00  0.00     0.000 C 
BRANCH   4   5
ATOM      5  C   UNL     1      57.219  47.839  18.388  1.00  0.00     0.000 C 
BRANCH   5   6
ATOM      6  C   UNL     1      57.007  48.550  17.039  1.00  0.00     0.006 C 
BRANCH   6   7
ATOM      7  C   UNL     1      55.568  49.057  16.874  1.00  0.00     0.053 C 
BRANCH   7   8
ATOM      8  C   UNL     1      55.479  50.158  15.862  1.00  0.00     0.041 C 
ATOM      9  O   UNL     1      54.525  50.190  15.041  1.00  0.00    -0.550 OA
ATOM     10  O   UNL     1      56.466  51.134  15.808  1.00  0.00    -0.550 OA
ENDBRANCH   7   8
ENDBRANCH   6   7
ENDBRANCH   5   6
ENDBRANCH   4   5
ENDBRANCH   3   4
ENDBRANCH   2   3
ENDBRANCH   1   2
BRANCH   1  11
ATOM     11  C   UNL     1      56.795  45.467  22.542  1.00  0.00     0.000 C 
BRANCH  11  12
ATOM     12  C   UNL     1      56.740  44.941  21.092  1.00  0.00     0.000 C 
BRANCH  12  13
ATOM     13  C   UNL     1      56.719  43.406  20.953  1.00  0.00     0.000 C 
BRANCH  13  14
ATOM     14  C   UNL     1      55.319  42.802  20.742  1.00  0.00     0.000 C 
BRANCH  14  15
ATOM     15  C   UNL     1      55.115  41.449  21.463  1.00  0.00     0.000 C 
BRANCH  15  16
ATOM     16  C   UNL     1      55.276  40.220  20.545  1.00  0.00     0.006 C 
BRANCH  16  17
ATOM     17  C   UNL     1      55.579  38.919  21.306  1.00  0.00     0.053 C 
BRANCH  17  18
ATOM     18  C   UNL     1      56.994  38.467  21.123  1.00  0.00     0.041 C 
ATOM     19  O   UNL     1      57.350  37.325  21.515  1.00  0.00    -0.550 OA
ATOM     20  O   UNL     1      57.928  39.321  20.550  1.00  0.00    -0.550 OA
ENDBRANCH  17  18
ENDBRANCH  16  17
ENDBRANCH  15  16
ENDBRANCH  14  15
ENDBRANCH  13  14
ENDBRANCH  12  13
ENDBRANCH  11  12
ENDBRANCH   1  11
TORSDOF 15
ENDMDL
MODEL 2
REMARK VINA RESULT:    19.240      0.667      9.481
REMARK INTER + INTRA:          35.411
REMARK INTER:                  36.082
REMARK INTRA:                  -0.671
REMARK UNBOUND:                -0.700
REMARK SMILES O=C([O-])CCCCCCCCCCCCCCC(=O)[O-]
REMARK SMILES IDX 10 1 9 2 8 3 7 4 6 5 5 6 4 7 2 8 1 9 3 10 11 11 12 12 13 13
REMARK SMILES IDX 14 14 15 15 16 16 17 17 18 18 19 19 20 20
REMARK H PARENT
REMARK Flexibility Score: inf
ROOT
ATOM      1  C   UNL     1      56.502  45.827  22.384  1.00  0.00     0.000 C 
ENDROOT
BRANCH   1   2
ATOM      2  C   UNL     1      56.713  44.882  21.187  1.00  0.00     0.000 C 
BRANCH   2   3
ATOM      3  C   UNL     1      56.649  43.400  21.590  1.00  0.00     0.000 C 
BRANCH   3   4
ATOM      4  C   UNL     1      55.652  42.600  20.734  1.00  0.00     0.000 C 
BRANCH   4   5
ATOM      5  C   UNL     1      55.160  41.323  21.436  1.00  0.00     0.000 C 
BRANCH   5   6
ATOM      6  C   UNL     1      55.297  40.070  20.553  1.00  0.00     0.006 C 
BRANCH   6   7
ATOM      7  C   UNL     1      56.713  39.481  20.602  1.00  0.00     0.053 C 
BRANCH   7   8
ATOM      8  C   UNL     1      56.782  38.268  21.477  1.00  0.00     0.041 C 
ATOM      9  O   UNL     1      57.326  37.212  21.058  1.00  0.00    -0.550 OA
ATOM     10  O   UNL     1      56.220  38.295  22.747  1.00  0.00    -0.550 OA
ENDBRANCH   7   8
ENDBRANCH   6   7
ENDBRANCH   5   6
ENDBRANCH   4   5
ENDBRANCH   3   4
ENDBRANCH   2   3
ENDBRANCH   1   2
BRANCH   1  11
ATOM     11  C   UNL     1      57.545  46.958  22.444  1.00  0.00     0.000 C 
BRANCH  11  12
ATOM     12  C   UNL     1      57.556  47.915  21.233  1.00  0.00     0.000 C 
BRANCH  12  13
ATOM     13  C   UNL     1      56.172  48.214  20.624  1.00  0.00     0.000 C 
BRANCH  13  14
ATOM     14  C   UNL     1      55.965  47.656  19.204  1.00  0.00     0.000 C 
BRANCH  14  15
ATOM     15  C   UNL     1      57.218  47.775  18.305  1.00  0.00     0.000 C 
BRANCH  15  16
ATOM     16  C   UNL     1      56.989  48.598  17.019  1.00  0.00     0.006 C 
BRANCH  16  17
ATOM     17  C   UNL     1      55.574  49.190  16.912  1.00  0.00     0.053 C 
BRANCH  17  18
ATOM     18  C   UNL     1      55.473  50.236  15.846  1.00  0.00     0.041 C 
ATOM     19  O   UNL     1      56.343  51.142  15.763  1.00  0.00    -0.550 OA
ATOM     20  O   UNL     1      54.400  50.228  14.964  1.00  0.00    -0.550 OA
ENDBRANCH  17  18
ENDBRANCH  16  17
ENDBRANCH  15  16
ENDBRANCH  14  15
ENDBRANCH  13  14
ENDBRANCH  12  13
ENDBRANCH  11  12
ENDBRANCH   1  11
TORSDOF 15
ENDMDL
MODEL 3
REMARK VINA RESULT:    19.895      1.181      1.585
REMARK INTER + INTRA:          36.640
REMARK INTER:                  37.123
REMARK INTRA:                  -0.483
REMARK UNBOUND:                -0.700
REMARK SMILES O=C([O-])CCCCCCCCCCCCCCC(=O)[O-]
REMARK SMILES IDX 10 1 9 2 8 3 7 4 6 5 5 6 4 7 2 8 1 9 3 10 11 11 12 12 13 13
REMARK SMILES IDX 14 14 15 15 16 16 17 17 18 18 19 19 20 20
REMARK H PARENT
REMARK Flexibility Score: inf
ROOT
ATOM      1  C   UNL     1      56.360  47.288  21.440  1.00  0.00     0.000 C 
ENDROOT
BRANCH   1   2
ATOM      2  C   UNL     1      56.396  47.872  20.015  1.00  0.00     0.000 C 
BRANCH   2   3
ATOM      3  C   UNL     1      55.146  48.705  19.689  1.00  0.00     0.000 C 
BRANCH   3   4
ATOM      4  C   UNL     1      55.084  49.120  18.209  1.00  0.00     0.000 C 
BRANCH   4   5
ATOM      5  C   UNL     1      56.450  49.024  17.510  1.00  0.00     0.000 C 
BRANCH   5   6
ATOM      6  C   UNL     1      56.347  49.184  15.983  1.00  0.00     0.006 C 
BRANCH   6   7
ATOM      7  C   UNL     1      55.490  50.393  15.586  1.00  0.00     0.053 C 
BRANCH   7   8
ATOM      8  C   UNL     1      54.083  49.994  15.259  1.00  0.00     0.041 C 
ATOM      9  O   UNL     1      53.828  48.821  14.880  1.00  0.00    -0.550 OA
ATOM     10  O   UNL     1      53.058  50.927  15.347  1.00  0.00    -0.550 OA
ENDBRANCH   7   8
ENDBRANCH   6   7
ENDBRANCH   5   6
ENDBRANCH   4   5
ENDBRANCH   3   4
ENDBRANCH   2   3
ENDBRANCH   1   2
BRANCH   1  11
ATOM     11  C   UNL     1      56.476  45.753  21.460  1.00  0.00     0.000 C 
BRANCH  11  12
ATOM     12  C   UNL     1      55.940  45.032  20.205  1.00  0.00     0.000 C 
BRANCH  12  13
ATOM     13  C   UNL     1      56.068  43.496  20.228  1.00  0.00     0.000 C 
BRANCH  13  14
ATOM     14  C   UNL     1      54.737  42.747  20.421  1.00  0.00     0.000 C 
BRANCH  14  15
ATOM     15  C   UNL     1      54.851  41.516  21.351  1.00  0.00     0.000 C 
BRANCH  15  16
ATOM     16  C   UNL     1      55.403  40.254  20.653  1.00  0.00     0.006 C 
BRANCH  16  17
ATOM     17  C   UNL     1      55.774  39.125  21.628  1.00  0.00     0.053 C 
BRANCH  17  18
ATOM     18  C   UNL     1      57.022  38.407  21.220  1.00  0.00     0.041 C 
ATOM     19  O   UNL     1      57.979  39.043  20.704  1.00  0.00    -0.550 OA
ATOM     20  O   UNL     1      57.117  37.030  21.379  1.00  0.00    -0.550 OA
ENDBRANCH  17  18
ENDBRANCH  16  17
ENDBRANCH  15  16
ENDBRANCH  14  15
ENDBRANCH  13  14
ENDBRANCH  12  13
ENDBRANCH  11  12
ENDBRANCH   1  11
TORSDOF 15
ENDMDL
MODEL 4
REMARK VINA RESULT:    20.653      6.047      8.846
REMARK INTER + INTRA:          38.063
REMARK INTER:                  38.808
REMARK INTRA:                  -0.745
REMARK UNBOUND:                -0.700
REMARK SMILES O=C([O-])CCCCCCCCCCCCCCC(=O)[O-]
REMARK SMILES IDX 10 1 9 2 8 3 7 4 6 5 5 6 4 7 2 8 1 9 3 10 11 11 12 12 13 13
REMARK SMILES IDX 14 14 15 15 16 16 17 17 18 18 19 19 20 20
REMARK H PARENT
REMARK Flexibility Score: inf
ROOT
ATOM      1  C   UNL     1      54.858  53.212  19.196  1.00  0.00     0.000 C 
ENDROOT
BRANCH   1   2
ATOM      2  C   UNL     1      55.136  52.836  20.663  1.00  0.00     0.000 C 
BRANCH   2   3
ATOM      3  C   UNL     1      53.875  52.913  21.539  1.00  0.00     0.000 C 
BRANCH   3   4
ATOM      4  C   UNL     1      53.519  54.356  21.935  1.00  0.00     0.000 C 
BRANCH   4   5
ATOM      5  C   UNL     1      53.366  54.532  23.455  1.00  0.00     0.000 C 
BRANCH   5   6
ATOM      6  C   UNL     1      53.764  55.940  23.932  1.00  0.00     0.006 C 
BRANCH   6   7
ATOM      7  C   UNL     1      54.715  55.895  25.135  1.00  0.00     0.053 C 
BRANCH   7   8
ATOM      8  C   UNL     1      56.110  56.285  24.756  1.00  0.00     0.041 C 
ATOM      9  O   UNL     1      56.466  56.278  23.547  1.00  0.00    -0.550 OA
ATOM     10  O   UNL     1      57.028  56.629  25.740  1.00  0.00    -0.550 OA
ENDBRANCH   7   8
ENDBRANCH   6   7
ENDBRANCH   5   6
ENDBRANCH   4   5
ENDBRANCH   3   4
ENDBRANCH   2   3
ENDBRANCH   1   2
BRANCH   1  11
ATOM     11  C   UNL     1      55.752  52.448  18.203  1.00  0.00     0.000 C 
BRANCH  11  12
ATOM     12  C   UNL     1      55.002  51.671  17.099  1.00  0.00     0.000 C 
BRANCH  12  13
ATOM     13  C   UNL     1      55.848  50.628  16.343  1.00  0.00     0.000 C 
BRANCH  13  14
ATOM     14  C   UNL     1      55.651  49.178  16.822  1.00  0.00     0.000 C 
BRANCH  14  15
ATOM     15  C   UNL     1      56.975  48.393  16.974  1.00  0.00     0.000 C 
BRANCH  15  16
ATOM     16  C   UNL     1      57.271  47.939  18.419  1.00  0.00     0.006 C 
BRANCH  16  17
ATOM     17  C   UNL     1      56.068  48.081  19.366  1.00  0.00     0.053 C 
BRANCH  17  18
ATOM     18  C   UNL     1      56.193  47.214  20.580  1.00  0.00     0.041 C 
ATOM     19  O   UNL     1      55.817  46.014  20.543  1.00  0.00    -0.550 OA
ATOM     20  O   UNL     1      56.694  47.743  21.763  1.00  0.00    -0.550 OA
ENDBRANCH  17  18
ENDBRANCH  16  17
ENDBRANCH  15  16
ENDBRANCH  14  15
ENDBRANCH  13  14
ENDBRANCH  12  13
ENDBRANCH  11  12
ENDBRANCH   1  11
TORSDOF 15
ENDMDL
MODEL 5
REMARK VINA RESULT:    21.025      1.347      2.649
REMARK INTER + INTRA:          38.762
REMARK INTER:                  37.763
REMARK INTRA:                   0.998
REMARK UNBOUND:                -0.700
REMARK SMILES O=C([O-])CCCCCCCCCCCCCCC(=O)[O-]
REMARK SMILES IDX 10 1 9 2 8 3 7 4 6 5 5 6 4 7 2 8 1 9 3 10 11 11 12 12 13 13
REMARK SMILES IDX 14 14 15 15 16 16 17 17 18 18 19 19 20 20
REMARK H PARENT
REMARK Flexibility Score: inf
ROOT
ATOM      1  C   UNL     1      55.730  48.447  20.717  1.00  0.00     0.000 C 
ENDROOT
BRANCH   1   2
ATOM      2  C   UNL     1      55.709  48.143  19.208  1.00  0.00     0.000 C 
BRANCH   2   3
ATOM      3  C   UNL     1      57.047  47.576  18.704  1.00  0.00     0.000 C 
BRANCH   3   4
ATOM      4  C   UNL     1      57.534  48.269  17.421  1.00  0.00     0.000 C 
BRANCH   4   5
ATOM      5  C   UNL     1      56.376  48.789  16.552  1.00  0.00     0.000 C 
BRANCH   5   6
ATOM      6  C   UNL     1      56.644  50.195  15.986  1.00  0.00     0.006 C 
BRANCH   6   7
ATOM      7  C   UNL     1      55.480  50.701  15.124  1.00  0.00     0.053 C 
BRANCH   7   8
ATOM      8  C   UNL     1      54.156  50.244  15.652  1.00  0.00     0.041 C 
ATOM      9  O   UNL     1      54.076  49.709  16.790  1.00  0.00    -0.550 OA
ATOM     10  O   UNL     1      53.012  50.382  14.876  1.00  0.00    -0.550 OA
ENDBRANCH   7   8
ENDBRANCH   6   7
ENDBRANCH   5   6
ENDBRANCH   4   5
ENDBRANCH   3   4
ENDBRANCH   2   3
ENDBRANCH   1   2
BRANCH   1  11
ATOM     11  C   UNL     1      57.142  48.361  21.325  1.00  0.00     0.000 C 
BRANCH  11  12
ATOM     12  C   UNL     1      57.503  47.007  21.974  1.00  0.00     0.000 C 
BRANCH  12  13
ATOM     13  C   UNL     1      56.330  46.018  22.118  1.00  0.00     0.000 C 
BRANCH  13  14
ATOM     14  C   UNL     1      55.913  45.326  20.807  1.00  0.00     0.000 C 
BRANCH  14  15
ATOM     15  C   UNL     1      56.567  43.938  20.606  1.00  0.00     0.000 C 
BRANCH  15  16
ATOM     16  C   UNL     1      55.565  42.764  20.638  1.00  0.00     0.006 C 
BRANCH  16  17
ATOM     17  C   UNL     1      56.104  41.516  21.356  1.00  0.00     0.053 C 
BRANCH  17  18
ATOM     18  C   UNL     1      55.377  40.271  20.955  1.00  0.00     0.041 C 
ATOM     19  O   UNL     1      55.957  39.155  21.005  1.00  0.00    -0.550 OA
ATOM     20  O   UNL     1      54.068  40.346  20.496  1.00  0.00    -0.550 OA
ENDBRANCH  17  18
ENDBRANCH  16  17
ENDBRANCH  15  16
ENDBRANCH  14  15
ENDBRANCH  13  14
ENDBRANCH  12  13
ENDBRANCH  11  12
ENDBRANCH   1  11
TORSDOF 15
ENDMDL
MODEL 6
REMARK VINA RESULT:    21.273      2.808      7.744
REMARK INTER + INTRA:          39.227
REMARK INTER:                  40.666
REMARK INTRA:                  -1.439
REMARK UNBOUND:                -0.700
REMARK SMILES O=C([O-])CCCCCCCCCCCCCCC(=O)[O-]
REMARK SMILES IDX 10 1 9 2 8 3 7 4 6 5 5 6 4 7 2 8 1 9 3 10 11 11 12 12 13 13
REMARK SMILES IDX 14 14 15 15 16 16 17 17 18 18 19 19 20 20
REMARK H PARENT
REMARK Flexibility Score: inf
ROOT
ATOM      1  C   UNL     1      56.770  45.970  22.755  1.00  0.00     0.000 C 
ENDROOT
BRANCH   1   2
ATOM      2  C   UNL     1      57.379  44.849  21.894  1.00  0.00     0.000 C 
BRANCH   2   3
ATOM      3  C   UNL     1      56.557  43.550  21.953  1.00  0.00     0.000 C 
BRANCH   3   4
ATOM      4  C   UNL     1      56.215  43.006  20.555  1.00  0.00     0.000 C 
BRANCH   4   5
ATOM      5  C   UNL     1      56.380  44.064  19.451  1.00  0.00     0.000 C 
BRANCH   5   6
ATOM      6  C   UNL     1      57.440  43.671  18.406  1.00  0.00     0.006 C 
BRANCH   6   7
ATOM      7  C   UNL     1      57.015  44.051  16.982  1.00  0.00     0.053 C 
BRANCH   7   8
ATOM      8  C   UNL     1      57.802  43.305  15.949  1.00  0.00     0.041 C 
ATOM      9  O   UNL     1      57.252  42.933  14.878  1.00  0.00    -0.550 OA
ATOM     10  O   UNL     1      59.136  42.995  16.181  1.00  0.00    -0.550 OA
ENDBRANCH   7   8
ENDBRANCH   6   7
ENDBRANCH   5   6
ENDBRANCH   4   5
ENDBRANCH   3   4
ENDBRANCH   2   3
ENDBRANCH   1   2
BRANCH   1  11
ATOM     11  C   UNL     1      57.310  47.365  22.390  1.00  0.00     0.000 C 
BRANCH  11  12
ATOM     12  C   UNL     1      56.362  48.240  21.543  1.00  0.00     0.000 C 
BRANCH  12  13
ATOM     13  C   UNL     1      56.116  47.738  20.107  1.00  0.00     0.000 C 
BRANCH  13  14
ATOM     14  C   UNL     1      57.385  47.630  19.242  1.00  0.00     0.000 C 
BRANCH  14  15
ATOM     15  C   UNL     1      57.092  47.516  17.727  1.00  0.00     0.000 C 
BRANCH  15  16
ATOM     16  C   UNL     1      56.883  48.876  17.027  1.00  0.00     0.006 C 
BRANCH  16  17
ATOM     17  C   UNL     1      55.409  49.309  16.954  1.00  0.00     0.053 C 
BRANCH  17  18
ATOM     18  C   UNL     1      55.115  50.127  15.736  1.00  0.00     0.041 C 
ATOM     19  O   UNL     1      54.280  49.720  14.887  1.00  0.00    -0.550 OA
ATOM     20  O   UNL     1      55.790  51.322  15.521  1.00  0.00    -0.550 OA
ENDBRANCH  17  18
ENDBRANCH  16  17
ENDBRANCH  15  16
ENDBRANCH  14  15
ENDBRANCH  13  14
ENDBRANCH  12  13
ENDBRANCH  11  12
ENDBRANCH   1  11
TORSDOF 15
ENDMDL
MODEL 7
REMARK VINA RESULT:    21.276      6.058      9.643
REMARK INTER + INTRA:          39.233
REMARK INTER:                  39.711
REMARK INTRA:                  -0.478
REMARK UNBOUND:                -0.700
REMARK SMILES O=C([O-])CCCCCCCCCCCCCCC(=O)[O-]
REMARK SMILES IDX 10 1 9 2 8 3 7 4 6 5 5 6 4 7 2 8 1 9 3 10 11 11 12 12 13 13
REMARK SMILES IDX 14 14 15 15 16 16 17 17 18 18 19 19 20 20
REMARK H PARENT
REMARK Flexibility Score: inf
ROOT
ATOM      1  C   UNL     1      55.176  52.324  20.419  1.00  0.00     0.000 C 
ENDROOT
BRANCH   1   2
ATOM      2  C   UNL     1      54.920  53.078  21.736  1.00  0.00     0.000 C 
BRANCH   2   3
ATOM      3  C   UNL     1      53.422  53.297  22.006  1.00  0.00     0.000 C 
BRANCH   3   4
ATOM      4  C   UNL     1      53.119  54.712  22.530  1.00  0.00     0.000 C 
BRANCH   4   5
ATOM      5  C   UNL     1      53.804  55.004  23.875  1.00  0.00     0.000 C 
BRANCH   5   6
ATOM      6  C   UNL     1      54.260  56.468  24.003  1.00  0.00     0.006 C 
BRANCH   6   7
ATOM      7  C   UNL     1      54.942  56.745  25.349  1.00  0.00     0.053 C 
BRANCH   7   8
ATOM      8  C   UNL     1      56.423  56.532  25.277  1.00  0.00     0.041 C 
ATOM      9  O   UNL     1      56.924  55.868  24.331  1.00  0.00    -0.550 OA
ATOM     10  O   UNL     1      57.248  57.043  26.271  1.00  0.00    -0.550 OA
ENDBRANCH   7   8
ENDBRANCH   6   7
ENDBRANCH   5   6
ENDBRANCH   4   5
ENDBRANCH   3   4
ENDBRANCH   2   3
ENDBRANCH   1   2
BRANCH   1  11
ATOM     11  C   UNL     1      54.752  50.845  20.483  1.00  0.00     0.000 C 
BRANCH  11  12
ATOM     12  C   UNL     1      55.910  49.825  20.527  1.00  0.00     0.000 C 
BRANCH  12  13
ATOM     13  C   UNL     1      55.567  48.422  19.991  1.00  0.00     0.000 C 
BRANCH  13  14
ATOM     14  C   UNL     1      56.789  47.570  19.601  1.00  0.00     0.000 C 
BRANCH  14  15
ATOM     15  C   UNL     1      57.093  47.584  18.084  1.00  0.00     0.000 C 
BRANCH  15  16
ATOM     16  C   UNL     1      56.868  48.956  17.414  1.00  0.00     0.006 C 
BRANCH  16  17
ATOM     17  C   UNL     1      56.038  48.880  16.121  1.00  0.00     0.053 C 
BRANCH  17  18
ATOM     18  C   UNL     1      55.520  50.218  15.697  1.00  0.00     0.041 C 
ATOM     19  O   UNL     1      56.171  51.263  15.963  1.00  0.00    -0.550 OA
ATOM     20  O   UNL     1      54.302  50.316  15.037  1.00  0.00    -0.550 OA
ENDBRANCH  17  18
ENDBRANCH  16  17
ENDBRANCH  15  16
ENDBRANCH  14  15
ENDBRANCH  13  14
ENDBRANCH  12  13
ENDBRANCH  11  12
ENDBRANCH   1  11
TORSDOF 15
ENDMDL
MODEL 8
REMARK VINA RESULT:    21.381      7.271      9.353
REMARK INTER + INTRA:          39.430
REMARK INTER:                  37.870
REMARK INTRA:                   1.559
REMARK UNBOUND:                -0.700
REMARK SMILES O=C([O-])CCCCCCCCCCCCCCC(=O)[O-]
REMARK SMILES IDX 10 1 9 2 8 3 7 4 6 5 5 6 4 7 2 8 1 9 3 10 11 11 12 12 13 13
REMARK SMILES IDX 14 14 15 15 16 16 17 17 18 18 19 19 20 20
REMARK H PARENT
REMARK Flexibility Score: inf
ROOT
ATOM      1  C   UNL     1      53.300  53.421  22.071  1.00  0.00     0.000 C 
ENDROOT
BRANCH   1   2
ATOM      2  C   UNL     1      53.686  54.354  23.233  1.00  0.00     0.000 C 
BRANCH   2   3
ATOM      3  C   UNL     1      52.653  55.471  23.458  1.00  0.00     0.000 C 
BRANCH   3   4
ATOM      4  C   UNL     1      53.035  56.400  24.623  1.00  0.00     0.000 C 
BRANCH   4   5
ATOM      5  C   UNL     1      54.503  56.238  25.053  1.00  0.00     0.000 C 
BRANCH   5   6
ATOM      6  C   UNL     1      55.480  56.322  23.867  1.00  0.00     0.006 C 
BRANCH   6   7
ATOM      7  C   UNL     1      56.936  56.108  24.303  1.00  0.00     0.053 C 
BRANCH   7   8
ATOM      8  C   UNL     1      57.217  56.737  25.633  1.00  0.00     0.041 C 
ATOM      9  O   UNL     1      58.404  56.896  26.022  1.00  0.00    -0.550 OA
ATOM     10  O   UNL     1      56.166  57.123  26.455  1.00  0.00    -0.550 OA
ENDBRANCH   7   8
ENDBRANCH   6   7
ENDBRANCH   5   6
ENDBRANCH   4   5
ENDBRANCH   3   4
ENDBRANCH   2   3
ENDBRANCH   1   2
BRANCH   1  11
ATOM     11  C   UNL     1      54.378  53.354  20.974  1.00  0.00     0.000 C 
BRANCH  11  12
ATOM     12  C   UNL     1      55.361  52.169  21.083  1.00  0.00     0.000 C 
BRANCH  12  13
ATOM     13  C   UNL     1      54.894  50.867  20.403  1.00  0.00     0.000 C 
BRANCH  13  14
ATOM     14  C   UNL     1      55.780  49.642  20.691  1.00  0.00     0.000 C 
BRANCH  14  15
ATOM     15  C   UNL     1      55.443  48.414  19.812  1.00  0.00     0.000 C 
BRANCH  15  16
ATOM     16  C   UNL     1      56.477  47.273  19.907  1.00  0.00     0.006 C 
BRANCH  16  17
ATOM     17  C   UNL     1      56.333  46.418  21.177  1.00  0.00     0.053 C 
BRANCH  17  18
ATOM     18  C   UNL     1      57.056  47.009  22.346  1.00  0.00     0.041 C 
ATOM     19  O   UNL     1      58.239  47.419  22.218  1.00  0.00    -0.550 OA
ATOM     20  O   UNL     1      56.434  47.075  23.587  1.00  0.00    -0.550 OA
ENDBRANCH  17  18
ENDBRANCH  16  17
ENDBRANCH  15  16
ENDBRANCH  14  15
ENDBRANCH  13  14
ENDBRANCH  12  13
ENDBRANCH  11  12
ENDBRANCH   1  11
TORSDOF 15
ENDMDL
