MODEL 1
REMARK VINA RESULT:    -4.306      0.000      0.000
REMARK INTER + INTRA:          -4.913
REMARK INTER:                  -4.683
REMARK INTRA:                  -0.230
REMARK UNBOUND:                -0.230
REMARK SMILES O=C([O-])c1ccccc1O
REMARK SMILES IDX 4 1 9 2 5 3 8 4 6 5 7 6 2 7 1 8 3 9 10 10
REMARK H PARENT 10 11
REMARK Flexibility Score: inf
ROOT
ATOM      1  C   UNL     1      11.122 -17.852   8.116  1.00  0.00     0.039 A 
ATOM      2  C   UNL     1      11.000 -19.205   8.521  1.00  0.00     0.124 A 
ATOM      3  C   UNL     1      10.042 -17.241   7.450  1.00  0.00     0.014 A 
ATOM      4  C   UNL     1       9.794 -19.886   8.309  1.00  0.00     0.047 A 
ATOM      5  C   UNL     1       8.854 -17.941   7.227  1.00  0.00     0.001 A 
ATOM      6  C   UNL     1       8.727 -19.258   7.665  1.00  0.00     0.004 A 
ENDROOT
BRANCH   1   7
ATOM      7  C   UNL     1      12.327 -17.044   8.401  1.00  0.00     0.075 C 
ATOM      8  O   UNL     1      13.092 -17.361   9.351  1.00  0.00    -0.545 OA
ATOM      9  O   UNL     1      12.672 -15.970   7.590  1.00  0.00    -0.545 OA
ENDBRANCH   1   7
BRANCH   2  10
ATOM     10  O   UNL     1      12.054 -19.915   9.098  1.00  0.00    -0.507 OA
ATOM     11  H   UNL     1      11.922 -20.663   9.765  1.00  0.00     0.293 HD
ENDBRANCH   2  10
TORSDOF 2
ENDMDL
MODEL 2
REMARK VINA RESULT:    -4.148      1.582      1.878
REMARK INTER + INTRA:          -4.741
REMARK INTER:                  -4.563
REMARK INTRA:                  -0.178
REMARK UNBOUND:                -0.230
REMARK SMILES O=C([O-])c1ccccc1O
REMARK SMILES IDX 4 1 9 2 5 3 8 4 6 5 7 6 2 7 1 8 3 9 10 10
REMARK H PARENT 10 11
REMARK Flexibility Score: inf
ROOT
ATOM      1  C   UNL     1       9.801 -18.019   7.885  1.00  0.00     0.039 A 
ATOM      2  C   UNL     1       9.524 -19.125   7.043  1.00  0.00     0.124 A 
ATOM      3  C   UNL     1       8.735 -17.388   8.553  1.00  0.00     0.014 A 
ATOM      4  C   UNL     1       8.211 -19.604   6.938  1.00  0.00     0.047 A 
ATOM      5  C   UNL     1       7.429 -17.866   8.422  1.00  0.00     0.001 A 
ATOM      6  C   UNL     1       7.169 -18.979   7.624  1.00  0.00     0.004 A 
ENDROOT
BRANCH   1   7
ATOM      7  C   UNL     1      11.176 -17.526   8.121  1.00  0.00     0.075 C 
ATOM      8  O   UNL     1      12.014 -18.252   8.720  1.00  0.00    -0.545 OA
ATOM      9  O   UNL     1      11.583 -16.292   7.629  1.00  0.00    -0.545 OA
ENDBRANCH   1   7
BRANCH   2  10
ATOM     10  O   UNL     1      10.506 -19.746   6.269  1.00  0.00    -0.507 OA
ATOM     11  H   UNL     1      10.494 -20.730   6.040  1.00  0.00     0.293 HD
ENDBRANCH   2  10
TORSDOF 2
ENDMDL
MODEL 3
REMARK VINA RESULT:    -3.912      1.145      2.210
REMARK INTER + INTRA:          -4.485
REMARK INTER:                  -4.275
REMARK INTRA:                  -0.211
REMARK UNBOUND:                -0.230
REMARK SMILES O=C([O-])c1ccccc1O
REMARK SMILES IDX 4 1 9 2 5 3 8 4 6 5 7 6 2 7 1 8 3 9 10 10
REMARK H PARENT 10 11
REMARK Flexibility Score: inf
ROOT
ATOM      1  C   UNL     1      10.743 -18.061   8.079  1.00  0.00     0.039 A 
ATOM      2  C   UNL     1       9.755 -17.759   7.109  1.00  0.00     0.124 A 
ATOM      3  C   UNL     1      10.617 -19.242   8.835  1.00  0.00     0.014 A 
ATOM      4  C   UNL     1       8.712 -18.667   6.877  1.00  0.00     0.047 A 
ATOM      5  C   UNL     1       9.560 -20.125   8.606  1.00  0.00     0.001 A 
ATOM      6  C   UNL     1       8.614 -19.843   7.621  1.00  0.00     0.004 A 
ENDROOT
BRANCH   1   7
ATOM      7  C   UNL     1      11.924 -17.199   8.303  1.00  0.00     0.075 C 
ATOM      8  O   UNL     1      12.754 -17.486   9.206  1.00  0.00    -0.545 OA
ATOM      9  O   UNL     1      12.174 -16.107   7.481  1.00  0.00    -0.545 OA
ENDBRANCH   1   7
BRANCH   2  10
ATOM     10  O   UNL     1       9.750 -16.565   6.386  1.00  0.00    -0.507 OA
ATOM     11  H   UNL     1      10.585 -16.032   6.186  1.00  0.00     0.293 HD
ENDBRANCH   2  10
TORSDOF 2
ENDMDL
MODEL 4
REMARK VINA RESULT:    -3.668      1.952      4.010
REMARK INTER + INTRA:          -4.220
REMARK INTER:                  -3.972
REMARK INTRA:                  -0.247
REMARK UNBOUND:                -0.230
REMARK SMILES O=C([O-])c1ccccc1O
REMARK SMILES IDX 4 1 9 2 5 3 8 4 6 5 7 6 2 7 1 8 3 9 10 10
REMARK H PARENT 10 11
REMARK Flexibility Score: inf
ROOT
ATOM      1  C   UNL     1      11.266 -17.908   8.418  1.00  0.00     0.039 A 
ATOM      2  C   UNL     1      11.223 -16.862   7.463  1.00  0.00     0.124 A 
ATOM      3  C   UNL     1      12.393 -18.020   9.254  1.00  0.00     0.014 A 
ATOM      4  C   UNL     1      12.266 -15.928   7.410  1.00  0.00     0.047 A 
ATOM      5  C   UNL     1      13.434 -17.093   9.175  1.00  0.00     0.001 A 
ATOM      6  C   UNL     1      13.366 -16.043   8.261  1.00  0.00     0.004 A 
ENDROOT
BRANCH   1   7
ATOM      7  C   UNL     1      10.153 -18.866   8.597  1.00  0.00     0.075 C 
ATOM      8  O   UNL     1      10.375 -20.013   9.067  1.00  0.00    -0.545 OA
ATOM      9  O   UNL     1       8.843 -18.495   8.316  1.00  0.00    -0.545 OA
ENDBRANCH   1   7
BRANCH   2  10
ATOM     10  O   UNL     1      10.191 -16.736   6.531  1.00  0.00    -0.507 OA
ATOM     11  H   UNL     1      10.256 -17.075   5.580  1.00  0.00     0.293 HD
ENDBRANCH   2  10
TORSDOF 2
ENDMDL
MODEL 5
REMARK VINA RESULT:    -3.533      2.620      4.218
REMARK INTER + INTRA:          -4.072
REMARK INTER:                  -3.822
REMARK INTRA:                  -0.250
REMARK UNBOUND:                -0.230
REMARK SMILES O=C([O-])c1ccccc1O
REMARK SMILES IDX 4 1 9 2 5 3 8 4 6 5 7 6 2 7 1 8 3 9 10 10
REMARK H PARENT 10 11
REMARK Flexibility Score: inf
ROOT
ATOM      1  C   UNL     1       9.652 -18.832   7.772  1.00  0.00     0.039 A 
ATOM      2  C   UNL     1       9.760 -17.583   7.110  1.00  0.00     0.124 A 
ATOM      3  C   UNL     1      10.696 -19.244   8.623  1.00  0.00     0.014 A 
ATOM      4  C   UNL     1      10.865 -16.758   7.362  1.00  0.00     0.047 A 
ATOM      5  C   UNL     1      11.800 -18.419   8.847  1.00  0.00     0.001 A 
ATOM      6  C   UNL     1      11.879 -17.173   8.225  1.00  0.00     0.004 A 
ENDROOT
BRANCH   1   7
ATOM      7  C   UNL     1       8.467 -19.705   7.631  1.00  0.00     0.075 C 
ATOM      8  O   UNL     1       7.865 -20.125   8.656  1.00  0.00    -0.545 OA
ATOM      9  O   UNL     1       7.957 -20.018   6.377  1.00  0.00    -0.545 OA
ENDBRANCH   1   7
BRANCH   2  10
ATOM     10  O   UNL     1       8.820 -17.143   6.176  1.00  0.00    -0.507 OA
ATOM     11  H   UNL     1       8.911 -16.279   5.661  1.00  0.00     0.293 HD
ENDBRANCH   2  10
TORSDOF 2
ENDMDL
MODEL 6
REMARK VINA RESULT:    -3.522      1.937      3.308
REMARK INTER + INTRA:          -4.060
REMARK INTER:                  -3.824
REMARK INTRA:                  -0.236
REMARK UNBOUND:                -0.230
REMARK SMILES O=C([O-])c1ccccc1O
REMARK SMILES IDX 4 1 9 2 5 3 8 4 6 5 7 6 2 7 1 8 3 9 10 10
REMARK H PARENT 10 11
REMARK Flexibility Score: inf
ROOT
ATOM      1  C   UNL     1       9.506 -19.245   7.901  1.00  0.00     0.039 A 
ATOM      2  C   UNL     1       9.012 -17.981   7.493  1.00  0.00     0.124 A 
ATOM      3  C   UNL     1       8.645 -20.123   8.587  1.00  0.00     0.014 A 
ATOM      4  C   UNL     1       7.668 -17.654   7.724  1.00  0.00     0.047 A 
ATOM      5  C   UNL     1       7.314 -19.774   8.828  1.00  0.00     0.001 A 
ATOM      6  C   UNL     1       6.824 -18.545   8.388  1.00  0.00     0.004 A 
ENDROOT
BRANCH   1   7
ATOM      7  C   UNL     1      10.882 -19.695   7.599  1.00  0.00     0.075 C 
ATOM      8  O   UNL     1      11.313 -19.660   6.415  1.00  0.00    -0.545 OA
ATOM      9  O   UNL     1      11.740 -20.095   8.616  1.00  0.00    -0.545 OA
ENDBRANCH   1   7
BRANCH   2  10
ATOM     10  O   UNL     1       9.822 -17.014   6.896  1.00  0.00    -0.507 OA
ATOM     11  H   UNL     1      10.774 -16.831   7.184  1.00  0.00     0.293 HD
ENDBRANCH   2  10
TORSDOF 2
ENDMDL
MODEL 7
REMARK VINA RESULT:    -3.365      3.382      4.802
REMARK INTER + INTRA:          -3.890
REMARK INTER:                  -3.710
REMARK INTRA:                  -0.180
REMARK UNBOUND:                -0.230
REMARK SMILES O=C([O-])c1ccccc1O
REMARK SMILES IDX 4 1 9 2 5 3 8 4 6 5 7 6 2 7 1 8 3 9 10 10
REMARK H PARENT 10 11
REMARK Flexibility Score: inf
ROOT
ATOM      1  C   UNL     1       8.019 -19.209   8.083  1.00  0.00     0.039 A 
ATOM      2  C   UNL     1       8.402 -17.855   8.250  1.00  0.00     0.124 A 
ATOM      3  C   UNL     1       8.957 -20.125   7.570  1.00  0.00     0.014 A 
ATOM      4  C   UNL     1       9.718 -17.467   7.961  1.00  0.00     0.047 A 
ATOM      5  C   UNL     1      10.258 -19.717   7.268  1.00  0.00     0.001 A 
ATOM      6  C   UNL     1      10.641 -18.393   7.473  1.00  0.00     0.004 A 
ENDROOT
BRANCH   1   7
ATOM      7  C   UNL     1       6.679 -19.707   8.465  1.00  0.00     0.075 C 
ATOM      8  O   UNL     1       6.322 -19.699   9.673  1.00  0.00    -0.545 OA
ATOM      9  O   UNL     1       5.773 -20.125   7.497  1.00  0.00    -0.545 OA
ENDBRANCH   1   7
BRANCH   2  10
ATOM     10  O   UNL     1       7.508 -16.865   8.659  1.00  0.00    -0.507 OA
ATOM     11  H   UNL     1       6.513 -16.908   8.487  1.00  0.00     0.293 HD
ENDBRANCH   2  10
TORSDOF 2
ENDMDL
