MODEL 1
REMARK VINA RESULT:    -2.489      0.000      0.000
REMARK INTER + INTRA:          -2.489
REMARK INTER:                  -2.489
REMARK INTRA:                   0.000
REMARK UNBOUND:                 0.000
REMARK SMILES CC(=O)[O-]
REMARK SMILES IDX 1 1 2 2 3 3 4 4
REMARK H PARENT
REMARK Flexibility Score: inf
ROOT
ATOM      1  C   UNL     1      -2.572  42.411  44.051  1.00  0.00     0.063 C 
ATOM      2  C   UNL     1      -1.760  42.727  45.260  1.00  0.00     0.038 C 
ATOM      3  O   UNL     1      -2.217  42.483  46.408  1.00  0.00    -0.550 OA
ATOM      4  O   UNL     1      -0.521  43.340  45.126  1.00  0.00    -0.550 OA
ENDROOT
TORSDOF 0
ENDMDL
MODEL 2
REMARK VINA RESULT:    -2.443     15.179     15.556
REMARK INTER + INTRA:          -2.443
REMARK INTER:                  -2.443
REMARK INTRA:                   0.000
REMARK UNBOUND:                 0.000
REMARK SMILES CC(=O)[O-]
REMARK SMILES IDX 1 1 2 2 3 3 4 4
REMARK H PARENT
REMARK Flexibility Score: inf
ROOT
ATOM      1  C   UNL     1      10.569  33.507  42.254  1.00  0.00     0.063 C 
ATOM      2  C   UNL     1       9.679  33.301  41.076  1.00  0.00     0.038 C 
ATOM      3  O   UNL     1      10.175  33.049  39.947  1.00  0.00    -0.550 OA
ATOM      4  O   UNL     1       8.304  33.441  41.210  1.00  0.00    -0.550 OA
ENDROOT
TORSDOF 0
ENDMDL
MODEL 3
REMARK VINA RESULT:    -2.404     15.081     15.407
REMARK INTER + INTRA:          -2.404
REMARK INTER:                  -2.404
REMARK INTRA:                   0.000
REMARK UNBOUND:                 0.000
REMARK SMILES CC(=O)[O-]
REMARK SMILES IDX 1 1 2 2 3 3 4 4
REMARK H PARENT
REMARK Flexibility Score: inf
ROOT
ATOM      1  C   UNL     1       8.208  33.156  41.217  1.00  0.00     0.063 C 
ATOM      2  C   UNL     1       9.660  33.392  40.973  1.00  0.00     0.038 C 
ATOM      3  O   UNL     1      10.196  32.978  39.911  1.00  0.00    -0.550 OA
ATOM      4  O   UNL     1      10.435  34.021  41.938  1.00  0.00    -0.550 OA
ENDROOT
TORSDOF 0
ENDMDL
MODEL 4
REMARK VINA RESULT:    -2.389      8.584      9.104
REMARK INTER + INTRA:          -2.389
REMARK INTER:                  -2.389
REMARK INTRA:                   0.000
REMARK UNBOUND:                 0.000
REMARK SMILES CC(=O)[O-]
REMARK SMILES IDX 1 1 2 2 3 3 4 4
REMARK H PARENT
REMARK Flexibility Score: inf
ROOT
ATOM      1  C   UNL     1       5.530  42.154  49.315  1.00  0.00     0.063 C 
ATOM      2  C   UNL     1       6.315  41.045  48.701  1.00  0.00     0.038 C 
ATOM      3  O   UNL     1       5.722  40.112  48.098  1.00  0.00    -0.550 OA
ATOM      4  O   UNL     1       7.696  41.010  48.839  1.00  0.00    -0.550 OA
ENDROOT
TORSDOF 0
ENDMDL
MODEL 5
REMARK VINA RESULT:    -2.371      7.450      8.139
REMARK INTER + INTRA:          -2.371
REMARK INTER:                  -2.371
REMARK INTRA:                   0.000
REMARK UNBOUND:                 0.000
REMARK SMILES CC(=O)[O-]
REMARK SMILES IDX 1 1 2 2 3 3 4 4
REMARK H PARENT
REMARK Flexibility Score: inf
ROOT
ATOM      1  C   UNL     1       5.530  42.095  49.279  1.00  0.00     0.063 C 
ATOM      2  C   UNL     1       5.560  41.685  47.846  1.00  0.00     0.038 C 
ATOM      3  O   UNL     1       6.559  41.070  47.387  1.00  0.00    -0.550 OA
ATOM      4  O   UNL     1       4.513  42.028  47.001  1.00  0.00    -0.550 OA
ENDROOT
TORSDOF 0
ENDMDL
MODEL 6
REMARK VINA RESULT:    -2.363     12.699     13.008
REMARK INTER + INTRA:          -2.363
REMARK INTER:                  -2.363
REMARK INTRA:                   0.000
REMARK UNBOUND:                 0.000
REMARK SMILES CC(=O)[O-]
REMARK SMILES IDX 1 1 2 2 3 3 4 4
REMARK H PARENT
REMARK Flexibility Score: inf
ROOT
ATOM      1  C   UNL     1       2.600  34.415  53.917  1.00  0.00     0.063 C 
ATOM      2  C   UNL     1       2.780  35.472  54.953  1.00  0.00     0.038 C 
ATOM      3  O   UNL     1       1.810  36.203  55.283  1.00  0.00    -0.550 OA
ATOM      4  O   UNL     1       4.031  35.688  55.516  1.00  0.00    -0.550 OA
ENDROOT
TORSDOF 0
ENDMDL
MODEL 7
REMARK VINA RESULT:    -2.363     12.849     13.226
REMARK INTER + INTRA:          -2.363
REMARK INTER:                  -2.363
REMARK INTRA:                   0.000
REMARK UNBOUND:                 0.000
REMARK SMILES CC(=O)[O-]
REMARK SMILES IDX 1 1 2 2 3 3 4 4
REMARK H PARENT
REMARK Flexibility Score: inf
ROOT
ATOM      1  C   UNL     1       4.141  35.738  55.531  1.00  0.00     0.063 C 
ATOM      2  C   UNL     1       2.765  35.457  55.030  1.00  0.00     0.038 C 
ATOM      3  O   UNL     1       1.819  36.240  55.312  1.00  0.00    -0.550 OA
ATOM      4  O   UNL     1       2.512  34.304  54.299  1.00  0.00    -0.550 OA
ENDROOT
TORSDOF 0
ENDMDL
MODEL 8
REMARK VINA RESULT:    -2.319     13.467     13.697
REMARK INTER + INTRA:          -2.319
REMARK INTER:                  -2.319
REMARK INTRA:                   0.000
REMARK UNBOUND:                 0.000
REMARK SMILES CC(=O)[O-]
REMARK SMILES IDX 1 1 2 2 3 3 4 4
REMARK H PARENT
REMARK Flexibility Score: inf
ROOT
ATOM      1  C   UNL     1       5.249  35.821  53.884  1.00  0.00     0.063 C 
ATOM      2  C   UNL     1       4.274  35.273  54.871  1.00  0.00     0.038 C 
ATOM      3  O   UNL     1       3.529  34.310  54.552  1.00  0.00    -0.550 OA
ATOM      4  O   UNL     1       4.148  35.859  56.123  1.00  0.00    -0.550 OA
ENDROOT
TORSDOF 0
ENDMDL
MODEL 9
REMARK VINA RESULT:    -2.299      7.711      8.168
REMARK INTER + INTRA:          -2.299
REMARK INTER:                  -2.299
REMARK INTRA:                   0.000
REMARK UNBOUND:                 0.000
REMARK SMILES CC(=O)[O-]
REMARK SMILES IDX 1 1 2 2 3 3 4 4
REMARK H PARENT
REMARK Flexibility Score: inf
ROOT
ATOM      1  C   UNL     1       4.941  42.008  47.061  1.00  0.00     0.063 C 
ATOM      2  C   UNL     1       5.684  41.707  48.318  1.00  0.00     0.038 C 
ATOM      3  O   UNL     1       5.295  42.194  49.413  1.00  0.00    -0.550 OA
ATOM      4  O   UNL     1       6.837  40.934  48.278  1.00  0.00    -0.550 OA
ENDROOT
TORSDOF 0
ENDMDL
