MODEL 1
REMARK VINA RESULT:    -3.361      0.000      0.000
REMARK INTER + INTRA:          -7.133
REMARK INTER:                  -5.915
REMARK INTRA:                  -1.218
REMARK UNBOUND:                -1.218
REMARK SMILES CCCCCCCCCCCCCC(=O)OC
REMARK SMILES IDX 8 1 7 2 6 3 5 4 4 5 3 6 2 7 1 8 9 9 10 10 11 11 12 12 13 13
REMARK SMILES IDX 14 14 15 15 16 16 17 17
REMARK H PARENT
REMARK Flexibility Score: inf
ROOT
ATOM      1  C   UNL     1     209.448 211.698 219.467  1.00  0.00     0.000 C 
ENDROOT
BRANCH   1   2
ATOM      2  C   UNL     1     209.242 212.024 217.976  1.00  0.00     0.000 C 
BRANCH   2   3
ATOM      3  C   UNL     1     207.789 212.400 217.638  1.00  0.00    -0.000 C 
BRANCH   3   4
ATOM      4  C   UNL     1     206.824 212.133 218.806  1.00  0.00    -0.000 C 
BRANCH   4   5
ATOM      5  C   UNL     1     205.524 211.450 218.357  1.00  0.00    -0.000 C 
BRANCH   5   6
ATOM      6  C   UNL     1     205.362 210.083 219.033  1.00  0.00    -0.000 C 
BRANCH   6   7
ATOM      7  C   UNL     1     206.243 209.027 218.356  1.00  0.00    -0.003 C 
ATOM      8  C   UNL     1     207.078 208.266 219.381  1.00  0.00     0.004 C 
ENDBRANCH   6   7
ENDBRANCH   5   6
ENDBRANCH   4   5
ENDBRANCH   3   4
ENDBRANCH   2   3
ENDBRANCH   1   2
BRANCH   1   9
ATOM      9  C   UNL     1     210.841 211.159 219.839  1.00  0.00     0.000 C 
BRANCH   9  10
ATOM     10  C   UNL     1     211.988 212.021 219.283  1.00  0.00     0.000 C 
BRANCH  10  11
ATOM     11  C   UNL     1     213.070 211.192 218.568  1.00  0.00     0.001 C 
BRANCH  11  12
ATOM     12  C   UNL     1     212.542 210.088 217.634  1.00  0.00     0.012 C 
BRANCH  12  13
ATOM     13  C   UNL     1     213.428 208.836 217.625  1.00  0.00     0.123 C 
BRANCH  13  14
ATOM     14  C   UNL     1     212.920 207.831 218.610  1.00  0.00     0.305 C 
ATOM     15  O   UNL     1     211.723 207.888 219.002  1.00  0.00    -0.252 OA
BRANCH  14  16
ATOM     16  O   UNL     1     213.768 206.811 219.052  1.00  0.00    -0.469 OA
ATOM     17  C   UNL     1     214.436 206.861 220.306  1.00  0.00     0.282 C 
ENDBRANCH  14  16
ENDBRANCH  13  14
ENDBRANCH  12  13
ENDBRANCH  11  12
ENDBRANCH  10  11
ENDBRANCH   9  10
ENDBRANCH   1   9
TORSDOF 13
ENDMDL
MODEL 2
REMARK VINA RESULT:    -3.337     14.877     17.663
REMARK INTER + INTRA:          -7.091
REMARK INTER:                  -4.900
REMARK INTRA:                  -2.191
REMARK UNBOUND:                -1.218
REMARK SMILES CCCCCCCCCCCCCC(=O)OC
REMARK SMILES IDX 8 1 7 2 6 3 5 4 4 5 3 6 2 7 1 8 9 9 10 10 11 11 12 12 13 13
REMARK SMILES IDX 14 14 15 15 16 16 17 17
REMARK H PARENT
REMARK Flexibility Score: inf
ROOT
ATOM      1  C   UNL     1     194.875 200.851 219.583  1.00  0.00     0.000 C 
ENDROOT
BRANCH   1   2
ATOM      2  C   UNL     1     195.274 200.440 221.012  1.00  0.00     0.000 C 
BRANCH   2   3
ATOM      3  C   UNL     1     195.337 198.915 221.205  1.00  0.00    -0.000 C 
BRANCH   3   4
ATOM      4  C   UNL     1     196.683 198.449 221.784  1.00  0.00    -0.000 C 
BRANCH   4   5
ATOM      5  C   UNL     1     197.777 199.523 221.679  1.00  0.00    -0.000 C 
BRANCH   5   6
ATOM      6  C   UNL     1     199.144 198.886 221.400  1.00  0.00    -0.000 C 
BRANCH   6   7
ATOM      7  C   UNL     1     199.734 199.404 220.083  1.00  0.00    -0.003 C 
ATOM      8  C   UNL     1     199.607 200.922 219.981  1.00  0.00     0.004 C 
ENDBRANCH   6   7
ENDBRANCH   5   6
ENDBRANCH   4   5
ENDBRANCH   3   4
ENDBRANCH   2   3
ENDBRANCH   1   2
BRANCH   1   9
ATOM      9  C   UNL     1     195.996 201.488 218.741  1.00  0.00     0.000 C 
BRANCH   9  10
ATOM     10  C   UNL     1     196.645 200.500 217.757  1.00  0.00     0.000 C 
BRANCH  10  11
ATOM     11  C   UNL     1     195.653 199.454 217.215  1.00  0.00     0.001 C 
BRANCH  11  12
ATOM     12  C   UNL     1     196.085 197.987 217.389  1.00  0.00     0.012 C 
BRANCH  12  13
ATOM     13  C   UNL     1     197.362 197.833 218.225  1.00  0.00     0.123 C 
BRANCH  13  14
ATOM     14  C   UNL     1     197.458 196.446 218.779  1.00  0.00     0.305 C 
ATOM     15  O   UNL     1     196.409 195.831 219.114  1.00  0.00    -0.252 OA
BRANCH  14  16
ATOM     16  O   UNL     1     198.710 195.830 218.878  1.00  0.00    -0.469 OA
ATOM     17  C   UNL     1     199.793 196.157 218.017  1.00  0.00     0.282 C 
ENDBRANCH  14  16
ENDBRANCH  13  14
ENDBRANCH  12  13
ENDBRANCH  11  12
ENDBRANCH  10  11
ENDBRANCH   9  10
ENDBRANCH   1   9
TORSDOF 13
ENDMDL
MODEL 3
REMARK VINA RESULT:    -3.323     15.328     16.799
REMARK INTER + INTRA:          -7.067
REMARK INTER:                  -5.255
REMARK INTRA:                  -1.812
REMARK UNBOUND:                -1.218
REMARK SMILES CCCCCCCCCCCCCC(=O)OC
REMARK SMILES IDX 8 1 7 2 6 3 5 4 4 5 3 6 2 7 1 8 9 9 10 10 11 11 12 12 13 13
REMARK SMILES IDX 14 14 15 15 16 16 17 17
REMARK H PARENT
REMARK Flexibility Score: inf
ROOT
ATOM      1  C   UNL     1     196.553 199.214 221.670  1.00  0.00     0.000 C 
ENDROOT
BRANCH   1   2
ATOM      2  C   UNL     1     195.207 199.508 220.982  1.00  0.00     0.000 C 
BRANCH   2   3
ATOM      3  C   UNL     1     195.001 201.003 220.679  1.00  0.00    -0.000 C 
BRANCH   3   4
ATOM      4  C   UNL     1     195.078 201.315 219.175  1.00  0.00    -0.000 C 
BRANCH   4   5
ATOM      5  C   UNL     1     196.513 201.260 218.631  1.00  0.00    -0.000 C 
BRANCH   5   6
ATOM      6  C   UNL     1     196.625 200.248 217.484  1.00  0.00    -0.000 C 
BRANCH   6   7
ATOM      7  C   UNL     1     195.278 199.566 217.219  1.00  0.00    -0.003 C 
ATOM      8  C   UNL     1     195.339 198.078 217.551  1.00  0.00     0.004 C 
ENDBRANCH   6   7
ENDBRANCH   5   6
ENDBRANCH   4   5
ENDBRANCH   3   4
ENDBRANCH   2   3
ENDBRANCH   1   2
BRANCH   1   9
ATOM      9  C   UNL     1     197.242 197.905 221.241  1.00  0.00     0.000 C 
BRANCH   9  10
ATOM     10  C   UNL     1     198.173 198.086 220.030  1.00  0.00     0.000 C 
BRANCH  10  11
ATOM     11  C   UNL     1     198.362 196.791 219.220  1.00  0.00     0.001 C 
BRANCH  11  12
ATOM     12  C   UNL     1     199.327 196.898 218.025  1.00  0.00     0.012 C 
BRANCH  12  13
ATOM     13  C   UNL     1     200.723 196.338 218.329  1.00  0.00     0.123 C 
BRANCH  13  14
ATOM     14  C   UNL     1     201.698 197.454 218.531  1.00  0.00     0.305 C 
ATOM     15  O   UNL     1     202.404 197.851 217.564  1.00  0.00    -0.252 OA
BRANCH  14  16
ATOM     16  O   UNL     1     201.785 198.074 219.781  1.00  0.00    -0.469 OA
ATOM     17  C   UNL     1     201.810 197.340 220.999  1.00  0.00     0.282 C 
ENDBRANCH  14  16
ENDBRANCH  13  14
ENDBRANCH  12  13
ENDBRANCH  11  12
ENDBRANCH  10  11
ENDBRANCH   9  10
ENDBRANCH   1   9
TORSDOF 13
ENDMDL
MODEL 4
REMARK VINA RESULT:    -3.279     12.918     16.056
REMARK INTER + INTRA:          -6.989
REMARK INTER:                  -5.254
REMARK INTRA:                  -1.735
REMARK UNBOUND:                -1.218
REMARK SMILES CCCCCCCCCCCCCC(=O)OC
REMARK SMILES IDX 8 1 7 2 6 3 5 4 4 5 3 6 2 7 1 8 9 9 10 10 11 11 12 12 13 13
REMARK SMILES IDX 14 14 15 15 16 16 17 17
REMARK H PARENT
REMARK Flexibility Score: inf
ROOT
ATOM      1  C   UNL     1     195.677 197.516 218.498  1.00  0.00     0.000 C 
ENDROOT
BRANCH   1   2
ATOM      2  C   UNL     1     195.963 198.176 217.137  1.00  0.00     0.000 C 
BRANCH   2   3
ATOM      3  C   UNL     1     195.742 199.698 217.149  1.00  0.00    -0.000 C 
BRANCH   3   4
ATOM      4  C   UNL     1     195.107 200.191 218.460  1.00  0.00    -0.000 C 
BRANCH   4   5
ATOM      5  C   UNL     1     195.968 201.241 219.177  1.00  0.00    -0.000 C 
BRANCH   5   6
ATOM      6  C   UNL     1     197.453 201.055 218.840  1.00  0.00    -0.000 C 
BRANCH   6   7
ATOM      7  C   UNL     1     198.226 200.504 220.043  1.00  0.00    -0.003 C 
ATOM      8  C   UNL     1     199.708 200.855 219.954  1.00  0.00     0.004 C 
ENDBRANCH   6   7
ENDBRANCH   5   6
ENDBRANCH   4   5
ENDBRANCH   3   4
ENDBRANCH   2   3
ENDBRANCH   1   2
BRANCH   1   9
ATOM      9  C   UNL     1     196.889 196.850 219.177  1.00  0.00     0.000 C 
BRANCH   9  10
ATOM     10  C   UNL     1     198.220 197.167 218.475  1.00  0.00     0.000 C 
BRANCH  10  11
ATOM     11  C   UNL     1     199.436 197.049 219.412  1.00  0.00     0.001 C 
BRANCH  11  12
ATOM     12  C   UNL     1     200.782 197.477 218.799  1.00  0.00     0.012 C 
BRANCH  12  13
ATOM     13  C   UNL     1     201.926 197.495 219.821  1.00  0.00     0.123 C 
BRANCH  13  14
ATOM     14  C   UNL     1     202.857 198.632 219.541  1.00  0.00     0.305 C 
ATOM     15  O   UNL     1     203.443 199.212 220.496  1.00  0.00    -0.252 OA
BRANCH  14  16
ATOM     16  O   UNL     1     203.100 199.013 218.217  1.00  0.00    -0.469 OA
ATOM     17  C   UNL     1     203.136 200.374 217.807  1.00  0.00     0.282 C 
ENDBRANCH  14  16
ENDBRANCH  13  14
ENDBRANCH  12  13
ENDBRANCH  11  12
ENDBRANCH  10  11
ENDBRANCH   9  10
ENDBRANCH   1   9
TORSDOF 13
ENDMDL
MODEL 5
REMARK VINA RESULT:    -3.278     13.165     16.283
REMARK INTER + INTRA:          -6.988
REMARK INTER:                  -5.110
REMARK INTRA:                  -1.878
REMARK UNBOUND:                -1.218
REMARK SMILES CCCCCCCCCCCCCC(=O)OC
REMARK SMILES IDX 8 1 7 2 6 3 5 4 4 5 3 6 2 7 1 8 9 9 10 10 11 11 12 12 13 13
REMARK SMILES IDX 14 14 15 15 16 16 17 17
REMARK H PARENT
REMARK Flexibility Score: inf
ROOT
ATOM      1  C   UNL     1     196.668 197.104 219.474  1.00  0.00     0.000 C 
ENDROOT
BRANCH   1   2
ATOM      2  C   UNL     1     195.296 197.429 218.854  1.00  0.00     0.000 C 
BRANCH   2   3
ATOM      3  C   UNL     1     195.394 197.915 217.398  1.00  0.00    -0.000 C 
BRANCH   3   4
ATOM      4  C   UNL     1     195.281 199.444 217.278  1.00  0.00    -0.000 C 
BRANCH   4   5
ATOM      5  C   UNL     1     196.650 200.141 217.272  1.00  0.00    -0.000 C 
BRANCH   5   6
ATOM      6  C   UNL     1     196.838 200.989 218.536  1.00  0.00    -0.000 C 
BRANCH   6   7
ATOM      7  C   UNL     1     195.517 201.142 219.298  1.00  0.00    -0.003 C 
ATOM      8  C   UNL     1     195.626 200.575 220.710  1.00  0.00     0.004 C 
ENDBRANCH   6   7
ENDBRANCH   5   6
ENDBRANCH   4   5
ENDBRANCH   3   4
ENDBRANCH   2   3
ENDBRANCH   1   2
BRANCH   1   9
ATOM      9  C   UNL     1     197.772 196.720 218.471  1.00  0.00     0.000 C 
BRANCH   9  10
ATOM     10  C   UNL     1     199.099 197.456 218.726  1.00  0.00     0.000 C 
BRANCH  10  11
ATOM     11  C   UNL     1     199.005 198.485 219.867  1.00  0.00     0.001 C 
BRANCH  11  12
ATOM     12  C   UNL     1     200.296 199.273 220.149  1.00  0.00     0.012 C 
BRANCH  12  13
ATOM     13  C   UNL     1     201.555 198.399 220.101  1.00  0.00     0.123 C 
BRANCH  13  14
ATOM     14  C   UNL     1     202.482 198.879 219.029  1.00  0.00     0.305 C 
ATOM     15  O   UNL     1     202.585 198.229 217.953  1.00  0.00    -0.252 OA
BRANCH  14  16
ATOM     16  O   UNL     1     203.193 200.068 219.216  1.00  0.00    -0.469 OA
ATOM     17  C   UNL     1     203.811 200.404 220.453  1.00  0.00     0.282 C 
ENDBRANCH  14  16
ENDBRANCH  13  14
ENDBRANCH  12  13
ENDBRANCH  11  12
ENDBRANCH  10  11
ENDBRANCH   9  10
ENDBRANCH   1   9
TORSDOF 13
ENDMDL
MODEL 6
REMARK VINA RESULT:    -3.275     13.493     16.404
REMARK INTER + INTRA:          -6.983
REMARK INTER:                  -5.234
REMARK INTRA:                  -1.748
REMARK UNBOUND:                -1.218
REMARK SMILES CCCCCCCCCCCCCC(=O)OC
REMARK SMILES IDX 8 1 7 2 6 3 5 4 4 5 3 6 2 7 1 8 9 9 10 10 11 11 12 12 13 13
REMARK SMILES IDX 14 14 15 15 16 16 17 17
REMARK H PARENT
REMARK Flexibility Score: inf
ROOT
ATOM      1  C   UNL     1     196.920 200.594 220.076  1.00  0.00     0.000 C 
ENDROOT
BRANCH   1   2
ATOM      2  C   UNL     1     196.337 201.182 218.777  1.00  0.00     0.000 C 
BRANCH   2   3
ATOM      3  C   UNL     1     196.687 200.351 217.531  1.00  0.00    -0.000 C 
BRANCH   3   4
ATOM      4  C   UNL     1     195.469 199.607 216.958  1.00  0.00    -0.000 C 
BRANCH   4   5
ATOM      5  C   UNL     1     195.151 198.313 217.723  1.00  0.00    -0.000 C 
BRANCH   5   6
ATOM      6  C   UNL     1     196.432 197.521 218.013  1.00  0.00    -0.000 C 
BRANCH   6   7
ATOM      7  C   UNL     1     196.390 196.902 219.415  1.00  0.00    -0.003 C 
ATOM      8  C   UNL     1     197.117 195.561 219.448  1.00  0.00     0.004 C 
ENDBRANCH   6   7
ENDBRANCH   5   6
ENDBRANCH   4   5
ENDBRANCH   3   4
ENDBRANCH   2   3
ENDBRANCH   1   2
BRANCH   1   9
ATOM      9  C   UNL     1     198.403 200.185 220.007  1.00  0.00     0.000 C 
BRANCH   9  10
ATOM     10  C   UNL     1     198.862 199.378 221.235  1.00  0.00     0.000 C 
BRANCH  10  11
ATOM     11  C   UNL     1     199.556 198.057 220.859  1.00  0.00     0.001 C 
BRANCH  11  12
ATOM     12  C   UNL     1     199.977 197.932 219.383  1.00  0.00     0.012 C 
BRANCH  12  13
ATOM     13  C   UNL     1     201.176 196.997 219.179  1.00  0.00     0.123 C 
BRANCH  13  14
ATOM     14  C   UNL     1     201.836 197.276 217.866  1.00  0.00     0.305 C 
ATOM     15  O   UNL     1     201.290 196.894 216.796  1.00  0.00    -0.252 OA
BRANCH  14  16
ATOM     16  O   UNL     1     203.033 197.999 217.838  1.00  0.00    -0.469 OA
ATOM     17  C   UNL     1     203.084 199.404 218.052  1.00  0.00     0.282 C 
ENDBRANCH  14  16
ENDBRANCH  13  14
ENDBRANCH  12  13
ENDBRANCH  11  12
ENDBRANCH  10  11
ENDBRANCH   9  10
ENDBRANCH   1   9
TORSDOF 13
ENDMDL
MODEL 7
REMARK VINA RESULT:    -3.241     14.633     16.907
REMARK INTER + INTRA:          -6.921
REMARK INTER:                  -4.890
REMARK INTRA:                  -2.031
REMARK UNBOUND:                -1.218
REMARK SMILES CCCCCCCCCCCCCC(=O)OC
REMARK SMILES IDX 8 1 7 2 6 3 5 4 4 5 3 6 2 7 1 8 9 9 10 10 11 11 12 12 13 13
REMARK SMILES IDX 14 14 15 15 16 16 17 17
REMARK H PARENT
REMARK Flexibility Score: inf
ROOT
ATOM      1  C   UNL     1     195.216 200.137 217.872  1.00  0.00     0.000 C 
ENDROOT
BRANCH   1   2
ATOM      2  C   UNL     1     195.950 201.114 218.810  1.00  0.00     0.000 C 
BRANCH   2   3
ATOM      3  C   UNL     1     197.479 200.942 218.779  1.00  0.00    -0.000 C 
BRANCH   3   4
ATOM      4  C   UNL     1     198.044 200.458 220.125  1.00  0.00    -0.000 C 
BRANCH   4   5
ATOM      5  C   UNL     1     196.977 199.806 221.017  1.00  0.00    -0.000 C 
BRANCH   5   6
ATOM      6  C   UNL     1     197.585 198.686 221.868  1.00  0.00    -0.000 C 
BRANCH   6   7
ATOM      7  C   UNL     1     199.042 198.422 221.472  1.00  0.00    -0.003 C 
ATOM      8  C   UNL     1     199.762 197.598 222.535  1.00  0.00     0.004 C 
ENDBRANCH   6   7
ENDBRANCH   5   6
ENDBRANCH   4   5
ENDBRANCH   3   4
ENDBRANCH   2   3
ENDBRANCH   1   2
BRANCH   1   9
ATOM      9  C   UNL     1     196.091 199.034 217.251  1.00  0.00     0.000 C 
BRANCH   9  10
ATOM     10  C   UNL     1     195.748 197.628 217.774  1.00  0.00     0.000 C 
BRANCH  10  11
ATOM     11  C   UNL     1     196.894 196.992 218.580  1.00  0.00     0.001 C 
BRANCH  11  12
ATOM     12  C   UNL     1     198.313 197.360 218.110  1.00  0.00     0.012 C 
BRANCH  12  13
ATOM     13  C   UNL     1     199.349 196.272 218.421  1.00  0.00     0.123 C 
BRANCH  13  14
ATOM     14  C   UNL     1     200.727 196.757 218.097  1.00  0.00     0.305 C 
ATOM     15  O   UNL     1     201.097 196.833 216.893  1.00  0.00    -0.252 OA
BRANCH  14  16
ATOM     16  O   UNL     1     201.574 197.163 219.132  1.00  0.00    -0.469 OA
ATOM     17  C   UNL     1     202.154 198.461 219.181  1.00  0.00     0.282 C 
ENDBRANCH  14  16
ENDBRANCH  13  14
ENDBRANCH  12  13
ENDBRANCH  11  12
ENDBRANCH  10  11
ENDBRANCH   9  10
ENDBRANCH   1   9
TORSDOF 13
ENDMDL
MODEL 8
REMARK VINA RESULT:    -3.237      2.685      6.396
REMARK INTER + INTRA:          -6.916
REMARK INTER:                  -5.123
REMARK INTRA:                  -1.793
REMARK UNBOUND:                -1.218
REMARK SMILES CCCCCCCCCCCCCC(=O)OC
REMARK SMILES IDX 8 1 7 2 6 3 5 4 4 5 3 6 2 7 1 8 9 9 10 10 11 11 12 12 13 13
REMARK SMILES IDX 14 14 15 15 16 16 17 17
REMARK H PARENT
REMARK Flexibility Score: inf
ROOT
ATOM      1  C   UNL     1     213.839 211.453 218.275  1.00  0.00     0.000 C 
ENDROOT
BRANCH   1   2
ATOM      2  C   UNL     1     214.614 210.122 218.219  1.00  0.00     0.000 C 
BRANCH   2   3
ATOM      3  C   UNL     1     213.975 209.095 217.268  1.00  0.00    -0.000 C 
BRANCH   3   4
ATOM      4  C   UNL     1     212.532 208.743 217.665  1.00  0.00    -0.000 C 
BRANCH   4   5
ATOM      5  C   UNL     1     212.441 208.089 219.052  1.00  0.00    -0.000 C 
BRANCH   5   6
ATOM      6  C   UNL     1     213.372 206.874 219.146  1.00  0.00    -0.000 C 
BRANCH   6   7
ATOM      7  C   UNL     1     214.274 206.967 220.382  1.00  0.00    -0.003 C 
ATOM      8  C   UNL     1     213.848 208.115 221.292  1.00  0.00     0.004 C 
ENDBRANCH   6   7
ENDBRANCH   5   6
ENDBRANCH   4   5
ENDBRANCH   3   4
ENDBRANCH   2   3
ENDBRANCH   1   2
BRANCH   1   9
ATOM      9  C   UNL     1     213.629 212.035 219.685  1.00  0.00     0.000 C 
BRANCH   9  10
ATOM     10  C   UNL     1     212.155 212.351 219.992  1.00  0.00     0.000 C 
BRANCH  10  11
ATOM     11  C   UNL     1     211.406 211.165 220.624  1.00  0.00     0.001 C 
BRANCH  11  12
ATOM     12  C   UNL     1     210.068 210.800 219.954  1.00  0.00     0.012 C 
BRANCH  12  13
ATOM     13  C   UNL     1     209.750 211.675 218.735  1.00  0.00     0.123 C 
BRANCH  13  14
ATOM     14  C   UNL     1     208.309 212.078 218.746  1.00  0.00     0.305 C 
ATOM     15  O   UNL     1     207.986 213.238 219.121  1.00  0.00    -0.252 OA
BRANCH  14  16
ATOM     16  O   UNL     1     207.339 211.176 218.297  1.00  0.00    -0.469 OA
ATOM     17  C   UNL     1     205.947 211.464 218.344  1.00  0.00     0.282 C 
ENDBRANCH  14  16
ENDBRANCH  13  14
ENDBRANCH  12  13
ENDBRANCH  11  12
ENDBRANCH  10  11
ENDBRANCH   9  10
ENDBRANCH   1   9
TORSDOF 13
ENDMDL
MODEL 9
REMARK VINA RESULT:    -3.199      2.685      6.644
REMARK INTER + INTRA:          -6.849
REMARK INTER:                  -4.772
REMARK INTRA:                  -2.077
REMARK UNBOUND:                -1.218
REMARK SMILES CCCCCCCCCCCCCC(=O)OC
REMARK SMILES IDX 8 1 7 2 6 3 5 4 4 5 3 6 2 7 1 8 9 9 10 10 11 11 12 12 13 13
REMARK SMILES IDX 14 14 15 15 16 16 17 17
REMARK H PARENT
REMARK Flexibility Score: inf
ROOT
ATOM      1  C   UNL     1     213.484 208.545 222.315  1.00  0.00     0.000 C 
ENDROOT
BRANCH   1   2
ATOM      2  C   UNL     1     214.379 207.579 221.517  1.00  0.00     0.000 C 
BRANCH   2   3
ATOM      3  C   UNL     1     214.525 207.978 220.038  1.00  0.00    -0.000 C 
BRANCH   3   4
ATOM      4  C   UNL     1     213.621 207.147 219.112  1.00  0.00    -0.000 C 
BRANCH   4   5
ATOM      5  C   UNL     1     212.575 208.002 218.381  1.00  0.00    -0.000 C 
BRANCH   5   6
ATOM      6  C   UNL     1     213.251 209.049 217.487  1.00  0.00    -0.000 C 
BRANCH   6   7
ATOM      7  C   UNL     1     212.730 210.457 217.797  1.00  0.00    -0.003 C 
ATOM      8  C   UNL     1     213.842 211.349 218.341  1.00  0.00     0.004 C 
ENDBRANCH   6   7
ENDBRANCH   5   6
ENDBRANCH   4   5
ENDBRANCH   3   4
ENDBRANCH   2   3
ENDBRANCH   1   2
BRANCH   1   9
ATOM      9  C   UNL     1     213.430 209.989 221.782  1.00  0.00     0.000 C 
BRANCH   9  10
ATOM     10  C   UNL     1     211.999 210.463 221.474  1.00  0.00     0.000 C 
BRANCH  10  11
ATOM     11  C   UNL     1     210.962 209.328 221.548  1.00  0.00     0.001 C 
BRANCH  11  12
ATOM     12  C   UNL     1     209.986 209.250 220.360  1.00  0.00     0.012 C 
BRANCH  12  13
ATOM     13  C   UNL     1     209.548 210.630 219.853  1.00  0.00     0.123 C 
BRANCH  13  14
ATOM     14  C   UNL     1     208.058 210.690 219.730  1.00  0.00     0.305 C 
ATOM     15  O   UNL     1     207.335 210.371 220.713  1.00  0.00    -0.252 OA
BRANCH  14  16
ATOM     16  O   UNL     1     207.483 211.142 218.538  1.00  0.00    -0.469 OA
ATOM     17  C   UNL     1     206.091 211.404 218.411  1.00  0.00     0.282 C 
ENDBRANCH  14  16
ENDBRANCH  13  14
ENDBRANCH  12  13
ENDBRANCH  11  12
ENDBRANCH  10  11
ENDBRANCH   9  10
ENDBRANCH   1   9
TORSDOF 13
ENDMDL
