MODEL 1
REMARK VINA RESULT:    -4.763      0.000      0.000
REMARK INTER + INTRA:          -6.213
REMARK INTER:                  -5.877
REMARK INTRA:                  -0.336
REMARK UNBOUND:                -0.336
REMARK SMILES C=CCc1ccc(OC)c(OC)c1
REMARK SMILES IDX 7 1 10 2 13 3 4 4 5 5 6 6 8 7 9 8 11 9 12 10 3 11 2 12 1 13
REMARK H PARENT
REMARK Flexibility Score: inf
ROOT
ATOM      1  C   UNL     1      11.110 -12.479 -44.646  1.00  0.00     0.160 A 
ATOM      2  C   UNL     1      12.238 -11.766 -44.212  1.00  0.00     0.160 A 
ATOM      3  C   UNL     1      12.192 -10.358 -44.152  1.00  0.00     0.054 A 
ATOM      4  C   UNL     1      11.027  -9.666 -44.518  1.00  0.00    -0.040 A 
ATOM      5  C   UNL     1       9.910 -10.386 -44.959  1.00  0.00     0.008 A 
ATOM      6  C   UNL     1       9.946 -11.779 -45.020  1.00  0.00     0.051 A 
ENDROOT
BRANCH   1   7
ATOM      7  O   UNL     1      11.184 -13.881 -44.693  1.00  0.00    -0.493 OA
ATOM      8  C   UNL     1      10.588 -14.753 -43.739  1.00  0.00     0.278 C 
ENDBRANCH   1   7
BRANCH   2   9
ATOM      9  O   UNL     1      13.386 -12.490 -43.851  1.00  0.00    -0.493 OA
ATOM     10  C   UNL     1      14.588 -11.905 -43.360  1.00  0.00     0.278 C 
ENDBRANCH   2   9
BRANCH   4  11
ATOM     11  C   UNL     1      10.992  -8.162 -44.483  1.00  0.00     0.062 C 
BRANCH  11  12
ATOM     12  C   UNL     1       9.929  -7.676 -43.537  1.00  0.00    -0.030 C 
ATOM     13  C   UNL     1      10.033  -7.845 -42.215  1.00  0.00     0.004 C 
ENDBRANCH  11  12
ENDBRANCH   4  11
TORSDOF 4
ENDMDL
MODEL 2
REMARK VINA RESULT:    -4.722      1.294      2.906
REMARK INTER + INTRA:          -6.163
REMARK INTER:                  -5.841
REMARK INTRA:                  -0.323
REMARK UNBOUND:                -0.336
REMARK SMILES C=CCc1ccc(OC)c(OC)c1
REMARK SMILES IDX 7 1 10 2 13 3 4 4 5 5 6 6 8 7 9 8 11 9 12 10 3 11 2 12 1 13
REMARK H PARENT
REMARK Flexibility Score: inf
ROOT
ATOM      1  C   UNL     1      10.683 -12.711 -44.343  1.00  0.00     0.160 A 
ATOM      2  C   UNL     1       9.707 -11.922 -44.971  1.00  0.00     0.160 A 
ATOM      3  C   UNL     1       9.877 -10.525 -45.037  1.00  0.00     0.054 A 
ATOM      4  C   UNL     1      11.016  -9.918 -44.487  1.00  0.00    -0.040 A 
ATOM      5  C   UNL     1      11.981 -10.712 -43.853  1.00  0.00     0.008 A 
ATOM      6  C   UNL     1      11.820 -12.096 -43.784  1.00  0.00     0.051 A 
ENDROOT
BRANCH   1   7
ATOM      7  O   UNL     1      10.488 -14.101 -44.293  1.00  0.00    -0.493 OA
ATOM      8  C   UNL     1      10.241 -14.838 -43.100  1.00  0.00     0.278 C 
ENDBRANCH   1   7
BRANCH   2   9
ATOM      9  O   UNL     1       8.581 -12.562 -45.513  1.00  0.00    -0.493 OA
ATOM     10  C   UNL     1       7.474 -11.887 -46.102  1.00  0.00     0.278 C 
ENDBRANCH   2   9
BRANCH   4  11
ATOM     11  C   UNL     1      11.180  -8.422 -44.532  1.00  0.00     0.062 C 
BRANCH  11  12
ATOM     12  C   UNL     1      10.072  -7.742 -43.775  1.00  0.00    -0.030 C 
ATOM     13  C   UNL     1      10.007  -7.780 -42.441  1.00  0.00     0.004 C 
ENDBRANCH  11  12
ENDBRANCH   4  11
TORSDOF 4
ENDMDL
MODEL 3
REMARK VINA RESULT:    -4.672      2.165      4.380
REMARK INTER + INTRA:          -6.101
REMARK INTER:                  -5.881
REMARK INTRA:                  -0.220
REMARK UNBOUND:                -0.336
REMARK SMILES C=CCc1ccc(OC)c(OC)c1
REMARK SMILES IDX 7 1 10 2 13 3 4 4 5 5 6 6 8 7 9 8 11 9 12 10 3 11 2 12 1 13
REMARK H PARENT
REMARK Flexibility Score: inf
ROOT
ATOM      1  C   UNL     1       9.718 -10.815 -45.024  1.00  0.00     0.160 A 
ATOM      2  C   UNL     1      10.460  -9.831 -44.352  1.00  0.00     0.160 A 
ATOM      3  C   UNL     1      11.712 -10.161 -43.795  1.00  0.00     0.054 A 
ATOM      4  C   UNL     1      12.224 -11.462 -43.911  1.00  0.00    -0.040 A 
ATOM      5  C   UNL     1      11.472 -12.441 -44.574  1.00  0.00     0.008 A 
ATOM      6  C   UNL     1      10.232 -12.122 -45.129  1.00  0.00     0.051 A 
ENDROOT
BRANCH   1   7
ATOM      7  O   UNL     1       8.475 -10.457 -45.570  1.00  0.00    -0.493 OA
ATOM      8  C   UNL     1       7.529 -11.382 -46.095  1.00  0.00     0.278 C 
ENDBRANCH   1   7
BRANCH   2   9
ATOM      9  O   UNL     1       9.920  -8.539 -44.257  1.00  0.00    -0.493 OA
ATOM     10  C   UNL     1       9.964  -7.729 -43.086  1.00  0.00     0.278 C 
ENDBRANCH   2   9
BRANCH   4  11
ATOM     11  C   UNL     1      13.547 -11.820 -43.287  1.00  0.00     0.062 C 
BRANCH  11  12
ATOM     12  C   UNL     1      14.683 -11.439 -44.196  1.00  0.00    -0.030 C 
ATOM     13  C   UNL     1      15.935 -11.844 -43.963  1.00  0.00     0.004 C 
ENDBRANCH  11  12
ENDBRANCH   4  11
TORSDOF 4
ENDMDL
MODEL 4
REMARK VINA RESULT:    -4.510      1.952      3.042
REMARK INTER + INTRA:          -5.901
REMARK INTER:                  -5.554
REMARK INTRA:                  -0.347
REMARK UNBOUND:                -0.336
REMARK SMILES C=CCc1ccc(OC)c(OC)c1
REMARK SMILES IDX 7 1 10 2 13 3 4 4 5 5 6 6 8 7 9 8 11 9 12 10 3 11 2 12 1 13
REMARK H PARENT
REMARK Flexibility Score: inf
ROOT
ATOM      1  C   UNL     1       8.306 -12.474 -45.743  1.00  0.00     0.160 A 
ATOM      2  C   UNL     1       9.563 -12.772 -45.194  1.00  0.00     0.160 A 
ATOM      3  C   UNL     1      10.394 -11.725 -44.746  1.00  0.00     0.054 A 
ATOM      4  C   UNL     1       9.972 -10.390 -44.839  1.00  0.00    -0.040 A 
ATOM      5  C   UNL     1       8.720 -10.101 -45.397  1.00  0.00     0.008 A 
ATOM      6  C   UNL     1       7.891 -11.132 -45.842  1.00  0.00     0.051 A 
ENDROOT
BRANCH   1   7
ATOM      7  O   UNL     1       7.499 -13.538 -46.179  1.00  0.00    -0.493 OA
ATOM      8  C   UNL     1       6.311 -13.970 -45.525  1.00  0.00     0.278 C 
ENDBRANCH   1   7
BRANCH   2   9
ATOM      9  O   UNL     1       9.953 -14.118 -45.114  1.00  0.00    -0.493 OA
ATOM     10  C   UNL     1       9.839 -14.923 -43.944  1.00  0.00     0.278 C 
ENDBRANCH   2   9
BRANCH   4  11
ATOM     11  C   UNL     1      10.874  -9.272 -44.388  1.00  0.00     0.062 C 
BRANCH  11  12
ATOM     12  C   UNL     1      10.068  -8.074 -43.970  1.00  0.00    -0.030 C 
ATOM     13  C   UNL     1       9.956  -7.714 -42.688  1.00  0.00     0.004 C 
ENDBRANCH  11  12
ENDBRANCH   4  11
TORSDOF 4
ENDMDL
MODEL 5
REMARK VINA RESULT:    -4.434      2.421      5.280
REMARK INTER + INTRA:          -5.807
REMARK INTER:                  -5.527
REMARK INTRA:                  -0.280
REMARK UNBOUND:                -0.336
REMARK SMILES C=CCc1ccc(OC)c(OC)c1
REMARK SMILES IDX 7 1 10 2 13 3 4 4 5 5 6 6 8 7 9 8 11 9 12 10 3 11 2 12 1 13
REMARK H PARENT
REMARK Flexibility Score: inf
ROOT
ATOM      1  C   UNL     1      10.348  -9.506 -44.333  1.00  0.00     0.160 A 
ATOM      2  C   UNL     1       9.692 -10.546 -45.010  1.00  0.00     0.160 A 
ATOM      3  C   UNL     1      10.358 -11.769 -45.222  1.00  0.00     0.054 A 
ATOM      4  C   UNL     1      11.670 -11.957 -44.758  1.00  0.00    -0.040 A 
ATOM      5  C   UNL     1      12.321 -10.910 -44.093  1.00  0.00     0.008 A 
ATOM      6  C   UNL     1      11.667  -9.696 -43.878  1.00  0.00     0.051 A 
ENDROOT
BRANCH   1   7
ATOM      7  O   UNL     1       9.658  -8.298 -44.134  1.00  0.00    -0.493 OA
ATOM      8  C   UNL     1       9.736  -7.511 -42.951  1.00  0.00     0.278 C 
ENDBRANCH   1   7
BRANCH   2   9
ATOM      9  O   UNL     1       8.380 -10.325 -45.457  1.00  0.00    -0.493 OA
ATOM     10  C   UNL     1       7.485 -11.352 -45.875  1.00  0.00     0.278 C 
ENDBRANCH   2   9
BRANCH   4  11
ATOM     11  C   UNL     1      12.390 -13.254 -45.014  1.00  0.00     0.062 C 
BRANCH  11  12
ATOM     12  C   UNL     1      13.858 -13.114 -44.718  1.00  0.00    -0.030 C 
ATOM     13  C   UNL     1      14.790 -13.393 -45.635  1.00  0.00     0.004 C 
ENDBRANCH  11  12
ENDBRANCH   4  11
TORSDOF 4
ENDMDL
MODEL 6
REMARK VINA RESULT:    -4.361      1.998      4.092
REMARK INTER + INTRA:          -5.717
REMARK INTER:                  -5.462
REMARK INTRA:                  -0.255
REMARK UNBOUND:                -0.336
REMARK SMILES C=CCc1ccc(OC)c(OC)c1
REMARK SMILES IDX 7 1 10 2 13 3 4 4 5 5 6 6 8 7 9 8 11 9 12 10 3 11 2 12 1 13
REMARK H PARENT
REMARK Flexibility Score: inf
ROOT
ATOM      1  C   UNL     1      11.686 -11.161 -44.153  1.00  0.00     0.160 A 
ATOM      2  C   UNL     1      10.850 -10.035 -44.107  1.00  0.00     0.160 A 
ATOM      3  C   UNL     1       9.693  -9.993 -44.911  1.00  0.00     0.054 A 
ATOM      4  C   UNL     1       9.368 -11.069 -45.751  1.00  0.00    -0.040 A 
ATOM      5  C   UNL     1      10.214 -12.185 -45.798  1.00  0.00     0.008 A 
ATOM      6  C   UNL     1      11.361 -12.235 -45.004  1.00  0.00     0.051 A 
ENDROOT
BRANCH   1   7
ATOM      7  O   UNL     1      12.832 -11.176 -43.340  1.00  0.00    -0.493 OA
ATOM      8  C   UNL     1      13.986 -11.972 -43.588  1.00  0.00     0.278 C 
ENDBRANCH   1   7
BRANCH   2   9
ATOM      9  O   UNL     1      11.203  -8.978 -43.254  1.00  0.00    -0.493 OA
ATOM     10  C   UNL     1      10.280  -8.048 -42.695  1.00  0.00     0.278 C 
ENDBRANCH   2   9
BRANCH   4  11
ATOM     11  C   UNL     1       8.149 -11.008 -46.631  1.00  0.00     0.062 C 
BRANCH  11  12
ATOM     12  C   UNL     1       7.531 -12.371 -46.780  1.00  0.00    -0.030 C 
ATOM     13  C   UNL     1       6.747 -12.894 -45.832  1.00  0.00     0.004 C 
ENDBRANCH  11  12
ENDBRANCH   4  11
TORSDOF 4
ENDMDL
MODEL 7
REMARK VINA RESULT:    -4.238      1.171      2.812
REMARK INTER + INTRA:          -5.565
REMARK INTER:                  -5.284
REMARK INTRA:                  -0.281
REMARK UNBOUND:                -0.336
REMARK SMILES C=CCc1ccc(OC)c(OC)c1
REMARK SMILES IDX 7 1 10 2 13 3 4 4 5 5 6 6 8 7 9 8 11 9 12 10 3 11 2 12 1 13
REMARK H PARENT
REMARK Flexibility Score: inf
ROOT
ATOM      1  C   UNL     1      12.656 -12.783 -44.004  1.00  0.00     0.160 A 
ATOM      2  C   UNL     1      11.328 -13.012 -44.395  1.00  0.00     0.160 A 
ATOM      3  C   UNL     1      10.469 -11.917 -44.620  1.00  0.00     0.054 A 
ATOM      4  C   UNL     1      10.933 -10.602 -44.462  1.00  0.00    -0.040 A 
ATOM      5  C   UNL     1      12.258 -10.383 -44.061  1.00  0.00     0.008 A 
ATOM      6  C   UNL     1      13.115 -11.462 -43.838  1.00  0.00     0.051 A 
ENDROOT
BRANCH   1   7
ATOM      7  O   UNL     1      13.489 -13.893 -43.788  1.00  0.00    -0.493 OA
ATOM      8  C   UNL     1      14.532 -14.302 -44.667  1.00  0.00     0.278 C 
ENDBRANCH   1   7
BRANCH   2   9
ATOM      9  O   UNL     1      10.897 -14.339 -44.546  1.00  0.00    -0.493 OA
ATOM     10  C   UNL     1       9.577 -14.723 -44.920  1.00  0.00     0.278 C 
ENDBRANCH   2   9
BRANCH   4  11
ATOM     11  C   UNL     1      10.005  -9.435 -44.673  1.00  0.00     0.062 C 
BRANCH  11  12
ATOM     12  C   UNL     1      10.527  -8.208 -43.978  1.00  0.00    -0.030 C 
ATOM     13  C   UNL     1       9.732  -7.425 -43.243  1.00  0.00     0.004 C 
ENDBRANCH  11  12
ENDBRANCH   4  11
TORSDOF 4
ENDMDL
MODEL 8
REMARK VINA RESULT:    -4.107      1.499      3.628
REMARK INTER + INTRA:          -5.404
REMARK INTER:                  -5.186
REMARK INTRA:                  -0.218
REMARK UNBOUND:                -0.336
REMARK SMILES C=CCc1ccc(OC)c(OC)c1
REMARK SMILES IDX 7 1 10 2 13 3 4 4 5 5 6 6 8 7 9 8 11 9 12 10 3 11 2 12 1 13
REMARK H PARENT
REMARK Flexibility Score: inf
ROOT
ATOM      1  C   UNL     1      12.374 -11.186 -43.972  1.00  0.00     0.160 A 
ATOM      2  C   UNL     1      11.551 -12.260 -44.342  1.00  0.00     0.160 A 
ATOM      3  C   UNL     1      10.267 -12.007 -44.865  1.00  0.00     0.054 A 
ATOM      4  C   UNL     1       9.807 -10.690 -45.022  1.00  0.00    -0.040 A 
ATOM      5  C   UNL     1      10.632  -9.624 -44.640  1.00  0.00     0.008 A 
ATOM      6  C   UNL     1      11.905  -9.866 -44.123  1.00  0.00     0.051 A 
ENDROOT
BRANCH   1   7
ATOM      7  O   UNL     1      13.649 -11.468 -43.455  1.00  0.00    -0.493 OA
ATOM      8  C   UNL     1      14.845 -11.493 -44.228  1.00  0.00     0.278 C 
ENDBRANCH   1   7
BRANCH   2   9
ATOM      9  O   UNL     1      12.043 -13.564 -44.174  1.00  0.00    -0.493 OA
ATOM     10  C   UNL     1      12.505 -14.396 -45.234  1.00  0.00     0.278 C 
ENDBRANCH   2   9
BRANCH   4  11
ATOM     11  C   UNL     1       8.423 -10.424 -45.551  1.00  0.00     0.062 C 
BRANCH  11  12
ATOM     12  C   UNL     1       7.698 -11.714 -45.816  1.00  0.00    -0.030 C 
ATOM     13  C   UNL     1       7.542 -12.191 -47.055  1.00  0.00     0.004 C 
ENDBRANCH  11  12
ENDBRANCH   4  11
TORSDOF 4
ENDMDL
MODEL 9
REMARK VINA RESULT:    -4.077      2.730      4.875
REMARK INTER + INTRA:          -5.367
REMARK INTER:                  -5.086
REMARK INTRA:                  -0.282
REMARK UNBOUND:                -0.336
REMARK SMILES C=CCc1ccc(OC)c(OC)c1
REMARK SMILES IDX 7 1 10 2 13 3 4 4 5 5 6 6 8 7 9 8 11 9 12 10 3 11 2 12 1 13
REMARK H PARENT
REMARK Flexibility Score: inf
ROOT
ATOM      1  C   UNL     1       9.748 -10.350 -45.013  1.00  0.00     0.160 A 
ATOM      2  C   UNL     1      10.322 -11.630 -45.029  1.00  0.00     0.160 A 
ATOM      3  C   UNL     1       9.557 -12.733 -45.458  1.00  0.00     0.054 A 
ATOM      4  C   UNL     1       8.228 -12.560 -45.875  1.00  0.00    -0.040 A 
ATOM      5  C   UNL     1       7.659 -11.280 -45.847  1.00  0.00     0.008 A 
ATOM      6  C   UNL     1       8.411 -10.183 -45.424  1.00  0.00     0.051 A 
ENDROOT
BRANCH   1   7
ATOM      7  O   UNL     1      10.535  -9.270 -44.581  1.00  0.00    -0.493 OA
ATOM      8  C   UNL     1      10.037  -8.144 -43.866  1.00  0.00     0.278 C 
ENDBRANCH   1   7
BRANCH   2   9
ATOM      9  O   UNL     1      11.654 -11.768 -44.608  1.00  0.00    -0.493 OA
ATOM     10  C   UNL     1      12.051 -12.185 -43.305  1.00  0.00     0.278 C 
ENDBRANCH   2   9
BRANCH   4  11
ATOM     11  C   UNL     1       7.403 -13.744 -46.304  1.00  0.00     0.062 C 
BRANCH  11  12
ATOM     12  C   UNL     1       6.562 -14.247 -45.164  1.00  0.00    -0.030 C 
ATOM     13  C   UNL     1       5.227 -14.248 -45.222  1.00  0.00     0.004 C 
ENDBRANCH  11  12
ENDBRANCH   4  11
TORSDOF 4
ENDMDL
