MODEL 1
REMARK VINA RESULT:    -4.954      0.000      0.000
REMARK INTER + INTRA:         -10.748
REMARK INTER:                  -9.009
REMARK INTRA:                  -1.739
REMARK UNBOUND:                -1.739
REMARK SMILES CCCCCCCCCCCCCCCC(=O)[O-]
REMARK SMILES IDX 9 1 10 2 11 3 12 4 13 5 14 6 15 7 16 8 17 9 18 10 8 11 7 12
REMARK SMILES IDX 6 13 5 14 4 15 3 16 2 17 1 18
REMARK H PARENT
REMARK Flexibility Score: inf
ROOT
ATOM      1  C   UNL     1      51.926  59.742  74.439  1.00  0.00     0.000 C 
ENDROOT
BRANCH   1   2
ATOM      2  C   UNL     1      50.594  58.985  74.322  1.00  0.00     0.000 C 
BRANCH   2   3
ATOM      3  C   UNL     1      50.744  57.475  74.571  1.00  0.00     0.000 C 
BRANCH   3   4
ATOM      4  C   UNL     1      49.580  56.661  73.980  1.00  0.00     0.000 C 
BRANCH   4   5
ATOM      5  C   UNL     1      48.780  57.450  72.932  1.00  0.00     0.000 C 
BRANCH   5   6
ATOM      6  C   UNL     1      48.685  56.719  71.582  1.00  0.00     0.006 C 
BRANCH   6   7
ATOM      7  C   UNL     1      47.686  57.390  70.629  1.00  0.00     0.053 C 
BRANCH   7   8
ATOM      8  C   UNL     1      48.171  57.368  69.212  1.00  0.00     0.041 C 
ATOM      9  O   UNL     1      47.450  57.832  68.289  1.00  0.00    -0.550 OA
ATOM     10  O   UNL     1      49.402  56.803  68.905  1.00  0.00    -0.550 OA
ENDBRANCH   7   8
ENDBRANCH   6   7
ENDBRANCH   5   6
ENDBRANCH   4   5
ENDBRANCH   3   4
ENDBRANCH   2   3
ENDBRANCH   1   2
BRANCH   1  11
ATOM     11  C   UNL     1      52.951  58.927  75.243  1.00  0.00     0.000 C 
BRANCH  11  12
ATOM     12  C   UNL     1      53.749  59.789  76.235  1.00  0.00    -0.000 C 
BRANCH  12  13
ATOM     13  C   UNL     1      52.846  60.506  77.255  1.00  0.00    -0.000 C 
BRANCH  13  14
ATOM     14  C   UNL     1      52.003  59.522  78.082  1.00  0.00    -0.000 C 
BRANCH  14  15
ATOM     15  C   UNL     1      50.492  59.788  77.954  1.00  0.00    -0.000 C 
BRANCH  15  16
ATOM     16  C   UNL     1      49.649  58.640  78.550  1.00  0.00    -0.000 C 
BRANCH  16  17
ATOM     17  C   UNL     1      48.672  58.010  77.544  1.00  0.00    -0.003 C 
ATOM     18  C   UNL     1      47.809  59.041  76.820  1.00  0.00     0.004 C 
ENDBRANCH  16  17
ENDBRANCH  15  16
ENDBRANCH  14  15
ENDBRANCH  13  14
ENDBRANCH  12  13
ENDBRANCH  11  12
ENDBRANCH   1  11
TORSDOF 14
ENDMDL
MODEL 2
REMARK VINA RESULT:    -4.942      3.830      6.213
REMARK INTER + INTRA:         -10.725
REMARK INTER:                  -8.941
REMARK INTRA:                  -1.784
REMARK UNBOUND:                -1.739
REMARK SMILES CCCCCCCCCCCCCCCC(=O)[O-]
REMARK SMILES IDX 9 1 10 2 11 3 12 4 13 5 14 6 15 7 16 8 17 9 18 10 8 11 7 12
REMARK SMILES IDX 6 13 5 14 4 15 3 16 2 17 1 18
REMARK H PARENT
REMARK Flexibility Score: inf
ROOT
ATOM      1  C   UNL     1      49.945  53.163  77.363  1.00  0.00     0.000 C 
ENDROOT
BRANCH   1   2
ATOM      2  C   UNL     1      51.314  52.485  77.527  1.00  0.00     0.000 C 
BRANCH   2   3
ATOM      3  C   UNL     1      52.488  53.453  77.307  1.00  0.00     0.000 C 
BRANCH   3   4
ATOM      4  C   UNL     1      52.207  54.479  76.196  1.00  0.00     0.000 C 
BRANCH   4   5
ATOM      5  C   UNL     1      53.144  54.312  74.989  1.00  0.00     0.000 C 
BRANCH   5   6
ATOM      6  C   UNL     1      52.671  55.103  73.756  1.00  0.00     0.006 C 
BRANCH   6   7
ATOM      7  C   UNL     1      52.837  56.617  73.941  1.00  0.00     0.053 C 
BRANCH   7   8
ATOM      8  C   UNL     1      53.219  57.294  72.661  1.00  0.00     0.041 C 
ATOM      9  O   UNL     1      52.588  57.045  71.600  1.00  0.00    -0.550 OA
ATOM     10  O   UNL     1      54.295  58.172  72.631  1.00  0.00    -0.550 OA
ENDBRANCH   7   8
ENDBRANCH   6   7
ENDBRANCH   5   6
ENDBRANCH   4   5
ENDBRANCH   3   4
ENDBRANCH   2   3
ENDBRANCH   1   2
BRANCH   1  11
ATOM     11  C   UNL     1      48.922  52.192  76.752  1.00  0.00     0.000 C 
BRANCH  11  12
ATOM     12  C   UNL     1      48.202  52.780  75.528  1.00  0.00    -0.000 C 
BRANCH  12  13
ATOM     13  C   UNL     1      49.172  53.438  74.531  1.00  0.00    -0.000 C 
BRANCH  13  14
ATOM     14  C   UNL     1      48.584  54.709  73.897  1.00  0.00    -0.000 C 
BRANCH  14  15
ATOM     15  C   UNL     1      48.995  55.988  74.650  1.00  0.00    -0.000 C 
BRANCH  15  16
ATOM     16  C   UNL     1      49.167  57.191  73.698  1.00  0.00    -0.000 C 
BRANCH  16  17
ATOM     17  C   UNL     1      49.218  58.546  74.424  1.00  0.00    -0.003 C 
ATOM     18  C   UNL     1      48.386  58.571  75.704  1.00  0.00     0.004 C 
ENDBRANCH  16  17
ENDBRANCH  15  16
ENDBRANCH  14  15
ENDBRANCH  13  14
ENDBRANCH  12  13
ENDBRANCH  11  12
ENDBRANCH   1  11
TORSDOF 14
ENDMDL
MODEL 3
REMARK VINA RESULT:    -4.876      9.715     12.907
REMARK INTER + INTRA:         -10.606
REMARK INTER:                  -8.908
REMARK INTRA:                  -1.697
REMARK UNBOUND:                -1.739
REMARK SMILES CCCCCCCCCCCCCCCC(=O)[O-]
REMARK SMILES IDX 9 1 10 2 11 3 12 4 13 5 14 6 15 7 16 8 17 9 18 10 8 11 7 12
REMARK SMILES IDX 6 13 5 14 4 15 3 16 2 17 1 18
REMARK H PARENT
REMARK Flexibility Score: inf
ROOT
ATOM      1  C   UNL     1      58.080  53.326  84.322  1.00  0.00     0.000 C 
ENDROOT
BRANCH   1   2
ATOM      2  C   UNL     1      59.328  53.729  85.123  1.00  0.00     0.000 C 
BRANCH   2   3
ATOM      3  C   UNL     1      59.321  55.212  85.530  1.00  0.00     0.000 C 
BRANCH   3   4
ATOM      4  C   UNL     1      58.289  55.518  86.629  1.00  0.00     0.000 C 
BRANCH   4   5
ATOM      5  C   UNL     1      57.505  56.812  86.358  1.00  0.00     0.000 C 
BRANCH   5   6
ATOM      6  C   UNL     1      57.636  57.292  84.902  1.00  0.00     0.006 C 
BRANCH   6   7
ATOM      7  C   UNL     1      56.832  58.574  84.641  1.00  0.00     0.053 C 
BRANCH   7   8
ATOM      8  C   UNL     1      55.542  58.285  83.937  1.00  0.00     0.041 C 
ATOM      9  O   UNL     1      55.062  59.121  83.126  1.00  0.00    -0.550 OA
ATOM     10  O   UNL     1      54.850  57.111  84.204  1.00  0.00    -0.550 OA
ENDBRANCH   7   8
ENDBRANCH   6   7
ENDBRANCH   5   6
ENDBRANCH   4   5
ENDBRANCH   3   4
ENDBRANCH   2   3
ENDBRANCH   1   2
BRANCH   1  11
ATOM     11  C   UNL     1      58.114  53.934  82.911  1.00  0.00     0.000 C 
BRANCH  11  12
ATOM     12  C   UNL     1      56.749  54.485  82.468  1.00  0.00    -0.000 C 
BRANCH  12  13
ATOM     13  C   UNL     1      56.876  55.737  81.581  1.00  0.00    -0.000 C 
BRANCH  13  14
ATOM     14  C   UNL     1      58.085  55.662  80.635  1.00  0.00    -0.000 C 
BRANCH  14  15
ATOM     15  C   UNL     1      57.717  56.002  79.180  1.00  0.00    -0.000 C 
BRANCH  15  16
ATOM     16  C   UNL     1      56.892  54.881  78.513  1.00  0.00    -0.000 C 
BRANCH  16  17
ATOM     17  C   UNL     1      55.542  55.360  77.954  1.00  0.00    -0.003 C 
ATOM     18  C   UNL     1      55.265  56.835  78.240  1.00  0.00     0.004 C 
ENDBRANCH  16  17
ENDBRANCH  15  16
ENDBRANCH  14  15
ENDBRANCH  13  14
ENDBRANCH  12  13
ENDBRANCH  11  12
ENDBRANCH   1  11
TORSDOF 14
ENDMDL
MODEL 4
REMARK VINA RESULT:    -4.866      4.629      6.441
REMARK INTER + INTRA:         -10.587
REMARK INTER:                  -9.094
REMARK INTRA:                  -1.493
REMARK UNBOUND:                -1.739
REMARK SMILES CCCCCCCCCCCCCCCC(=O)[O-]
REMARK SMILES IDX 9 1 10 2 11 3 12 4 13 5 14 6 15 7 16 8 17 9 18 10 8 11 7 12
REMARK SMILES IDX 6 13 5 14 4 15 3 16 2 17 1 18
REMARK H PARENT
REMARK Flexibility Score: inf
ROOT
ATOM      1  C   UNL     1      53.948  54.524  76.134  1.00  0.00     0.000 C 
ENDROOT
BRANCH   1   2
ATOM      2  C   UNL     1      53.227  54.491  74.777  1.00  0.00     0.000 C 
BRANCH   2   3
ATOM      3  C   UNL     1      53.121  55.880  74.126  1.00  0.00     0.000 C 
BRANCH   3   4
ATOM      4  C   UNL     1      52.095  56.785  74.829  1.00  0.00     0.000 C 
BRANCH   4   5
ATOM      5  C   UNL     1      51.194  57.537  73.836  1.00  0.00     0.000 C 
BRANCH   5   6
ATOM      6  C   UNL     1      50.738  58.907  74.367  1.00  0.00     0.006 C 
BRANCH   6   7
ATOM      7  C   UNL     1      51.542  59.348  75.597  1.00  0.00     0.053 C 
BRANCH   7   8
ATOM      8  C   UNL     1      50.659  59.575  76.786  1.00  0.00     0.041 C 
ATOM      9  O   UNL     1      49.426  59.329  76.714  1.00  0.00    -0.550 OA
ATOM     10  O   UNL     1      51.190  60.092  77.960  1.00  0.00    -0.550 OA
ENDBRANCH   7   8
ENDBRANCH   6   7
ENDBRANCH   5   6
ENDBRANCH   4   5
ENDBRANCH   3   4
ENDBRANCH   2   3
ENDBRANCH   1   2
BRANCH   1  11
ATOM     11  C   UNL     1      53.177  53.709  77.184  1.00  0.00     0.000 C 
BRANCH  11  12
ATOM     12  C   UNL     1      51.750  53.359  76.734  1.00  0.00    -0.000 C 
BRANCH  12  13
ATOM     13  C   UNL     1      50.924  52.693  77.849  1.00  0.00    -0.000 C 
BRANCH  13  14
ATOM     14  C   UNL     1      49.419  52.971  77.707  1.00  0.00    -0.000 C 
BRANCH  14  15
ATOM     15  C   UNL     1      48.755  52.088  76.635  1.00  0.00    -0.000 C 
BRANCH  15  16
ATOM     16  C   UNL     1      48.074  52.927  75.533  1.00  0.00    -0.000 C 
BRANCH  16  17
ATOM     17  C   UNL     1      48.927  54.110  75.046  1.00  0.00    -0.003 C 
ATOM     18  C   UNL     1      49.661  53.821  73.739  1.00  0.00     0.004 C 
ENDBRANCH  16  17
ENDBRANCH  15  16
ENDBRANCH  14  15
ENDBRANCH  13  14
ENDBRANCH  12  13
ENDBRANCH  11  12
ENDBRANCH   1  11
TORSDOF 14
ENDMDL
MODEL 5
REMARK VINA RESULT:    -4.833      6.876      9.232
REMARK INTER + INTRA:         -10.529
REMARK INTER:                  -9.060
REMARK INTRA:                  -1.469
REMARK UNBOUND:                -1.739
REMARK SMILES CCCCCCCCCCCCCCCC(=O)[O-]
REMARK SMILES IDX 9 1 10 2 11 3 12 4 13 5 14 6 15 7 16 8 17 9 18 10 8 11 7 12
REMARK SMILES IDX 6 13 5 14 4 15 3 16 2 17 1 18
REMARK H PARENT
REMARK Flexibility Score: inf
ROOT
ATOM      1  C   UNL     1      56.755  55.451  82.587  1.00  0.00     0.000 C 
ENDROOT
BRANCH   1   2
ATOM      2  C   UNL     1      57.273  56.365  81.465  1.00  0.00     0.000 C 
BRANCH   2   3
ATOM      3  C   UNL     1      58.133  55.614  80.436  1.00  0.00     0.000 C 
BRANCH   3   4
ATOM      4  C   UNL     1      57.716  55.914  78.986  1.00  0.00     0.000 C 
BRANCH   4   5
ATOM      5  C   UNL     1      56.730  54.875  78.429  1.00  0.00     0.000 C 
BRANCH   5   6
ATOM      6  C   UNL     1      55.617  55.510  77.577  1.00  0.00     0.006 C 
BRANCH   6   7
ATOM      7  C   UNL     1      55.121  56.837  78.168  1.00  0.00     0.053 C 
BRANCH   7   8
ATOM      8  C   UNL     1      54.082  57.477  77.300  1.00  0.00     0.041 C 
ATOM      9  O   UNL     1      54.239  58.657  76.889  1.00  0.00    -0.550 OA
ATOM     10  O   UNL     1      52.923  56.784  76.974  1.00  0.00    -0.550 OA
ENDBRANCH   7   8
ENDBRANCH   6   7
ENDBRANCH   5   6
ENDBRANCH   4   5
ENDBRANCH   3   4
ENDBRANCH   2   3
ENDBRANCH   1   2
BRANCH   1  11
ATOM     11  C   UNL     1      57.565  55.654  83.877  1.00  0.00     0.000 C 
BRANCH  11  12
ATOM     12  C   UNL     1      58.030  57.107  84.065  1.00  0.00    -0.000 C 
BRANCH  12  13
ATOM     13  C   UNL     1      57.227  57.850  85.148  1.00  0.00    -0.000 C 
BRANCH  13  14
ATOM     14  C   UNL     1      56.476  59.067  84.585  1.00  0.00    -0.000 C 
BRANCH  14  15
ATOM     15  C   UNL     1      55.141  58.682  83.922  1.00  0.00    -0.000 C 
BRANCH  15  16
ATOM     16  C   UNL     1      55.134  58.989  82.410  1.00  0.00    -0.000 C 
BRANCH  16  17
ATOM     17  C   UNL     1      53.775  59.488  81.890  1.00  0.00    -0.003 C 
ATOM     18  C   UNL     1      53.710  59.569  80.367  1.00  0.00     0.004 C 
ENDBRANCH  16  17
ENDBRANCH  15  16
ENDBRANCH  14  15
ENDBRANCH  13  14
ENDBRANCH  12  13
ENDBRANCH  11  12
ENDBRANCH   1  11
TORSDOF 14
ENDMDL
MODEL 6
REMARK VINA RESULT:    -4.811      9.070     11.595
REMARK INTER + INTRA:         -10.488
REMARK INTER:                  -8.749
REMARK INTRA:                  -1.739
REMARK UNBOUND:                -1.739
REMARK SMILES CCCCCCCCCCCCCCCC(=O)[O-]
REMARK SMILES IDX 9 1 10 2 11 3 12 4 13 5 14 6 15 7 16 8 17 9 18 10 8 11 7 12
REMARK SMILES IDX 6 13 5 14 4 15 3 16 2 17 1 18
REMARK H PARENT
REMARK Flexibility Score: inf
ROOT
ATOM      1  C   UNL     1      57.878  53.490  84.656  1.00  0.00     0.000 C 
ENDROOT
BRANCH   1   2
ATOM      2  C   UNL     1      58.070  53.358  83.137  1.00  0.00     0.000 C 
BRANCH   2   3
ATOM      3  C   UNL     1      56.840  53.822  82.340  1.00  0.00     0.000 C 
BRANCH   3   4
ATOM      4  C   UNL     1      56.546  55.321  82.524  1.00  0.00     0.000 C 
BRANCH   4   5
ATOM      5  C   UNL     1      57.507  56.213  81.721  1.00  0.00     0.000 C 
BRANCH   5   6
ATOM      6  C   UNL     1      57.882  55.605  80.358  1.00  0.00     0.006 C 
BRANCH   6   7
ATOM      7  C   UNL     1      57.405  56.474  79.186  1.00  0.00     0.053 C 
BRANCH   7   8
ATOM      8  C   UNL     1      55.969  56.214  78.851  1.00  0.00     0.041 C 
ATOM      9  O   UNL     1      55.244  57.143  78.407  1.00  0.00    -0.550 OA
ATOM     10  O   UNL     1      55.421  54.956  79.063  1.00  0.00    -0.550 OA
ENDBRANCH   7   8
ENDBRANCH   6   7
ENDBRANCH   5   6
ENDBRANCH   4   5
ENDBRANCH   3   4
ENDBRANCH   2   3
ENDBRANCH   1   2
BRANCH   1  11
ATOM     11  C   UNL     1      59.212  53.801  85.352  1.00  0.00     0.000 C 
BRANCH  11  12
ATOM     12  C   UNL     1      59.267  55.228  85.921  1.00  0.00    -0.000 C 
BRANCH  12  13
ATOM     13  C   UNL     1      57.875  55.873  86.036  1.00  0.00    -0.000 C 
BRANCH  13  14
ATOM     14  C   UNL     1      57.763  57.171  85.220  1.00  0.00    -0.000 C 
BRANCH  14  15
ATOM     15  C   UNL     1      56.709  58.137  85.790  1.00  0.00    -0.000 C 
BRANCH  15  16
ATOM     16  C   UNL     1      56.471  59.349  84.863  1.00  0.00    -0.000 C 
BRANCH  16  17
ATOM     17  C   UNL     1      55.781  58.983  83.539  1.00  0.00    -0.003 C 
ATOM     18  C   UNL     1      54.350  58.483  83.728  1.00  0.00     0.004 C 
ENDBRANCH  16  17
ENDBRANCH  15  16
ENDBRANCH  14  15
ENDBRANCH  13  14
ENDBRANCH  12  13
ENDBRANCH  11  12
ENDBRANCH   1  11
TORSDOF 14
ENDMDL
MODEL 7
REMARK VINA RESULT:    -4.810      7.219      9.932
REMARK INTER + INTRA:         -10.485
REMARK INTER:                  -8.703
REMARK INTRA:                  -1.783
REMARK UNBOUND:                -1.739
REMARK SMILES CCCCCCCCCCCCCCCC(=O)[O-]
REMARK SMILES IDX 9 1 10 2 11 3 12 4 13 5 14 6 15 7 16 8 17 9 18 10 8 11 7 12
REMARK SMILES IDX 6 13 5 14 4 15 3 16 2 17 1 18
REMARK H PARENT
REMARK Flexibility Score: inf
ROOT
ATOM      1  C   UNL     1      44.897  56.155  83.203  1.00  0.00     0.000 C 
ENDROOT
BRANCH   1   2
ATOM      2  C   UNL     1      44.552  55.622  81.804  1.00  0.00     0.000 C 
BRANCH   2   3
ATOM      3  C   UNL     1      43.953  56.700  80.887  1.00  0.00     0.000 C 
BRANCH   3   4
ATOM      4  C   UNL     1      43.711  56.192  79.456  1.00  0.00     0.000 C 
BRANCH   4   5
ATOM      5  C   UNL     1      44.582  54.973  79.108  1.00  0.00     0.000 C 
BRANCH   5   6
ATOM      6  C   UNL     1      45.869  55.357  78.358  1.00  0.00     0.006 C 
BRANCH   6   7
ATOM      7  C   UNL     1      45.799  56.775  77.775  1.00  0.00     0.053 C 
BRANCH   7   8
ATOM      8  C   UNL     1      47.156  57.398  77.665  1.00  0.00     0.041 C 
ATOM      9  O   UNL     1      48.189  56.704  77.854  1.00  0.00    -0.550 OA
ATOM     10  O   UNL     1      47.280  58.754  77.389  1.00  0.00    -0.550 OA
ENDBRANCH   7   8
ENDBRANCH   6   7
ENDBRANCH   5   6
ENDBRANCH   4   5
ENDBRANCH   3   4
ENDBRANCH   2   3
ENDBRANCH   1   2
BRANCH   1  11
ATOM     11  C   UNL     1      43.905  55.627  84.251  1.00  0.00     0.000 C 
BRANCH  11  12
ATOM     12  C   UNL     1      43.445  54.189  83.963  1.00  0.00    -0.000 C 
BRANCH  12  13
ATOM     13  C   UNL     1      44.233  53.143  84.772  1.00  0.00    -0.000 C 
BRANCH  13  14
ATOM     14  C   UNL     1      44.962  52.135  83.870  1.00  0.00    -0.000 C 
BRANCH  14  15
ATOM     15  C   UNL     1      46.490  52.321  83.892  1.00  0.00    -0.000 C 
BRANCH  15  16
ATOM     16  C   UNL     1      47.005  53.041  82.628  1.00  0.00    -0.000 C 
BRANCH  16  17
ATOM     17  C   UNL     1      46.417  52.485  81.321  1.00  0.00    -0.003 C 
ATOM     18  C   UNL     1      47.467  52.286  80.229  1.00  0.00     0.004 C 
ENDBRANCH  16  17
ENDBRANCH  15  16
ENDBRANCH  14  15
ENDBRANCH  13  14
ENDBRANCH  12  13
ENDBRANCH  11  12
ENDBRANCH   1  11
TORSDOF 14
ENDMDL
MODEL 8
REMARK VINA RESULT:    -4.790      9.202     12.025
REMARK INTER + INTRA:         -10.449
REMARK INTER:                  -8.759
REMARK INTRA:                  -1.690
REMARK UNBOUND:                -1.739
REMARK SMILES CCCCCCCCCCCCCCCC(=O)[O-]
REMARK SMILES IDX 9 1 10 2 11 3 12 4 13 5 14 6 15 7 16 8 17 9 18 10 8 11 7 12
REMARK SMILES IDX 6 13 5 14 4 15 3 16 2 17 1 18
REMARK H PARENT
REMARK Flexibility Score: inf
ROOT
ATOM      1  C   UNL     1      42.319  56.229  85.472  1.00  0.00     0.000 C 
ENDROOT
BRANCH   1   2
ATOM      2  C   UNL     1      42.397  57.728  85.144  1.00  0.00     0.000 C 
BRANCH   2   3
ATOM      3  C   UNL     1      43.651  58.096  84.335  1.00  0.00     0.000 C 
BRANCH   3   4
ATOM      4  C   UNL     1      43.497  57.792  82.835  1.00  0.00     0.000 C 
BRANCH   4   5
ATOM      5  C   UNL     1      44.533  56.775  82.329  1.00  0.00     0.000 C 
BRANCH   5   6
ATOM      6  C   UNL     1      43.977  55.861  81.223  1.00  0.00     0.006 C 
BRANCH   6   7
ATOM      7  C   UNL     1      43.534  56.654  79.986  1.00  0.00     0.053 C 
BRANCH   7   8
ATOM      8  C   UNL     1      44.635  56.772  78.978  1.00  0.00     0.041 C 
ATOM      9  O   UNL     1      45.064  55.747  78.386  1.00  0.00    -0.550 OA
ATOM     10  O   UNL     1      45.213  58.008  78.719  1.00  0.00    -0.550 OA
ENDBRANCH   7   8
ENDBRANCH   6   7
ENDBRANCH   5   6
ENDBRANCH   4   5
ENDBRANCH   3   4
ENDBRANCH   2   3
ENDBRANCH   1   2
BRANCH   1  11
ATOM     11  C   UNL     1      43.489  55.803  86.373  1.00  0.00     0.000 C 
BRANCH  11  12
ATOM     12  C   UNL     1      44.373  54.725  85.728  1.00  0.00    -0.000 C 
BRANCH  12  13
ATOM     13  C   UNL     1      43.661  53.982  84.583  1.00  0.00    -0.000 C 
BRANCH  13  14
ATOM     14  C   UNL     1      44.650  53.288  83.633  1.00  0.00    -0.000 C 
BRANCH  14  15
ATOM     15  C   UNL     1      44.971  51.846  84.066  1.00  0.00    -0.000 C 
BRANCH  15  16
ATOM     16  C   UNL     1      46.267  51.766  84.900  1.00  0.00    -0.000 C 
BRANCH  16  17
ATOM     17  C   UNL     1      46.142  50.873  86.146  1.00  0.00    -0.003 C 
ATOM     18  C   UNL     1      45.318  51.514  87.261  1.00  0.00     0.004 C 
ENDBRANCH  16  17
ENDBRANCH  15  16
ENDBRANCH  14  15
ENDBRANCH  13  14
ENDBRANCH  12  13
ENDBRANCH  11  12
ENDBRANCH   1  11
TORSDOF 14
ENDMDL
MODEL 9
REMARK VINA RESULT:    -4.779      6.588      8.888
REMARK INTER + INTRA:         -10.430
REMARK INTER:                  -8.561
REMARK INTRA:                  -1.869
REMARK UNBOUND:                -1.739
REMARK SMILES CCCCCCCCCCCCCCCC(=O)[O-]
REMARK SMILES IDX 9 1 10 2 11 3 12 4 13 5 14 6 15 7 16 8 17 9 18 10 8 11 7 12
REMARK SMILES IDX 6 13 5 14 4 15 3 16 2 17 1 18
REMARK H PARENT
REMARK Flexibility Score: inf
ROOT
ATOM      1  C   UNL     1      53.108  55.780  76.759  1.00  0.00     0.000 C 
ENDROOT
BRANCH   1   2
ATOM      2  C   UNL     1      54.190  54.694  76.863  1.00  0.00     0.000 C 
BRANCH   2   3
ATOM      3  C   UNL     1      54.703  54.500  78.299  1.00  0.00     0.000 C 
BRANCH   3   4
ATOM      4  C   UNL     1      56.231  54.332  78.363  1.00  0.00     0.000 C 
BRANCH   4   5
ATOM      5  C   UNL     1      56.981  55.632  78.031  1.00  0.00     0.000 C 
BRANCH   5   6
ATOM      6  C   UNL     1      57.222  56.512  79.270  1.00  0.00     0.006 C 
BRANCH   6   7
ATOM      7  C   UNL     1      58.069  55.798  80.332  1.00  0.00     0.053 C 
BRANCH   7   8
ATOM      8  C   UNL     1      57.425  55.850  81.683  1.00  0.00     0.041 C 
ATOM      9  O   UNL     1      56.753  56.858  82.026  1.00  0.00    -0.550 OA
ATOM     10  O   UNL     1      57.595  54.800  82.576  1.00  0.00    -0.550 OA
ENDBRANCH   7   8
ENDBRANCH   6   7
ENDBRANCH   5   6
ENDBRANCH   4   5
ENDBRANCH   3   4
ENDBRANCH   2   3
ENDBRANCH   1   2
BRANCH   1  11
ATOM     11  C   UNL     1      53.696  57.089  76.211  1.00  0.00     0.000 C 
BRANCH  11  12
ATOM     12  C   UNL     1      54.248  58.003  77.317  1.00  0.00    -0.000 C 
BRANCH  12  13
ATOM     13  C   UNL     1      53.311  58.089  78.535  1.00  0.00    -0.000 C 
BRANCH  13  14
ATOM     14  C   UNL     1      52.847  59.527  78.814  1.00  0.00    -0.000 C 
BRANCH  14  15
ATOM     15  C   UNL     1      52.113  60.154  77.615  1.00  0.00    -0.000 C 
BRANCH  15  16
ATOM     16  C   UNL     1      50.627  59.742  77.565  1.00  0.00    -0.000 C 
BRANCH  16  17
ATOM     17  C   UNL     1      50.242  58.986  76.282  1.00  0.00    -0.003 C 
ATOM     18  C   UNL     1      51.107  59.364  75.082  1.00  0.00     0.004 C 
ENDBRANCH  16  17
ENDBRANCH  15  16
ENDBRANCH  14  15
ENDBRANCH  13  14
ENDBRANCH  12  13
ENDBRANCH  11  12
ENDBRANCH   1  11
TORSDOF 14
ENDMDL
