MODEL 1
REMARK VINA RESULT:    -6.411      0.000      0.000
REMARK INTER + INTRA:          -8.212
REMARK INTER:                  -7.910
REMARK INTRA:                  -0.302
REMARK UNBOUND:                -0.302
REMARK SMILES COc1cc(-c2oc3cc(O)cc(O)c3c(=O)c2O)ccc1O
REMARK SMILES IDX 6 1 18 2 16 3 17 4 15 5 13 6 12 7 10 8 9 9 8 10 7 11 5 12
REMARK SMILES IDX 3 13 22 14 4 15 21 16 20 17 2 18 1 19 23 20 19 22 14 24
REMARK SMILES IDX 11 26
REMARK H PARENT 23 21 19 23 14 25 11 27
REMARK Flexibility Score: inf
ROOT
ATOM      1  C   UNL     1      18.460  -1.159 -16.656  1.00  0.00     0.180 A 
ATOM      2  C   UNL     1      17.744  -0.394 -15.718  1.00  0.00     0.208 A 
ATOM      3  C   UNL     1      17.043  -1.053 -14.695  1.00  0.00     0.238 A 
ATOM      4  O   UNL     1      16.360  -0.367 -13.890  1.00  0.00    -0.285 OA
ATOM      5  C   UNL     1      17.078  -2.467 -14.614  1.00  0.00     0.111 A 
ATOM      6  C   UNL     1      16.438  -3.236 -13.596  1.00  0.00     0.134 A 
ATOM      7  C   UNL     1      16.430  -4.633 -13.689  1.00  0.00     0.093 A 
ATOM      8  C   UNL     1      17.097  -5.289 -14.728  1.00  0.00     0.123 A 
ATOM      9  C   UNL     1      17.775  -4.549 -15.692  1.00  0.00     0.094 A 
ATOM     10  C   UNL     1      17.769  -3.153 -15.646  1.00  0.00     0.146 A 
ATOM     11  O   UNL     1      18.419  -2.484 -16.592  1.00  0.00    -0.452 OA
ENDROOT
BRANCH   1  12
ATOM     12  C   UNL     1      19.243  -0.535 -17.747  1.00  0.00     0.025 A 
ATOM     13  C   UNL     1      21.174   0.745 -18.534  1.00  0.00     0.161 A 
ATOM     14  C   UNL     1      20.727   0.586 -19.857  1.00  0.00     0.157 A 
ATOM     15  C   UNL     1      20.429   0.174 -17.482  1.00  0.00     0.062 A 
ATOM     16  C   UNL     1      19.561  -0.137 -20.120  1.00  0.00     0.051 A 
ATOM     17  C   UNL     1      18.827  -0.701 -19.075  1.00  0.00     0.016 A 
BRANCH  13  18
ATOM     18  O   UNL     1      22.356   1.467 -18.299  1.00  0.00    -0.493 OA
ATOM     19  C   UNL     1      22.997   1.579 -17.033  1.00  0.00     0.278 C 
ENDBRANCH  13  18
BRANCH  14  20
ATOM     20  O   UNL     1      21.432   1.138 -20.927  1.00  0.00    -0.504 OA
ATOM     21  H   UNL     1      22.339   0.790 -21.213  1.00  0.00     0.293 HD
ENDBRANCH  14  20
ENDBRANCH   1  12
BRANCH   2  22
ATOM     22  O   UNL     1      17.704   0.998 -15.829  1.00  0.00    -0.502 OA
ATOM     23  H   UNL     1      17.606   1.471 -16.720  1.00  0.00     0.293 HD
ENDBRANCH   2  22
BRANCH   6  24
ATOM     24  O   UNL     1      15.824  -2.682 -12.469  1.00  0.00    -0.507 OA
ATOM     25  H   UNL     1      16.242  -1.986 -11.870  1.00  0.00     0.293 HD
ENDBRANCH   6  24
BRANCH   8  26
ATOM     26  O   UNL     1      17.097  -6.681 -14.803  1.00  0.00    -0.508 OA
ATOM     27  H   UNL     1      17.961  -7.210 -14.803  1.00  0.00     0.293 HD
ENDBRANCH   8  26
TORSDOF 6
ENDMDL
MODEL 2
REMARK VINA RESULT:    -6.341      8.524     12.591
REMARK INTER + INTRA:          -8.125
REMARK INTER:                  -8.612
REMARK INTRA:                   0.487
REMARK UNBOUND:                -0.302
REMARK SMILES COc1cc(-c2oc3cc(O)cc(O)c3c(=O)c2O)ccc1O
REMARK SMILES IDX 6 1 18 2 16 3 17 4 15 5 13 6 12 7 10 8 9 9 8 10 7 11 5 12
REMARK SMILES IDX 3 13 22 14 4 15 21 16 20 17 2 18 1 19 23 20 19 22 14 24
REMARK SMILES IDX 11 26
REMARK H PARENT 23 21 19 23 14 25 11 27
REMARK Flexibility Score: inf
ROOT
ATOM      1  C   UNL     1      10.828  -7.297  -9.188  1.00  0.00     0.180 A 
ATOM      2  C   UNL     1      10.127  -8.516  -9.157  1.00  0.00     0.208 A 
ATOM      3  C   UNL     1       9.099  -8.686  -8.216  1.00  0.00     0.238 A 
ATOM      4  O   UNL     1       8.511  -9.797  -8.157  1.00  0.00    -0.285 OA
ATOM      5  C   UNL     1       8.775  -7.631  -7.328  1.00  0.00     0.111 A 
ATOM      6  C   UNL     1       7.726  -7.679  -6.361  1.00  0.00     0.134 A 
ATOM      7  C   UNL     1       7.580  -6.628  -5.448  1.00  0.00     0.093 A 
ATOM      8  C   UNL     1       8.404  -5.501  -5.509  1.00  0.00     0.123 A 
ATOM      9  C   UNL     1       9.391  -5.418  -6.488  1.00  0.00     0.094 A 
ATOM     10  C   UNL     1       9.584  -6.467  -7.389  1.00  0.00     0.146 A 
ATOM     11  O   UNL     1      10.545  -6.353  -8.299  1.00  0.00    -0.452 OA
ENDROOT
BRANCH   1  12
ATOM     12  C   UNL     1      11.907  -7.035 -10.168  1.00  0.00     0.025 A 
ATOM     13  C   UNL     1      13.691  -5.617 -11.058  1.00  0.00     0.161 A 
ATOM     14  C   UNL     1      13.985  -6.604 -12.015  1.00  0.00     0.157 A 
ATOM     15  C   UNL     1      12.653  -5.843 -10.132  1.00  0.00     0.062 A 
ATOM     16  C   UNL     1      13.257  -7.797 -12.036  1.00  0.00     0.051 A 
ATOM     17  C   UNL     1      12.231  -8.016 -11.116  1.00  0.00     0.016 A 
BRANCH  13  18
ATOM     18  O   UNL     1      14.446  -4.432 -11.052  1.00  0.00    -0.493 OA
ATOM     19  C   UNL     1      15.636  -4.235 -10.295  1.00  0.00     0.278 C 
ENDBRANCH  13  18
BRANCH  14  20
ATOM     20  O   UNL     1      15.001  -6.419 -12.953  1.00  0.00    -0.504 OA
ATOM     21  H   UNL     1      15.208  -7.106 -13.667  1.00  0.00     0.293 HD
ENDBRANCH  14  20
ENDBRANCH   1  12
BRANCH   2  22
ATOM     22  O   UNL     1      10.478  -9.551 -10.027  1.00  0.00    -0.502 OA
ATOM     23  H   UNL     1      11.042 -10.340  -9.736  1.00  0.00     0.293 HD
ENDBRANCH   2  22
BRANCH   6  24
ATOM     24  O   UNL     1       6.791  -8.716  -6.275  1.00  0.00    -0.507 OA
ATOM     25  H   UNL     1       5.954  -8.783  -6.833  1.00  0.00     0.293 HD
ENDBRANCH   6  24
BRANCH   8  26
ATOM     26  O   UNL     1       8.241  -4.452  -4.607  1.00  0.00    -0.508 OA
ATOM     27  H   UNL     1       8.903  -4.293  -3.856  1.00  0.00     0.293 HD
ENDBRANCH   8  26
TORSDOF 6
ENDMDL
MODEL 3
REMARK VINA RESULT:    -6.044      3.697      5.050
REMARK INTER + INTRA:          -7.759
REMARK INTER:                  -7.588
REMARK INTRA:                  -0.171
REMARK UNBOUND:                -0.302
REMARK SMILES COc1cc(-c2oc3cc(O)cc(O)c3c(=O)c2O)ccc1O
REMARK SMILES IDX 6 1 18 2 16 3 17 4 15 5 13 6 12 7 10 8 9 9 8 10 7 11 5 12
REMARK SMILES IDX 3 13 22 14 4 15 21 16 20 17 2 18 1 19 23 20 19 22 14 24
REMARK SMILES IDX 11 26
REMARK H PARENT 23 21 19 23 14 25 11 27
REMARK Flexibility Score: inf
ROOT
ATOM      1  C   UNL     1      20.782   0.747 -17.345  1.00  0.00     0.180 A 
ATOM      2  C   UNL     1      21.957   1.120 -16.668  1.00  0.00     0.208 A 
ATOM      3  C   UNL     1      21.872   1.504 -15.319  1.00  0.00     0.238 A 
ATOM      4  O   UNL     1      22.918   1.888 -14.734  1.00  0.00    -0.285 OA
ATOM      5  C   UNL     1      20.618   1.495 -14.662  1.00  0.00     0.111 A 
ATOM      6  C   UNL     1      20.422   1.826 -13.287  1.00  0.00     0.134 A 
ATOM      7  C   UNL     1      19.122   1.911 -12.776  1.00  0.00     0.093 A 
ATOM      8  C   UNL     1      18.014   1.612 -13.573  1.00  0.00     0.123 A 
ATOM      9  C   UNL     1      18.199   1.229 -14.899  1.00  0.00     0.094 A 
ATOM     10  C   UNL     1      19.482   1.172 -15.447  1.00  0.00     0.146 A 
ATOM     11  O   UNL     1      19.613   0.814 -16.719  1.00  0.00    -0.452 OA
ENDROOT
BRANCH   1  12
ATOM     12  C   UNL     1      20.795   0.307 -18.759  1.00  0.00     0.025 A 
ATOM     13  C   UNL     1      21.272   0.716 -21.123  1.00  0.00     0.161 A 
ATOM     14  C   UNL     1      20.853  -0.591 -21.424  1.00  0.00     0.157 A 
ATOM     15  C   UNL     1      21.247   1.157 -19.785  1.00  0.00     0.062 A 
ATOM     16  C   UNL     1      20.424  -1.442 -20.401  1.00  0.00     0.051 A 
ATOM     17  C   UNL     1      20.402  -1.000 -19.077  1.00  0.00     0.016 A 
BRANCH  13  18
ATOM     18  O   UNL     1      21.709   1.545 -22.170  1.00  0.00    -0.493 OA
ATOM     19  C   UNL     1      21.969   2.940 -22.042  1.00  0.00     0.278 C 
ENDBRANCH  13  18
BRANCH  14  20
ATOM     20  O   UNL     1      20.858  -1.066 -22.736  1.00  0.00    -0.504 OA
ATOM     21  H   UNL     1      20.260  -1.826 -23.038  1.00  0.00     0.293 HD
ENDBRANCH  14  20
ENDBRANCH   1  12
BRANCH   2  22
ATOM     22  O   UNL     1      23.180   1.143 -17.342  1.00  0.00    -0.502 OA
ATOM     23  H   UNL     1      23.282   0.819 -18.297  1.00  0.00     0.293 HD
ENDBRANCH   2  22
BRANCH   6  24
ATOM     24  O   UNL     1      21.465   2.053 -12.383  1.00  0.00    -0.507 OA
ATOM     25  H   UNL     1      21.494   1.700 -11.438  1.00  0.00     0.293 HD
ENDBRANCH   6  24
BRANCH   8  26
ATOM     26  O   UNL     1      16.724   1.683 -13.052  1.00  0.00    -0.508 OA
ATOM     27  H   UNL     1      16.547   1.581 -12.059  1.00  0.00     0.293 HD
ENDBRANCH   8  26
TORSDOF 6
ENDMDL
MODEL 4
REMARK VINA RESULT:    -5.861      1.795      7.020
REMARK INTER + INTRA:          -7.533
REMARK INTER:                  -7.138
REMARK INTRA:                  -0.395
REMARK UNBOUND:                -0.302
REMARK SMILES COc1cc(-c2oc3cc(O)cc(O)c3c(=O)c2O)ccc1O
REMARK SMILES IDX 6 1 18 2 16 3 17 4 15 5 13 6 12 7 10 8 9 9 8 10 7 11 5 12
REMARK SMILES IDX 3 13 22 14 4 15 21 16 20 17 2 18 1 19 23 20 19 22 14 24
REMARK SMILES IDX 11 26
REMARK H PARENT 23 21 19 23 14 25 11 27
REMARK Flexibility Score: inf
ROOT
ATOM      1  C   UNL     1      18.114  -0.192 -15.654  1.00  0.00     0.180 A 
ATOM      2  C   UNL     1      19.208   0.544 -15.166  1.00  0.00     0.208 A 
ATOM      3  C   UNL     1      20.241   0.895 -16.050  1.00  0.00     0.238 A 
ATOM      4  O   UNL     1      21.243   1.507 -15.596  1.00  0.00    -0.285 OA
ATOM      5  C   UNL     1      20.161   0.520 -17.413  1.00  0.00     0.111 A 
ATOM      6  C   UNL     1      21.130   0.857 -18.405  1.00  0.00     0.134 A 
ATOM      7  C   UNL     1      21.015   0.322 -19.693  1.00  0.00     0.093 A 
ATOM      8  C   UNL     1      19.929  -0.485 -20.043  1.00  0.00     0.123 A 
ATOM      9  C   UNL     1      18.946  -0.770 -19.099  1.00  0.00     0.094 A 
ATOM     10  C   UNL     1      19.053  -0.280 -17.795  1.00  0.00     0.146 A 
ATOM     11  O   UNL     1      18.100  -0.586 -16.923  1.00  0.00    -0.452 OA
ENDROOT
BRANCH   1  12
ATOM     12  C   UNL     1      16.975  -0.578 -14.790  1.00  0.00     0.025 A 
ATOM     13  C   UNL     1      15.877  -2.152 -13.273  1.00  0.00     0.161 A 
ATOM     14  C   UNL     1      14.816  -1.244 -13.113  1.00  0.00     0.157 A 
ATOM     15  C   UNL     1      16.959  -1.808 -14.108  1.00  0.00     0.062 A 
ATOM     16  C   UNL     1      14.844  -0.012 -13.773  1.00  0.00     0.051 A 
ATOM     17  C   UNL     1      15.918   0.324 -14.600  1.00  0.00     0.016 A 
BRANCH  13  18
ATOM     18  O   UNL     1      15.829  -3.378 -12.588  1.00  0.00    -0.493 OA
ATOM     19  C   UNL     1      15.848  -4.656 -13.215  1.00  0.00     0.278 C 
ENDBRANCH  13  18
BRANCH  14  20
ATOM     20  O   UNL     1      13.725  -1.546 -12.299  1.00  0.00    -0.504 OA
ATOM     21  H   UNL     1      13.468  -0.972 -11.505  1.00  0.00     0.293 HD
ENDBRANCH  14  20
ENDBRANCH   1  12
BRANCH   2  22
ATOM     22  O   UNL     1      19.278   0.885 -13.813  1.00  0.00    -0.502 OA
ATOM     23  H   UNL     1      20.035   1.436 -13.428  1.00  0.00     0.293 HD
ENDBRANCH   2  22
BRANCH   6  24
ATOM     24  O   UNL     1      22.202   1.728 -18.184  1.00  0.00    -0.507 OA
ATOM     25  H   UNL     1      22.443   2.128 -17.290  1.00  0.00     0.293 HD
ENDBRANCH   6  24
BRANCH   8  26
ATOM     26  O   UNL     1      19.813  -1.000 -21.332  1.00  0.00    -0.508 OA
ATOM     27  H   UNL     1      18.912  -1.092 -21.787  1.00  0.00     0.293 HD
ENDBRANCH   8  26
TORSDOF 6
ENDMDL
MODEL 5
REMARK VINA RESULT:    -5.820      7.594     12.715
REMARK INTER + INTRA:          -7.483
REMARK INTER:                  -7.084
REMARK INTRA:                  -0.399
REMARK UNBOUND:                -0.302
REMARK SMILES COc1cc(-c2oc3cc(O)cc(O)c3c(=O)c2O)ccc1O
REMARK SMILES IDX 6 1 18 2 16 3 17 4 15 5 13 6 12 7 10 8 9 9 8 10 7 11 5 12
REMARK SMILES IDX 3 13 22 14 4 15 21 16 20 17 2 18 1 19 23 20 19 22 14 24
REMARK SMILES IDX 11 26
REMARK H PARENT 23 21 19 23 14 25 11 27
REMARK Flexibility Score: inf
ROOT
ATOM      1  C   UNL     1      10.731  -6.290 -10.556  1.00  0.00     0.180 A 
ATOM      2  C   UNL     1      10.783  -7.498 -11.274  1.00  0.00     0.208 A 
ATOM      3  C   UNL     1      11.978  -7.856 -11.918  1.00  0.00     0.238 A 
ATOM      4  O   UNL     1      12.002  -8.911 -12.604  1.00  0.00    -0.285 OA
ATOM      5  C   UNL     1      13.109  -7.009 -11.825  1.00  0.00     0.111 A 
ATOM      6  C   UNL     1      14.383  -7.293 -12.405  1.00  0.00     0.134 A 
ATOM      7  C   UNL     1      15.392  -6.324 -12.360  1.00  0.00     0.093 A 
ATOM      8  C   UNL     1      15.196  -5.109 -11.699  1.00  0.00     0.123 A 
ATOM      9  C   UNL     1      13.977  -4.848 -11.079  1.00  0.00     0.094 A 
ATOM     10  C   UNL     1      12.938  -5.780 -11.138  1.00  0.00     0.146 A 
ATOM     11  O   UNL     1      11.788  -5.487 -10.543  1.00  0.00    -0.452 OA
ENDROOT
BRANCH   1  12
ATOM     12  C   UNL     1       9.515  -5.857  -9.830  1.00  0.00     0.025 A 
ATOM     13  C   UNL     1       8.146  -5.780  -7.804  1.00  0.00     0.161 A 
ATOM     14  C   UNL     1       7.217  -4.965  -8.474  1.00  0.00     0.157 A 
ATOM     15  C   UNL     1       9.298  -6.217  -8.487  1.00  0.00     0.062 A 
ATOM     16  C   UNL     1       7.444  -4.590  -9.801  1.00  0.00     0.051 A 
ATOM     17  C   UNL     1       8.588  -5.025 -10.473  1.00  0.00     0.016 A 
BRANCH  13  18
ATOM     18  O   UNL     1       7.898  -6.132  -6.466  1.00  0.00    -0.493 OA
ATOM     19  C   UNL     1       8.355  -5.394  -5.338  1.00  0.00     0.278 C 
ENDBRANCH  13  18
BRANCH  14  20
ATOM     20  O   UNL     1       6.061  -4.514  -7.836  1.00  0.00    -0.504 OA
ATOM     21  H   UNL     1       5.602  -5.048  -7.108  1.00  0.00     0.293 HD
ENDBRANCH  14  20
ENDBRANCH   1  12
BRANCH   2  22
ATOM     22  O   UNL     1       9.647  -8.306 -11.371  1.00  0.00    -0.502 OA
ATOM     23  H   UNL     1       8.830  -8.171 -10.789  1.00  0.00     0.293 HD
ENDBRANCH   2  22
BRANCH   6  24
ATOM     24  O   UNL     1      14.712  -8.511 -13.007  1.00  0.00    -0.507 OA
ATOM     25  H   UNL     1      14.165  -8.965 -13.723  1.00  0.00     0.293 HD
ENDBRANCH   6  24
BRANCH   8  26
ATOM     26  O   UNL     1      16.212  -4.157 -11.646  1.00  0.00    -0.508 OA
ATOM     27  H   UNL     1      16.901  -4.159 -10.903  1.00  0.00     0.293 HD
ENDBRANCH   8  26
TORSDOF 6
ENDMDL
MODEL 6
REMARK VINA RESULT:    -5.818      2.288      7.019
REMARK INTER + INTRA:          -7.480
REMARK INTER:                  -7.082
REMARK INTRA:                  -0.398
REMARK UNBOUND:                -0.302
REMARK SMILES COc1cc(-c2oc3cc(O)cc(O)c3c(=O)c2O)ccc1O
REMARK SMILES IDX 6 1 18 2 16 3 17 4 15 5 13 6 12 7 10 8 9 9 8 10 7 11 5 12
REMARK SMILES IDX 3 13 22 14 4 15 21 16 20 17 2 18 1 19 23 20 19 22 14 24
REMARK SMILES IDX 11 26
REMARK H PARENT 23 21 19 23 14 25 11 27
REMARK Flexibility Score: inf
ROOT
ATOM      1  C   UNL     1      18.116  -0.119 -15.628  1.00  0.00     0.180 A 
ATOM      2  C   UNL     1      19.223   0.607 -15.155  1.00  0.00     0.208 A 
ATOM      3  C   UNL     1      20.259   0.928 -16.048  1.00  0.00     0.238 A 
ATOM      4  O   UNL     1      21.272   1.531 -15.607  1.00  0.00    -0.285 OA
ATOM      5  C   UNL     1      20.167   0.533 -17.404  1.00  0.00     0.111 A 
ATOM      6  C   UNL     1      21.139   0.839 -18.405  1.00  0.00     0.134 A 
ATOM      7  C   UNL     1      21.010   0.285 -19.684  1.00  0.00     0.093 A 
ATOM      8  C   UNL     1      19.910  -0.510 -20.018  1.00  0.00     0.123 A 
ATOM      9  C   UNL     1      18.926  -0.764 -19.065  1.00  0.00     0.094 A 
ATOM     10  C   UNL     1      19.046  -0.256 -17.770  1.00  0.00     0.146 A 
ATOM     11  O   UNL     1      18.091  -0.533 -16.889  1.00  0.00    -0.452 OA
ENDROOT
BRANCH   1  12
ATOM     12  C   UNL     1      16.975  -0.473 -14.753  1.00  0.00     0.025 A 
ATOM     13  C   UNL     1      14.811   0.054 -13.741  1.00  0.00     0.161 A 
ATOM     14  C   UNL     1      14.801  -1.211 -13.126  1.00  0.00     0.157 A 
ATOM     15  C   UNL     1      15.900   0.413 -14.560  1.00  0.00     0.062 A 
ATOM     16  C   UNL     1      15.860  -2.099 -13.337  1.00  0.00     0.051 A 
ATOM     17  C   UNL     1      16.935  -1.738 -14.150  1.00  0.00     0.016 A 
BRANCH  13  18
ATOM     18  O   UNL     1      13.729   0.921 -13.521  1.00  0.00    -0.493 OA
ATOM     19  C   UNL     1      13.090   1.690 -14.535  1.00  0.00     0.278 C 
ENDBRANCH  13  18
BRANCH  14  20
ATOM     20  O   UNL     1      13.746  -1.606 -12.305  1.00  0.00    -0.504 OA
ATOM     21  H   UNL     1      12.783  -1.366 -12.510  1.00  0.00     0.293 HD
ENDBRANCH  14  20
ENDBRANCH   1  12
BRANCH   2  22
ATOM     22  O   UNL     1      19.304   0.968 -13.807  1.00  0.00    -0.502 OA
ATOM     23  H   UNL     1      18.596   0.710 -13.131  1.00  0.00     0.293 HD
ENDBRANCH   2  22
BRANCH   6  24
ATOM     24  O   UNL     1      22.225   1.696 -18.201  1.00  0.00    -0.507 OA
ATOM     25  H   UNL     1      22.734   1.784 -17.335  1.00  0.00     0.293 HD
ENDBRANCH   6  24
BRANCH   8  26
ATOM     26  O   UNL     1      19.781  -1.043 -21.298  1.00  0.00    -0.508 OA
ATOM     27  H   UNL     1      18.969  -0.852 -21.873  1.00  0.00     0.293 HD
ENDBRANCH   8  26
TORSDOF 6
ENDMDL
MODEL 7
REMARK VINA RESULT:    -5.810      6.428      9.726
REMARK INTER + INTRA:          -7.470
REMARK INTER:                  -7.091
REMARK INTRA:                  -0.379
REMARK UNBOUND:                -0.302
REMARK SMILES COc1cc(-c2oc3cc(O)cc(O)c3c(=O)c2O)ccc1O
REMARK SMILES IDX 6 1 18 2 16 3 17 4 15 5 13 6 12 7 10 8 9 9 8 10 7 11 5 12
REMARK SMILES IDX 3 13 22 14 4 15 21 16 20 17 2 18 1 19 23 20 19 22 14 24
REMARK SMILES IDX 11 26
REMARK H PARENT 23 21 19 23 14 25 11 27
REMARK Flexibility Score: inf
ROOT
ATOM      1  C   UNL     1      13.269  -5.717 -10.823  1.00  0.00     0.180 A 
ATOM      2  C   UNL     1      13.296  -6.905 -11.573  1.00  0.00     0.208 A 
ATOM      3  C   UNL     1      12.363  -7.915 -11.283  1.00  0.00     0.238 A 
ATOM      4  O   UNL     1      12.426  -8.997 -11.922  1.00  0.00    -0.285 OA
ATOM      5  C   UNL     1      11.408  -7.717 -10.257  1.00  0.00     0.111 A 
ATOM      6  C   UNL     1      10.391  -8.656  -9.905  1.00  0.00     0.134 A 
ATOM      7  C   UNL     1       9.583  -8.412  -8.788  1.00  0.00     0.093 A 
ATOM      8  C   UNL     1       9.712  -7.232  -8.050  1.00  0.00     0.123 A 
ATOM      9  C   UNL     1      10.660  -6.283  -8.422  1.00  0.00     0.094 A 
ATOM     10  C   UNL     1      11.505  -6.515  -9.510  1.00  0.00     0.146 A 
ATOM     11  O   UNL     1      12.404  -5.589  -9.824  1.00  0.00    -0.452 OA
ENDROOT
BRANCH   1  12
ATOM     12  C   UNL     1      14.203  -4.598 -11.086  1.00  0.00     0.025 A 
ATOM     13  C   UNL     1      16.274  -3.384 -10.616  1.00  0.00     0.161 A 
ATOM     14  C   UNL     1      15.976  -2.490 -11.660  1.00  0.00     0.157 A 
ATOM     15  C   UNL     1      15.385  -4.442 -10.340  1.00  0.00     0.062 A 
ATOM     16  C   UNL     1      14.812  -2.660 -12.415  1.00  0.00     0.051 A 
ATOM     17  C   UNL     1      13.935  -3.710 -12.137  1.00  0.00     0.016 A 
BRANCH  13  18
ATOM     18  O   UNL     1      17.456  -3.196  -9.881  1.00  0.00    -0.493 OA
ATOM     19  C   UNL     1      17.504  -2.851  -8.500  1.00  0.00     0.278 C 
ENDBRANCH  13  18
BRANCH  14  20
ATOM     20  O   UNL     1      16.826  -1.427 -11.964  1.00  0.00    -0.504 OA
ATOM     21  H   UNL     1      16.689  -0.499 -11.582  1.00  0.00     0.293 HD
ENDBRANCH  14  20
ENDBRANCH   1  12
BRANCH   2  22
ATOM     22  O   UNL     1      14.262  -7.088 -12.566  1.00  0.00    -0.502 OA
ATOM     23  H   UNL     1      14.787  -6.319 -12.964  1.00  0.00     0.293 HD
ENDBRANCH   2  22
BRANCH   6  24
ATOM     24  O   UNL     1      10.119  -9.820 -10.631  1.00  0.00    -0.507 OA
ATOM     25  H   UNL     1       9.304  -9.960 -11.208  1.00  0.00     0.293 HD
ENDBRANCH   6  24
BRANCH   8  26
ATOM     26  O   UNL     1       8.892  -6.990  -6.950  1.00  0.00    -0.508 OA
ATOM     27  H   UNL     1       8.473  -7.748  -6.425  1.00  0.00     0.293 HD
ENDBRANCH   8  26
TORSDOF 6
ENDMDL
MODEL 8
REMARK VINA RESULT:    -5.758      1.847      2.853
REMARK INTER + INTRA:          -7.407
REMARK INTER:                  -7.212
REMARK INTRA:                  -0.195
REMARK UNBOUND:                -0.302
REMARK SMILES COc1cc(-c2oc3cc(O)cc(O)c3c(=O)c2O)ccc1O
REMARK SMILES IDX 6 1 18 2 16 3 17 4 15 5 13 6 12 7 10 8 9 9 8 10 7 11 5 12
REMARK SMILES IDX 3 13 22 14 4 15 21 16 20 17 2 18 1 19 23 20 19 22 14 24
REMARK SMILES IDX 11 26
REMARK H PARENT 23 21 19 23 14 25 11 27
REMARK Flexibility Score: inf
ROOT
ATOM      1  C   UNL     1      17.365  -0.461 -15.129  1.00  0.00     0.180 A 
ATOM      2  C   UNL     1      16.405   0.489 -14.739  1.00  0.00     0.208 A 
ATOM      3  C   UNL     1      15.333   0.081 -13.929  1.00  0.00     0.238 A 
ATOM      4  O   UNL     1      14.448   0.924 -13.627  1.00  0.00    -0.285 OA
ATOM      5  C   UNL     1      15.243  -1.268 -13.507  1.00  0.00     0.111 A 
ATOM      6  C   UNL     1      14.222  -1.783 -12.652  1.00  0.00     0.134 A 
ATOM      7  C   UNL     1      14.157  -3.160 -12.406  1.00  0.00     0.093 A 
ATOM      8  C   UNL     1      15.115  -4.031 -12.931  1.00  0.00     0.123 A 
ATOM      9  C   UNL     1      16.150  -3.530 -13.717  1.00  0.00     0.094 A 
ATOM     10  C   UNL     1      16.220  -2.166 -14.009  1.00  0.00     0.146 A 
ATOM     11  O   UNL     1      17.216  -1.731 -14.773  1.00  0.00    -0.452 OA
ENDROOT
BRANCH   1  12
ATOM     12  C   UNL     1      18.535  -0.101 -15.962  1.00  0.00     0.025 A 
ATOM     13  C   UNL     1      19.820  -0.273 -18.037  1.00  0.00     0.161 A 
ATOM     14  C   UNL     1      20.746   0.655 -17.529  1.00  0.00     0.157 A 
ATOM     15  C   UNL     1      18.711  -0.641 -17.249  1.00  0.00     0.062 A 
ATOM     16  C   UNL     1      20.558   1.208 -16.260  1.00  0.00     0.051 A 
ATOM     17  C   UNL     1      19.458   0.840 -15.483  1.00  0.00     0.016 A 
BRANCH  13  18
ATOM     18  O   UNL     1      20.027  -0.804 -19.321  1.00  0.00    -0.493 OA
ATOM     19  C   UNL     1      19.465  -0.272 -20.516  1.00  0.00     0.278 C 
ENDBRANCH  13  18
BRANCH  14  20
ATOM     20  O   UNL     1      21.859   1.044 -18.274  1.00  0.00    -0.504 OA
ATOM     21  H   UNL     1      22.382   1.886 -18.065  1.00  0.00     0.293 HD
ENDBRANCH  14  20
ENDBRANCH   1  12
BRANCH   2  22
ATOM     22  O   UNL     1      16.501   1.810 -15.185  1.00  0.00    -0.502 OA
ATOM     23  H   UNL     1      15.980   2.155 -15.982  1.00  0.00     0.293 HD
ENDBRANCH   2  22
BRANCH   6  24
ATOM     24  O   UNL     1      13.272  -0.987 -12.004  1.00  0.00    -0.507 OA
ATOM     25  H   UNL     1      13.000  -1.088 -11.038  1.00  0.00     0.293 HD
ENDBRANCH   6  24
BRANCH   8  26
ATOM     26  O   UNL     1      15.052  -5.398 -12.668  1.00  0.00    -0.508 OA
ATOM     27  H   UNL     1      14.705  -5.751 -11.784  1.00  0.00     0.293 HD
ENDBRANCH   8  26
TORSDOF 6
ENDMDL
MODEL 9
REMARK VINA RESULT:    -5.715     10.395     12.994
REMARK INTER + INTRA:          -7.353
REMARK INTER:                  -6.979
REMARK INTRA:                  -0.374
REMARK UNBOUND:                -0.302
REMARK SMILES COc1cc(-c2oc3cc(O)cc(O)c3c(=O)c2O)ccc1O
REMARK SMILES IDX 6 1 18 2 16 3 17 4 15 5 13 6 12 7 10 8 9 9 8 10 7 11 5 12
REMARK SMILES IDX 3 13 22 14 4 15 21 16 20 17 2 18 1 19 23 20 19 22 14 24
REMARK SMILES IDX 11 26
REMARK H PARENT 23 21 19 23 14 25 11 27
REMARK Flexibility Score: inf
ROOT
ATOM      1  C   UNL     1       8.363   3.847 -17.947  1.00  0.00     0.180 A 
ATOM      2  C   UNL     1       7.987   5.199 -17.855  1.00  0.00     0.208 A 
ATOM      3  C   UNL     1       8.985   6.186 -17.862  1.00  0.00     0.238 A 
ATOM      4  O   UNL     1       8.646   7.390 -17.725  1.00  0.00    -0.285 OA
ATOM      5  C   UNL     1      10.346   5.811 -17.976  1.00  0.00     0.111 A 
ATOM      6  C   UNL     1      11.438   6.729 -18.034  1.00  0.00     0.134 A 
ATOM      7  C   UNL     1      12.750   6.243 -18.014  1.00  0.00     0.093 A 
ATOM      8  C   UNL     1      13.010   4.870 -18.006  1.00  0.00     0.123 A 
ATOM      9  C   UNL     1      11.951   3.965 -18.010  1.00  0.00     0.094 A 
ATOM     10  C   UNL     1      10.631   4.421 -17.993  1.00  0.00     0.146 A 
ATOM     11  O   UNL     1       9.651   3.525 -17.986  1.00  0.00    -0.452 OA
ENDROOT
BRANCH   1  12
ATOM     12  C   UNL     1       7.367   2.752 -17.971  1.00  0.00     0.025 A 
ATOM     13  C   UNL     1       6.062   1.021 -16.837  1.00  0.00     0.161 A 
ATOM     14  C   UNL     1       5.427   0.716 -18.054  1.00  0.00     0.157 A 
ATOM     15  C   UNL     1       7.028   2.047 -16.802  1.00  0.00     0.062 A 
ATOM     16  C   UNL     1       5.749   1.432 -19.210  1.00  0.00     0.051 A 
ATOM     17  C   UNL     1       6.706   2.448 -19.169  1.00  0.00     0.016 A 
BRANCH  13  18
ATOM     18  O   UNL     1       5.711   0.293 -15.688  1.00  0.00    -0.493 OA
ATOM     19  C   UNL     1       6.631  -0.420 -14.869  1.00  0.00     0.278 C 
ENDBRANCH  13  18
BRANCH  14  20
ATOM     20  O   UNL     1       4.469  -0.295 -18.134  1.00  0.00    -0.504 OA
ATOM     21  H   UNL     1       3.476  -0.102 -18.094  1.00  0.00     0.293 HD
ENDBRANCH  14  20
ENDBRANCH   1  12
BRANCH   2  22
ATOM     22  O   UNL     1       6.640   5.546 -17.721  1.00  0.00    -0.502 OA
ATOM     23  H   UNL     1       6.324   6.508 -17.704  1.00  0.00     0.293 HD
ENDBRANCH   2  22
BRANCH   6  24
ATOM     24  O   UNL     1      11.286   8.116 -18.137  1.00  0.00    -0.507 OA
ATOM     25  H   UNL     1      11.958   8.738 -18.559  1.00  0.00     0.293 HD
ENDBRANCH   6  24
BRANCH   8  26
ATOM     26  O   UNL     1      14.320   4.395 -18.003  1.00  0.00    -0.508 OA
ATOM     27  H   UNL     1      14.672   3.819 -17.248  1.00  0.00     0.293 HD
ENDBRANCH   8  26
TORSDOF 6
ENDMDL
