MODEL 1
REMARK VINA RESULT:    26.719      0.000      0.000
REMARK INTER + INTRA:          26.719
REMARK INTER:                  26.719
REMARK INTRA:                   0.000
REMARK UNBOUND:                 0.000
REMARK SMILES O=c1ccc2ccc3occc3c2o1
REMARK SMILES IDX 6 1 7 2 8 3 12 4 11 5 10 6 9 7 13 8 5 9 4 10 3 11 2 12 1 13
REMARK SMILES IDX 14 14
REMARK H PARENT
REMARK Flexibility Score: inf
ROOT
ATOM      1  C   UNL     1      18.266  20.776   9.184  1.00  0.00     0.016 A 
ATOM      2  C   UNL     1      17.177  21.382   9.840  1.00  0.00     0.048 A 
ATOM      3  C   UNL     1      17.388  21.899  11.117  1.00  0.00     0.137 A 
ATOM      4  C   UNL     1      18.608  21.833  11.734  1.00  0.00     0.064 A 
ATOM      5  C   UNL     1      18.468  22.429  12.965  1.00  0.00     0.054 A 
ATOM      6  C   UNL     1      17.136  22.828  13.012  1.00  0.00     0.196 A 
ATOM      7  O   UNL     1      16.516  22.497  11.893  1.00  0.00    -0.464 OA
ATOM      8  C   UNL     1      19.710  21.242  11.117  1.00  0.00     0.149 A 
ATOM      9  C   UNL     1      19.531  20.704   9.817  1.00  0.00     0.018 A 
ATOM     10  C   UNL     1      20.632  20.110   9.193  1.00  0.00     0.019 A 
ATOM     11  C   UNL     1      21.856  20.066   9.862  1.00  0.00     0.094 A 
ATOM     12  C   UNL     1      21.953  20.619  11.146  1.00  0.00     0.336 A 
ATOM     13  O   UNL     1      23.051  20.587  11.761  1.00  0.00    -0.246 OA
ATOM     14  O   UNL     1      20.893  21.180  11.721  1.00  0.00    -0.422 OA
ENDROOT
TORSDOF 0
ENDMDL
MODEL 2
REMARK VINA RESULT:    27.931      1.382      4.224
REMARK INTER + INTRA:          27.931
REMARK INTER:                  27.931
REMARK INTRA:                   0.000
REMARK UNBOUND:                 0.000
REMARK SMILES O=c1ccc2ccc3occc3c2o1
REMARK SMILES IDX 6 1 7 2 8 3 12 4 11 5 10 6 9 7 13 8 5 9 4 10 3 11 2 12 1 13
REMARK SMILES IDX 14 14
REMARK H PARENT
REMARK Flexibility Score: inf
ROOT
ATOM      1  C   UNL     1      17.746  21.035   9.270  1.00  0.00     0.016 A 
ATOM      2  C   UNL     1      18.936  20.473   8.771  1.00  0.00     0.048 A 
ATOM      3  C   UNL     1      20.043  20.424   9.617  1.00  0.00     0.137 A 
ATOM      4  C   UNL     1      19.997  20.902  10.899  1.00  0.00     0.064 A 
ATOM      5  C   UNL     1      21.243  20.700  11.446  1.00  0.00     0.054 A 
ATOM      6  C   UNL     1      21.978  20.097  10.431  1.00  0.00     0.196 A 
ATOM      7  O   UNL     1      21.234  19.945   9.350  1.00  0.00    -0.464 OA
ATOM      8  C   UNL     1      18.838  21.465  11.429  1.00  0.00     0.149 A 
ATOM      9  C   UNL     1      17.692  21.531  10.596  1.00  0.00     0.018 A 
ATOM     10  C   UNL     1      16.527  22.095  11.123  1.00  0.00     0.019 A 
ATOM     11  C   UNL     1      16.529  22.569  12.436  1.00  0.00     0.094 A 
ATOM     12  C   UNL     1      17.701  22.469  13.197  1.00  0.00     0.336 A 
ATOM     13  O   UNL     1      17.718  22.892  14.382  1.00  0.00    -0.246 OA
ATOM     14  O   UNL     1      18.799  21.928  12.676  1.00  0.00    -0.422 OA
ENDROOT
TORSDOF 0
ENDMDL
