MODEL 1
REMARK VINA RESULT:    -6.076      0.000      0.000
REMARK INTER + INTRA:          -6.608
REMARK INTER:                  -6.608
REMARK INTRA:                   0.000
REMARK UNBOUND:                 0.000
REMARK SMILES Cc1cc(O)c2c(c1)C(=O)c1cc(O)cc(O)c1C2=O
REMARK SMILES IDX 1 1 2 2 8 3 7 4 6 5 4 6 3 7 19 8 20 9 18 10 11 11 9 12 10 13
REMARK SMILES IDX 12 14 13 15 15 16 16 17 5 18 17 20 14 22
REMARK H PARENT 5 19 17 21 14 23
REMARK Flexibility Score: inf
ROOT
ATOM      1  C   UNL     1     163.487 153.552 155.182  1.00  0.00     0.044 C 
ATOM      2  C   UNL     1     162.002 153.763 155.234  1.00  0.00    -0.047 A 
ATOM      3  C   UNL     1     161.458 154.729 156.088  1.00  0.00     0.016 A 
ATOM      4  C   UNL     1     160.068 154.914 156.165  1.00  0.00     0.038 A 
ATOM      5  C   UNL     1     159.207 154.119 155.375  1.00  0.00     0.076 A 
ATOM      6  C   UNL     1     159.760 153.086 154.576  1.00  0.00     0.127 A 
ATOM      7  C   UNL     1     161.148 152.933 154.500  1.00  0.00     0.050 A 
ATOM      8  C   UNL     1     157.757 154.443 155.372  1.00  0.00     0.201 C 
ATOM      9  O   UNL     1     157.065 154.209 154.345  1.00  0.00    -0.288 OA
ATOM     10  C   UNL     1     157.169 155.210 156.500  1.00  0.00     0.076 A 
ATOM     11  C   UNL     1     158.034 156.002 157.290  1.00  0.00     0.041 A 
ATOM     12  C   UNL     1     159.498 155.935 157.077  1.00  0.00     0.194 C 
ATOM     13  O   UNL     1     160.263 156.730 157.690  1.00  0.00    -0.289 OA
ATOM     14  C   UNL     1     157.499 156.846 158.278  1.00  0.00     0.059 A 
ATOM     15  C   UNL     1     156.123 156.900 158.497  1.00  0.00     0.120 A 
ATOM     16  C   UNL     1     155.268 156.088 157.747  1.00  0.00     0.093 A 
ATOM     17  C   UNL     1     155.777 155.224 156.772  1.00  0.00     0.131 A 
ENDROOT
BRANCH   6  18
ATOM     18  O   UNL     1     158.972 152.169 153.876  1.00  0.00    -0.507 OA
ATOM     19  H   UNL     1     158.117 152.417 153.399  1.00  0.00     0.293 HD
ENDBRANCH   6  18
BRANCH  17  20
ATOM     20  O   UNL     1     154.871 154.378 156.126  1.00  0.00    -0.507 OA
ATOM     21  H   UNL     1     153.931 154.211 156.456  1.00  0.00     0.293 HD
ENDBRANCH  17  20
BRANCH  15  22
ATOM     22  O   UNL     1     155.615 157.755 159.473  1.00  0.00    -0.508 OA
ATOM     23  H   UNL     1     155.427 157.432 160.414  1.00  0.00     0.293 HD
ENDBRANCH  15  22
TORSDOF 3
ENDMDL
MODEL 2
REMARK VINA RESULT:    -6.062      2.138      3.853
REMARK INTER + INTRA:          -6.593
REMARK INTER:                  -6.593
REMARK INTRA:                   0.000
REMARK UNBOUND:                 0.000
REMARK SMILES Cc1cc(O)c2c(c1)C(=O)c1cc(O)cc(O)c1C2=O
REMARK SMILES IDX 1 1 2 2 8 3 7 4 6 5 4 6 3 7 19 8 20 9 18 10 11 11 9 12 10 13
REMARK SMILES IDX 12 14 13 15 15 16 16 17 5 18 17 20 14 22
REMARK H PARENT 5 19 17 21 14 23
REMARK Flexibility Score: inf
ROOT
ATOM      1  C   UNL     1     160.604 151.827 154.725  1.00  0.00     0.044 C 
ATOM      2  C   UNL     1     159.842 153.004 155.260  1.00  0.00    -0.047 A 
ATOM      3  C   UNL     1     158.576 153.313 154.750  1.00  0.00     0.016 A 
ATOM      4  C   UNL     1     157.867 154.429 155.224  1.00  0.00     0.038 A 
ATOM      5  C   UNL     1     158.434 155.251 156.224  1.00  0.00     0.076 A 
ATOM      6  C   UNL     1     159.752 154.982 156.674  1.00  0.00     0.127 A 
ATOM      7  C   UNL     1     160.431 153.854 156.203  1.00  0.00     0.050 A 
ATOM      8  C   UNL     1     157.596 156.331 156.804  1.00  0.00     0.201 C 
ATOM      9  O   UNL     1     157.777 156.693 157.997  1.00  0.00    -0.288 OA
ATOM     10  C   UNL     1     156.430 156.850 156.044  1.00  0.00     0.076 A 
ATOM     11  C   UNL     1     155.866 156.026 155.043  1.00  0.00     0.041 A 
ATOM     12  C   UNL     1     156.528 154.753 154.675  1.00  0.00     0.194 C 
ATOM     13  O   UNL     1     155.965 153.957 153.875  1.00  0.00    -0.289 OA
ATOM     14  C   UNL     1     154.682 156.422 154.398  1.00  0.00     0.059 A 
ATOM     15  C   UNL     1     154.064 157.628 154.726  1.00  0.00     0.120 A 
ATOM     16  C   UNL     1     154.640 158.465 155.686  1.00  0.00     0.093 A 
ATOM     17  C   UNL     1     155.828 158.104 156.327  1.00  0.00     0.131 A 
ENDROOT
BRANCH   6  18
ATOM     18  O   UNL     1     160.436 155.824 157.554  1.00  0.00    -0.507 OA
ATOM     19  H   UNL     1     160.066 156.703 157.887  1.00  0.00     0.293 HD
ENDBRANCH   6  18
BRANCH  17  20
ATOM     20  O   UNL     1     156.392 159.031 157.208  1.00  0.00    -0.507 OA
ATOM     21  H   UNL     1     157.004 159.780 156.914  1.00  0.00     0.293 HD
ENDBRANCH  17  20
BRANCH  15  22
ATOM     22  O   UNL     1     152.883 157.993 154.083  1.00  0.00    -0.508 OA
ATOM     23  H   UNL     1     152.891 158.565 153.247  1.00  0.00     0.293 HD
ENDBRANCH  15  22
TORSDOF 3
ENDMDL
MODEL 3
REMARK VINA RESULT:    -5.799      1.488      3.556
REMARK INTER + INTRA:          -6.307
REMARK INTER:                  -6.307
REMARK INTRA:                   0.000
REMARK UNBOUND:                 0.000
REMARK SMILES Cc1cc(O)c2c(c1)C(=O)c1cc(O)cc(O)c1C2=O
REMARK SMILES IDX 1 1 2 2 8 3 7 4 6 5 4 6 3 7 19 8 20 9 18 10 11 11 9 12 10 13
REMARK SMILES IDX 12 14 13 15 15 16 16 17 5 18 17 20 14 22
REMARK H PARENT 5 19 17 21 14 23
REMARK Flexibility Score: inf
ROOT
ATOM      1  C   UNL     1     163.958 151.692 153.875  1.00  0.00     0.044 C 
ATOM      2  C   UNL     1     163.109 152.698 154.597  1.00  0.00    -0.047 A 
ATOM      3  C   UNL     1     161.741 152.465 154.777  1.00  0.00     0.016 A 
ATOM      4  C   UNL     1     160.933 153.413 155.425  1.00  0.00     0.038 A 
ATOM      5  C   UNL     1     161.503 154.615 155.901  1.00  0.00     0.076 A 
ATOM      6  C   UNL     1     162.871 154.882 155.641  1.00  0.00     0.127 A 
ATOM      7  C   UNL     1     163.660 153.915 155.011  1.00  0.00     0.050 A 
ATOM      8  C   UNL     1     160.650 155.524 156.710  1.00  0.00     0.201 C 
ATOM      9  O   UNL     1     161.174 156.249 157.598  1.00  0.00    -0.288 OA
ATOM     10  C   UNL     1     159.171 155.440 156.603  1.00  0.00     0.076 A 
ATOM     11  C   UNL     1     158.605 154.236 156.124  1.00  0.00     0.041 A 
ATOM     12  C   UNL     1     159.483 153.161 155.606  1.00  0.00     0.194 C 
ATOM     13  O   UNL     1     158.994 152.041 155.296  1.00  0.00    -0.289 OA
ATOM     14  C   UNL     1     157.210 154.067 156.137  1.00  0.00     0.059 A 
ATOM     15  C   UNL     1     156.376 155.082 156.605  1.00  0.00     0.120 A 
ATOM     16  C   UNL     1     156.929 156.289 157.041  1.00  0.00     0.093 A 
ATOM     17  C   UNL     1     158.312 156.490 157.019  1.00  0.00     0.131 A 
ENDROOT
BRANCH   6  18
ATOM     18  O   UNL     1     163.475 156.103 155.953  1.00  0.00    -0.507 OA
ATOM     19  H   UNL     1     164.475 156.233 156.009  1.00  0.00     0.293 HD
ENDBRANCH   6  18
BRANCH  17  20
ATOM     20  O   UNL     1     158.786 157.753 157.385  1.00  0.00    -0.507 OA
ATOM     21  H   UNL     1     159.467 158.271 156.847  1.00  0.00     0.293 HD
ENDBRANCH  17  20
BRANCH  15  22
ATOM     22  O   UNL     1     154.997 154.886 156.621  1.00  0.00    -0.508 OA
ATOM     23  H   UNL     1     154.406 155.221 155.869  1.00  0.00     0.293 HD
ENDBRANCH  15  22
TORSDOF 3
ENDMDL
MODEL 4
REMARK VINA RESULT:    -5.220      1.869      6.598
REMARK INTER + INTRA:          -5.678
REMARK INTER:                  -5.678
REMARK INTRA:                   0.000
REMARK UNBOUND:                 0.000
REMARK SMILES Cc1cc(O)c2c(c1)C(=O)c1cc(O)cc(O)c1C2=O
REMARK SMILES IDX 1 1 2 2 8 3 7 4 6 5 4 6 3 7 19 8 20 9 18 10 11 11 9 12 10 13
REMARK SMILES IDX 12 14 13 15 15 16 16 17 5 18 17 20 14 22
REMARK H PARENT 5 19 17 21 14 23
REMARK Flexibility Score: inf
ROOT
ATOM      1  C   UNL     1     155.722 155.417 157.536  1.00  0.00     0.044 C 
ATOM      2  C   UNL     1     157.140 155.456 157.046  1.00  0.00    -0.047 A 
ATOM      3  C   UNL     1     157.702 154.333 156.427  1.00  0.00     0.016 A 
ATOM      4  C   UNL     1     159.037 154.350 155.991  1.00  0.00     0.038 A 
ATOM      5  C   UNL     1     159.824 155.508 156.179  1.00  0.00     0.076 A 
ATOM      6  C   UNL     1     159.276 156.610 156.882  1.00  0.00     0.127 A 
ATOM      7  C   UNL     1     157.938 156.579 157.289  1.00  0.00     0.050 A 
ATOM      8  C   UNL     1     161.181 155.540 155.574  1.00  0.00     0.201 C 
ATOM      9  O   UNL     1     161.676 156.639 155.205  1.00  0.00    -0.288 OA
ATOM     10  C   UNL     1     161.869 154.268 155.235  1.00  0.00     0.076 A 
ATOM     11  C   UNL     1     161.078 153.111 155.050  1.00  0.00     0.041 A 
ATOM     12  C   UNL     1     159.626 153.154 155.342  1.00  0.00     0.194 C 
ATOM     13  O   UNL     1     158.896 152.165 155.060  1.00  0.00    -0.289 OA
ATOM     14  C   UNL     1     161.675 151.923 154.596  1.00  0.00     0.059 A 
ATOM     15  C   UNL     1     163.045 151.870 154.338  1.00  0.00     0.120 A 
ATOM     16  C   UNL     1     163.837 152.999 154.558  1.00  0.00     0.093 A 
ATOM     17  C   UNL     1     163.271 154.188 155.030  1.00  0.00     0.131 A 
ENDROOT
BRANCH   6  18
ATOM     18  O   UNL     1     160.029 157.734 157.231  1.00  0.00    -0.507 OA
ATOM     19  H   UNL     1     161.036 157.730 157.308  1.00  0.00     0.293 HD
ENDBRANCH   6  18
BRANCH  17  20
ATOM     20  O   UNL     1     164.139 155.247 155.312  1.00  0.00    -0.507 OA
ATOM     21  H   UNL     1     165.134 155.133 155.443  1.00  0.00     0.293 HD
ENDBRANCH  17  20
BRANCH  15  22
ATOM     22  O   UNL     1     163.611 150.684 153.875  1.00  0.00    -0.508 OA
ATOM     23  H   UNL     1     163.052 149.972 153.422  1.00  0.00     0.293 HD
ENDBRANCH  15  22
TORSDOF 3
ENDMDL
