MODEL 1
REMARK VINA RESULT:    -6.556      0.000      0.000
REMARK INTER + INTRA:          -7.993
REMARK INTER:                  -7.706
REMARK INTRA:                  -0.287
REMARK UNBOUND:                -0.287
REMARK SMILES O=c1cc(-c2ccc(O)c(O)c2)oc2cc(O)cc(O)c12
REMARK SMILES IDX 4 1 3 2 2 3 1 4 21 5 19 6 18 7 16 8 15 9 14 10 13 11 5 12
REMARK SMILES IDX 6 13 7 14 8 15 12 16 10 17 9 18 11 20 20 22 17 24
REMARK H PARENT 9 19 11 21 20 23 17 25
REMARK Flexibility Score: inf
ROOT
ATOM      1  C   UNL     1       7.736 -41.495 -34.150  1.00  0.00     0.138 A 
ATOM      2  C   UNL     1       8.832 -42.087 -34.791  1.00  0.00     0.100 A 
ATOM      3  C   UNL     1       9.103 -43.441 -34.587  1.00  0.00     0.197 A 
ATOM      4  O   UNL     1      10.130 -43.930 -35.125  1.00  0.00    -0.289 OA
ATOM      5  C   UNL     1       8.250 -44.212 -33.761  1.00  0.00     0.107 A 
ATOM      6  C   UNL     1       8.404 -45.610 -33.514  1.00  0.00     0.134 A 
ATOM      7  C   UNL     1       7.567 -46.243 -32.588  1.00  0.00     0.093 A 
ATOM      8  C   UNL     1       6.544 -45.542 -31.944  1.00  0.00     0.123 A 
ATOM      9  C   UNL     1       6.351 -44.190 -32.219  1.00  0.00     0.094 A 
ATOM     10  C   UNL     1       7.191 -43.522 -33.113  1.00  0.00     0.146 A 
ATOM     11  O   UNL     1       6.983 -42.229 -33.337  1.00  0.00    -0.456 OA
ENDROOT
BRANCH   1  12
ATOM     12  C   UNL     1       7.402 -40.060 -34.332  1.00  0.00     0.021 A 
ATOM     13  C   UNL     1       6.065 -39.642 -34.227  1.00  0.00     0.016 A 
ATOM     14  C   UNL     1       5.724 -38.298 -34.401  1.00  0.00     0.051 A 
ATOM     15  C   UNL     1       6.710 -37.351 -34.693  1.00  0.00     0.157 A 
ATOM     16  C   UNL     1       8.390 -39.104 -34.640  1.00  0.00     0.062 A 
ATOM     17  C   UNL     1       8.049 -37.755 -34.817  1.00  0.00     0.158 A 
BRANCH  15  18
ATOM     18  O   UNL     1       6.339 -36.017 -34.860  1.00  0.00    -0.504 OA
ATOM     19  H   UNL     1       5.421 -35.677 -34.600  1.00  0.00     0.293 HD
ENDBRANCH  15  18
BRANCH  17  20
ATOM     20  O   UNL     1       9.034 -36.817 -35.119  1.00  0.00    -0.504 OA
ATOM     21  H   UNL     1       9.794 -37.031 -35.755  1.00  0.00     0.293 HD
ENDBRANCH  17  20
ENDBRANCH   1  12
BRANCH   6  22
ATOM     22  O   UNL     1       9.339 -46.420 -34.166  1.00  0.00    -0.507 OA
ATOM     23  H   UNL     1      10.160 -46.082 -34.645  1.00  0.00     0.293 HD
ENDBRANCH   6  22
BRANCH   8  24
ATOM     24  O   UNL     1       5.706 -46.183 -31.034  1.00  0.00    -0.508 OA
ATOM     25  H   UNL     1       5.005 -45.672 -30.510  1.00  0.00     0.293 HD
ENDBRANCH   8  24
TORSDOF 5
ENDMDL
MODEL 2
REMARK VINA RESULT:    -6.215     12.531     16.180
REMARK INTER + INTRA:          -7.593
REMARK INTER:                  -7.325
REMARK INTRA:                  -0.267
REMARK UNBOUND:                -0.287
REMARK SMILES O=c1cc(-c2ccc(O)c(O)c2)oc2cc(O)cc(O)c12
REMARK SMILES IDX 4 1 3 2 2 3 1 4 21 5 19 6 18 7 16 8 15 9 14 10 13 11 5 12
REMARK SMILES IDX 6 13 7 14 8 15 12 16 10 17 9 18 11 20 20 22 17 24
REMARK H PARENT 9 19 11 21 20 23 17 25
REMARK Flexibility Score: inf
ROOT
ATOM      1  C   UNL     1      -3.227 -32.276 -33.237  1.00  0.00     0.138 A 
ATOM      2  C   UNL     1      -4.206 -31.591 -33.968  1.00  0.00     0.100 A 
ATOM      3  C   UNL     1      -4.136 -30.202 -34.083  1.00  0.00     0.197 A 
ATOM      4  O   UNL     1      -5.064 -29.609 -34.692  1.00  0.00    -0.289 OA
ATOM      5  C   UNL     1      -3.061 -29.500 -33.489  1.00  0.00     0.107 A 
ATOM      6  C   UNL     1      -2.865 -28.089 -33.576  1.00  0.00     0.134 A 
ATOM      7  C   UNL     1      -1.828 -27.491 -32.850  1.00  0.00     0.093 A 
ATOM      8  C   UNL     1      -0.944 -28.259 -32.088  1.00  0.00     0.123 A 
ATOM      9  C   UNL     1      -1.095 -29.643 -32.040  1.00  0.00     0.094 A 
ATOM     10  C   UNL     1      -2.140 -30.266 -32.726  1.00  0.00     0.146 A 
ATOM     11  O   UNL     1      -2.257 -31.587 -32.642  1.00  0.00    -0.456 OA
ENDROOT
BRANCH   1  12
ATOM     12  C   UNL     1      -3.252 -33.753 -33.082  1.00  0.00     0.021 A 
ATOM     13  C   UNL     1      -3.354 -34.312 -31.798  1.00  0.00     0.016 A 
ATOM     14  C   UNL     1      -3.373 -35.698 -31.625  1.00  0.00     0.051 A 
ATOM     15  C   UNL     1      -3.280 -36.549 -32.729  1.00  0.00     0.157 A 
ATOM     16  C   UNL     1      -3.144 -34.615 -34.192  1.00  0.00     0.062 A 
ATOM     17  C   UNL     1      -3.161 -36.006 -34.019  1.00  0.00     0.158 A 
BRANCH  15  18
ATOM     18  O   UNL     1      -3.302 -37.929 -32.526  1.00  0.00    -0.504 OA
ATOM     19  H   UNL     1      -3.916 -38.363 -31.846  1.00  0.00     0.293 HD
ENDBRANCH  15  18
BRANCH  17  20
ATOM     20  O   UNL     1      -3.055 -36.851 -35.123  1.00  0.00    -0.504 OA
ATOM     21  H   UNL     1      -2.697 -36.521 -36.012  1.00  0.00     0.293 HD
ENDBRANCH  17  20
ENDBRANCH   1  12
BRANCH   6  22
ATOM     22  O   UNL     1      -3.638 -27.241 -34.374  1.00  0.00    -0.507 OA
ATOM     23  H   UNL     1      -4.641 -27.150 -34.316  1.00  0.00     0.293 HD
ENDBRANCH   6  22
BRANCH   8  24
ATOM     24  O   UNL     1       0.094 -27.658 -31.380  1.00  0.00    -0.508 OA
ATOM     25  H   UNL     1      -0.081 -27.117 -30.541  1.00  0.00     0.293 HD
ENDBRANCH   8  24
TORSDOF 5
ENDMDL
MODEL 3
REMARK VINA RESULT:    -6.093      9.027     12.729
REMARK INTER + INTRA:          -7.449
REMARK INTER:                  -7.134
REMARK INTRA:                  -0.315
REMARK UNBOUND:                -0.287
REMARK SMILES O=c1cc(-c2ccc(O)c(O)c2)oc2cc(O)cc(O)c12
REMARK SMILES IDX 4 1 3 2 2 3 1 4 21 5 19 6 18 7 16 8 15 9 14 10 13 11 5 12
REMARK SMILES IDX 6 13 7 14 8 15 12 16 10 17 9 18 11 20 20 22 17 24
REMARK H PARENT 9 19 11 21 20 23 17 25
REMARK Flexibility Score: inf
ROOT
ATOM      1  C   UNL     1       0.931 -31.189 -33.123  1.00  0.00     0.138 A 
ATOM      2  C   UNL     1       0.731 -32.322 -33.921  1.00  0.00     0.100 A 
ATOM      3  C   UNL     1       1.665 -33.359 -33.896  1.00  0.00     0.197 A 
ATOM      4  O   UNL     1       1.491 -34.335 -34.671  1.00  0.00    -0.289 OA
ATOM      5  C   UNL     1       2.790 -33.271 -33.041  1.00  0.00     0.107 A 
ATOM      6  C   UNL     1       3.786 -34.284 -32.902  1.00  0.00     0.134 A 
ATOM      7  C   UNL     1       4.915 -34.037 -32.112  1.00  0.00     0.093 A 
ATOM      8  C   UNL     1       5.055 -32.838 -31.410  1.00  0.00     0.123 A 
ATOM      9  C   UNL     1       4.063 -31.864 -31.497  1.00  0.00     0.094 A 
ATOM     10  C   UNL     1       2.941 -32.067 -32.303  1.00  0.00     0.146 A 
ATOM     11  O   UNL     1       2.024 -31.107 -32.370  1.00  0.00    -0.456 OA
ENDROOT
BRANCH   1  12
ATOM     12  C   UNL     1      -0.031 -30.058 -33.110  1.00  0.00     0.021 A 
ATOM     13  C   UNL     1      -1.002 -29.965 -34.122  1.00  0.00     0.016 A 
ATOM     14  C   UNL     1      -1.914 -28.907 -34.137  1.00  0.00     0.051 A 
ATOM     15  C   UNL     1      -1.866 -27.918 -33.151  1.00  0.00     0.157 A 
ATOM     16  C   UNL     1       0.022 -29.051 -32.126  1.00  0.00     0.062 A 
ATOM     17  C   UNL     1      -0.891 -27.988 -32.142  1.00  0.00     0.158 A 
BRANCH  15  18
ATOM     18  O   UNL     1      -2.790 -26.875 -33.191  1.00  0.00    -0.504 OA
ATOM     19  H   UNL     1      -3.772 -27.016 -32.981  1.00  0.00     0.293 HD
ENDBRANCH  15  18
BRANCH  17  20
ATOM     20  O   UNL     1      -0.832 -26.998 -31.162  1.00  0.00    -0.504 OA
ATOM     21  H   UNL     1      -1.644 -26.444 -30.916  1.00  0.00     0.293 HD
ENDBRANCH  17  20
ENDBRANCH   1  12
BRANCH   6  22
ATOM     22  O   UNL     1       3.701 -35.548 -33.493  1.00  0.00    -0.507 OA
ATOM     23  H   UNL     1       4.428 -35.976 -34.045  1.00  0.00     0.293 HD
ENDBRANCH   6  22
BRANCH   8  24
ATOM     24  O   UNL     1       6.175 -32.606 -30.614  1.00  0.00    -0.508 OA
ATOM     25  H   UNL     1       6.123 -32.642 -29.602  1.00  0.00     0.293 HD
ENDBRANCH   8  24
TORSDOF 5
ENDMDL
MODEL 4
REMARK VINA RESULT:    -6.022      3.696      4.551
REMARK INTER + INTRA:          -7.365
REMARK INTER:                  -7.098
REMARK INTRA:                  -0.267
REMARK UNBOUND:                -0.287
REMARK SMILES O=c1cc(-c2ccc(O)c(O)c2)oc2cc(O)cc(O)c12
REMARK SMILES IDX 4 1 3 2 2 3 1 4 21 5 19 6 18 7 16 8 15 9 14 10 13 11 5 12
REMARK SMILES IDX 6 13 7 14 8 15 12 16 10 17 9 18 11 20 20 22 17 24
REMARK H PARENT 9 19 11 21 20 23 17 25
REMARK Flexibility Score: inf
ROOT
ATOM      1  C   UNL     1       4.689 -41.952 -32.425  1.00  0.00     0.138 A 
ATOM      2  C   UNL     1       5.420 -41.488 -33.527  1.00  0.00     0.100 A 
ATOM      3  C   UNL     1       6.454 -42.267 -34.048  1.00  0.00     0.197 A 
ATOM      4  O   UNL     1       7.133 -41.796 -34.997  1.00  0.00    -0.289 OA
ATOM      5  C   UNL     1       6.735 -43.533 -33.481  1.00  0.00     0.107 A 
ATOM      6  C   UNL     1       7.738 -44.431 -33.955  1.00  0.00     0.134 A 
ATOM      7  C   UNL     1       8.004 -45.606 -33.243  1.00  0.00     0.093 A 
ATOM      8  C   UNL     1       7.263 -45.945 -32.108  1.00  0.00     0.123 A 
ATOM      9  C   UNL     1       6.246 -45.101 -31.668  1.00  0.00     0.094 A 
ATOM     10  C   UNL     1       5.979 -43.904 -32.337  1.00  0.00     0.146 A 
ATOM     11  O   UNL     1       5.010 -43.120 -31.877  1.00  0.00    -0.456 OA
ENDROOT
BRANCH   1  12
ATOM     12  C   UNL     1       3.580 -41.164 -31.832  1.00  0.00     0.021 A 
ATOM     13  C   UNL     1       2.325 -41.152 -32.463  1.00  0.00     0.016 A 
ATOM     14  C   UNL     1       1.267 -40.412 -31.929  1.00  0.00     0.051 A 
ATOM     15  C   UNL     1       1.446 -39.665 -30.761  1.00  0.00     0.157 A 
ATOM     16  C   UNL     1       3.759 -40.398 -30.663  1.00  0.00     0.062 A 
ATOM     17  C   UNL     1       2.699 -39.654 -30.126  1.00  0.00     0.158 A 
BRANCH  15  18
ATOM     18  O   UNL     1       0.371 -38.938 -30.251  1.00  0.00    -0.504 OA
ATOM     19  H   UNL     1       0.479 -38.286 -29.483  1.00  0.00     0.293 HD
ENDBRANCH  15  18
BRANCH  17  20
ATOM     20  O   UNL     1       2.886 -38.901 -28.968  1.00  0.00    -0.504 OA
ATOM     21  H   UNL     1       2.132 -38.747 -28.308  1.00  0.00     0.293 HD
ENDBRANCH  17  20
ENDBRANCH   1  12
BRANCH   6  22
ATOM     22  O   UNL     1       8.477 -44.229 -35.125  1.00  0.00    -0.507 OA
ATOM     23  H   UNL     1       8.275 -43.529 -35.821  1.00  0.00     0.293 HD
ENDBRANCH   6  22
BRANCH   8  24
ATOM     24  O   UNL     1       7.524 -47.124 -31.412  1.00  0.00    -0.508 OA
ATOM     25  H   UNL     1       8.324 -47.208 -30.796  1.00  0.00     0.293 HD
ENDBRANCH   8  24
TORSDOF 5
ENDMDL
MODEL 5
REMARK VINA RESULT:    -5.999      5.351      7.054
REMARK INTER + INTRA:          -7.338
REMARK INTER:                  -7.072
REMARK INTRA:                  -0.266
REMARK UNBOUND:                -0.287
REMARK SMILES O=c1cc(-c2ccc(O)c(O)c2)oc2cc(O)cc(O)c12
REMARK SMILES IDX 4 1 3 2 2 3 1 4 21 5 19 6 18 7 16 8 15 9 14 10 13 11 5 12
REMARK SMILES IDX 6 13 7 14 8 15 12 16 10 17 9 18 11 20 20 22 17 24
REMARK H PARENT 9 19 11 21 20 23 17 25
REMARK Flexibility Score: inf
ROOT
ATOM      1  C   UNL     1       6.075 -40.767 -29.973  1.00  0.00     0.138 A 
ATOM      2  C   UNL     1       6.073 -41.696 -31.021  1.00  0.00     0.100 A 
ATOM      3  C   UNL     1       4.908 -41.895 -31.765  1.00  0.00     0.197 A 
ATOM      4  O   UNL     1       4.918 -42.781 -32.659  1.00  0.00    -0.289 OA
ATOM      5  C   UNL     1       3.750 -41.136 -31.475  1.00  0.00     0.107 A 
ATOM      6  C   UNL     1       2.519 -41.225 -32.192  1.00  0.00     0.134 A 
ATOM      7  C   UNL     1       1.405 -40.508 -31.741  1.00  0.00     0.093 A 
ATOM      8  C   UNL     1       1.493 -39.659 -30.635  1.00  0.00     0.123 A 
ATOM      9  C   UNL     1       2.704 -39.524 -29.960  1.00  0.00     0.094 A 
ATOM     10  C   UNL     1       3.825 -40.253 -30.365  1.00  0.00     0.146 A 
ATOM     11  O   UNL     1       4.957 -40.106 -29.686  1.00  0.00    -0.456 OA
ENDROOT
BRANCH   1  12
ATOM     12  C   UNL     1       7.285 -40.515 -29.150  1.00  0.00     0.021 A 
ATOM     13  C   UNL     1       7.852 -39.229 -29.129  1.00  0.00     0.016 A 
ATOM     14  C   UNL     1       8.995 -38.969 -28.369  1.00  0.00     0.051 A 
ATOM     15  C   UNL     1       9.598 -39.988 -27.627  1.00  0.00     0.157 A 
ATOM     16  C   UNL     1       7.905 -41.543 -28.412  1.00  0.00     0.062 A 
ATOM     17  C   UNL     1       9.054 -41.282 -27.651  1.00  0.00     0.158 A 
BRANCH  15  18
ATOM     18  O   UNL     1      10.737 -39.697 -26.877  1.00  0.00    -0.504 OA
ATOM     19  H   UNL     1      11.429 -40.402 -26.654  1.00  0.00     0.293 HD
ENDBRANCH  15  18
BRANCH  17  20
ATOM     20  O   UNL     1       9.658 -42.305 -26.922  1.00  0.00    -0.504 OA
ATOM     21  H   UNL     1      10.666 -42.408 -26.886  1.00  0.00     0.293 HD
ENDBRANCH  17  20
ENDBRANCH   1  12
BRANCH   6  22
ATOM     22  O   UNL     1       2.348 -41.977 -33.358  1.00  0.00    -0.507 OA
ATOM     23  H   UNL     1       2.217 -41.590 -34.280  1.00  0.00     0.293 HD
ENDBRANCH   6  22
BRANCH   8  24
ATOM     24  O   UNL     1       0.382 -38.937 -30.201  1.00  0.00    -0.508 OA
ATOM     25  H   UNL     1       0.017 -38.158 -30.735  1.00  0.00     0.293 HD
ENDBRANCH   8  24
TORSDOF 5
ENDMDL
MODEL 6
REMARK VINA RESULT:    -5.986      4.692      5.617
REMARK INTER + INTRA:          -7.324
REMARK INTER:                  -7.031
REMARK INTRA:                  -0.292
REMARK UNBOUND:                -0.287
REMARK SMILES O=c1cc(-c2ccc(O)c(O)c2)oc2cc(O)cc(O)c12
REMARK SMILES IDX 4 1 3 2 2 3 1 4 21 5 19 6 18 7 16 8 15 9 14 10 13 11 5 12
REMARK SMILES IDX 6 13 7 14 8 15 12 16 10 17 9 18 11 20 20 22 17 24
REMARK H PARENT 9 19 11 21 20 23 17 25
REMARK Flexibility Score: inf
ROOT
ATOM      1  C   UNL     1       8.179 -42.096 -29.378  1.00  0.00     0.138 A 
ATOM      2  C   UNL     1       8.349 -43.352 -28.782  1.00  0.00     0.100 A 
ATOM      3  C   UNL     1       7.840 -44.489 -29.410  1.00  0.00     0.197 A 
ATOM      4  O   UNL     1       7.953 -45.595 -28.820  1.00  0.00    -0.289 OA
ATOM      5  C   UNL     1       7.183 -44.369 -30.658  1.00  0.00     0.107 A 
ATOM      6  C   UNL     1       6.660 -45.464 -31.410  1.00  0.00     0.134 A 
ATOM      7  C   UNL     1       5.928 -45.213 -32.577  1.00  0.00     0.093 A 
ATOM      8  C   UNL     1       5.753 -43.910 -33.051  1.00  0.00     0.123 A 
ATOM      9  C   UNL     1       6.305 -42.839 -32.353  1.00  0.00     0.094 A 
ATOM     10  C   UNL     1       7.011 -43.054 -31.167  1.00  0.00     0.146 A 
ATOM     11  O   UNL     1       7.511 -42.004 -30.524  1.00  0.00    -0.456 OA
ENDROOT
BRANCH   1  12
ATOM     12  C   UNL     1       8.701 -40.854 -28.754  1.00  0.00     0.021 A 
ATOM     13  C   UNL     1       8.151 -39.613 -29.118  1.00  0.00     0.016 A 
ATOM     14  C   UNL     1       8.629 -38.429 -28.550  1.00  0.00     0.051 A 
ATOM     15  C   UNL     1       9.671 -38.462 -27.619  1.00  0.00     0.157 A 
ATOM     16  C   UNL     1       9.761 -40.881 -27.826  1.00  0.00     0.062 A 
ATOM     17  C   UNL     1      10.243 -39.694 -27.258  1.00  0.00     0.158 A 
BRANCH  15  18
ATOM     18  O   UNL     1      10.127 -37.265 -27.070  1.00  0.00    -0.504 OA
ATOM     19  H   UNL     1      10.555 -37.222 -26.152  1.00  0.00     0.293 HD
ENDBRANCH  15  18
BRANCH  17  20
ATOM     20  O   UNL     1      11.290 -39.731 -26.339  1.00  0.00    -0.504 OA
ATOM     21  H   UNL     1      11.535 -38.922 -25.778  1.00  0.00     0.293 HD
ENDBRANCH  17  20
ENDBRANCH   1  12
BRANCH   6  22
ATOM     22  O   UNL     1       6.851 -46.807 -31.070  1.00  0.00    -0.507 OA
ATOM     23  H   UNL     1       6.514 -47.241 -30.225  1.00  0.00     0.293 HD
ENDBRANCH   6  22
BRANCH   8  24
ATOM     24  O   UNL     1       5.036 -43.669 -34.221  1.00  0.00    -0.508 OA
ATOM     25  H   UNL     1       5.020 -42.753 -34.653  1.00  0.00     0.293 HD
ENDBRANCH   8  24
TORSDOF 5
ENDMDL
MODEL 7
REMARK VINA RESULT:    -5.965      4.510      5.447
REMARK INTER + INTRA:          -7.299
REMARK INTER:                  -7.030
REMARK INTRA:                  -0.269
REMARK UNBOUND:                -0.287
REMARK SMILES O=c1cc(-c2ccc(O)c(O)c2)oc2cc(O)cc(O)c12
REMARK SMILES IDX 4 1 3 2 2 3 1 4 21 5 19 6 18 7 16 8 15 9 14 10 13 11 5 12
REMARK SMILES IDX 6 13 7 14 8 15 12 16 10 17 9 18 11 20 20 22 17 24
REMARK H PARENT 9 19 11 21 20 23 17 25
REMARK Flexibility Score: inf
ROOT
ATOM      1  C   UNL     1       4.681 -40.631 -30.909  1.00  0.00     0.138 A 
ATOM      2  C   UNL     1       3.793 -40.519 -31.987  1.00  0.00     0.100 A 
ATOM      3  C   UNL     1       3.868 -41.432 -33.040  1.00  0.00     0.197 A 
ATOM      4  O   UNL     1       3.100 -41.268 -34.024  1.00  0.00    -0.289 OA
ATOM      5  C   UNL     1       4.818 -42.480 -32.997  1.00  0.00     0.107 A 
ATOM      6  C   UNL     1       4.957 -43.492 -33.994  1.00  0.00     0.134 A 
ATOM      7  C   UNL     1       6.009 -44.411 -33.902  1.00  0.00     0.093 A 
ATOM      8  C   UNL     1       6.889 -44.392 -32.817  1.00  0.00     0.123 A 
ATOM      9  C   UNL     1       6.729 -43.442 -31.811  1.00  0.00     0.094 A 
ATOM     10  C   UNL     1       5.710 -42.490 -31.892  1.00  0.00     0.146 A 
ATOM     11  O   UNL     1       5.600 -41.592 -30.919  1.00  0.00    -0.456 OA
ENDROOT
BRANCH   1  12
ATOM     12  C   UNL     1       4.646 -39.689 -29.762  1.00  0.00     0.021 A 
ATOM     13  C   UNL     1       3.573 -39.741 -28.857  1.00  0.00     0.016 A 
ATOM     14  C   UNL     1       3.512 -38.861 -27.774  1.00  0.00     0.051 A 
ATOM     15  C   UNL     1       4.514 -37.906 -27.582  1.00  0.00     0.157 A 
ATOM     16  C   UNL     1       5.647 -38.715 -29.573  1.00  0.00     0.062 A 
ATOM     17  C   UNL     1       5.586 -37.829 -28.488  1.00  0.00     0.158 A 
BRANCH  15  18
ATOM     18  O   UNL     1       4.427 -37.041 -26.492  1.00  0.00    -0.504 OA
ATOM     19  H   UNL     1       3.716 -37.146 -25.778  1.00  0.00     0.293 HD
ENDBRANCH  15  18
BRANCH  17  20
ATOM     20  O   UNL     1       6.582 -36.871 -28.308  1.00  0.00    -0.504 OA
ATOM     21  H   UNL     1       6.579 -35.999 -28.824  1.00  0.00     0.293 HD
ENDBRANCH  17  20
ENDBRANCH   1  12
BRANCH   6  22
ATOM     22  O   UNL     1       4.082 -43.651 -35.073  1.00  0.00    -0.507 OA
ATOM     23  H   UNL     1       4.253 -43.317 -36.008  1.00  0.00     0.293 HD
ENDBRANCH   6  22
BRANCH   8  24
ATOM     24  O   UNL     1       7.925 -45.320 -32.725  1.00  0.00    -0.508 OA
ATOM     25  H   UNL     1       8.480 -45.411 -31.882  1.00  0.00     0.293 HD
ENDBRANCH   8  24
TORSDOF 5
ENDMDL
MODEL 8
REMARK VINA RESULT:    -5.933      4.369      5.606
REMARK INTER + INTRA:          -7.261
REMARK INTER:                  -6.954
REMARK INTRA:                  -0.306
REMARK UNBOUND:                -0.287
REMARK SMILES O=c1cc(-c2ccc(O)c(O)c2)oc2cc(O)cc(O)c12
REMARK SMILES IDX 4 1 3 2 2 3 1 4 21 5 19 6 18 7 16 8 15 9 14 10 13 11 5 12
REMARK SMILES IDX 6 13 7 14 8 15 12 16 10 17 9 18 11 20 20 22 17 24
REMARK H PARENT 9 19 11 21 20 23 17 25
REMARK Flexibility Score: inf
ROOT
ATOM      1  C   UNL     1       6.442 -42.315 -30.937  1.00  0.00     0.138 A 
ATOM      2  C   UNL     1       6.825 -41.155 -30.251  1.00  0.00     0.100 A 
ATOM      3  C   UNL     1       7.769 -41.238 -29.227  1.00  0.00     0.197 A 
ATOM      4  O   UNL     1       8.046 -40.189 -28.588  1.00  0.00    -0.289 OA
ATOM      5  C   UNL     1       8.356 -42.486 -28.909  1.00  0.00     0.107 A 
ATOM      6  C   UNL     1       9.358 -42.683 -27.913  1.00  0.00     0.134 A 
ATOM      7  C   UNL     1       9.780 -43.982 -27.606  1.00  0.00     0.093 A 
ATOM      8  C   UNL     1       9.280 -45.086 -28.303  1.00  0.00     0.123 A 
ATOM      9  C   UNL     1       8.341 -44.899 -29.314  1.00  0.00     0.094 A 
ATOM     10  C   UNL     1       7.874 -43.618 -29.620  1.00  0.00     0.146 A 
ATOM     11  O   UNL     1       6.968 -43.484 -30.582  1.00  0.00    -0.456 OA
ENDROOT
BRANCH   1  12
ATOM     12  C   UNL     1       5.443 -42.285 -32.034  1.00  0.00     0.021 A 
ATOM     13  C   UNL     1       4.434 -41.307 -32.024  1.00  0.00     0.016 A 
ATOM     14  C   UNL     1       3.478 -41.261 -33.041  1.00  0.00     0.051 A 
ATOM     15  C   UNL     1       3.506 -42.196 -34.080  1.00  0.00     0.157 A 
ATOM     16  C   UNL     1       5.459 -43.233 -33.076  1.00  0.00     0.062 A 
ATOM     17  C   UNL     1       4.498 -43.190 -34.096  1.00  0.00     0.158 A 
BRANCH  15  18
ATOM     18  O   UNL     1       2.539 -42.124 -35.082  1.00  0.00    -0.504 OA
ATOM     19  H   UNL     1       2.516 -41.367 -35.755  1.00  0.00     0.293 HD
ENDBRANCH  15  18
BRANCH  17  20
ATOM     20  O   UNL     1       4.524 -44.131 -35.124  1.00  0.00    -0.504 OA
ATOM     21  H   UNL     1       3.723 -44.280 -35.728  1.00  0.00     0.293 HD
ENDBRANCH  17  20
ENDBRANCH   1  12
BRANCH   6  22
ATOM     22  O   UNL     1       9.984 -41.644 -27.218  1.00  0.00    -0.507 OA
ATOM     23  H   UNL     1       9.553 -40.761 -26.991  1.00  0.00     0.293 HD
ENDBRANCH   6  22
BRANCH   8  24
ATOM     24  O   UNL     1       9.716 -46.374 -28.002  1.00  0.00    -0.508 OA
ATOM     25  H   UNL     1       9.901 -46.661 -27.047  1.00  0.00     0.293 HD
ENDBRANCH   8  24
TORSDOF 5
ENDMDL
