MODEL 1
REMARK VINA RESULT:    -4.657      0.000      0.000
REMARK INTER + INTRA:          -8.318
REMARK INTER:                  -7.379
REMARK INTRA:                  -0.939
REMARK UNBOUND:                -0.939
REMARK SMILES CCCCCCCCCCCC(=O)[O-]
REMARK SMILES IDX 7 1 8 2 9 3 10 4 11 5 12 6 13 7 14 8 6 9 5 10 4 11 3 12 2 13
REMARK SMILES IDX 1 14
REMARK H PARENT
REMARK Flexibility Score: inf
ROOT
ATOM      1  C   UNL     1      63.475 -26.815  -3.018  1.00  0.00     0.000 C 
ENDROOT
BRANCH   1   2
ATOM      2  C   UNL     1      62.563 -25.578  -3.024  1.00  0.00     0.000 C 
BRANCH   2   3
ATOM      3  C   UNL     1      61.235 -25.828  -3.755  1.00  0.00     0.000 C 
BRANCH   3   4
ATOM      4  C   UNL     1      60.092 -25.035  -3.102  1.00  0.00     0.006 C 
BRANCH   4   5
ATOM      5  C   UNL     1      59.104 -25.945  -2.361  1.00  0.00     0.053 C 
BRANCH   5   6
ATOM      6  C   UNL     1      58.229 -26.705  -3.310  1.00  0.00     0.041 C 
ATOM      7  O   UNL     1      58.420 -27.936  -3.500  1.00  0.00    -0.550 OA
ATOM      8  O   UNL     1      57.182 -26.064  -3.959  1.00  0.00    -0.550 OA
ENDBRANCH   5   6
ENDBRANCH   4   5
ENDBRANCH   3   4
ENDBRANCH   2   3
ENDBRANCH   1   2
BRANCH   1   9
ATOM      9  C   UNL     1      63.738 -27.348  -1.599  1.00  0.00     0.000 C 
BRANCH   9  10
ATOM     10  C   UNL     1      63.382 -28.836  -1.454  1.00  0.00    -0.000 C 
BRANCH  10  11
ATOM     11  C   UNL     1      62.226 -29.073  -0.469  1.00  0.00    -0.000 C 
BRANCH  11  12
ATOM     12  C   UNL     1      60.844 -28.855  -1.108  1.00  0.00    -0.000 C 
BRANCH  12  13
ATOM     13  C   UNL     1      59.668 -29.210  -0.174  1.00  0.00    -0.003 C 
ATOM     14  C   UNL     1      60.083 -29.248   1.298  1.00  0.00     0.004 C 
ENDBRANCH  12  13
ENDBRANCH  11  12
ENDBRANCH  10  11
ENDBRANCH   9  10
ENDBRANCH   1   9
TORSDOF 10
ENDMDL
MODEL 2
REMARK VINA RESULT:    -4.657      2.223      5.146
REMARK INTER + INTRA:          -8.318
REMARK INTER:                  -7.585
REMARK INTRA:                  -0.733
REMARK UNBOUND:                -0.939
REMARK SMILES CCCCCCCCCCCC(=O)[O-]
REMARK SMILES IDX 7 1 8 2 9 3 10 4 11 5 12 6 13 7 14 8 6 9 5 10 4 11 3 12 2 13
REMARK SMILES IDX 1 14
REMARK H PARENT
REMARK Flexibility Score: inf
ROOT
ATOM      1  C   UNL     1      63.555 -26.650  -3.055  1.00  0.00     0.000 C 
ENDROOT
BRANCH   1   2
ATOM      2  C   UNL     1      63.621 -27.210  -1.625  1.00  0.00     0.000 C 
BRANCH   2   3
ATOM      3  C   UNL     1      63.304 -28.711  -1.564  1.00  0.00     0.000 C 
BRANCH   3   4
ATOM      4  C   UNL     1      62.349 -29.024  -0.402  1.00  0.00     0.006 C 
BRANCH   4   5
ATOM      5  C   UNL     1      60.887 -29.108  -0.858  1.00  0.00     0.053 C 
BRANCH   5   6
ATOM      6  C   UNL     1      59.982 -29.550   0.251  1.00  0.00     0.041 C 
ATOM      7  O   UNL     1      60.139 -29.096   1.416  1.00  0.00    -0.550 OA
ATOM      8  O   UNL     1      58.946 -30.438  -0.008  1.00  0.00    -0.550 OA
ENDBRANCH   5   6
ENDBRANCH   4   5
ENDBRANCH   3   4
ENDBRANCH   2   3
ENDBRANCH   1   2
BRANCH   1   9
ATOM      9  C   UNL     1      62.422 -25.624  -3.236  1.00  0.00     0.000 C 
BRANCH   9  10
ATOM     10  C   UNL     1      61.060 -26.164  -2.772  1.00  0.00    -0.000 C 
BRANCH  10  11
ATOM     11  C   UNL     1      59.953 -25.944  -3.815  1.00  0.00    -0.000 C 
BRANCH  11  12
ATOM     12  C   UNL     1      59.920 -24.506  -4.358  1.00  0.00    -0.000 C 
BRANCH  12  13
ATOM     13  C   UNL     1      59.806 -24.427  -5.894  1.00  0.00    -0.003 C 
ATOM     14  C   UNL     1      60.946 -25.159  -6.603  1.00  0.00     0.004 C 
ENDBRANCH  12  13
ENDBRANCH  11  12
ENDBRANCH  10  11
ENDBRANCH   9  10
ENDBRANCH   1   9
TORSDOF 10
ENDMDL
MODEL 3
REMARK VINA RESULT:    -4.653      2.364      4.735
REMARK INTER + INTRA:          -8.312
REMARK INTER:                  -7.520
REMARK INTRA:                  -0.792
REMARK UNBOUND:                -0.939
REMARK SMILES CCCCCCCCCCCC(=O)[O-]
REMARK SMILES IDX 7 1 8 2 9 3 10 4 11 5 12 6 13 7 14 8 6 9 5 10 4 11 3 12 2 13
REMARK SMILES IDX 1 14
REMARK H PARENT
REMARK Flexibility Score: inf
ROOT
ATOM      1  C   UNL     1      62.988 -28.305  -1.961  1.00  0.00     0.000 C 
ENDROOT
BRANCH   1   2
ATOM      2  C   UNL     1      62.916 -28.852  -0.526  1.00  0.00     0.000 C 
BRANCH   2   3
ATOM      3  C   UNL     1      61.473 -29.072  -0.051  1.00  0.00     0.000 C 
BRANCH   3   4
ATOM      4  C   UNL     1      60.489 -28.993  -1.229  1.00  0.00     0.006 C 
BRANCH   4   5
ATOM      5  C   UNL     1      59.122 -28.440  -0.807  1.00  0.00     0.053 C 
BRANCH   5   6
ATOM      6  C   UNL     1      58.525 -29.229   0.317  1.00  0.00     0.041 C 
ATOM      7  O   UNL     1      58.208 -28.657   1.394  1.00  0.00    -0.550 OA
ATOM      8  O   UNL     1      58.287 -30.589   0.165  1.00  0.00    -0.550 OA
ENDBRANCH   5   6
ENDBRANCH   4   5
ENDBRANCH   3   4
ENDBRANCH   2   3
ENDBRANCH   1   2
BRANCH   1   9
ATOM      9  C   UNL     1      63.711 -26.948  -2.040  1.00  0.00     0.000 C 
BRANCH   9  10
ATOM     10  C   UNL     1      62.966 -25.936  -2.925  1.00  0.00    -0.000 C 
BRANCH  10  11
ATOM     11  C   UNL     1      61.461 -26.230  -3.017  1.00  0.00    -0.000 C 
BRANCH  11  12
ATOM     12  C   UNL     1      60.655 -25.046  -3.577  1.00  0.00    -0.000 C 
BRANCH  12  13
ATOM     13  C   UNL     1      59.982 -25.342  -4.933  1.00  0.00    -0.003 C 
ATOM     14  C   UNL     1      60.897 -25.033  -6.119  1.00  0.00     0.004 C 
ENDBRANCH  12  13
ENDBRANCH  11  12
ENDBRANCH  10  11
ENDBRANCH   9  10
ENDBRANCH   1   9
TORSDOF 10
ENDMDL
MODEL 4
REMARK VINA RESULT:    -4.645      1.778      2.877
REMARK INTER + INTRA:          -8.300
REMARK INTER:                  -7.209
REMARK INTRA:                  -1.091
REMARK UNBOUND:                -0.939
REMARK SMILES CCCCCCCCCCCC(=O)[O-]
REMARK SMILES IDX 7 1 8 2 9 3 10 4 11 5 12 6 13 7 14 8 6 9 5 10 4 11 3 12 2 13
REMARK SMILES IDX 1 14
REMARK H PARENT
REMARK Flexibility Score: inf
ROOT
ATOM      1  C   UNL     1      62.698 -28.494  -1.702  1.00  0.00     0.000 C 
ENDROOT
BRANCH   1   2
ATOM      2  C   UNL     1      63.653 -27.318  -1.962  1.00  0.00     0.000 C 
BRANCH   2   3
ATOM      3  C   UNL     1      62.973 -26.158  -2.704  1.00  0.00     0.000 C 
BRANCH   3   4
ATOM      4  C   UNL     1      61.476 -26.441  -2.908  1.00  0.00     0.006 C 
BRANCH   4   5
ATOM      5  C   UNL     1      60.730 -25.232  -3.488  1.00  0.00     0.053 C 
BRANCH   5   6
ATOM      6  C   UNL     1      60.490 -25.380  -4.959  1.00  0.00     0.041 C 
ATOM      7  O   UNL     1      59.388 -25.824  -5.379  1.00  0.00    -0.550 OA
ATOM      8  O   UNL     1      61.468 -24.996  -5.867  1.00  0.00    -0.550 OA
ENDBRANCH   5   6
ENDBRANCH   4   5
ENDBRANCH   3   4
ENDBRANCH   2   3
ENDBRANCH   1   2
BRANCH   1   9
ATOM      9  C   UNL     1      62.657 -28.904  -0.219  1.00  0.00     0.000 C 
BRANCH   9  10
ATOM     10  C   UNL     1      61.224 -29.134   0.287  1.00  0.00    -0.000 C 
BRANCH  10  11
ATOM     11  C   UNL     1      60.193 -29.159  -0.852  1.00  0.00    -0.000 C 
BRANCH  11  12
ATOM     12  C   UNL     1      58.842 -28.546  -0.448  1.00  0.00    -0.000 C 
BRANCH  12  13
ATOM     13  C   UNL     1      58.396 -27.379  -1.354  1.00  0.00    -0.003 C 
ATOM     14  C   UNL     1      58.027 -27.843  -2.764  1.00  0.00     0.004 C 
ENDBRANCH  12  13
ENDBRANCH  11  12
ENDBRANCH  10  11
ENDBRANCH   9  10
ENDBRANCH   1   9
TORSDOF 10
ENDMDL
MODEL 5
REMARK VINA RESULT:    -4.644      1.707      2.262
REMARK INTER + INTRA:          -8.297
REMARK INTER:                  -7.428
REMARK INTRA:                  -0.869
REMARK UNBOUND:                -0.939
REMARK SMILES CCCCCCCCCCCC(=O)[O-]
REMARK SMILES IDX 7 1 8 2 9 3 10 4 11 5 12 6 13 7 14 8 6 9 5 10 4 11 3 12 2 13
REMARK SMILES IDX 1 14
REMARK H PARENT
REMARK Flexibility Score: inf
ROOT
ATOM      1  C   UNL     1      62.922 -28.037  -2.222  1.00  0.00     0.000 C 
ENDROOT
BRANCH   1   2
ATOM      2  C   UNL     1      63.466 -26.614  -2.421  1.00  0.00     0.000 C 
BRANCH   2   3
ATOM      3  C   UNL     1      62.496 -25.715  -3.201  1.00  0.00     0.000 C 
BRANCH   3   4
ATOM      4  C   UNL     1      61.061 -25.869  -2.673  1.00  0.00     0.006 C 
BRANCH   4   5
ATOM      5  C   UNL     1      60.067 -26.220  -3.788  1.00  0.00     0.053 C 
BRANCH   5   6
ATOM      6  C   UNL     1      60.076 -25.198  -4.883  1.00  0.00     0.041 C 
ATOM      7  O   UNL     1      59.706 -24.016  -4.650  1.00  0.00    -0.550 OA
ATOM      8  O   UNL     1      60.524 -25.541  -6.153  1.00  0.00    -0.550 OA
ENDBRANCH   5   6
ENDBRANCH   4   5
ENDBRANCH   3   4
ENDBRANCH   2   3
ENDBRANCH   1   2
BRANCH   1   9
ATOM      9  C   UNL     1      63.321 -28.638  -0.862  1.00  0.00     0.000 C 
BRANCH   9  10
ATOM     10  C   UNL     1      62.107 -29.117  -0.051  1.00  0.00    -0.000 C 
BRANCH  10  11
ATOM     11  C   UNL     1      60.794 -29.027  -0.846  1.00  0.00    -0.000 C 
BRANCH  11  12
ATOM     12  C   UNL     1      59.558 -29.367   0.002  1.00  0.00    -0.000 C 
BRANCH  12  13
ATOM     13  C   UNL     1      59.857 -29.489   1.511  1.00  0.00    -0.003 C 
ATOM     14  C   UNL     1      58.762 -28.865   2.376  1.00  0.00     0.004 C 
ENDBRANCH  12  13
ENDBRANCH  11  12
ENDBRANCH  10  11
ENDBRANCH   9  10
ENDBRANCH   1   9
TORSDOF 10
ENDMDL
MODEL 6
REMARK VINA RESULT:    -4.584      2.375      4.473
REMARK INTER + INTRA:          -8.203
REMARK INTER:                  -6.952
REMARK INTRA:                  -1.251
REMARK UNBOUND:                -0.939
REMARK SMILES CCCCCCCCCCCC(=O)[O-]
REMARK SMILES IDX 7 1 8 2 9 3 10 4 11 5 12 6 13 7 14 8 6 9 5 10 4 11 3 12 2 13
REMARK SMILES IDX 1 14
REMARK H PARENT
REMARK Flexibility Score: inf
ROOT
ATOM      1  C   UNL     1      63.625 -27.200  -2.357  1.00  0.00     0.000 C 
ENDROOT
BRANCH   1   2
ATOM      2  C   UNL     1      63.236 -28.408  -1.491  1.00  0.00     0.000 C 
BRANCH   2   3
ATOM      3  C   UNL     1      61.731 -28.706  -1.537  1.00  0.00     0.000 C 
BRANCH   3   4
ATOM      4  C   UNL     1      61.179 -28.962  -0.125  1.00  0.00     0.006 C 
BRANCH   4   5
ATOM      5  C   UNL     1      59.768 -29.564  -0.154  1.00  0.00     0.053 C 
BRANCH   5   6
ATOM      6  C   UNL     1      59.240 -29.810   1.226  1.00  0.00     0.041 C 
ATOM      7  O   UNL     1      60.012 -30.207   2.139  1.00  0.00    -0.550 OA
ATOM      8  O   UNL     1      57.902 -29.569   1.514  1.00  0.00    -0.550 OA
ENDBRANCH   5   6
ENDBRANCH   4   5
ENDBRANCH   3   4
ENDBRANCH   2   3
ENDBRANCH   1   2
BRANCH   1   9
ATOM      9  C   UNL     1      62.538 -26.111  -2.376  1.00  0.00     0.000 C 
BRANCH   9  10
ATOM     10  C   UNL     1      62.064 -25.777  -3.799  1.00  0.00    -0.000 C 
BRANCH  10  11
ATOM     11  C   UNL     1      60.533 -25.794  -3.930  1.00  0.00    -0.000 C 
BRANCH  11  12
ATOM     12  C   UNL     1      59.816 -25.506  -2.600  1.00  0.00    -0.000 C 
BRANCH  12  13
ATOM     13  C   UNL     1      58.777 -26.578  -2.213  1.00  0.00    -0.003 C 
ATOM     14  C   UNL     1      58.616 -27.651  -3.290  1.00  0.00     0.004 C 
ENDBRANCH  12  13
ENDBRANCH  11  12
ENDBRANCH  10  11
ENDBRANCH   9  10
ENDBRANCH   1   9
TORSDOF 10
ENDMDL
MODEL 7
REMARK VINA RESULT:    -4.531      2.050      2.474
REMARK INTER + INTRA:          -8.118
REMARK INTER:                  -7.361
REMARK INTRA:                  -0.757
REMARK UNBOUND:                -0.939
REMARK SMILES CCCCCCCCCCCC(=O)[O-]
REMARK SMILES IDX 7 1 8 2 9 3 10 4 11 5 12 6 13 7 14 8 6 9 5 10 4 11 3 12 2 13
REMARK SMILES IDX 1 14
REMARK H PARENT
REMARK Flexibility Score: inf
ROOT
ATOM      1  C   UNL     1      63.629 -26.871  -2.083  1.00  0.00     0.000 C 
ENDROOT
BRANCH   1   2
ATOM      2  C   UNL     1      62.852 -26.031  -3.109  1.00  0.00     0.000 C 
BRANCH   2   3
ATOM      3  C   UNL     1      61.363 -25.901  -2.760  1.00  0.00     0.000 C 
BRANCH   3   4
ATOM      4  C   UNL     1      60.535 -25.551  -4.007  1.00  0.00     0.006 C 
BRANCH   4   5
ATOM      5  C   UNL     1      61.415 -25.329  -5.244  1.00  0.00     0.053 C 
BRANCH   5   6
ATOM      6  C   UNL     1      60.596 -25.147  -6.484  1.00  0.00     0.041 C 
ATOM      7  O   UNL     1      61.043 -25.524  -7.600  1.00  0.00    -0.550 OA
ATOM      8  O   UNL     1      59.325 -24.592  -6.404  1.00  0.00    -0.550 OA
ENDBRANCH   5   6
ENDBRANCH   4   5
ENDBRANCH   3   4
ENDBRANCH   2   3
ENDBRANCH   1   2
BRANCH   1   9
ATOM      9  C   UNL     1      63.109 -28.317  -1.988  1.00  0.00     0.000 C 
BRANCH   9  10
ATOM     10  C   UNL     1      63.073 -28.835  -0.542  1.00  0.00    -0.000 C 
BRANCH  10  11
ATOM     11  C   UNL     1      61.659 -29.235  -0.093  1.00  0.00    -0.000 C 
BRANCH  11  12
ATOM     12  C   UNL     1      60.589 -28.942  -1.159  1.00  0.00    -0.000 C 
BRANCH  12  13
ATOM     13  C   UNL     1      59.165 -28.799  -0.583  1.00  0.00    -0.003 C 
ATOM     14  C   UNL     1      58.662 -30.093   0.057  1.00  0.00     0.004 C 
ENDBRANCH  12  13
ENDBRANCH  11  12
ENDBRANCH  10  11
ENDBRANCH   9  10
ENDBRANCH   1   9
TORSDOF 10
ENDMDL
MODEL 8
REMARK VINA RESULT:    -4.485      2.664      5.088
REMARK INTER + INTRA:          -8.045
REMARK INTER:                  -6.915
REMARK INTRA:                  -1.130
REMARK UNBOUND:                -0.939
REMARK SMILES CCCCCCCCCCCC(=O)[O-]
REMARK SMILES IDX 7 1 8 2 9 3 10 4 11 5 12 6 13 7 14 8 6 9 5 10 4 11 3 12 2 13
REMARK SMILES IDX 1 14
REMARK H PARENT
REMARK Flexibility Score: inf
ROOT
ATOM      1  C   UNL     1      59.262 -26.914  -3.107  1.00  0.00     0.000 C 
ENDROOT
BRANCH   1   2
ATOM      2  C   UNL     1      59.659 -28.213  -2.389  1.00  0.00     0.000 C 
BRANCH   2   3
ATOM      3  C   UNL     1      59.433 -28.141  -0.872  1.00  0.00     0.000 C 
BRANCH   3   4
ATOM      4  C   UNL     1      59.803 -29.473  -0.199  1.00  0.00     0.006 C 
BRANCH   4   5
ATOM      5  C   UNL     1      60.682 -29.272   1.043  1.00  0.00     0.053 C 
BRANCH   5   6
ATOM      6  C   UNL     1      59.871 -29.255   2.302  1.00  0.00     0.041 C 
ATOM      7  O   UNL     1      58.612 -29.279   2.245  1.00  0.00    -0.550 OA
ATOM      8  O   UNL     1      60.504 -29.247   3.538  1.00  0.00    -0.550 OA
ENDBRANCH   5   6
ENDBRANCH   4   5
ENDBRANCH   3   4
ENDBRANCH   2   3
ENDBRANCH   1   2
BRANCH   1   9
ATOM      9  C   UNL     1      60.257 -25.768  -2.848  1.00  0.00     0.000 C 
BRANCH   9  10
ATOM     10  C   UNL     1      61.464 -25.811  -3.799  1.00  0.00    -0.000 C 
BRANCH  10  11
ATOM     11  C   UNL     1      62.790 -25.515  -3.081  1.00  0.00    -0.000 C 
BRANCH  11  12
ATOM     12  C   UNL     1      63.618 -26.782  -2.810  1.00  0.00    -0.000 C 
BRANCH  12  13
ATOM     13  C   UNL     1      63.340 -27.419  -1.432  1.00  0.00    -0.003 C 
ATOM     14  C   UNL     1      63.299 -28.946  -1.492  1.00  0.00     0.004 C 
ENDBRANCH  12  13
ENDBRANCH  11  12
ENDBRANCH  10  11
ENDBRANCH   9  10
ENDBRANCH   1   9
TORSDOF 10
ENDMDL
MODEL 9
REMARK VINA RESULT:    -4.425      1.606      2.246
REMARK INTER + INTRA:          -7.950
REMARK INTER:                  -7.057
REMARK INTRA:                  -0.894
REMARK UNBOUND:                -0.939
REMARK SMILES CCCCCCCCCCCC(=O)[O-]
REMARK SMILES IDX 7 1 8 2 9 3 10 4 11 5 12 6 13 7 14 8 6 9 5 10 4 11 3 12 2 13
REMARK SMILES IDX 1 14
REMARK H PARENT
REMARK Flexibility Score: inf
ROOT
ATOM      1  C   UNL     1      62.327 -25.618  -3.024  1.00  0.00     0.000 C 
ENDROOT
BRANCH   1   2
ATOM      2  C   UNL     1      60.918 -26.079  -2.617  1.00  0.00     0.000 C 
BRANCH   2   3
ATOM      3  C   UNL     1      59.953 -26.151  -3.809  1.00  0.00     0.000 C 
BRANCH   3   4
ATOM      4  C   UNL     1      60.276 -25.059  -4.842  1.00  0.00     0.006 C 
BRANCH   4   5
ATOM      5  C   UNL     1      59.500 -23.763  -4.577  1.00  0.00     0.053 C 
BRANCH   5   6
ATOM      6  C   UNL     1      58.048 -23.904  -4.915  1.00  0.00     0.041 C 
ATOM      7  O   UNL     1      57.681 -23.975  -6.119  1.00  0.00    -0.550 OA
ATOM      8  O   UNL     1      57.102 -23.991  -3.902  1.00  0.00    -0.550 OA
ENDBRANCH   5   6
ENDBRANCH   4   5
ENDBRANCH   3   4
ENDBRANCH   2   3
ENDBRANCH   1   2
BRANCH   1   9
ATOM      9  C   UNL     1      63.435 -26.498  -2.416  1.00  0.00     0.000 C 
BRANCH   9  10
ATOM     10  C   UNL     1      63.017 -27.973  -2.301  1.00  0.00    -0.000 C 
BRANCH  10  11
ATOM     11  C   UNL     1      63.417 -28.595  -0.954  1.00  0.00    -0.000 C 
BRANCH  11  12
ATOM     12  C   UNL     1      62.217 -29.167  -0.181  1.00  0.00    -0.000 C 
BRANCH  12  13
ATOM     13  C   UNL     1      60.906 -29.176  -0.993  1.00  0.00    -0.003 C 
ATOM     14  C   UNL     1      59.672 -28.980  -0.112  1.00  0.00     0.004 C 
ENDBRANCH  12  13
ENDBRANCH  11  12
ENDBRANCH  10  11
ENDBRANCH   9  10
ENDBRANCH   1   9
TORSDOF 10
ENDMDL
