MODEL 1
REMARK VINA RESULT:    -5.441      0.000      0.000
REMARK INTER + INTRA:          -7.749
REMARK INTER:                  -7.349
REMARK INTRA:                  -0.400
REMARK UNBOUND:                -0.400
REMARK SMILES CCCCCCCC(=O)[O-]
REMARK SMILES IDX 5 1 6 2 7 3 8 4 9 5 10 6 4 7 3 8 2 9 1 10
REMARK H PARENT
REMARK Flexibility Score: inf
ROOT
ATOM      1  C   UNL     1      27.609   3.647   4.042  1.00  0.00     0.000 C 
ENDROOT
BRANCH   1   2
ATOM      2  C   UNL     1      28.696   2.574   4.203  1.00  0.00     0.006 C 
BRANCH   2   3
ATOM      3  C   UNL     1      28.198   1.417   5.074  1.00  0.00     0.053 C 
BRANCH   3   4
ATOM      4  C   UNL     1      28.465   0.107   4.403  1.00  0.00     0.041 C 
ATOM      5  O   UNL     1      28.772  -0.905   5.087  1.00  0.00    -0.550 OA
ATOM      6  O   UNL     1      28.423   0.013   3.018  1.00  0.00    -0.550 OA
ENDBRANCH   3   4
ENDBRANCH   2   3
ENDBRANCH   1   2
BRANCH   1   7
ATOM      7  C   UNL     1      27.662   4.723   5.140  1.00  0.00     0.000 C 
BRANCH   7   8
ATOM      8  C   UNL     1      28.892   5.650   5.038  1.00  0.00    -0.000 C 
BRANCH   8   9
ATOM      9  C   UNL     1      29.814   5.526   6.260  1.00  0.00    -0.003 C 
ATOM     10  C   UNL     1      29.047   5.027   7.481  1.00  0.00     0.004 C 
ENDBRANCH   8   9
ENDBRANCH   7   8
ENDBRANCH   1   7
TORSDOF 6
ENDMDL
MODEL 2
REMARK VINA RESULT:    -5.264      3.084      4.915
REMARK INTER + INTRA:          -7.510
REMARK INTER:                  -7.262
REMARK INTRA:                  -0.248
REMARK UNBOUND:                -0.400
REMARK SMILES CCCCCCCC(=O)[O-]
REMARK SMILES IDX 5 1 6 2 7 3 8 4 9 5 10 6 4 7 3 8 2 9 1 10
REMARK H PARENT
REMARK Flexibility Score: inf
ROOT
ATOM      1  C   UNL     1      27.626   3.715   3.994  1.00  0.00     0.000 C 
ENDROOT
BRANCH   1   2
ATOM      2  C   UNL     1      27.628   4.717   5.158  1.00  0.00     0.006 C 
BRANCH   2   3
ATOM      3  C   UNL     1      28.796   4.447   6.111  1.00  0.00     0.053 C 
BRANCH   3   4
ATOM      4  C   UNL     1      29.949   5.343   5.790  1.00  0.00     0.041 C 
ATOM      5  O   UNL     1      29.942   6.546   6.165  1.00  0.00    -0.550 OA
ATOM      6  O   UNL     1      31.012   4.866   5.033  1.00  0.00    -0.550 OA
ENDBRANCH   3   4
ENDBRANCH   2   3
ENDBRANCH   1   2
BRANCH   1   7
ATOM      7  C   UNL     1      28.498   2.478   4.268  1.00  0.00     0.000 C 
BRANCH   7   8
ATOM      8  C   UNL     1      27.695   1.249   4.744  1.00  0.00    -0.000 C 
BRANCH   8   9
ATOM      9  C   UNL     1      28.552   0.284   5.577  1.00  0.00    -0.003 C 
ATOM     10  C   UNL     1      28.862  -0.991   4.797  1.00  0.00     0.004 C 
ENDBRANCH   8   9
ENDBRANCH   7   8
ENDBRANCH   1   7
TORSDOF 6
ENDMDL
MODEL 3
REMARK VINA RESULT:    -3.155     18.516     19.173
REMARK INTER + INTRA:          -4.662
REMARK INTER:                  -4.285
REMARK INTRA:                  -0.377
REMARK UNBOUND:                -0.400
REMARK SMILES CCCCCCCC(=O)[O-]
REMARK SMILES IDX 5 1 6 2 7 3 8 4 9 5 10 6 4 7 3 8 2 9 1 10
REMARK H PARENT
REMARK Flexibility Score: inf
ROOT
ATOM      1  C   UNL     1      28.938  13.022  19.505  1.00  0.00     0.000 C 
ENDROOT
BRANCH   1   2
ATOM      2  C   UNL     1      30.349  13.519  19.162  1.00  0.00     0.006 C 
BRANCH   2   3
ATOM      3  C   UNL     1      31.378  12.983  20.162  1.00  0.00     0.053 C 
BRANCH   3   4
ATOM      4  C   UNL     1      32.277  14.084  20.627  1.00  0.00     0.041 C 
ATOM      5  O   UNL     1      32.161  15.243  20.146  1.00  0.00    -0.550 OA
ATOM      6  O   UNL     1      33.276  13.822  21.555  1.00  0.00    -0.550 OA
ENDBRANCH   3   4
ENDBRANCH   2   3
ENDBRANCH   1   2
BRANCH   1   7
ATOM      7  C   UNL     1      28.857  12.358  20.890  1.00  0.00     0.000 C 
BRANCH   7   8
ATOM      8  C   UNL     1      27.705  11.339  21.022  1.00  0.00    -0.000 C 
BRANCH   8   9
ATOM      9  C   UNL     1      28.125  10.089  21.809  1.00  0.00    -0.003 C 
ATOM     10  C   UNL     1      29.636  10.054  22.024  1.00  0.00     0.004 C 
ENDBRANCH   8   9
ENDBRANCH   7   8
ENDBRANCH   1   7
TORSDOF 6
ENDMDL
MODEL 4
REMARK VINA RESULT:    -3.100     17.780     18.338
REMARK INTER + INTRA:          -4.587
REMARK INTER:                  -4.387
REMARK INTRA:                  -0.200
REMARK UNBOUND:                -0.400
REMARK SMILES CCCCCCCC(=O)[O-]
REMARK SMILES IDX 5 1 6 2 7 3 8 4 9 5 10 6 4 7 3 8 2 9 1 10
REMARK H PARENT
REMARK Flexibility Score: inf
ROOT
ATOM      1  C   UNL     1      28.946  12.665  20.511  1.00  0.00     0.000 C 
ENDROOT
BRANCH   1   2
ATOM      2  C   UNL     1      27.807  11.639  20.577  1.00  0.00     0.006 C 
BRANCH   2   3
ATOM      3  C   UNL     1      27.708  11.019  21.974  1.00  0.00     0.053 C 
BRANCH   3   4
ATOM      4  C   UNL     1      28.427   9.708  22.015  1.00  0.00     0.041 C 
ATOM      5  O   UNL     1      29.683   9.671  21.928  1.00  0.00    -0.550 OA
ATOM      6  O   UNL     1      27.709   8.522  22.100  1.00  0.00    -0.550 OA
ENDBRANCH   3   4
ENDBRANCH   2   3
ENDBRANCH   1   2
BRANCH   1   7
ATOM      7  C   UNL     1      29.070  13.334  19.131  1.00  0.00     0.000 C 
BRANCH   7   8
ATOM      8  C   UNL     1      30.524  13.657  18.729  1.00  0.00    -0.000 C 
BRANCH   8   9
ATOM      9  C   UNL     1      31.522  13.328  19.849  1.00  0.00    -0.003 C 
ATOM     10  C   UNL     1      32.119  14.600  20.447  1.00  0.00     0.004 C 
ENDBRANCH   8   9
ENDBRANCH   7   8
ENDBRANCH   1   7
TORSDOF 6
ENDMDL
MODEL 5
REMARK VINA RESULT:    -2.935     17.270     18.349
REMARK INTER + INTRA:          -4.364
REMARK INTER:                  -4.073
REMARK INTRA:                  -0.291
REMARK UNBOUND:                -0.400
REMARK SMILES CCCCCCCC(=O)[O-]
REMARK SMILES IDX 5 1 6 2 7 3 8 4 9 5 10 6 4 7 3 8 2 9 1 10
REMARK H PARENT
REMARK Flexibility Score: inf
ROOT
ATOM      1  C   UNL     1      28.451  12.722  19.805  1.00  0.00     0.000 C 
ENDROOT
BRANCH   1   2
ATOM      2  C   UNL     1      29.637  13.688  19.923  1.00  0.00     0.006 C 
BRANCH   2   3
ATOM      3  C   UNL     1      30.676  13.418  18.829  1.00  0.00     0.053 C 
BRANCH   3   4
ATOM      4  C   UNL     1      30.510  14.386  17.701  1.00  0.00     0.041 C 
ATOM      5  O   UNL     1      30.416  15.620  17.933  1.00  0.00    -0.550 OA
ATOM      6  O   UNL     1      30.410  13.922  16.396  1.00  0.00    -0.550 OA
ENDBRANCH   3   4
ENDBRANCH   2   3
ENDBRANCH   1   2
BRANCH   1   7
ATOM      7  C   UNL     1      28.236  11.879  21.073  1.00  0.00     0.000 C 
BRANCH   7   8
ATOM      8  C   UNL     1      29.549  11.484  21.782  1.00  0.00    -0.000 C 
BRANCH   8   9
ATOM      9  C   UNL     1      29.653   9.967  22.006  1.00  0.00    -0.003 C 
ATOM     10  C   UNL     1      28.270   9.337  22.156  1.00  0.00     0.004 C 
ENDBRANCH   8   9
ENDBRANCH   7   8
ENDBRANCH   1   7
TORSDOF 6
ENDMDL
MODEL 6
REMARK VINA RESULT:    -2.784     16.841     18.178
REMARK INTER + INTRA:          -4.160
REMARK INTER:                  -3.927
REMARK INTRA:                  -0.233
REMARK UNBOUND:                -0.400
REMARK SMILES CCCCCCCC(=O)[O-]
REMARK SMILES IDX 5 1 6 2 7 3 8 4 9 5 10 6 4 7 3 8 2 9 1 10
REMARK H PARENT
REMARK Flexibility Score: inf
ROOT
ATOM      1  C   UNL     1      31.258  12.643  20.666  1.00  0.00     0.000 C 
ENDROOT
BRANCH   1   2
ATOM      2  C   UNL     1      29.983  12.438  21.495  1.00  0.00     0.006 C 
BRANCH   2   3
ATOM      3  C   UNL     1      29.873  10.991  21.983  1.00  0.00     0.053 C 
BRANCH   3   4
ATOM      4  C   UNL     1      28.534  10.423  21.635  1.00  0.00     0.041 C 
ATOM      5  O   UNL     1      28.203   9.279  22.046  1.00  0.00    -0.550 OA
ATOM      6  O   UNL     1      27.668  11.135  20.816  1.00  0.00    -0.550 OA
ENDBRANCH   3   4
ENDBRANCH   2   3
ENDBRANCH   1   2
BRANCH   1   7
ATOM      7  C   UNL     1      31.103  13.729  19.587  1.00  0.00     0.000 C 
BRANCH   7   8
ATOM      8  C   UNL     1      29.877  13.521  18.673  1.00  0.00    -0.000 C 
BRANCH   8   9
ATOM      9  C   UNL     1      30.256  13.519  17.185  1.00  0.00    -0.003 C 
ATOM     10  C   UNL     1      30.646  14.918  16.714  1.00  0.00     0.004 C 
ENDBRANCH   8   9
ENDBRANCH   7   8
ENDBRANCH   1   7
TORSDOF 6
ENDMDL
MODEL 7
REMARK VINA RESULT:    -2.683     16.851     17.989
REMARK INTER + INTRA:          -4.024
REMARK INTER:                  -3.699
REMARK INTRA:                  -0.325
REMARK UNBOUND:                -0.400
REMARK SMILES CCCCCCCC(=O)[O-]
REMARK SMILES IDX 5 1 6 2 7 3 8 4 9 5 10 6 4 7 3 8 2 9 1 10
REMARK H PARENT
REMARK Flexibility Score: inf
ROOT
ATOM      1  C   UNL     1      30.600  13.905  19.334  1.00  0.00     0.000 C 
ENDROOT
BRANCH   1   2
ATOM      2  C   UNL     1      30.274  13.436  17.909  1.00  0.00     0.006 C 
BRANCH   2   3
ATOM      3  C   UNL     1      29.864  14.616  17.023  1.00  0.00     0.053 C 
BRANCH   3   4
ATOM      4  C   UNL     1      31.048  15.144  16.277  1.00  0.00     0.041 C 
ATOM      5  O   UNL     1      31.397  14.619  15.187  1.00  0.00    -0.550 OA
ATOM      6  O   UNL     1      31.797  16.186  16.808  1.00  0.00    -0.550 OA
ENDBRANCH   3   4
ENDBRANCH   2   3
ENDBRANCH   1   2
BRANCH   1   7
ATOM      7  C   UNL     1      29.452  13.648  20.326  1.00  0.00     0.000 C 
BRANCH   7   8
ATOM      8  C   UNL     1      28.457  12.567  19.855  1.00  0.00    -0.000 C 
BRANCH   8   9
ATOM      9  C   UNL     1      28.070  11.603  20.986  1.00  0.00    -0.003 C 
ATOM     10  C   UNL     1      29.307  10.966  21.615  1.00  0.00     0.004 C 
ENDBRANCH   8   9
ENDBRANCH   7   8
ENDBRANCH   1   7
TORSDOF 6
ENDMDL
MODEL 8
REMARK VINA RESULT:    -2.661     16.951     17.862
REMARK INTER + INTRA:          -3.994
REMARK INTER:                  -3.821
REMARK INTRA:                  -0.173
REMARK UNBOUND:                -0.400
REMARK SMILES CCCCCCCC(=O)[O-]
REMARK SMILES IDX 5 1 6 2 7 3 8 4 9 5 10 6 4 7 3 8 2 9 1 10
REMARK H PARENT
REMARK Flexibility Score: inf
ROOT
ATOM      1  C   UNL     1      29.424  13.360  18.937  1.00  0.00     0.000 C 
ENDROOT
BRANCH   1   2
ATOM      2  C   UNL     1      28.539  12.778  20.048  1.00  0.00     0.006 C 
BRANCH   2   3
ATOM      3  C   UNL     1      29.391  12.193  21.179  1.00  0.00     0.053 C 
BRANCH   3   4
ATOM      4  C   UNL     1      28.888  10.838  21.564  1.00  0.00     0.041 C 
ATOM      5  O   UNL     1      27.653  10.595  21.557  1.00  0.00    -0.550 OA
ATOM      6  O   UNL     1      29.780   9.857  21.977  1.00  0.00    -0.550 OA
ENDBRANCH   3   4
ENDBRANCH   2   3
ENDBRANCH   1   2
BRANCH   1   7
ATOM      7  C   UNL     1      28.943  14.736  18.447  1.00  0.00     0.000 C 
BRANCH   7   8
ATOM      8  C   UNL     1      29.240  15.001  16.956  1.00  0.00    -0.000 C 
BRANCH   8   9
ATOM      9  C   UNL     1      30.536  14.318  16.494  1.00  0.00    -0.003 C 
ATOM     10  C   UNL     1      31.345  15.233  15.578  1.00  0.00     0.004 C 
ENDBRANCH   8   9
ENDBRANCH   7   8
ENDBRANCH   1   7
TORSDOF 6
ENDMDL
MODEL 9
REMARK VINA RESULT:    -2.655     16.050     17.854
REMARK INTER + INTRA:          -3.986
REMARK INTER:                  -3.828
REMARK INTRA:                  -0.158
REMARK UNBOUND:                -0.400
REMARK SMILES CCCCCCCC(=O)[O-]
REMARK SMILES IDX 5 1 6 2 7 3 8 4 9 5 10 6 4 7 3 8 2 9 1 10
REMARK H PARENT
REMARK Flexibility Score: inf
ROOT
ATOM      1  C   UNL     1      30.230  15.713  17.080  1.00  0.00     0.000 C 
ENDROOT
BRANCH   1   2
ATOM      2  C   UNL     1      30.569  15.316  18.523  1.00  0.00     0.006 C 
BRANCH   2   3
ATOM      3  C   UNL     1      30.765  13.801  18.643  1.00  0.00     0.053 C 
BRANCH   3   4
ATOM      4  C   UNL     1      31.361  13.456  19.971  1.00  0.00     0.041 C 
ATOM      5  O   UNL     1      32.353  14.098  20.407  1.00  0.00    -0.550 OA
ATOM      6  O   UNL     1      30.853  12.393  20.707  1.00  0.00    -0.550 OA
ENDBRANCH   3   4
ENDBRANCH   2   3
ENDBRANCH   1   2
BRANCH   1   7
ATOM      7  C   UNL     1      31.478  16.005  16.230  1.00  0.00     0.000 C 
BRANCH   7   8
ATOM      8  C   UNL     1      31.454  15.329  14.843  1.00  0.00    -0.000 C 
BRANCH   8   9
ATOM      9  C   UNL     1      31.011  16.296  13.735  1.00  0.00    -0.003 C 
ATOM     10  C   UNL     1      31.217  15.681  12.353  1.00  0.00     0.004 C 
ENDBRANCH   8   9
ENDBRANCH   7   8
ENDBRANCH   1   7
TORSDOF 6
ENDMDL
