MODEL 1
REMARK VINA RESULT:    -1.284      0.000      0.000
REMARK INTER + INTRA:          -4.343
REMARK INTER:                  -2.784
REMARK INTRA:                  -1.559
REMARK UNBOUND:                -1.559
REMARK SMILES CCCCCCCCCCCCCCCCCCCCCC(=O)[O-]
REMARK SMILES IDX 12 1 11 2 10 3 9 4 8 5 7 6 6 7 5 8 4 9 3 10 2 11 1 12 13 13
REMARK SMILES IDX 14 14 15 15 16 16 17 17 18 18 19 19 20 20 21 21 22 22 23 23
REMARK SMILES IDX 24 24
REMARK H PARENT
REMARK Flexibility Score: inf
ROOT
ATOM      1  C   UNL     1      17.572  32.616  11.819  1.00  0.00     0.000 C 
ENDROOT
BRANCH   1   2
ATOM      2  C   UNL     1      16.352  32.787  10.899  1.00  0.00     0.000 C 
BRANCH   2   3
ATOM      3  C   UNL     1      15.535  34.050  11.228  1.00  0.00     0.000 C 
BRANCH   3   4
ATOM      4  C   UNL     1      14.998  34.757   9.974  1.00  0.00    -0.000 C 
BRANCH   4   5
ATOM      5  C   UNL     1      13.462  34.725   9.891  1.00  0.00    -0.000 C 
BRANCH   5   6
ATOM      6  C   UNL     1      12.890  33.295   9.890  1.00  0.00    -0.000 C 
BRANCH   6   7
ATOM      7  C   UNL     1      12.914  32.585  11.257  1.00  0.00    -0.000 C 
BRANCH   7   8
ATOM      8  C   UNL     1      12.895  31.051  11.135  1.00  0.00    -0.000 C 
BRANCH   8   9
ATOM      9  C   UNL     1      13.904  30.370  12.072  1.00  0.00    -0.000 C 
BRANCH   9  10
ATOM     10  C   UNL     1      13.891  28.837  11.939  1.00  0.00    -0.000 C 
BRANCH  10  11
ATOM     11  C   UNL     1      13.195  28.366  10.654  1.00  0.00    -0.003 C 
ATOM     12  C   UNL     1      13.118  26.842  10.548  1.00  0.00     0.004 C 
ENDBRANCH  10  11
ENDBRANCH   9  10
ENDBRANCH   8   9
ENDBRANCH   7   8
ENDBRANCH   6   7
ENDBRANCH   5   6
ENDBRANCH   4   5
ENDBRANCH   3   4
ENDBRANCH   2   3
ENDBRANCH   1   2
BRANCH   1  13
ATOM     13  C   UNL     1      18.606  33.737  11.642  1.00  0.00     0.000 C 
BRANCH  13  14
ATOM     14  C   UNL     1      19.090  33.817  10.188  1.00  0.00     0.000 C 
BRANCH  14  15
ATOM     15  C   UNL     1      19.707  35.193   9.892  1.00  0.00     0.000 C 
BRANCH  15  16
ATOM     16  C   UNL     1      19.982  36.012  11.164  1.00  0.00     0.000 C 
BRANCH  16  17
ATOM     17  C   UNL     1      20.083  37.523  10.888  1.00  0.00     0.000 C 
BRANCH  17  18
ATOM     18  C   UNL     1      19.030  38.005   9.877  1.00  0.00     0.000 C 
BRANCH  18  19
ATOM     19  C   UNL     1      18.142  39.124  10.445  1.00  0.00     0.000 C 
BRANCH  19  20
ATOM     20  C   UNL     1      16.693  38.974   9.966  1.00  0.00     0.006 C 
BRANCH  20  21
ATOM     21  C   UNL     1      15.904  38.044  10.892  1.00  0.00     0.053 C 
BRANCH  21  22
ATOM     22  C   UNL     1      14.477  38.484  10.989  1.00  0.00     0.041 C 
ATOM     23  O   UNL     1      13.705  38.352  10.003  1.00  0.00    -0.550 OA
ATOM     24  O   UNL     1      14.007  39.073  12.157  1.00  0.00    -0.550 OA
ENDBRANCH  21  22
ENDBRANCH  20  21
ENDBRANCH  19  20
ENDBRANCH  18  19
ENDBRANCH  17  18
ENDBRANCH  16  17
ENDBRANCH  15  16
ENDBRANCH  14  15
ENDBRANCH  13  14
ENDBRANCH   1  13
TORSDOF 20
ENDMDL
MODEL 2
REMARK VINA RESULT:     0.595     20.821     23.055
REMARK INTER + INTRA:          -0.268
REMARK INTER:                   0.379
REMARK INTRA:                  -0.647
REMARK UNBOUND:                -1.559
REMARK SMILES CCCCCCCCCCCCCCCCCCCCCC(=O)[O-]
REMARK SMILES IDX 12 1 11 2 10 3 9 4 8 5 7 6 6 7 5 8 4 9 3 10 2 11 1 12 13 13
REMARK SMILES IDX 14 14 15 15 16 16 17 17 18 18 19 19 20 20 21 21 22 22 23 23
REMARK SMILES IDX 24 24
REMARK H PARENT
REMARK Flexibility Score: inf
ROOT
ATOM      1  C   UNL     1      24.938  19.836  25.488  1.00  0.00     0.000 C 
ENDROOT
BRANCH   1   2
ATOM      2  C   UNL     1      24.094  19.186  24.379  1.00  0.00     0.000 C 
BRANCH   2   3
ATOM      3  C   UNL     1      24.912  18.894  23.108  1.00  0.00     0.000 C 
BRANCH   3   4
ATOM      4  C   UNL     1      26.428  18.889  23.361  1.00  0.00    -0.000 C 
BRANCH   4   5
ATOM      5  C   UNL     1      27.201  19.728  22.330  1.00  0.00    -0.000 C 
BRANCH   5   6
ATOM      6  C   UNL     1      28.096  18.875  21.411  1.00  0.00    -0.000 C 
BRANCH   6   7
ATOM      7  C   UNL     1      29.607  19.138  21.548  1.00  0.00    -0.000 C 
BRANCH   7   8
ATOM      8  C   UNL     1      30.039  19.404  23.001  1.00  0.00    -0.000 C 
BRANCH   8   9
ATOM      9  C   UNL     1      29.789  20.856  23.436  1.00  0.00    -0.000 C 
BRANCH   9  10
ATOM     10  C   UNL     1      29.771  21.019  24.966  1.00  0.00    -0.000 C 
BRANCH  10  11
ATOM     11  C   UNL     1      28.480  20.477  25.598  1.00  0.00    -0.003 C 
ATOM     12  C   UNL     1      27.415  21.557  25.785  1.00  0.00     0.004 C 
ENDBRANCH  10  11
ENDBRANCH   9  10
ENDBRANCH   8   9
ENDBRANCH   7   8
ENDBRANCH   6   7
ENDBRANCH   5   6
ENDBRANCH   4   5
ENDBRANCH   3   4
ENDBRANCH   2   3
ENDBRANCH   1   2
BRANCH   1  13
ATOM     13  C   UNL     1      24.695  19.200  26.864  1.00  0.00     0.000 C 
BRANCH  13  14
ATOM     14  C   UNL     1      23.203  18.922  27.089  1.00  0.00     0.000 C 
BRANCH  14  15
ATOM     15  C   UNL     1      22.876  18.875  28.590  1.00  0.00     0.000 C 
BRANCH  15  16
ATOM     16  C   UNL     1      21.921  19.997  29.030  1.00  0.00     0.000 C 
BRANCH  16  17
ATOM     17  C   UNL     1      21.054  20.528  27.875  1.00  0.00     0.000 C 
BRANCH  17  18
ATOM     18  C   UNL     1      21.895  21.179  26.764  1.00  0.00     0.000 C 
BRANCH  18  19
ATOM     19  C   UNL     1      22.195  22.660  27.047  1.00  0.00     0.000 C 
BRANCH  19  20
ATOM     20  C   UNL     1      23.696  22.885  27.272  1.00  0.00     0.006 C 
BRANCH  20  21
ATOM     21  C   UNL     1      24.323  23.617  26.081  1.00  0.00     0.053 C 
BRANCH  21  22
ATOM     22  C   UNL     1      24.992  24.877  26.532  1.00  0.00     0.041 C 
ATOM     23  O   UNL     1      24.969  25.207  27.746  1.00  0.00    -0.550 OA
ATOM     24  O   UNL     1      25.612  25.706  25.604  1.00  0.00    -0.550 OA
ENDBRANCH  21  22
ENDBRANCH  20  21
ENDBRANCH  19  20
ENDBRANCH  18  19
ENDBRANCH  17  18
ENDBRANCH  16  17
ENDBRANCH  15  16
ENDBRANCH  14  15
ENDBRANCH  13  14
ENDBRANCH   1  13
TORSDOF 20
ENDMDL
MODEL 3
REMARK VINA RESULT:     0.688     20.069     22.939
REMARK INTER + INTRA:          -0.065
REMARK INTER:                   0.288
REMARK INTRA:                  -0.354
REMARK UNBOUND:                -1.559
REMARK SMILES CCCCCCCCCCCCCCCCCCCCCC(=O)[O-]
REMARK SMILES IDX 12 1 11 2 10 3 9 4 8 5 7 6 6 7 5 8 4 9 3 10 2 11 1 12 13 13
REMARK SMILES IDX 14 14 15 15 16 16 17 17 18 18 19 19 20 20 21 21 22 22 23 23
REMARK SMILES IDX 24 24
REMARK H PARENT
REMARK Flexibility Score: inf
ROOT
ATOM      1  C   UNL     1      23.470  19.288  25.832  1.00  0.00     0.000 C 
ENDROOT
BRANCH   1   2
ATOM      2  C   UNL     1      24.690  18.901  24.980  1.00  0.00     0.000 C 
BRANCH   2   3
ATOM      3  C   UNL     1      24.450  19.108  23.473  1.00  0.00     0.000 C 
BRANCH   3   4
ATOM      4  C   UNL     1      25.713  18.875  22.629  1.00  0.00    -0.000 C 
BRANCH   4   5
ATOM      5  C   UNL     1      26.678  20.072  22.669  1.00  0.00    -0.000 C 
BRANCH   5   6
ATOM      6  C   UNL     1      27.388  20.226  24.028  1.00  0.00    -0.000 C 
BRANCH   6   7
ATOM      7  C   UNL     1      28.061  18.945  24.558  1.00  0.00    -0.000 C 
BRANCH   7   8
ATOM      8  C   UNL     1      29.591  18.964  24.400  1.00  0.00    -0.000 C 
BRANCH   8   9
ATOM      9  C   UNL     1      30.137  20.368  24.094  1.00  0.00    -0.000 C 
BRANCH   9  10
ATOM     10  C   UNL     1      30.670  20.493  22.656  1.00  0.00    -0.000 C 
BRANCH  10  11
ATOM     11  C   UNL     1      31.182  19.154  22.102  1.00  0.00    -0.003 C 
ATOM     12  C   UNL     1      32.708  19.061  22.099  1.00  0.00     0.004 C 
ENDBRANCH  10  11
ENDBRANCH   9  10
ENDBRANCH   8   9
ENDBRANCH   7   8
ENDBRANCH   6   7
ENDBRANCH   5   6
ENDBRANCH   4   5
ENDBRANCH   3   4
ENDBRANCH   2   3
ENDBRANCH   1   2
BRANCH   1  13
ATOM     13  C   UNL     1      23.854  19.701  27.260  1.00  0.00     0.000 C 
BRANCH  13  14
ATOM     14  C   UNL     1      23.076  18.884  28.299  1.00  0.00     0.000 C 
BRANCH  14  15
ATOM     15  C   UNL     1      21.595  19.290  28.317  1.00  0.00     0.000 C 
BRANCH  15  16
ATOM     16  C   UNL     1      21.390  20.798  28.537  1.00  0.00     0.000 C 
BRANCH  16  17
ATOM     17  C   UNL     1      21.176  21.568  27.222  1.00  0.00     0.000 C 
BRANCH  17  18
ATOM     18  C   UNL     1      22.054  22.826  27.131  1.00  0.00     0.000 C 
BRANCH  18  19
ATOM     19  C   UNL     1      23.549  22.490  27.006  1.00  0.00     0.000 C 
BRANCH  19  20
ATOM     20  C   UNL     1      24.402  23.764  27.009  1.00  0.00     0.006 C 
BRANCH  20  21
ATOM     21  C   UNL     1      24.272  24.514  25.680  1.00  0.00     0.053 C 
BRANCH  21  22
ATOM     22  C   UNL     1      25.118  25.748  25.686  1.00  0.00     0.041 C 
ATOM     23  O   UNL     1      25.777  26.059  26.712  1.00  0.00    -0.550 OA
ATOM     24  O   UNL     1      25.151  26.576  24.569  1.00  0.00    -0.550 OA
ENDBRANCH  21  22
ENDBRANCH  20  21
ENDBRANCH  19  20
ENDBRANCH  18  19
ENDBRANCH  17  18
ENDBRANCH  16  17
ENDBRANCH  15  16
ENDBRANCH  14  15
ENDBRANCH  13  14
ENDBRANCH   1  13
TORSDOF 20
ENDMDL
MODEL 4
REMARK VINA RESULT:     0.827     20.650     23.390
REMARK INTER + INTRA:           0.235
REMARK INTER:                   1.058
REMARK INTRA:                  -0.823
REMARK UNBOUND:                -1.559
REMARK SMILES CCCCCCCCCCCCCCCCCCCCCC(=O)[O-]
REMARK SMILES IDX 12 1 11 2 10 3 9 4 8 5 7 6 6 7 5 8 4 9 3 10 2 11 1 12 13 13
REMARK SMILES IDX 14 14 15 15 16 16 17 17 18 18 19 19 20 20 21 21 22 22 23 23
REMARK SMILES IDX 24 24
REMARK H PARENT
REMARK Flexibility Score: inf
ROOT
ATOM      1  C   UNL     1      23.330  19.672  26.645  1.00  0.00     0.000 C 
ENDROOT
BRANCH   1   2
ATOM      2  C   UNL     1      23.602  18.876  27.932  1.00  0.00     0.000 C 
BRANCH   2   3
ATOM      3  C   UNL     1      22.447  18.977  28.945  1.00  0.00     0.000 C 
BRANCH   3   4
ATOM      4  C   UNL     1      21.140  19.479  28.312  1.00  0.00    -0.000 C 
BRANCH   4   5
ATOM      5  C   UNL     1      20.786  20.912  28.747  1.00  0.00    -0.000 C 
BRANCH   5   6
ATOM      6  C   UNL     1      20.757  21.906  27.570  1.00  0.00    -0.000 C 
BRANCH   6   7
ATOM      7  C   UNL     1      22.086  22.048  26.805  1.00  0.00    -0.000 C 
BRANCH   7   8
ATOM      8  C   UNL     1      23.168  22.780  27.618  1.00  0.00    -0.000 C 
BRANCH   8   9
ATOM      9  C   UNL     1      23.314  24.256  27.214  1.00  0.00    -0.000 C 
BRANCH   9  10
ATOM     10  C   UNL     1      24.274  24.451  26.027  1.00  0.00    -0.000 C 
BRANCH  10  11
ATOM     11  C   UNL     1      25.532  25.242  26.414  1.00  0.00    -0.003 C 
ATOM     12  C   UNL     1      25.962  26.235  25.333  1.00  0.00     0.004 C 
ENDBRANCH  10  11
ENDBRANCH   9  10
ENDBRANCH   8   9
ENDBRANCH   7   8
ENDBRANCH   6   7
ENDBRANCH   5   6
ENDBRANCH   4   5
ENDBRANCH   3   4
ENDBRANCH   2   3
ENDBRANCH   1   2
BRANCH   1  13
ATOM     13  C   UNL     1      23.667  18.876  25.376  1.00  0.00     0.000 C 
BRANCH  13  14
ATOM     14  C   UNL     1      25.167  18.945  25.062  1.00  0.00     0.000 C 
BRANCH  14  15
ATOM     15  C   UNL     1      25.626  20.403  24.904  1.00  0.00     0.000 C 
BRANCH  15  16
ATOM     16  C   UNL     1      26.364  20.936  26.142  1.00  0.00     0.000 C 
BRANCH  16  17
ATOM     17  C   UNL     1      27.836  20.491  26.195  1.00  0.00     0.000 C 
BRANCH  17  18
ATOM     18  C   UNL     1      28.618  20.906  24.938  1.00  0.00     0.000 C 
BRANCH  18  19
ATOM     19  C   UNL     1      29.972  20.184  24.825  1.00  0.00     0.000 C 
BRANCH  19  20
ATOM     20  C   UNL     1      29.834  18.875  24.038  1.00  0.00     0.006 C 
BRANCH  20  21
ATOM     21  C   UNL     1      29.657  19.152  22.542  1.00  0.00     0.053 C 
BRANCH  21  22
ATOM     22  C   UNL     1      30.871  19.826  21.984  1.00  0.00     0.041 C 
ATOM     23  O   UNL     1      31.960  19.201  21.901  1.00  0.00    -0.550 OA
ATOM     24  O   UNL     1      30.809  21.157  21.589  1.00  0.00    -0.550 OA
ENDBRANCH  21  22
ENDBRANCH  20  21
ENDBRANCH  19  20
ENDBRANCH  18  19
ENDBRANCH  17  18
ENDBRANCH  16  17
ENDBRANCH  15  16
ENDBRANCH  14  15
ENDBRANCH  13  14
ENDBRANCH   1  13
TORSDOF 20
ENDMDL
MODEL 5
REMARK VINA RESULT:     0.888     19.858     22.656
REMARK INTER + INTRA:           0.367
REMARK INTER:                   1.124
REMARK INTRA:                  -0.757
REMARK UNBOUND:                -1.559
REMARK SMILES CCCCCCCCCCCCCCCCCCCCCC(=O)[O-]
REMARK SMILES IDX 12 1 11 2 10 3 9 4 8 5 7 6 6 7 5 8 4 9 3 10 2 11 1 12 13 13
REMARK SMILES IDX 14 14 15 15 16 16 17 17 18 18 19 19 20 20 21 21 22 22 23 23
REMARK SMILES IDX 24 24
REMARK H PARENT
REMARK Flexibility Score: inf
ROOT
ATOM      1  C   UNL     1      24.499  19.383  26.638  1.00  0.00     0.000 C 
ENDROOT
BRANCH   1   2
ATOM      2  C   UNL     1      23.349  18.875  27.524  1.00  0.00     0.000 C 
BRANCH   2   3
ATOM      3  C   UNL     1      22.175  19.869  27.597  1.00  0.00     0.000 C 
BRANCH   3   4
ATOM      4  C   UNL     1      22.268  20.980  26.540  1.00  0.00    -0.000 C 
BRANCH   4   5
ATOM      5  C   UNL     1      22.258  22.388  27.161  1.00  0.00    -0.000 C 
BRANCH   5   6
ATOM      6  C   UNL     1      23.404  23.279  26.646  1.00  0.00    -0.000 C 
BRANCH   6   7
ATOM      7  C   UNL     1      24.081  24.153  27.719  1.00  0.00    -0.000 C 
BRANCH   7   8
ATOM      8  C   UNL     1      24.780  25.390  27.129  1.00  0.00    -0.000 C 
BRANCH   8   9
ATOM      9  C   UNL     1      25.129  25.220  25.643  1.00  0.00    -0.000 C 
BRANCH   9  10
ATOM     10  C   UNL     1      25.764  26.484  25.037  1.00  0.00    -0.000 C 
BRANCH  10  11
ATOM     11  C   UNL     1      25.073  26.922  23.737  1.00  0.00    -0.003 C 
ATOM     12  C   UNL     1      24.393  28.287  23.860  1.00  0.00     0.004 C 
ENDBRANCH  10  11
ENDBRANCH   9  10
ENDBRANCH   8   9
ENDBRANCH   7   8
ENDBRANCH   6   7
ENDBRANCH   5   6
ENDBRANCH   4   5
ENDBRANCH   3   4
ENDBRANCH   2   3
ENDBRANCH   1   2
BRANCH   1  13
ATOM     13  C   UNL     1      24.335  18.975  25.166  1.00  0.00     0.000 C 
BRANCH  13  14
ATOM     14  C   UNL     1      25.663  19.097  24.408  1.00  0.00     0.000 C 
BRANCH  14  15
ATOM     15  C   UNL     1      25.419  19.262  22.900  1.00  0.00     0.000 C 
BRANCH  15  16
ATOM     16  C   UNL     1      26.706  19.145  22.068  1.00  0.00     0.000 C 
BRANCH  16  17
ATOM     17  C   UNL     1      27.962  18.957  22.938  1.00  0.00     0.000 C 
BRANCH  17  18
ATOM     18  C   UNL     1      29.248  18.877  22.100  1.00  0.00     0.000 C 
BRANCH  18  19
ATOM     19  C   UNL     1      30.244  19.996  22.446  1.00  0.00     0.000 C 
BRANCH  19  20
ATOM     20  C   UNL     1      29.587  21.062  23.333  1.00  0.00     0.006 C 
BRANCH  20  21
ATOM     21  C   UNL     1      29.677  20.675  24.812  1.00  0.00     0.053 C 
BRANCH  21  22
ATOM     22  C   UNL     1      28.448  21.109  25.546  1.00  0.00     0.041 C 
ATOM     23  O   UNL     1      27.930  22.231  25.305  1.00  0.00    -0.550 OA
ATOM     24  O   UNL     1      27.893  20.289  26.521  1.00  0.00    -0.550 OA
ENDBRANCH  21  22
ENDBRANCH  20  21
ENDBRANCH  19  20
ENDBRANCH  18  19
ENDBRANCH  17  18
ENDBRANCH  16  17
ENDBRANCH  15  16
ENDBRANCH  14  15
ENDBRANCH  13  14
ENDBRANCH   1  13
TORSDOF 20
ENDMDL
MODEL 6
REMARK VINA RESULT:     0.980     19.968     22.724
REMARK INTER + INTRA:           0.566
REMARK INTER:                   1.781
REMARK INTRA:                  -1.214
REMARK UNBOUND:                -1.559
REMARK SMILES CCCCCCCCCCCCCCCCCCCCCC(=O)[O-]
REMARK SMILES IDX 12 1 11 2 10 3 9 4 8 5 7 6 6 7 5 8 4 9 3 10 2 11 1 12 13 13
REMARK SMILES IDX 14 14 15 15 16 16 17 17 18 18 19 19 20 20 21 21 22 22 23 23
REMARK SMILES IDX 24 24
REMARK H PARENT
REMARK Flexibility Score: inf
ROOT
ATOM      1  C   UNL     1      24.257  18.875  24.636  1.00  0.00     0.000 C 
ENDROOT
BRANCH   1   2
ATOM      2  C   UNL     1      23.010  19.139  25.496  1.00  0.00     0.000 C 
BRANCH   2   3
ATOM      3  C   UNL     1      23.349  19.336  26.985  1.00  0.00     0.000 C 
BRANCH   3   4
ATOM      4  C   UNL     1      23.642  20.801  27.342  1.00  0.00    -0.000 C 
BRANCH   4   5
ATOM      5  C   UNL     1      22.687  21.782  26.641  1.00  0.00    -0.000 C 
BRANCH   5   6
ATOM      6  C   UNL     1      23.307  23.177  26.430  1.00  0.00    -0.000 C 
BRANCH   6   7
ATOM      7  C   UNL     1      24.453  23.531  27.396  1.00  0.00    -0.000 C 
BRANCH   7   8
ATOM      8  C   UNL     1      24.661  25.048  27.547  1.00  0.00    -0.000 C 
BRANCH   8   9
ATOM      9  C   UNL     1      25.499  25.647  26.406  1.00  0.00    -0.000 C 
BRANCH   9  10
ATOM     10  C   UNL     1      24.686  25.837  25.113  1.00  0.00    -0.000 C 
BRANCH  10  11
ATOM     11  C   UNL     1      25.156  27.051  24.299  1.00  0.00    -0.003 C 
ATOM     12  C   UNL     1      23.994  27.884  23.755  1.00  0.00     0.004 C 
ENDBRANCH  10  11
ENDBRANCH   9  10
ENDBRANCH   8   9
ENDBRANCH   7   8
ENDBRANCH   6   7
ENDBRANCH   5   6
ENDBRANCH   4   5
ENDBRANCH   3   4
ENDBRANCH   2   3
ENDBRANCH   1   2
BRANCH   1  13
ATOM     13  C   UNL     1      24.056  19.273  23.167  1.00  0.00     0.000 C 
BRANCH  13  14
ATOM     14  C   UNL     1      25.299  18.943  22.330  1.00  0.00     0.000 C 
BRANCH  14  15
ATOM     15  C   UNL     1      26.584  19.249  23.115  1.00  0.00     0.000 C 
BRANCH  15  16
ATOM     16  C   UNL     1      26.764  20.748  23.407  1.00  0.00     0.000 C 
BRANCH  16  17
ATOM     17  C   UNL     1      26.828  21.057  24.913  1.00  0.00     0.000 C 
BRANCH  17  18
ATOM     18  C   UNL     1      28.066  20.440  25.585  1.00  0.00     0.000 C 
BRANCH  18  19
ATOM     19  C   UNL     1      29.295  21.360  25.507  1.00  0.00     0.000 C 
BRANCH  19  20
ATOM     20  C   UNL     1      30.260  20.898  24.408  1.00  0.00     0.006 C 
BRANCH  20  21
ATOM     21  C   UNL     1      29.960  19.456  23.987  1.00  0.00     0.053 C 
BRANCH  21  22
ATOM     22  C   UNL     1      30.215  19.270  22.525  1.00  0.00     0.041 C 
ATOM     23  O   UNL     1      29.288  18.886  21.764  1.00  0.00    -0.550 OA
ATOM     24  O   UNL     1      31.486  19.486  22.006  1.00  0.00    -0.550 OA
ENDBRANCH  21  22
ENDBRANCH  20  21
ENDBRANCH  19  20
ENDBRANCH  18  19
ENDBRANCH  17  18
ENDBRANCH  16  17
ENDBRANCH  15  16
ENDBRANCH  14  15
ENDBRANCH  13  14
ENDBRANCH   1  13
TORSDOF 20
ENDMDL
MODEL 7
REMARK VINA RESULT:     1.175     20.133     23.016
REMARK INTER + INTRA:           0.989
REMARK INTER:                   1.978
REMARK INTRA:                  -0.989
REMARK UNBOUND:                -1.559
REMARK SMILES CCCCCCCCCCCCCCCCCCCCCC(=O)[O-]
REMARK SMILES IDX 12 1 11 2 10 3 9 4 8 5 7 6 6 7 5 8 4 9 3 10 2 11 1 12 13 13
REMARK SMILES IDX 14 14 15 15 16 16 17 17 18 18 19 19 20 20 21 21 22 22 23 23
REMARK SMILES IDX 24 24
REMARK H PARENT
REMARK Flexibility Score: inf
ROOT
ATOM      1  C   UNL     1      23.687  18.882  27.126  1.00  0.00     0.000 C 
ENDROOT
BRANCH   1   2
ATOM      2  C   UNL     1      22.388  18.877  27.950  1.00  0.00     0.000 C 
BRANCH   2   3
ATOM      3  C   UNL     1      21.645  20.224  27.890  1.00  0.00     0.000 C 
BRANCH   3   4
ATOM      4  C   UNL     1      22.596  21.431  27.898  1.00  0.00    -0.000 C 
BRANCH   4   5
ATOM      5  C   UNL     1      22.283  22.437  26.777  1.00  0.00    -0.000 C 
BRANCH   5   6
ATOM      6  C   UNL     1      23.538  23.154  26.246  1.00  0.00    -0.000 C 
BRANCH   6   7
ATOM      7  C   UNL     1      24.703  23.256  27.250  1.00  0.00    -0.000 C 
BRANCH   7   8
ATOM      8  C   UNL     1      25.347  24.652  27.279  1.00  0.00    -0.000 C 
BRANCH   8   9
ATOM      9  C   UNL     1      24.817  25.572  26.169  1.00  0.00    -0.000 C 
BRANCH   9  10
ATOM     10  C   UNL     1      25.943  26.320  25.433  1.00  0.00    -0.000 C 
BRANCH  10  11
ATOM     11  C   UNL     1      25.491  26.870  24.072  1.00  0.00    -0.003 C 
ATOM     12  C   UNL     1      24.078  27.454  24.112  1.00  0.00     0.004 C 
ENDBRANCH  10  11
ENDBRANCH   9  10
ENDBRANCH   8   9
ENDBRANCH   7   8
ENDBRANCH   6   7
ENDBRANCH   5   6
ENDBRANCH   4   5
ENDBRANCH   3   4
ENDBRANCH   2   3
ENDBRANCH   1   2
BRANCH   1  13
ATOM     13  C   UNL     1      23.426  18.947  25.614  1.00  0.00     0.000 C 
BRANCH  13  14
ATOM     14  C   UNL     1      24.738  19.106  24.834  1.00  0.00     0.000 C 
BRANCH  14  15
ATOM     15  C   UNL     1      24.462  19.302  23.335  1.00  0.00     0.000 C 
BRANCH  15  16
ATOM     16  C   UNL     1      25.658  18.914  22.450  1.00  0.00     0.000 C 
BRANCH  16  17
ATOM     17  C   UNL     1      26.985  18.875  23.227  1.00  0.00     0.000 C 
BRANCH  17  18
ATOM     18  C   UNL     1      27.254  20.182  23.992  1.00  0.00     0.000 C 
BRANCH  18  19
ATOM     19  C   UNL     1      28.579  20.143  24.771  1.00  0.00     0.000 C 
BRANCH  19  20
ATOM     20  C   UNL     1      29.543  19.115  24.166  1.00  0.00     0.006 C 
BRANCH  20  21
ATOM     21  C   UNL     1      30.936  19.719  23.970  1.00  0.00     0.053 C 
BRANCH  21  22
ATOM     22  C   UNL     1      31.247  19.865  22.513  1.00  0.00     0.041 C 
ATOM     23  O   UNL     1      31.893  18.969  21.911  1.00  0.00    -0.550 OA
ATOM     24  O   UNL     1      30.853  21.009  21.828  1.00  0.00    -0.550 OA
ENDBRANCH  21  22
ENDBRANCH  20  21
ENDBRANCH  19  20
ENDBRANCH  18  19
ENDBRANCH  17  18
ENDBRANCH  16  17
ENDBRANCH  15  16
ENDBRANCH  14  15
ENDBRANCH  13  14
ENDBRANCH   1  13
TORSDOF 20
ENDMDL
MODEL 8
REMARK VINA RESULT:     1.193     19.828     22.604
REMARK INTER + INTRA:           1.029
REMARK INTER:                   1.445
REMARK INTRA:                  -0.416
REMARK UNBOUND:                -1.559
REMARK SMILES CCCCCCCCCCCCCCCCCCCCCC(=O)[O-]
REMARK SMILES IDX 12 1 11 2 10 3 9 4 8 5 7 6 6 7 5 8 4 9 3 10 2 11 1 12 13 13
REMARK SMILES IDX 14 14 15 15 16 16 17 17 18 18 19 19 20 20 21 21 22 22 23 23
REMARK SMILES IDX 24 24
REMARK H PARENT
REMARK Flexibility Score: inf
ROOT
ATOM      1  C   UNL     1      24.549  18.879  25.419  1.00  0.00     0.000 C 
ENDROOT
BRANCH   1   2
ATOM      2  C   UNL     1      25.789  19.414  24.682  1.00  0.00     0.000 C 
BRANCH   2   3
ATOM      3  C   UNL     1      25.514  19.701  23.195  1.00  0.00     0.000 C 
BRANCH   3   4
ATOM      4  C   UNL     1      26.453  18.930  22.254  1.00  0.00    -0.000 C 
BRANCH   4   5
ATOM      5  C   UNL     1      27.689  19.753  21.850  1.00  0.00    -0.000 C 
BRANCH   5   6
ATOM      6  C   UNL     1      28.880  18.876  21.420  1.00  0.00    -0.000 C 
BRANCH   6   7
ATOM      7  C   UNL     1      30.144  19.026  22.288  1.00  0.00    -0.000 C 
BRANCH   7   8
ATOM      8  C   UNL     1      30.418  20.483  22.699  1.00  0.00    -0.000 C 
BRANCH   8   9
ATOM      9  C   UNL     1      30.439  20.673  24.224  1.00  0.00    -0.000 C 
BRANCH   9  10
ATOM     10  C   UNL     1      29.101  20.300  24.885  1.00  0.00    -0.000 C 
BRANCH  10  11
ATOM     11  C   UNL     1      28.364  21.525  25.448  1.00  0.00    -0.003 C 
ATOM     12  C   UNL     1      27.216  21.145  26.384  1.00  0.00     0.004 C 
ENDBRANCH  10  11
ENDBRANCH   9  10
ENDBRANCH   8   9
ENDBRANCH   7   8
ENDBRANCH   6   7
ENDBRANCH   5   6
ENDBRANCH   4   5
ENDBRANCH   3   4
ENDBRANCH   2   3
ENDBRANCH   1   2
BRANCH   1  13
ATOM     13  C   UNL     1      24.547  19.242  26.911  1.00  0.00     0.000 C 
BRANCH  13  14
ATOM     14  C   UNL     1      23.210  18.875  27.567  1.00  0.00     0.000 C 
BRANCH  14  15
ATOM     15  C   UNL     1      22.525  20.122  28.148  1.00  0.00     0.000 C 
BRANCH  15  16
ATOM     16  C   UNL     1      21.610  20.829  27.135  1.00  0.00     0.000 C 
BRANCH  16  17
ATOM     17  C   UNL     1      22.264  22.072  26.508  1.00  0.00     0.000 C 
BRANCH  17  18
ATOM     18  C   UNL     1      23.411  22.627  27.369  1.00  0.00     0.000 C 
BRANCH  18  19
ATOM     19  C   UNL     1      24.362  23.531  26.568  1.00  0.00     0.000 C 
BRANCH  19  20
ATOM     20  C   UNL     1      24.635  24.843  27.314  1.00  0.00     0.006 C 
BRANCH  20  21
ATOM     21  C   UNL     1      25.610  25.726  26.531  1.00  0.00     0.053 C 
BRANCH  21  22
ATOM     22  C   UNL     1      25.046  26.072  25.189  1.00  0.00     0.041 C 
ATOM     23  O   UNL     1      25.082  27.260  24.774  1.00  0.00    -0.550 OA
ATOM     24  O   UNL     1      24.447  25.089  24.410  1.00  0.00    -0.550 OA
ENDBRANCH  21  22
ENDBRANCH  20  21
ENDBRANCH  19  20
ENDBRANCH  18  19
ENDBRANCH  17  18
ENDBRANCH  16  17
ENDBRANCH  15  16
ENDBRANCH  14  15
ENDBRANCH  13  14
ENDBRANCH   1  13
TORSDOF 20
ENDMDL
MODEL 9
REMARK VINA RESULT:     1.428     20.303     22.956
REMARK INTER + INTRA:           1.538
REMARK INTER:                  -1.203
REMARK INTRA:                   2.741
REMARK UNBOUND:                -1.559
REMARK SMILES CCCCCCCCCCCCCCCCCCCCCC(=O)[O-]
REMARK SMILES IDX 12 1 11 2 10 3 9 4 8 5 7 6 6 7 5 8 4 9 3 10 2 11 1 12 13 13
REMARK SMILES IDX 14 14 15 15 16 16 17 17 18 18 19 19 20 20 21 21 22 22 23 23
REMARK SMILES IDX 24 24
REMARK H PARENT
REMARK Flexibility Score: inf
ROOT
ATOM      1  C   UNL     1      26.487  21.252  25.595  1.00  0.00     0.000 C 
ENDROOT
BRANCH   1   2
ATOM      2  C   UNL     1      25.035  20.751  25.511  1.00  0.00     0.000 C 
BRANCH   2   3
ATOM      3  C   UNL     1      24.733  19.638  26.530  1.00  0.00     0.000 C 
BRANCH   3   4
ATOM      4  C   UNL     1      23.240  19.540  26.882  1.00  0.00    -0.000 C 
BRANCH   4   5
ATOM      5  C   UNL     1      22.436  20.755  26.388  1.00  0.00    -0.000 C 
BRANCH   5   6
ATOM      6  C   UNL     1      22.738  22.038  27.185  1.00  0.00    -0.000 C 
BRANCH   6   7
ATOM      7  C   UNL     1      23.436  23.153  26.382  1.00  0.00    -0.000 C 
BRANCH   7   8
ATOM      8  C   UNL     1      23.441  24.505  27.116  1.00  0.00    -0.000 C 
BRANCH   8   9
ATOM      9  C   UNL     1      24.856  24.963  27.502  1.00  0.00    -0.000 C 
BRANCH   9  10
ATOM     10  C   UNL     1      25.647  25.511  26.301  1.00  0.00    -0.000 C 
BRANCH  10  11
ATOM     11  C   UNL     1      24.788  26.403  25.391  1.00  0.00    -0.003 C 
ATOM     12  C   UNL     1      25.115  26.223  23.909  1.00  0.00     0.004 C 
ENDBRANCH  10  11
ENDBRANCH   9  10
ENDBRANCH   8   9
ENDBRANCH   7   8
ENDBRANCH   6   7
ENDBRANCH   5   6
ENDBRANCH   4   5
ENDBRANCH   3   4
ENDBRANCH   2   3
ENDBRANCH   1   2
BRANCH   1  13
ATOM     13  C   UNL     1      27.506  20.174  25.199  1.00  0.00     0.000 C 
BRANCH  13  14
ATOM     14  C   UNL     1      26.803  18.878  24.775  1.00  0.00     0.000 C 
BRANCH  14  15
ATOM     15  C   UNL     1      25.959  19.102  23.510  1.00  0.00     0.000 C 
BRANCH  15  16
ATOM     16  C   UNL     1      26.813  19.259  22.241  1.00  0.00     0.000 C 
BRANCH  16  17
ATOM     17  C   UNL     1      28.286  18.875  22.464  1.00  0.00     0.000 C 
BRANCH  17  18
ATOM     18  C   UNL     1      29.156  19.151  21.226  1.00  0.00     0.000 C 
BRANCH  18  19
ATOM     19  C   UNL     1      30.648  18.889  21.488  1.00  0.00     0.000 C 
BRANCH  19  20
ATOM     20  C   UNL     1      31.373  20.182  21.881  1.00  0.00     0.006 C 
BRANCH  20  21
ATOM     21  C   UNL     1      30.438  21.122  22.649  1.00  0.00     0.053 C 
BRANCH  21  22
ATOM     22  C   UNL     1      30.387  20.746  24.096  1.00  0.00     0.041 C 
ATOM     23  O   UNL     1      30.088  21.607  24.964  1.00  0.00    -0.550 OA
ATOM     24  O   UNL     1      30.703  19.451  24.491  1.00  0.00    -0.550 OA
ENDBRANCH  21  22
ENDBRANCH  20  21
ENDBRANCH  19  20
ENDBRANCH  18  19
ENDBRANCH  17  18
ENDBRANCH  16  17
ENDBRANCH  15  16
ENDBRANCH  14  15
ENDBRANCH  13  14
ENDBRANCH   1  13
TORSDOF 20
ENDMDL
