MODEL 1
REMARK VINA RESULT:    -7.749      0.000      0.000
REMARK INTER + INTRA:         -10.924
REMARK INTER:                  -9.788
REMARK INTRA:                  -1.136
REMARK UNBOUND:                -1.136
REMARK SMILES O[C@@H]1OC[C@@H](Cc2ccc3c(c2)OCO3)[C@H]1Cc1ccc2c(c1)OCO2
REMARK SMILES IDX 4 1 5 2 16 3 2 4 3 5 6 6 7 7 12 8 8 9 11 10 9 11 10 12 13 13
REMARK SMILES IDX 15 14 14 15 17 16 18 17 23 18 19 19 22 20 20 21 21 22 24 23
REMARK SMILES IDX 26 24 25 25 1 26
REMARK H PARENT 1 27
REMARK Flexibility Score: inf
ROOT
ATOM      1  C   UNL     1     -15.037 -26.666 -13.987  1.00  0.00     0.168 C 
ATOM      2  C   UNL     1     -14.025 -27.492 -13.207  1.00  0.00     0.028 C 
ATOM      3  C   UNL     1     -13.870 -28.727 -14.078  1.00  0.00     0.055 C 
ATOM      4  C   UNL     1     -14.100 -28.127 -15.471  1.00  0.00     0.250 C 
ATOM      5  O   UNL     1     -14.933 -26.991 -15.355  1.00  0.00    -0.352 OA
ENDROOT
BRANCH   2   6
ATOM      6  C   UNL     1     -14.422 -27.734 -11.735  1.00  0.00     0.042 C 
BRANCH   6   7
ATOM      7  C   UNL     1     -13.211 -28.006 -10.882  1.00  0.00    -0.044 A 
ATOM      8  C   UNL     1     -12.709 -27.000 -10.027  1.00  0.00     0.054 A 
ATOM      9  C   UNL     1     -12.597 -29.286 -10.895  1.00  0.00     0.008 A 
ATOM     10  C   UNL     1     -11.608 -27.307  -9.232  1.00  0.00     0.166 A 
ATOM     11  C   UNL     1     -11.486 -29.553 -10.076  1.00  0.00     0.051 A 
ATOM     12  C   UNL     1     -11.023 -28.530  -9.254  1.00  0.00     0.165 A 
ATOM     13  O   UNL     1     -10.947 -26.496  -8.329  1.00  0.00    -0.454 OA
ATOM     14  O   UNL     1      -9.963 -28.550  -8.369  1.00  0.00    -0.454 OA
ATOM     15  C   UNL     1      -9.878 -27.259  -7.751  1.00  0.00     0.468 C 
ENDBRANCH   6   7
ENDBRANCH   2   6
BRANCH   3  16
ATOM     16  C   UNL     1     -14.880 -29.863 -13.762  1.00  0.00     0.044 C 
BRANCH  16  17
ATOM     17  C   UNL     1     -14.296 -31.230 -14.020  1.00  0.00    -0.044 A 
ATOM     18  C   UNL     1     -14.953 -32.139 -14.880  1.00  0.00     0.054 A 
ATOM     19  C   UNL     1     -13.076 -31.609 -13.400  1.00  0.00     0.008 A 
ATOM     20  C   UNL     1     -14.365 -33.383 -15.089  1.00  0.00     0.166 A 
ATOM     21  C   UNL     1     -12.517 -32.878 -13.638  1.00  0.00     0.051 A 
ATOM     22  C   UNL     1     -13.198 -33.737 -14.494  1.00  0.00     0.165 A 
ATOM     23  O   UNL     1     -14.813 -34.424 -15.879  1.00  0.00    -0.454 OA
ATOM     24  O   UNL     1     -12.854 -35.017 -14.881  1.00  0.00    -0.454 OA
ATOM     25  C   UNL     1     -13.868 -35.498 -15.775  1.00  0.00     0.468 C 
ENDBRANCH  16  17
ENDBRANCH   3  16
BRANCH   4  26
ATOM     26  O   UNL     1     -12.869 -27.743 -16.024  1.00  0.00    -0.368 OA
ATOM     27  H   UNL     1     -12.769 -26.772 -15.840  1.00  0.00     0.213 HD
ENDBRANCH   4  26
TORSDOF 5
ENDMDL
MODEL 2
REMARK VINA RESULT:    -6.980      1.994      6.662
REMARK INTER + INTRA:          -9.952
REMARK INTER:                 -10.659
REMARK INTRA:                   0.707
REMARK UNBOUND:                -1.136
REMARK SMILES O[C@@H]1OC[C@@H](Cc2ccc3c(c2)OCO3)[C@H]1Cc1ccc2c(c1)OCO2
REMARK SMILES IDX 4 1 5 2 16 3 2 4 3 5 6 6 7 7 12 8 8 9 11 10 9 11 10 12 13 13
REMARK SMILES IDX 15 14 14 15 17 16 18 17 23 18 19 19 22 20 20 21 21 22 24 23
REMARK SMILES IDX 26 24 25 25 1 26
REMARK H PARENT 1 27
REMARK Flexibility Score: inf
ROOT
ATOM      1  C   UNL     1     -13.406 -28.124 -14.262  1.00  0.00     0.168 C 
ATOM      2  C   UNL     1     -14.875 -28.328 -13.927  1.00  0.00     0.028 C 
ATOM      3  C   UNL     1     -15.042 -27.494 -12.668  1.00  0.00     0.055 C 
ATOM      4  C   UNL     1     -14.020 -26.378 -12.925  1.00  0.00     0.250 C 
ATOM      5  O   UNL     1     -12.991 -26.875 -13.758  1.00  0.00    -0.352 OA
ENDROOT
BRANCH   2   6
ATOM      6  C   UNL     1     -15.291 -29.811 -13.828  1.00  0.00     0.042 C 
BRANCH   6   7
ATOM      7  C   UNL     1     -14.088 -30.706 -13.678  1.00  0.00    -0.044 A 
ATOM      8  C   UNL     1     -13.070 -30.370 -12.757  1.00  0.00     0.054 A 
ATOM      9  C   UNL     1     -13.993 -31.911 -14.421  1.00  0.00     0.008 A 
ATOM     10  C   UNL     1     -11.994 -31.244 -12.627  1.00  0.00     0.166 A 
ATOM     11  C   UNL     1     -12.888 -32.764 -14.259  1.00  0.00     0.051 A 
ATOM     12  C   UNL     1     -11.906 -32.391 -13.345  1.00  0.00     0.165 A 
ATOM     13  O   UNL     1     -10.890 -31.131 -11.803  1.00  0.00    -0.454 OA
ATOM     14  O   UNL     1     -10.743 -33.056 -13.012  1.00  0.00    -0.454 OA
ATOM     15  C   UNL     1     -10.057 -32.278 -12.021  1.00  0.00     0.468 C 
ENDBRANCH   6   7
ENDBRANCH   2   6
BRANCH   3  16
ATOM     16  C   UNL     1     -14.745 -28.259 -11.350  1.00  0.00     0.044 C 
BRANCH  16  17
ATOM     17  C   UNL     1     -13.711 -27.556 -10.507  1.00  0.00    -0.044 A 
ATOM     18  C   UNL     1     -14.092 -26.521  -9.622  1.00  0.00     0.054 A 
ATOM     19  C   UNL     1     -12.345 -27.934 -10.596  1.00  0.00     0.008 A 
ATOM     20  C   UNL     1     -13.098 -25.912  -8.862  1.00  0.00     0.166 A 
ATOM     21  C   UNL     1     -11.372 -27.290  -9.809  1.00  0.00     0.051 A 
ATOM     22  C   UNL     1     -11.795 -26.280  -8.951  1.00  0.00     0.165 A 
ATOM     23  O   UNL     1     -13.226 -24.893  -7.938  1.00  0.00    -0.454 OA
ATOM     24  O   UNL     1     -11.039 -25.512  -8.088  1.00  0.00    -0.454 OA
ATOM     25  C   UNL     1     -11.922 -24.604  -7.414  1.00  0.00     0.468 C 
ENDBRANCH  16  17
ENDBRANCH   3  16
BRANCH   4  26
ATOM     26  O   UNL     1     -14.654 -25.302 -13.565  1.00  0.00    -0.368 OA
ATOM     27  H   UNL     1     -14.770 -24.596 -12.877  1.00  0.00     0.213 HD
ENDBRANCH   4  26
TORSDOF 5
ENDMDL
MODEL 3
REMARK VINA RESULT:    -6.881      1.387      8.182
REMARK INTER + INTRA:          -9.827
REMARK INTER:                  -9.512
REMARK INTRA:                  -0.316
REMARK UNBOUND:                -1.136
REMARK SMILES O[C@@H]1OC[C@@H](Cc2ccc3c(c2)OCO3)[C@H]1Cc1ccc2c(c1)OCO2
REMARK SMILES IDX 4 1 5 2 16 3 2 4 3 5 6 6 7 7 12 8 8 9 11 10 9 11 10 12 13 13
REMARK SMILES IDX 15 14 14 15 17 16 18 17 23 18 19 19 22 20 20 21 21 22 24 23
REMARK SMILES IDX 26 24 25 25 1 26
REMARK H PARENT 1 27
REMARK Flexibility Score: inf
ROOT
ATOM      1  C   UNL     1     -13.628 -29.516 -15.236  1.00  0.00     0.168 C 
ATOM      2  C   UNL     1     -14.066 -30.312 -14.017  1.00  0.00     0.028 C 
ATOM      3  C   UNL     1     -14.079 -29.256 -12.924  1.00  0.00     0.055 C 
ATOM      4  C   UNL     1     -14.455 -28.009 -13.734  1.00  0.00     0.250 C 
ATOM      5  O   UNL     1     -14.016 -28.172 -15.068  1.00  0.00    -0.352 OA
ENDROOT
BRANCH   2   6
ATOM      6  C   UNL     1     -13.208 -31.567 -13.750  1.00  0.00     0.042 C 
BRANCH   6   7
ATOM      7  C   UNL     1     -13.695 -32.742 -14.558  1.00  0.00    -0.044 A 
ATOM      8  C   UNL     1     -13.134 -34.022 -14.351  1.00  0.00     0.054 A 
ATOM      9  C   UNL     1     -14.749 -32.580 -15.495  1.00  0.00     0.008 A 
ATOM     10  C   UNL     1     -13.639 -35.085 -15.096  1.00  0.00     0.166 A 
ATOM     11  C   UNL     1     -15.228 -33.681 -16.227  1.00  0.00     0.051 A 
ATOM     12  C   UNL     1     -14.642 -34.922 -15.994  1.00  0.00     0.165 A 
ATOM     13  O   UNL     1     -13.255 -36.412 -15.070  1.00  0.00    -0.454 OA
ATOM     14  O   UNL     1     -14.938 -36.137 -16.580  1.00  0.00    -0.454 OA
ATOM     15  C   UNL     1     -14.066 -37.125 -16.013  1.00  0.00     0.468 C 
ENDBRANCH   6   7
ENDBRANCH   2   6
BRANCH   3  16
ATOM     16  C   UNL     1     -12.722 -29.082 -12.189  1.00  0.00     0.044 C 
BRANCH  16  17
ATOM     17  C   UNL     1     -12.820 -28.106 -11.042  1.00  0.00    -0.044 A 
ATOM     18  C   UNL     1     -11.652 -27.543 -10.480  1.00  0.00     0.054 A 
ATOM     19  C   UNL     1     -14.091 -27.745 -10.524  1.00  0.00     0.008 A 
ATOM     20  C   UNL     1     -11.800 -26.643  -9.430  1.00  0.00     0.166 A 
ATOM     21  C   UNL     1     -14.196 -26.831  -9.459  1.00  0.00     0.051 A 
ATOM     22  C   UNL     1     -13.019 -26.301  -8.941  1.00  0.00     0.165 A 
ATOM     23  O   UNL     1     -10.818 -25.968  -8.730  1.00  0.00    -0.454 OA
ATOM     24  O   UNL     1     -12.864 -25.396  -7.909  1.00  0.00    -0.454 OA
ATOM     25  C   UNL     1     -11.461 -25.152  -7.740  1.00  0.00     0.468 C 
ENDBRANCH  16  17
ENDBRANCH   3  16
BRANCH   4  26
ATOM     26  O   UNL     1     -15.849 -27.848 -13.724  1.00  0.00    -0.368 OA
ATOM     27  H   UNL     1     -16.193 -28.426 -12.993  1.00  0.00     0.213 HD
ENDBRANCH   4  26
TORSDOF 5
ENDMDL
MODEL 4
REMARK VINA RESULT:    -6.800      1.128      7.169
REMARK INTER + INTRA:          -9.724
REMARK INTER:                  -9.608
REMARK INTRA:                  -0.117
REMARK UNBOUND:                -1.136
REMARK SMILES O[C@@H]1OC[C@@H](Cc2ccc3c(c2)OCO3)[C@H]1Cc1ccc2c(c1)OCO2
REMARK SMILES IDX 4 1 5 2 16 3 2 4 3 5 6 6 7 7 12 8 8 9 11 10 9 11 10 12 13 13
REMARK SMILES IDX 15 14 14 15 17 16 18 17 23 18 19 19 22 20 20 21 21 22 24 23
REMARK SMILES IDX 26 24 25 25 1 26
REMARK H PARENT 1 27
REMARK Flexibility Score: inf
ROOT
ATOM      1  C   UNL     1     -13.956 -29.279 -14.979  1.00  0.00     0.168 C 
ATOM      2  C   UNL     1     -13.934 -29.632 -13.499  1.00  0.00     0.028 C 
ATOM      3  C   UNL     1     -14.131 -28.278 -12.838  1.00  0.00     0.055 C 
ATOM      4  C   UNL     1     -15.004 -27.572 -13.884  1.00  0.00     0.250 C 
ATOM      5  O   UNL     1     -14.730 -28.116 -15.159  1.00  0.00    -0.352 OA
ENDROOT
BRANCH   2   6
ATOM      6  C   UNL     1     -12.686 -30.432 -13.068  1.00  0.00     0.042 C 
BRANCH   6   7
ATOM      7  C   UNL     1     -12.758 -31.856 -13.553  1.00  0.00    -0.044 A 
ATOM      8  C   UNL     1     -13.815 -32.261 -14.400  1.00  0.00     0.054 A 
ATOM      9  C   UNL     1     -11.744 -32.785 -13.204  1.00  0.00     0.008 A 
ATOM     10  C   UNL     1     -13.822 -33.578 -14.852  1.00  0.00     0.166 A 
ATOM     11  C   UNL     1     -11.791 -34.107 -13.682  1.00  0.00     0.051 A 
ATOM     12  C   UNL     1     -12.853 -34.462 -14.509  1.00  0.00     0.165 A 
ATOM     13  O   UNL     1     -14.740 -34.199 -15.678  1.00  0.00    -0.454 OA
ATOM     14  O   UNL     1     -13.113 -35.684 -15.099  1.00  0.00    -0.454 OA
ATOM     15  C   UNL     1     -14.321 -35.558 -15.861  1.00  0.00     0.468 C 
ENDBRANCH   6   7
ENDBRANCH   2   6
BRANCH   3  16
ATOM     16  C   UNL     1     -12.814 -27.503 -12.563  1.00  0.00     0.044 C 
BRANCH  16  17
ATOM     17  C   UNL     1     -12.346 -27.667 -11.138  1.00  0.00    -0.044 A 
ATOM     18  C   UNL     1     -11.302 -28.568 -10.828  1.00  0.00     0.054 A 
ATOM     19  C   UNL     1     -12.952 -26.912 -10.100  1.00  0.00     0.008 A 
ATOM     20  C   UNL     1     -10.904 -28.675  -9.499  1.00  0.00     0.166 A 
ATOM     21  C   UNL     1     -12.519 -27.051  -8.768  1.00  0.00     0.051 A 
ATOM     22  C   UNL     1     -11.486 -27.948  -8.512  1.00  0.00     0.165 A 
ATOM     23  O   UNL     1      -9.916 -29.475  -8.958  1.00  0.00    -0.454 OA
ATOM     24  O   UNL     1     -10.894 -28.255  -7.303  1.00  0.00    -0.454 OA
ATOM     25  C   UNL     1      -9.875 -29.235  -7.544  1.00  0.00     0.468 C 
ENDBRANCH  16  17
ENDBRANCH   3  16
BRANCH   4  26
ATOM     26  O   UNL     1     -16.358 -27.773 -13.576  1.00  0.00    -0.368 OA
ATOM     27  H   UNL     1     -16.571 -27.153 -12.829  1.00  0.00     0.213 HD
ENDBRANCH   4  26
TORSDOF 5
ENDMDL
MODEL 5
REMARK VINA RESULT:    -6.748      1.727      5.623
REMARK INTER + INTRA:          -9.659
REMARK INTER:                  -8.541
REMARK INTRA:                  -1.118
REMARK UNBOUND:                -1.136
REMARK SMILES O[C@@H]1OC[C@@H](Cc2ccc3c(c2)OCO3)[C@H]1Cc1ccc2c(c1)OCO2
REMARK SMILES IDX 4 1 5 2 16 3 2 4 3 5 6 6 7 7 12 8 8 9 11 10 9 11 10 12 13 13
REMARK SMILES IDX 15 14 14 15 17 16 18 17 23 18 19 19 22 20 20 21 21 22 24 23
REMARK SMILES IDX 26 24 25 25 1 26
REMARK H PARENT 1 27
REMARK Flexibility Score: inf
ROOT
ATOM      1  C   UNL     1     -10.172 -26.850  -8.388  1.00  0.00     0.168 C 
ATOM      2  C   UNL     1     -11.222 -27.443  -9.316  1.00  0.00     0.028 C 
ATOM      3  C   UNL     1     -10.972 -28.936  -9.181  1.00  0.00     0.055 C 
ATOM      4  C   UNL     1     -10.480 -29.014  -7.729  1.00  0.00     0.250 C 
ATOM      5  O   UNL     1      -9.875 -27.786  -7.378  1.00  0.00    -0.352 OA
ENDROOT
BRANCH   2   6
ATOM      6  C   UNL     1     -11.185 -26.867 -10.747  1.00  0.00     0.042 C 
BRANCH   6   7
ATOM      7  C   UNL     1     -12.496 -27.085 -11.456  1.00  0.00    -0.044 A 
ATOM      8  C   UNL     1     -12.548 -27.060 -12.868  1.00  0.00     0.054 A 
ATOM      9  C   UNL     1     -13.674 -27.366 -10.716  1.00  0.00     0.008 A 
ATOM     10  C   UNL     1     -13.775 -27.301 -13.481  1.00  0.00     0.166 A 
ATOM     11  C   UNL     1     -14.892 -27.603 -11.376  1.00  0.00     0.051 A 
ATOM     12  C   UNL     1     -14.898 -27.562 -12.767  1.00  0.00     0.165 A 
ATOM     13  O   UNL     1     -14.071 -27.327 -14.831  1.00  0.00    -0.454 OA
ATOM     14  O   UNL     1     -15.957 -27.762 -13.630  1.00  0.00    -0.454 OA
ATOM     15  C   UNL     1     -15.468 -27.619 -14.970  1.00  0.00     0.468 C 
ENDBRANCH   6   7
ENDBRANCH   2   6
BRANCH   3  16
ATOM     16  C   UNL     1      -9.925 -29.501 -10.179  1.00  0.00     0.044 C 
BRANCH  16  17
ATOM     17  C   UNL     1     -10.545 -30.455 -11.170  1.00  0.00    -0.044 A 
ATOM     18  C   UNL     1     -11.787 -30.152 -11.773  1.00  0.00     0.054 A 
ATOM     19  C   UNL     1      -9.878 -31.662 -11.507  1.00  0.00     0.008 A 
ATOM     20  C   UNL     1     -12.309 -31.063 -12.687  1.00  0.00     0.166 A 
ATOM     21  C   UNL     1     -10.443 -32.555 -12.436  1.00  0.00     0.051 A 
ATOM     22  C   UNL     1     -11.665 -32.214 -13.005  1.00  0.00     0.165 A 
ATOM     23  O   UNL     1     -13.491 -30.986 -13.398  1.00  0.00    -0.454 OA
ATOM     24  O   UNL     1     -12.410 -32.917 -13.932  1.00  0.00    -0.454 OA
ATOM     25  C   UNL     1     -13.595 -32.161 -14.214  1.00  0.00     0.468 C 
ENDBRANCH  16  17
ENDBRANCH   3  16
BRANCH   4  26
ATOM     26  O   UNL     1     -11.570 -29.253  -6.879  1.00  0.00    -0.368 OA
ATOM     27  H   UNL     1     -12.338 -29.484  -7.465  1.00  0.00     0.213 HD
ENDBRANCH   4  26
TORSDOF 5
ENDMDL
MODEL 6
REMARK VINA RESULT:    -6.167      1.752      6.970
REMARK INTER + INTRA:          -8.925
REMARK INTER:                  -7.587
REMARK INTRA:                  -1.337
REMARK UNBOUND:                -1.136
REMARK SMILES O[C@@H]1OC[C@@H](Cc2ccc3c(c2)OCO3)[C@H]1Cc1ccc2c(c1)OCO2
REMARK SMILES IDX 4 1 5 2 16 3 2 4 3 5 6 6 7 7 12 8 8 9 11 10 9 11 10 12 13 13
REMARK SMILES IDX 15 14 14 15 17 16 18 17 23 18 19 19 22 20 20 21 21 22 24 23
REMARK SMILES IDX 26 24 25 25 1 26
REMARK H PARENT 1 27
REMARK Flexibility Score: inf
ROOT
ATOM      1  C   UNL     1     -12.818 -33.205 -13.485  1.00  0.00     0.168 C 
ATOM      2  C   UNL     1     -12.906 -31.709 -13.740  1.00  0.00     0.028 C 
ATOM      3  C   UNL     1     -11.931 -31.145 -12.719  1.00  0.00     0.055 C 
ATOM      4  C   UNL     1     -10.906 -32.285 -12.642  1.00  0.00     0.250 C 
ATOM      5  O   UNL     1     -11.545 -33.505 -12.960  1.00  0.00    -0.352 OA
ENDROOT
BRANCH   2   6
ATOM      6  C   UNL     1     -14.346 -31.153 -13.694  1.00  0.00     0.042 C 
BRANCH   6   7
ATOM      7  C   UNL     1     -14.403 -29.744 -14.224  1.00  0.00    -0.044 A 
ATOM      8  C   UNL     1     -14.789 -28.685 -13.372  1.00  0.00     0.054 A 
ATOM      9  C   UNL     1     -14.023 -29.465 -15.562  1.00  0.00     0.008 A 
ATOM     10  C   UNL     1     -14.794 -27.394 -13.894  1.00  0.00     0.166 A 
ATOM     11  C   UNL     1     -14.043 -28.146 -16.050  1.00  0.00     0.051 A 
ATOM     12  C   UNL     1     -14.436 -27.136 -15.177  1.00  0.00     0.165 A 
ATOM     13  O   UNL     1     -15.132 -26.212 -13.264  1.00  0.00    -0.454 OA
ATOM     14  O   UNL     1     -14.533 -25.779 -15.418  1.00  0.00    -0.454 OA
ATOM     15  C   UNL     1     -14.978 -25.146 -14.211  1.00  0.00     0.468 C 
ENDBRANCH   6   7
ENDBRANCH   2   6
BRANCH   3  16
ATOM     16  C   UNL     1     -12.562 -30.839 -11.333  1.00  0.00     0.044 C 
BRANCH  16  17
ATOM     17  C   UNL     1     -11.924 -29.642 -10.672  1.00  0.00    -0.044 A 
ATOM     18  C   UNL     1     -12.726 -28.612 -10.130  1.00  0.00     0.054 A 
ATOM     19  C   UNL     1     -10.510 -29.548 -10.587  1.00  0.00     0.008 A 
ATOM     20  C   UNL     1     -12.086 -27.536  -9.524  1.00  0.00     0.166 A 
ATOM     21  C   UNL     1      -9.904 -28.441  -9.966  1.00  0.00     0.051 A 
ATOM     22  C   UNL     1     -10.734 -27.453  -9.445  1.00  0.00     0.165 A 
ATOM     23  O   UNL     1     -12.650 -26.425  -8.927  1.00  0.00    -0.454 OA
ATOM     24  O   UNL     1     -10.380 -26.287  -8.796  1.00  0.00    -0.454 OA
ATOM     25  C   UNL     1     -11.585 -25.593  -8.444  1.00  0.00     0.468 C 
ENDBRANCH  16  17
ENDBRANCH   3  16
BRANCH   4  26
ATOM     26  O   UNL     1      -9.875 -32.048 -13.563  1.00  0.00    -0.368 OA
ATOM     27  H   UNL     1      -9.226 -32.793 -13.456  1.00  0.00     0.213 HD
ENDBRANCH   4  26
TORSDOF 5
ENDMDL
MODEL 7
REMARK VINA RESULT:    -5.828      1.422      2.011
REMARK INTER + INTRA:          -8.497
REMARK INTER:                  -9.143
REMARK INTRA:                   0.646
REMARK UNBOUND:                -1.136
REMARK SMILES O[C@@H]1OC[C@@H](Cc2ccc3c(c2)OCO3)[C@H]1Cc1ccc2c(c1)OCO2
REMARK SMILES IDX 4 1 5 2 16 3 2 4 3 5 6 6 7 7 12 8 8 9 11 10 9 11 10 12 13 13
REMARK SMILES IDX 15 14 14 15 17 16 18 17 23 18 19 19 22 20 20 21 21 22 24 23
REMARK SMILES IDX 26 24 25 25 1 26
REMARK H PARENT 1 27
REMARK Flexibility Score: inf
ROOT
ATOM      1  C   UNL     1     -14.260 -26.798 -12.104  1.00  0.00     0.168 C 
ATOM      2  C   UNL     1     -13.184 -27.270 -13.069  1.00  0.00     0.028 C 
ATOM      3  C   UNL     1     -13.615 -28.696 -13.369  1.00  0.00     0.055 C 
ATOM      4  C   UNL     1     -15.139 -28.565 -13.252  1.00  0.00     0.250 C 
ATOM      5  O   UNL     1     -15.448 -27.513 -12.360  1.00  0.00    -0.352 OA
ENDROOT
BRANCH   2   6
ATOM      6  C   UNL     1     -11.746 -27.084 -12.538  1.00  0.00     0.042 C 
BRANCH   6   7
ATOM      7  C   UNL     1     -11.654 -27.448 -11.079  1.00  0.00    -0.044 A 
ATOM      8  C   UNL     1     -10.750 -28.449 -10.657  1.00  0.00     0.054 A 
ATOM      9  C   UNL     1     -12.435 -26.757 -10.116  1.00  0.00     0.008 A 
ATOM     10  C   UNL     1     -10.673 -28.728  -9.295  1.00  0.00     0.166 A 
ATOM     11  C   UNL     1     -12.327 -27.071  -8.750  1.00  0.00     0.051 A 
ATOM     12  C   UNL     1     -11.428 -28.068  -8.381  1.00  0.00     0.165 A 
ATOM     13  O   UNL     1      -9.876 -29.654  -8.650  1.00  0.00    -0.454 OA
ATOM     14  O   UNL     1     -11.145 -28.547  -7.117  1.00  0.00    -0.454 OA
ATOM     15  C   UNL     1     -10.149 -29.571  -7.245  1.00  0.00     0.468 C 
ENDBRANCH   6   7
ENDBRANCH   2   6
BRANCH   3  16
ATOM     16  C   UNL     1     -13.047 -29.755 -12.385  1.00  0.00     0.044 C 
BRANCH  16  17
ATOM     17  C   UNL     1     -12.932 -31.117 -13.023  1.00  0.00    -0.044 A 
ATOM     18  C   UNL     1     -13.951 -31.594 -13.880  1.00  0.00     0.054 A 
ATOM     19  C   UNL     1     -11.794 -31.927 -12.769  1.00  0.00     0.008 A 
ATOM     20  C   UNL     1     -13.790 -32.854 -14.448  1.00  0.00     0.166 A 
ATOM     21  C   UNL     1     -11.672 -33.196 -13.365  1.00  0.00     0.051 A 
ATOM     22  C   UNL     1     -12.698 -33.622 -14.202  1.00  0.00     0.165 A 
ATOM     23  O   UNL     1     -14.638 -33.524 -15.309  1.00  0.00    -0.454 OA
ATOM     24  O   UNL     1     -12.806 -34.811 -14.895  1.00  0.00    -0.454 OA
ATOM     25  C   UNL     1     -14.042 -34.790 -15.623  1.00  0.00     0.468 C 
ENDBRANCH  16  17
ENDBRANCH   3  16
BRANCH   4  26
ATOM     26  O   UNL     1     -15.681 -28.275 -14.514  1.00  0.00    -0.368 OA
ATOM     27  H   UNL     1     -16.564 -27.851 -14.349  1.00  0.00     0.213 HD
ENDBRANCH   4  26
TORSDOF 5
ENDMDL
MODEL 8
REMARK VINA RESULT:    -5.812      1.444      4.896
REMARK INTER + INTRA:          -8.476
REMARK INTER:                  -8.268
REMARK INTRA:                  -0.209
REMARK UNBOUND:                -1.136
REMARK SMILES O[C@@H]1OC[C@@H](Cc2ccc3c(c2)OCO3)[C@H]1Cc1ccc2c(c1)OCO2
REMARK SMILES IDX 4 1 5 2 16 3 2 4 3 5 6 6 7 7 12 8 8 9 11 10 9 11 10 12 13 13
REMARK SMILES IDX 15 14 14 15 17 16 18 17 23 18 19 19 22 20 20 21 21 22 24 23
REMARK SMILES IDX 26 24 25 25 1 26
REMARK H PARENT 1 27
REMARK Flexibility Score: inf
ROOT
ATOM      1  C   UNL     1     -12.015 -28.089 -10.157  1.00  0.00     0.168 C 
ATOM      2  C   UNL     1     -12.487 -29.530 -10.276  1.00  0.00     0.028 C 
ATOM      3  C   UNL     1     -11.222 -30.255 -10.705  1.00  0.00     0.055 C 
ATOM      4  C   UNL     1     -10.153 -29.403 -10.009  1.00  0.00     0.250 C 
ATOM      5  O   UNL     1     -10.638 -28.084  -9.857  1.00  0.00    -0.352 OA
ENDROOT
BRANCH   2   6
ATOM      6  C   UNL     1     -13.723 -29.708 -11.184  1.00  0.00     0.042 C 
BRANCH   6   7
ATOM      7  C   UNL     1     -14.023 -28.445 -11.948  1.00  0.00    -0.044 A 
ATOM      8  C   UNL     1     -14.009 -28.455 -13.361  1.00  0.00     0.054 A 
ATOM      9  C   UNL     1     -14.368 -27.254 -11.258  1.00  0.00     0.008 A 
ATOM     10  C   UNL     1     -14.326 -27.273 -14.026  1.00  0.00     0.166 A 
ATOM     11  C   UNL     1     -14.681 -26.082 -11.970  1.00  0.00     0.051 A 
ATOM     12  C   UNL     1     -14.648 -26.137 -13.360  1.00  0.00     0.165 A 
ATOM     13  O   UNL     1     -14.376 -27.039 -15.387  1.00  0.00    -0.454 OA
ATOM     14  O   UNL     1     -14.916 -25.131 -14.268  1.00  0.00    -0.454 OA
ATOM     15  C   UNL     1     -14.752 -25.670 -15.586  1.00  0.00     0.468 C 
ENDBRANCH   6   7
ENDBRANCH   2   6
BRANCH   3  16
ATOM     16  C   UNL     1     -11.009 -30.311 -12.243  1.00  0.00     0.044 C 
BRANCH  16  17
ATOM     17  C   UNL     1     -11.395 -31.650 -12.821  1.00  0.00    -0.044 A 
ATOM     18  C   UNL     1     -12.583 -31.787 -13.574  1.00  0.00     0.054 A 
ATOM     19  C   UNL     1     -10.562 -32.780 -12.612  1.00  0.00     0.008 A 
ATOM     20  C   UNL     1     -12.888 -33.043 -14.091  1.00  0.00     0.166 A 
ATOM     21  C   UNL     1     -10.909 -34.033 -13.153  1.00  0.00     0.051 A 
ATOM     22  C   UNL     1     -12.086 -34.119 -13.890  1.00  0.00     0.165 A 
ATOM     23  O   UNL     1     -13.978 -33.418 -14.852  1.00  0.00    -0.454 OA
ATOM     24  O   UNL     1     -12.631 -35.223 -14.514  1.00  0.00    -0.454 OA
ATOM     25  C   UNL     1     -13.852 -34.816 -15.147  1.00  0.00     0.468 C 
ENDBRANCH  16  17
ENDBRANCH   3  16
BRANCH   4  26
ATOM     26  O   UNL     1      -9.876 -29.943  -8.744  1.00  0.00    -0.368 OA
ATOM     27  H   UNL     1      -9.405 -29.233  -8.233  1.00  0.00     0.213 HD
ENDBRANCH   4  26
TORSDOF 5
ENDMDL
