MODEL 1
REMARK VINA RESULT:    -4.527      0.000      0.000
REMARK INTER + INTRA:          -4.951
REMARK INTER:                  -4.924
REMARK INTRA:                  -0.027
REMARK UNBOUND:                -0.027
REMARK SMILES O=C([O-])c1ccc(O)cc1
REMARK SMILES IDX 4 1 5 2 10 3 6 4 9 5 7 6 2 7 1 8 3 9 8 10
REMARK H PARENT 8 11
REMARK Flexibility Score: inf
ROOT
ATOM      1  C   UNL     1      13.121 -21.643  18.945  1.00  0.00    -0.003 A 
ATOM      2  C   UNL     1      14.347 -20.985  18.737  1.00  0.00     0.014 A 
ATOM      3  C   UNL     1      11.924 -20.919  18.795  1.00  0.00     0.014 A 
ATOM      4  C   UNL     1      14.373 -19.632  18.385  1.00  0.00     0.047 A 
ATOM      5  C   UNL     1      11.955 -19.566  18.443  1.00  0.00     0.047 A 
ATOM      6  C   UNL     1      13.179 -18.919  18.237  1.00  0.00     0.115 A 
ENDROOT
BRANCH   1   7
ATOM      7  C   UNL     1      13.087 -23.074  19.318  1.00  0.00     0.071 C 
ATOM      8  O   UNL     1      12.914 -23.961  18.439  1.00  0.00    -0.545 OA
ATOM      9  O   UNL     1      13.243 -23.461  20.644  1.00  0.00    -0.545 OA
ENDBRANCH   1   7
BRANCH   6  10
ATOM     10  O   UNL     1      13.221 -17.571  17.888  1.00  0.00    -0.508 OA
ATOM     11  H   UNL     1      12.457 -17.130  17.389  1.00  0.00     0.293 HD
ENDBRANCH   6  10
TORSDOF 2
ENDMDL
MODEL 2
REMARK VINA RESULT:    -4.497      0.065      1.533
REMARK INTER + INTRA:          -4.919
REMARK INTER:                  -4.892
REMARK INTRA:                  -0.027
REMARK UNBOUND:                -0.027
REMARK SMILES O=C([O-])c1ccc(O)cc1
REMARK SMILES IDX 4 1 5 2 10 3 6 4 9 5 7 6 2 7 1 8 3 9 8 10
REMARK H PARENT 8 11
REMARK Flexibility Score: inf
ROOT
ATOM      1  C   UNL     1      13.113 -21.699  18.914  1.00  0.00    -0.003 A 
ATOM      2  C   UNL     1      11.923 -20.964  18.757  1.00  0.00     0.014 A 
ATOM      3  C   UNL     1      14.345 -21.049  18.720  1.00  0.00     0.014 A 
ATOM      4  C   UNL     1      11.967 -19.610  18.413  1.00  0.00     0.047 A 
ATOM      5  C   UNL     1      14.385 -19.694  18.375  1.00  0.00     0.047 A 
ATOM      6  C   UNL     1      13.196 -18.972  18.221  1.00  0.00     0.115 A 
ENDROOT
BRANCH   1   7
ATOM      7  C   UNL     1      13.073 -23.132  19.278  1.00  0.00     0.071 C 
ATOM      8  O   UNL     1      12.879 -24.011  18.396  1.00  0.00    -0.545 OA
ATOM      9  O   UNL     1      13.248 -23.529  20.599  1.00  0.00    -0.545 OA
ENDBRANCH   1   7
BRANCH   6  10
ATOM     10  O   UNL     1      13.225 -17.622  17.877  1.00  0.00    -0.508 OA
ATOM     11  H   UNL     1      14.082 -17.169  17.582  1.00  0.00     0.293 HD
ENDBRANCH   6  10
TORSDOF 2
ENDMDL
MODEL 3
REMARK VINA RESULT:    -4.398      1.366      3.992
REMARK INTER + INTRA:          -4.811
REMARK INTER:                  -4.782
REMARK INTRA:                  -0.029
REMARK UNBOUND:                -0.027
REMARK SMILES O=C([O-])c1ccc(O)cc1
REMARK SMILES IDX 4 1 5 2 10 3 6 4 9 5 7 6 2 7 1 8 3 9 8 10
REMARK H PARENT 8 11
REMARK Flexibility Score: inf
ROOT
ATOM      1  C   UNL     1      12.887 -20.247  19.034  1.00  0.00    -0.003 A 
ATOM      2  C   UNL     1      13.934 -20.996  18.467  1.00  0.00     0.014 A 
ATOM      3  C   UNL     1      11.636 -20.861  19.228  1.00  0.00     0.014 A 
ATOM      4  C   UNL     1      13.733 -22.331  18.103  1.00  0.00     0.047 A 
ATOM      5  C   UNL     1      11.439 -22.196  18.863  1.00  0.00     0.047 A 
ATOM      6  C   UNL     1      12.487 -22.934  18.299  1.00  0.00     0.115 A 
ENDROOT
BRANCH   1   7
ATOM      7  C   UNL     1      13.093 -18.834  19.421  1.00  0.00     0.071 C 
ATOM      8  O   UNL     1      13.392 -17.970  18.554  1.00  0.00    -0.545 OA
ATOM      9  O   UNL     1      12.962 -18.440  20.748  1.00  0.00    -0.545 OA
ENDBRANCH   1   7
BRANCH   6  10
ATOM     10  O   UNL     1      12.300 -24.265  17.931  1.00  0.00    -0.508 OA
ATOM     11  H   UNL     1      11.957 -24.954  18.590  1.00  0.00     0.293 HD
ENDBRANCH   6  10
TORSDOF 2
ENDMDL
MODEL 4
REMARK VINA RESULT:    -4.379     13.899     14.647
REMARK INTER + INTRA:          -4.790
REMARK INTER:                  -4.759
REMARK INTRA:                  -0.031
REMARK UNBOUND:                -0.027
REMARK SMILES O=C([O-])c1ccc(O)cc1
REMARK SMILES IDX 4 1 5 2 10 3 6 4 9 5 7 6 2 7 1 8 3 9 8 10
REMARK H PARENT 8 11
REMARK Flexibility Score: inf
ROOT
ATOM      1  C   UNL     1      21.119 -15.728  30.278  1.00  0.00    -0.003 A 
ATOM      2  C   UNL     1      20.078 -16.597  29.903  1.00  0.00     0.014 A 
ATOM      3  C   UNL     1      21.198 -14.460  29.675  1.00  0.00     0.014 A 
ATOM      4  C   UNL     1      19.137 -16.204  28.946  1.00  0.00     0.047 A 
ATOM      5  C   UNL     1      20.256 -14.070  28.718  1.00  0.00     0.047 A 
ATOM      6  C   UNL     1      19.223 -14.942  28.352  1.00  0.00     0.115 A 
ENDROOT
BRANCH   1   7
ATOM      7  C   UNL     1      22.117 -16.138  31.289  1.00  0.00     0.071 C 
ATOM      8  O   UNL     1      22.653 -17.277  31.235  1.00  0.00    -0.545 OA
ATOM      9  O   UNL     1      22.478 -15.272  32.315  1.00  0.00    -0.545 OA
ENDBRANCH   1   7
BRANCH   6  10
ATOM     10  O   UNL     1      18.279 -14.564  27.399  1.00  0.00    -0.508 OA
ATOM     11  H   UNL     1      17.618 -13.816  27.576  1.00  0.00     0.293 HD
ENDBRANCH   6  10
TORSDOF 2
ENDMDL
MODEL 5
REMARK VINA RESULT:    -4.271      1.867      2.614
REMARK INTER + INTRA:          -4.673
REMARK INTER:                  -4.639
REMARK INTRA:                  -0.034
REMARK UNBOUND:                -0.027
REMARK SMILES O=C([O-])c1ccc(O)cc1
REMARK SMILES IDX 4 1 5 2 10 3 6 4 9 5 7 6 2 7 1 8 3 9 8 10
REMARK H PARENT 8 11
REMARK Flexibility Score: inf
ROOT
ATOM      1  C   UNL     1      12.387 -20.783  18.854  1.00  0.00    -0.003 A 
ATOM      2  C   UNL     1      12.404 -19.394  18.622  1.00  0.00     0.014 A 
ATOM      3  C   UNL     1      13.608 -21.479  18.911  1.00  0.00     0.014 A 
ATOM      4  C   UNL     1      13.616 -18.720  18.453  1.00  0.00     0.047 A 
ATOM      5  C   UNL     1      14.819 -20.800  18.740  1.00  0.00     0.047 A 
ATOM      6  C   UNL     1      14.826 -19.419  18.512  1.00  0.00     0.115 A 
ENDROOT
BRANCH   1   7
ATOM      7  C   UNL     1      11.108 -21.503  19.033  1.00  0.00     0.071 C 
ATOM      8  O   UNL     1      10.089 -20.901  19.467  1.00  0.00    -0.545 OA
ATOM      9  O   UNL     1      11.011 -22.855  18.727  1.00  0.00    -0.545 OA
ENDBRANCH   1   7
BRANCH   6  10
ATOM     10  O   UNL     1      16.026 -18.733  18.340  1.00  0.00    -0.508 OA
ATOM     11  H   UNL     1      16.917 -19.217  18.344  1.00  0.00     0.293 HD
ENDBRANCH   6  10
TORSDOF 2
ENDMDL
MODEL 6
REMARK VINA RESULT:    -4.186      1.610      4.148
REMARK INTER + INTRA:          -4.580
REMARK INTER:                  -4.544
REMARK INTRA:                  -0.036
REMARK UNBOUND:                -0.027
REMARK SMILES O=C([O-])c1ccc(O)cc1
REMARK SMILES IDX 4 1 5 2 10 3 6 4 9 5 7 6 2 7 1 8 3 9 8 10
REMARK H PARENT 8 11
REMARK Flexibility Score: inf
ROOT
ATOM      1  C   UNL     1      13.606 -20.240  18.755  1.00  0.00    -0.003 A 
ATOM      2  C   UNL     1      12.285 -19.961  19.154  1.00  0.00     0.014 A 
ATOM      3  C   UNL     1      13.940 -21.552  18.373  1.00  0.00     0.014 A 
ATOM      4  C   UNL     1      11.322 -20.975  19.169  1.00  0.00     0.047 A 
ATOM      5  C   UNL     1      12.974 -22.563  18.390  1.00  0.00     0.047 A 
ATOM      6  C   UNL     1      11.662 -22.276  18.788  1.00  0.00     0.115 A 
ENDROOT
BRANCH   1   7
ATOM      7  C   UNL     1      14.629 -19.173  18.736  1.00  0.00     0.071 C 
ATOM      8  O   UNL     1      14.324 -17.987  19.032  1.00  0.00    -0.545 OA
ATOM      9  O   UNL     1      15.944 -19.463  18.391  1.00  0.00    -0.545 OA
ENDBRANCH   1   7
BRANCH   6  10
ATOM     10  O   UNL     1      10.692 -23.276  18.810  1.00  0.00    -0.508 OA
ATOM     11  H   UNL     1       9.723 -23.078  18.587  1.00  0.00     0.293 HD
ENDBRANCH   6  10
TORSDOF 2
ENDMDL
MODEL 7
REMARK VINA RESULT:    -4.163      1.702      4.460
REMARK INTER + INTRA:          -4.555
REMARK INTER:                  -4.527
REMARK INTRA:                  -0.028
REMARK UNBOUND:                -0.027
REMARK SMILES O=C([O-])c1ccc(O)cc1
REMARK SMILES IDX 4 1 5 2 10 3 6 4 9 5 7 6 2 7 1 8 3 9 8 10
REMARK H PARENT 8 11
REMARK Flexibility Score: inf
ROOT
ATOM      1  C   UNL     1      13.027 -21.473  18.950  1.00  0.00    -0.003 A 
ATOM      2  C   UNL     1      12.627 -22.679  18.344  1.00  0.00     0.014 A 
ATOM      3  C   UNL     1      14.016 -21.509  19.950  1.00  0.00     0.014 A 
ATOM      4  C   UNL     1      13.206 -23.892  18.730  1.00  0.00     0.047 A 
ATOM      5  C   UNL     1      14.592 -22.724  20.334  1.00  0.00     0.047 A 
ATOM      6  C   UNL     1      14.189 -23.918  19.725  1.00  0.00     0.115 A 
ENDROOT
BRANCH   1   7
ATOM      7  C   UNL     1      12.419 -20.187  18.547  1.00  0.00     0.071 C 
ATOM      8  O   UNL     1      11.206 -19.948  18.789  1.00  0.00    -0.545 OA
ATOM      9  O   UNL     1      13.178 -19.224  17.892  1.00  0.00    -0.545 OA
ENDBRANCH   1   7
BRANCH   6  10
ATOM     10  O   UNL     1      14.756 -25.134  20.100  1.00  0.00    -0.508 OA
ATOM     11  H   UNL     1      15.717 -25.195  20.416  1.00  0.00     0.293 HD
ENDBRANCH   6  10
TORSDOF 2
ENDMDL
MODEL 8
REMARK VINA RESULT:    -4.091      2.153      2.957
REMARK INTER + INTRA:          -4.477
REMARK INTER:                  -4.450
REMARK INTRA:                  -0.027
REMARK UNBOUND:                -0.027
REMARK SMILES O=C([O-])c1ccc(O)cc1
REMARK SMILES IDX 4 1 5 2 10 3 6 4 9 5 7 6 2 7 1 8 3 9 8 10
REMARK H PARENT 8 11
REMARK Flexibility Score: inf
ROOT
ATOM      1  C   UNL     1      14.025 -23.587  20.256  1.00  0.00    -0.003 A 
ATOM      2  C   UNL     1      13.293 -23.771  19.068  1.00  0.00     0.014 A 
ATOM      3  C   UNL     1      14.383 -22.282  20.641  1.00  0.00     0.014 A 
ATOM      4  C   UNL     1      12.928 -22.673  18.284  1.00  0.00     0.047 A 
ATOM      5  C   UNL     1      14.016 -21.186  19.853  1.00  0.00     0.047 A 
ATOM      6  C   UNL     1      13.287 -21.379  18.674  1.00  0.00     0.115 A 
ENDROOT
BRANCH   1   7
ATOM      7  C   UNL     1      14.415 -24.744  21.090  1.00  0.00     0.071 C 
ATOM      8  O   UNL     1      15.403 -25.458  20.772  1.00  0.00    -0.545 OA
ATOM      9  O   UNL     1      13.695 -25.062  22.236  1.00  0.00    -0.545 OA
ENDBRANCH   1   7
BRANCH   6  10
ATOM     10  O   UNL     1      12.917 -20.293  17.882  1.00  0.00    -0.508 OA
ATOM     11  H   UNL     1      13.208 -20.222  16.914  1.00  0.00     0.293 HD
ENDBRANCH   6  10
TORSDOF 2
ENDMDL
MODEL 9
REMARK VINA RESULT:    -3.984      2.227      3.727
REMARK INTER + INTRA:          -4.360
REMARK INTER:                  -4.324
REMARK INTRA:                  -0.036
REMARK UNBOUND:                -0.027
REMARK SMILES O=C([O-])c1ccc(O)cc1
REMARK SMILES IDX 4 1 5 2 10 3 6 4 9 5 7 6 2 7 1 8 3 9 8 10
REMARK H PARENT 8 11
REMARK Flexibility Score: inf
ROOT
ATOM      1  C   UNL     1      14.688 -21.196  18.926  1.00  0.00    -0.003 A 
ATOM      2  C   UNL     1      14.394 -22.487  19.404  1.00  0.00     0.014 A 
ATOM      3  C   UNL     1      13.629 -20.357  18.535  1.00  0.00     0.014 A 
ATOM      4  C   UNL     1      13.070 -22.925  19.490  1.00  0.00     0.047 A 
ATOM      5  C   UNL     1      12.306 -20.799  18.622  1.00  0.00     0.047 A 
ATOM      6  C   UNL     1      12.023 -22.085  19.100  1.00  0.00     0.115 A 
ENDROOT
BRANCH   1   7
ATOM      7  C   UNL     1      16.088 -20.727  18.832  1.00  0.00     0.071 C 
ATOM      8  O   UNL     1      17.031 -21.432  19.279  1.00  0.00    -0.545 OA
ATOM      9  O   UNL     1      16.381 -19.498  18.251  1.00  0.00    -0.545 OA
ENDBRANCH   1   7
BRANCH   6  10
ATOM     10  O   UNL     1      10.707 -22.536  19.190  1.00  0.00    -0.508 OA
ATOM     11  H   UNL     1       9.925 -21.930  18.973  1.00  0.00     0.293 HD
ENDBRANCH   6  10
TORSDOF 2
ENDMDL
