MODEL 1
REMARK VINA RESULT:    -4.627      0.000      0.000
REMARK INTER + INTRA:          -5.679
REMARK INTER:                  -5.167
REMARK INTRA:                  -0.511
REMARK UNBOUND:                -0.511
REMARK SMILES CC=C(C)C=CC=C(C)C
REMARK SMILES IDX 5 1 6 2 3 3 1 4 2 5 4 6 7 7 8 8 9 9 10 10
REMARK H PARENT
REMARK Flexibility Score: inf
ROOT
ATOM      1  C   UNL     1     144.979 140.088 161.742  1.00  0.00     0.003 C 
ATOM      2  C   UNL     1     145.082 140.251 163.069  1.00  0.00     0.000 C 
ENDROOT
BRANCH   1   3
ATOM      3  C   UNL     1     144.354 141.059 160.816  1.00  0.00    -0.055 C 
ATOM      4  C   UNL     1     142.269 141.976 159.778  1.00  0.00     0.036 C 
ATOM      5  C   UNL     1     143.020 141.023 160.657  1.00  0.00    -0.027 C 
ATOM      6  C   UNL     1     145.194 142.130 160.164  1.00  0.00     0.044 C 
ENDBRANCH   1   3
BRANCH   2   7
ATOM      7  C   UNL     1     144.707 141.497 163.777  1.00  0.00    -0.001 C 
ATOM      8  C   UNL     1     143.678 141.583 164.642  1.00  0.00    -0.076 C 
ATOM      9  C   UNL     1     142.788 140.404 164.942  1.00  0.00     0.039 C 
ATOM     10  C   UNL     1     143.407 142.904 165.308  1.00  0.00     0.039 C 
ENDBRANCH   2   7
TORSDOF 2
ENDMDL
MODEL 2
REMARK VINA RESULT:    -4.619      5.233      6.390
REMARK INTER + INTRA:          -5.670
REMARK INTER:                  -5.161
REMARK INTRA:                  -0.510
REMARK UNBOUND:                -0.511
REMARK SMILES CC=C(C)C=CC=C(C)C
REMARK SMILES IDX 5 1 6 2 3 3 1 4 2 5 4 6 7 7 8 8 9 9 10 10
REMARK H PARENT
REMARK Flexibility Score: inf
ROOT
ATOM      1  C   UNL     1     150.654 144.973 161.756  1.00  0.00     0.003 C 
ATOM      2  C   UNL     1     150.496 145.074 163.084  1.00  0.00     0.000 C 
ENDROOT
BRANCH   1   3
ATOM      3  C   UNL     1     149.679 144.349 160.833  1.00  0.00    -0.055 C 
ATOM      4  C   UNL     1     148.771 142.267 159.780  1.00  0.00     0.036 C 
ATOM      5  C   UNL     1     149.726 143.018 160.658  1.00  0.00    -0.027 C 
ATOM      6  C   UNL     1     148.592 145.186 160.204  1.00  0.00     0.044 C 
ENDBRANCH   1   3
BRANCH   2   7
ATOM      7  C   UNL     1     149.254 144.698 163.797  1.00  0.00    -0.001 C 
ATOM      8  C   UNL     1     149.172 143.668 164.661  1.00  0.00    -0.076 C 
ATOM      9  C   UNL     1     150.353 142.778 164.955  1.00  0.00     0.039 C 
ATOM     10  C   UNL     1     147.854 143.396 165.332  1.00  0.00     0.039 C 
ENDBRANCH   2   7
TORSDOF 2
ENDMDL
MODEL 3
REMARK VINA RESULT:    -4.617      5.210      6.358
REMARK INTER + INTRA:          -5.668
REMARK INTER:                  -5.151
REMARK INTRA:                  -0.516
REMARK UNBOUND:                -0.511
REMARK SMILES CC=C(C)C=CC=C(C)C
REMARK SMILES IDX 5 1 6 2 3 3 1 4 2 5 4 6 7 7 8 8 9 9 10 10
REMARK H PARENT
REMARK Flexibility Score: inf
ROOT
ATOM      1  C   UNL     1     140.103 145.761 161.736  1.00  0.00     0.003 C 
ATOM      2  C   UNL     1     140.271 145.632 163.060  1.00  0.00     0.000 C 
ENDROOT
BRANCH   1   3
ATOM      3  C   UNL     1     141.077 146.393 160.817  1.00  0.00    -0.055 C 
ATOM      4  C   UNL     1     142.003 148.488 159.807  1.00  0.00     0.036 C 
ATOM      5  C   UNL     1     141.047 147.730 160.677  1.00  0.00    -0.027 C 
ATOM      6  C   UNL     1     142.143 145.558 160.154  1.00  0.00     0.044 C 
ENDBRANCH   1   3
BRANCH   2   7
ATOM      7  C   UNL     1     141.523 145.981 163.770  1.00  0.00    -0.001 C 
ATOM      8  C   UNL     1     141.626 147.001 164.644  1.00  0.00    -0.076 C 
ATOM      9  C   UNL     1     140.460 147.905 164.954  1.00  0.00     0.039 C 
ATOM     10  C   UNL     1     142.952 147.246 165.311  1.00  0.00     0.039 C 
ENDBRANCH   2   7
TORSDOF 2
ENDMDL
MODEL 4
REMARK VINA RESULT:    -4.614      7.642      9.052
REMARK INTER + INTRA:          -5.665
REMARK INTER:                  -5.150
REMARK INTRA:                  -0.515
REMARK UNBOUND:                -0.511
REMARK SMILES CC=C(C)C=CC=C(C)C
REMARK SMILES IDX 5 1 6 2 3 3 1 4 2 5 4 6 7 7 8 8 9 9 10 10
REMARK H PARENT
REMARK Flexibility Score: inf
ROOT
ATOM      1  C   UNL     1     145.809 150.676 161.712  1.00  0.00     0.003 C 
ATOM      2  C   UNL     1     145.682 150.508 163.036  1.00  0.00     0.000 C 
ENDROOT
BRANCH   1   3
ATOM      3  C   UNL     1     146.442 149.704 160.792  1.00  0.00    -0.055 C 
ATOM      4  C   UNL     1     148.538 148.783 159.778  1.00  0.00     0.036 C 
ATOM      5  C   UNL     1     147.778 149.737 160.649  1.00  0.00    -0.027 C 
ATOM      6  C   UNL     1     145.608 148.636 160.130  1.00  0.00     0.044 C 
ENDBRANCH   1   3
BRANCH   2   7
ATOM      7  C   UNL     1     146.035 149.256 163.745  1.00  0.00    -0.001 C 
ATOM      8  C   UNL     1     147.053 149.156 164.621  1.00  0.00    -0.076 C 
ATOM      9  C   UNL     1     147.951 150.325 164.936  1.00  0.00     0.039 C 
ATOM     10  C   UNL     1     147.301 147.830 165.287  1.00  0.00     0.039 C 
ENDBRANCH   2   7
TORSDOF 2
ENDMDL
MODEL 5
REMARK VINA RESULT:    -4.458      5.848      7.800
REMARK INTER + INTRA:          -5.490
REMARK INTER:                  -5.181
REMARK INTRA:                  -0.309
REMARK UNBOUND:                -0.511
REMARK SMILES CC=C(C)C=CC=C(C)C
REMARK SMILES IDX 5 1 6 2 3 3 1 4 2 5 4 6 7 7 8 8 9 9 10 10
REMARK H PARENT
REMARK Flexibility Score: inf
ROOT
ATOM      1  C   UNL     1     143.064 147.252 165.211  1.00  0.00     0.003 C 
ATOM      2  C   UNL     1     144.117 147.903 164.695  1.00  0.00     0.000 C 
ENDROOT
BRANCH   1   3
ATOM      3  C   UNL     1     141.783 147.022 164.507  1.00  0.00    -0.055 C 
ATOM      4  C   UNL     1     140.424 145.589 162.968  1.00  0.00     0.036 C 
ATOM      5  C   UNL     1     141.679 145.949 163.705  1.00  0.00    -0.027 C 
ATOM      6  C   UNL     1     140.597 147.913 164.784  1.00  0.00     0.044 C 
ENDBRANCH   1   3
BRANCH   2   7
ATOM      7  C   UNL     1     144.193 148.363 163.289  1.00  0.00    -0.001 C 
ATOM      8  C   UNL     1     144.910 149.430 162.890  1.00  0.00    -0.076 C 
ATOM      9  C   UNL     1     145.686 150.278 163.866  1.00  0.00     0.039 C 
ATOM     10  C   UNL     1     144.917 149.787 161.429  1.00  0.00     0.039 C 
ENDBRANCH   2   7
TORSDOF 2
ENDMDL
MODEL 6
REMARK VINA RESULT:    -4.439      5.185      7.453
REMARK INTER + INTRA:          -5.469
REMARK INTER:                  -4.883
REMARK INTRA:                  -0.586
REMARK UNBOUND:                -0.511
REMARK SMILES CC=C(C)C=CC=C(C)C
REMARK SMILES IDX 5 1 6 2 3 3 1 4 2 5 4 6 7 7 8 8 9 9 10 10
REMARK H PARENT
REMARK Flexibility Score: inf
ROOT
ATOM      1  C   UNL     1     140.332 145.660 163.481  1.00  0.00     0.003 C 
ATOM      2  C   UNL     1     140.122 145.709 162.157  1.00  0.00     0.000 C 
ENDROOT
BRANCH   1   3
ATOM      3  C   UNL     1     141.106 146.659 164.253  1.00  0.00    -0.055 C 
ATOM      4  C   UNL     1     143.337 147.494 165.023  1.00  0.00     0.036 C 
ATOM      5  C   UNL     1     142.442 146.528 164.306  1.00  0.00    -0.027 C 
ATOM      6  C   UNL     1     140.409 147.850 164.860  1.00  0.00     0.044 C 
ENDBRANCH   1   3
BRANCH   2   7
ATOM      7  C   UNL     1     140.522 146.851 161.301  1.00  0.00    -0.001 C 
ATOM      8  C   UNL     1     141.599 146.836 160.493  1.00  0.00    -0.076 C 
ATOM      9  C   UNL     1     142.519 145.644 160.413  1.00  0.00     0.039 C 
ATOM     10  C   UNL     1     141.891 148.055 159.662  1.00  0.00     0.039 C 
ENDBRANCH   2   7
TORSDOF 2
ENDMDL
MODEL 7
REMARK VINA RESULT:    -4.438      5.172      7.402
REMARK INTER + INTRA:          -5.468
REMARK INTER:                  -4.895
REMARK INTRA:                  -0.573
REMARK UNBOUND:                -0.511
REMARK SMILES CC=C(C)C=CC=C(C)C
REMARK SMILES IDX 5 1 6 2 3 3 1 4 2 5 4 6 7 7 8 8 9 9 10 10
REMARK H PARENT
REMARK Flexibility Score: inf
ROOT
ATOM      1  C   UNL     1     150.421 145.084 163.467  1.00  0.00     0.003 C 
ATOM      2  C   UNL     1     150.626 145.025 162.144  1.00  0.00     0.000 C 
ENDROOT
BRANCH   1   3
ATOM      3  C   UNL     1     149.645 144.094 164.249  1.00  0.00    -0.055 C 
ATOM      4  C   UNL     1     147.413 143.274 165.033  1.00  0.00     0.036 C 
ATOM      5  C   UNL     1     148.309 144.231 164.306  1.00  0.00    -0.027 C 
ATOM      6  C   UNL     1     150.339 142.904 164.861  1.00  0.00     0.044 C 
ENDBRANCH   1   3
BRANCH   2   7
ATOM      7  C   UNL     1     150.220 143.878 161.297  1.00  0.00    -0.001 C 
ATOM      8  C   UNL     1     149.163 143.904 160.464  1.00  0.00    -0.076 C 
ATOM      9  C   UNL     1     148.272 145.114 160.343  1.00  0.00     0.039 C 
ATOM     10  C   UNL     1     148.863 142.678 159.646  1.00  0.00     0.039 C 
ENDBRANCH   2   7
TORSDOF 2
ENDMDL
MODEL 8
REMARK VINA RESULT:    -4.435      0.662      4.254
REMARK INTER + INTRA:          -5.465
REMARK INTER:                  -4.881
REMARK INTRA:                  -0.583
REMARK UNBOUND:                -0.511
REMARK SMILES CC=C(C)C=CC=C(C)C
REMARK SMILES IDX 5 1 6 2 3 3 1 4 2 5 4 6 7 7 8 8 9 9 10 10
REMARK H PARENT
REMARK Flexibility Score: inf
ROOT
ATOM      1  C   UNL     1     145.057 140.339 163.507  1.00  0.00     0.003 C 
ATOM      2  C   UNL     1     145.050 140.082 162.191  1.00  0.00     0.000 C 
ENDROOT
BRANCH   1   3
ATOM      3  C   UNL     1     144.027 141.126 164.221  1.00  0.00    -0.055 C 
ATOM      4  C   UNL     1     143.106 143.373 164.833  1.00  0.00     0.036 C 
ATOM      5  C   UNL     1     144.108 142.467 164.182  1.00  0.00    -0.027 C 
ATOM      6  C   UNL     1     142.859 140.429 164.873  1.00  0.00     0.044 C 
ENDBRANCH   1   3
BRANCH   2   7
ATOM      7  C   UNL     1     143.929 140.435 161.289  1.00  0.00    -0.001 C 
ATOM      8  C   UNL     1     143.953 141.485 160.445  1.00  0.00    -0.076 C 
ATOM      9  C   UNL     1     145.133 142.420 160.369  1.00  0.00     0.039 C 
ATOM     10  C   UNL     1     142.755 141.730 159.569  1.00  0.00     0.039 C 
ENDBRANCH   2   7
TORSDOF 2
ENDMDL
MODEL 9
REMARK VINA RESULT:    -4.387      7.537      9.632
REMARK INTER + INTRA:          -5.411
REMARK INTER:                  -4.895
REMARK INTRA:                  -0.517
REMARK UNBOUND:                -0.511
REMARK SMILES CC=C(C)C=CC=C(C)C
REMARK SMILES IDX 5 1 6 2 3 3 1 4 2 5 4 6 7 7 8 8 9 9 10 10
REMARK H PARENT
REMARK Flexibility Score: inf
ROOT
ATOM      1  C   UNL     1     145.748 150.383 163.543  1.00  0.00     0.003 C 
ATOM      2  C   UNL     1     145.750 150.625 162.225  1.00  0.00     0.000 C 
ENDROOT
BRANCH   1   3
ATOM      3  C   UNL     1     146.764 149.578 164.258  1.00  0.00    -0.055 C 
ATOM      4  C   UNL     1     147.624 147.317 164.902  1.00  0.00     0.036 C 
ATOM      5  C   UNL     1     146.641 148.240 164.248  1.00  0.00    -0.027 C 
ATOM      6  C   UNL     1     147.964 150.251 164.876  1.00  0.00     0.044 C 
ENDBRANCH   1   3
BRANCH   2   7
ATOM      7  C   UNL     1     146.853 150.233 161.317  1.00  0.00    -0.001 C 
ATOM      8  C   UNL     1     146.734 149.294 160.359  1.00  0.00    -0.076 C 
ATOM      9  C   UNL     1     145.452 148.529 160.148  1.00  0.00     0.039 C 
ATOM     10  C   UNL     1     147.926 148.996 159.492  1.00  0.00     0.039 C 
ENDBRANCH   2   7
TORSDOF 2
ENDMDL
