MODEL 1
REMARK VINA RESULT:    -3.659      0.000      0.000
REMARK INTER + INTRA:          -8.635
REMARK INTER:                  -6.440
REMARK INTRA:                  -2.195
REMARK UNBOUND:                -2.195
REMARK SMILES CCCCCCC=CCCCCCCCC(=O)[O-]
REMARK SMILES IDX 10 1 11 2 12 3 13 4 14 5 15 6 16 7 17 8 18 9 9 10 8 11 7 12
REMARK SMILES IDX 6 13 5 14 4 15 3 16 2 17 1 18
REMARK H PARENT
REMARK Flexibility Score: inf
ROOT
ATOM      1  C   UNL     1       2.572   6.527 -14.869  1.00  0.00     0.004 C 
ENDROOT
BRANCH   1   2
ATOM      2  C   UNL     1       2.973   5.149 -14.314  1.00  0.00     0.000 C 
BRANCH   2   3
ATOM      3  C   UNL     1       4.491   5.000 -14.126  1.00  0.00     0.000 C 
BRANCH   3   4
ATOM      4  C   UNL     1       4.858   4.070 -12.955  1.00  0.00     0.000 C 
BRANCH   4   5
ATOM      5  C   UNL     1       3.906   2.878 -12.745  1.00  0.00     0.006 C 
BRANCH   5   6
ATOM      6  C   UNL     1       3.649   2.564 -11.265  1.00  0.00     0.053 C 
BRANCH   6   7
ATOM      7  C   UNL     1       4.017   1.146 -10.962  1.00  0.00     0.041 C 
ATOM      8  O   UNL     1       4.157   0.313 -11.897  1.00  0.00    -0.550 OA
ATOM      9  O   UNL     1       4.156   0.731  -9.642  1.00  0.00    -0.550 OA
ENDBRANCH   6   7
ENDBRANCH   5   6
ENDBRANCH   4   5
ENDBRANCH   3   4
ENDBRANCH   2   3
ENDBRANCH   1   2
BRANCH   1  10
ATOM     10  C   UNL     1       3.623   7.638 -14.670  1.00  0.00     0.027 C 
BRANCH  10  11
ATOM     11  C   UNL     1       3.085   9.042 -14.827  1.00  0.00    -0.031 C 
ATOM     12  C   UNL     1       2.494   9.770 -13.863  1.00  0.00    -0.031 C 
BRANCH  12  13
ATOM     13  C   UNL     1       2.294   9.333 -12.432  1.00  0.00     0.027 C 
BRANCH  13  14
ATOM     14  C   UNL     1       3.466   9.740 -11.519  1.00  0.00     0.004 C 
BRANCH  14  15
ATOM     15  C   UNL     1       3.899   8.673 -10.494  1.00  0.00     0.000 C 
BRANCH  15  16
ATOM     16  C   UNL     1       4.150   7.295 -11.132  1.00  0.00    -0.000 C 
BRANCH  16  17
ATOM     17  C   UNL     1       3.378   6.171 -10.425  1.00  0.00    -0.003 C 
ATOM     18  C   UNL     1       1.952   6.006 -10.945  1.00  0.00     0.004 C 
ENDBRANCH  16  17
ENDBRANCH  15  16
ENDBRANCH  14  15
ENDBRANCH  13  14
ENDBRANCH  12  13
ENDBRANCH  10  11
ENDBRANCH   1  10
TORSDOF 13
ENDMDL
MODEL 2
REMARK VINA RESULT:    -3.525      6.210     11.483
REMARK INTER + INTRA:          -8.400
REMARK INTER:                  -6.642
REMARK INTRA:                  -1.758
REMARK UNBOUND:                -2.195
REMARK SMILES CCCCCCC=CCCCCCCCC(=O)[O-]
REMARK SMILES IDX 10 1 11 2 12 3 13 4 14 5 15 6 16 7 17 8 18 9 9 10 8 11 7 12
REMARK SMILES IDX 6 13 5 14 4 15 3 16 2 17 1 18
REMARK H PARENT
REMARK Flexibility Score: inf
ROOT
ATOM      1  C   UNL     1       6.787  -2.778  -5.617  1.00  0.00     0.004 C 
ENDROOT
BRANCH   1   2
ATOM      2  C   UNL     1       6.045  -1.493  -6.026  1.00  0.00     0.000 C 
BRANCH   2   3
ATOM      3  C   UNL     1       6.338  -1.071  -7.475  1.00  0.00     0.000 C 
BRANCH   3   4
ATOM      4  C   UNL     1       5.542   0.174  -7.906  1.00  0.00     0.000 C 
BRANCH   4   5
ATOM      5  C   UNL     1       4.381  -0.098  -8.880  1.00  0.00     0.006 C 
BRANCH   5   6
ATOM      6  C   UNL     1       4.091   1.081  -9.818  1.00  0.00     0.053 C 
BRANCH   6   7
ATOM      7  C   UNL     1       4.014   0.611 -11.237  1.00  0.00     0.041 C 
ATOM      8  O   UNL     1       3.713  -0.586 -11.494  1.00  0.00    -0.550 OA
ATOM      9  O   UNL     1       4.326   1.481 -12.275  1.00  0.00    -0.550 OA
ENDBRANCH   6   7
ENDBRANCH   5   6
ENDBRANCH   4   5
ENDBRANCH   3   4
ENDBRANCH   2   3
ENDBRANCH   1   2
BRANCH   1  10
ATOM     10  C   UNL     1       7.080  -3.756  -6.773  1.00  0.00     0.027 C 
BRANCH  10  11
ATOM     11  C   UNL     1       7.871  -4.979  -6.371  1.00  0.00    -0.031 C 
ATOM     12  C   UNL     1       8.090  -6.062  -7.139  1.00  0.00    -0.031 C 
BRANCH  12  13
ATOM     13  C   UNL     1       7.616  -6.239  -8.560  1.00  0.00     0.027 C 
BRANCH  13  14
ATOM     14  C   UNL     1       8.637  -5.726  -9.593  1.00  0.00     0.004 C 
BRANCH  14  15
ATOM     15  C   UNL     1       8.062  -4.785 -10.671  1.00  0.00     0.000 C 
BRANCH  15  16
ATOM     16  C   UNL     1       7.917  -3.333 -10.183  1.00  0.00    -0.000 C 
BRANCH  16  17
ATOM     17  C   UNL     1       6.547  -2.730 -10.533  1.00  0.00    -0.003 C 
ATOM     18  C   UNL     1       5.378  -3.585 -10.051  1.00  0.00     0.004 C 
ENDBRANCH  16  17
ENDBRANCH  15  16
ENDBRANCH  14  15
ENDBRANCH  13  14
ENDBRANCH  12  13
ENDBRANCH  10  11
ENDBRANCH   1  10
TORSDOF 13
ENDMDL
MODEL 3
REMARK VINA RESULT:    -3.504      3.530      5.940
REMARK INTER + INTRA:          -8.363
REMARK INTER:                  -6.430
REMARK INTRA:                  -1.933
REMARK UNBOUND:                -2.195
REMARK SMILES CCCCCCC=CCCCCCCCC(=O)[O-]
REMARK SMILES IDX 10 1 11 2 12 3 13 4 14 5 15 6 16 7 17 8 18 9 9 10 8 11 7 12
REMARK SMILES IDX 6 13 5 14 4 15 3 16 2 17 1 18
REMARK H PARENT
REMARK Flexibility Score: inf
ROOT
ATOM      1  C   UNL     1       3.352   8.186 -14.942  1.00  0.00     0.004 C 
ENDROOT
BRANCH   1   2
ATOM      2  C   UNL     1       3.012   9.006 -13.685  1.00  0.00     0.000 C 
BRANCH   2   3
ATOM      3  C   UNL     1       2.996  10.521 -13.947  1.00  0.00     0.000 C 
BRANCH   3   4
ATOM      4  C   UNL     1       3.037  11.350 -12.651  1.00  0.00     0.000 C 
BRANCH   4   5
ATOM      5  C   UNL     1       2.888  10.538 -11.351  1.00  0.00     0.006 C 
BRANCH   5   6
ATOM      6  C   UNL     1       4.140  10.584 -10.465  1.00  0.00     0.053 C 
BRANCH   6   7
ATOM      7  C   UNL     1       3.757  10.537  -9.019  1.00  0.00     0.041 C 
ATOM      8  O   UNL     1       4.271  11.345  -8.200  1.00  0.00    -0.550 OA
ATOM      9  O   UNL     1       2.871   9.566  -8.567  1.00  0.00    -0.550 OA
ENDBRANCH   6   7
ENDBRANCH   5   6
ENDBRANCH   4   5
ENDBRANCH   3   4
ENDBRANCH   2   3
ENDBRANCH   1   2
BRANCH   1  10
ATOM     10  C   UNL     1       2.901   6.712 -14.899  1.00  0.00     0.027 C 
BRANCH  10  11
ATOM     11  C   UNL     1       4.033   5.711 -14.944  1.00  0.00    -0.031 C 
ATOM     12  C   UNL     1       4.490   4.994 -13.902  1.00  0.00    -0.031 C 
BRANCH  12  13
ATOM     13  C   UNL     1       3.929   5.028 -12.501  1.00  0.00     0.027 C 
BRANCH  13  14
ATOM     14  C   UNL     1       4.730   5.952 -11.565  1.00  0.00     0.004 C 
BRANCH  14  15
ATOM     15  C   UNL     1       3.884   6.941 -10.739  1.00  0.00     0.000 C 
BRANCH  15  16
ATOM     16  C   UNL     1       2.372   6.685 -10.862  1.00  0.00    -0.000 C 
BRANCH  16  17
ATOM     17  C   UNL     1       1.737   6.261  -9.529  1.00  0.00    -0.003 C 
ATOM     18  C   UNL     1       2.006   4.800  -9.177  1.00  0.00     0.004 C 
ENDBRANCH  16  17
ENDBRANCH  15  16
ENDBRANCH  14  15
ENDBRANCH  13  14
ENDBRANCH  12  13
ENDBRANCH  10  11
ENDBRANCH   1  10
TORSDOF 13
ENDMDL
MODEL 4
REMARK VINA RESULT:    -3.470      7.543     12.862
REMARK INTER + INTRA:          -8.302
REMARK INTER:                  -6.631
REMARK INTRA:                  -1.671
REMARK UNBOUND:                -2.195
REMARK SMILES CCCCCCC=CCCCCCCCC(=O)[O-]
REMARK SMILES IDX 10 1 11 2 12 3 13 4 14 5 15 6 16 7 17 8 18 9 9 10 8 11 7 12
REMARK SMILES IDX 6 13 5 14 4 15 3 16 2 17 1 18
REMARK H PARENT
REMARK Flexibility Score: inf
ROOT
ATOM      1  C   UNL     1       7.871  -4.915  -6.879  1.00  0.00     0.004 C 
ENDROOT
BRANCH   1   2
ATOM      2  C   UNL     1       6.687  -4.278  -6.131  1.00  0.00     0.000 C 
BRANCH   2   3
ATOM      3  C   UNL     1       7.014  -2.883  -5.574  1.00  0.00     0.000 C 
BRANCH   3   4
ATOM      4  C   UNL     1       5.948  -1.832  -5.935  1.00  0.00     0.000 C 
BRANCH   4   5
ATOM      5  C   UNL     1       5.821  -1.519  -7.438  1.00  0.00     0.006 C 
BRANCH   5   6
ATOM      6  C   UNL     1       5.973  -0.027  -7.757  1.00  0.00     0.053 C 
BRANCH   6   7
ATOM      7  C   UNL     1       4.689   0.524  -8.293  1.00  0.00     0.041 C 
ATOM      8  O   UNL     1       3.680   0.623  -7.545  1.00  0.00    -0.550 OA
ATOM      9  O   UNL     1       4.591   0.881  -9.633  1.00  0.00    -0.550 OA
ENDBRANCH   6   7
ENDBRANCH   5   6
ENDBRANCH   4   5
ENDBRANCH   3   4
ENDBRANCH   2   3
ENDBRANCH   1   2
BRANCH   1  10
ATOM     10  C   UNL     1       7.789  -6.446  -7.043  1.00  0.00     0.027 C 
BRANCH  10  11
ATOM     11  C   UNL     1       9.130  -7.143  -7.080  1.00  0.00    -0.031 C 
ATOM     12  C   UNL     1       9.780  -7.539  -8.189  1.00  0.00    -0.031 C 
BRANCH  12  13
ATOM     13  C   UNL     1       9.307  -7.326  -9.606  1.00  0.00     0.027 C 
BRANCH  13  14
ATOM     14  C   UNL     1       9.811  -5.999 -10.204  1.00  0.00     0.004 C 
BRANCH  14  15
ATOM     15  C   UNL     1       8.802  -5.263 -11.108  1.00  0.00     0.000 C 
BRANCH  15  16
ATOM     16  C   UNL     1       7.365  -5.302 -10.559  1.00  0.00    -0.000 C 
BRANCH  16  17
ATOM     17  C   UNL     1       6.746  -3.901 -10.433  1.00  0.00    -0.003 C 
ATOM     18  C   UNL     1       7.762  -2.833 -10.034  1.00  0.00     0.004 C 
ENDBRANCH  16  17
ENDBRANCH  15  16
ENDBRANCH  14  15
ENDBRANCH  13  14
ENDBRANCH  12  13
ENDBRANCH  10  11
ENDBRANCH   1  10
TORSDOF 13
ENDMDL
MODEL 5
REMARK VINA RESULT:    -3.442      8.187     12.020
REMARK INTER + INTRA:          -8.253
REMARK INTER:                  -6.250
REMARK INTRA:                  -2.003
REMARK UNBOUND:                -2.195
REMARK SMILES CCCCCCC=CCCCCCCCC(=O)[O-]
REMARK SMILES IDX 10 1 11 2 12 3 13 4 14 5 15 6 16 7 17 8 18 9 9 10 8 11 7 12
REMARK SMILES IDX 6 13 5 14 4 15 3 16 2 17 1 18
REMARK H PARENT
REMARK Flexibility Score: inf
ROOT
ATOM      1  C   UNL     1       6.896  -6.370  -7.529  1.00  0.00     0.004 C 
ENDROOT
BRANCH   1   2
ATOM      2  C   UNL     1       8.010  -5.936  -6.560  1.00  0.00     0.000 C 
BRANCH   2   3
ATOM      3  C   UNL     1       7.715  -4.592  -5.876  1.00  0.00     0.000 C 
BRANCH   3   4
ATOM      4  C   UNL     1       7.038  -3.580  -6.818  1.00  0.00     0.000 C 
BRANCH   4   5
ATOM      5  C   UNL     1       6.566  -2.277  -6.145  1.00  0.00     0.006 C 
BRANCH   5   6
ATOM      6  C   UNL     1       5.148  -1.863  -6.561  1.00  0.00     0.053 C 
BRANCH   6   7
ATOM      7  C   UNL     1       5.203  -0.824  -7.636  1.00  0.00     0.041 C 
ATOM      8  O   UNL     1       6.213  -0.079  -7.747  1.00  0.00    -0.550 OA
ATOM      9  O   UNL     1       4.116  -0.643  -8.483  1.00  0.00    -0.550 OA
ENDBRANCH   6   7
ENDBRANCH   5   6
ENDBRANCH   4   5
ENDBRANCH   3   4
ENDBRANCH   2   3
ENDBRANCH   1   2
BRANCH   1  10
ATOM     10  C   UNL     1       7.390  -7.012  -8.842  1.00  0.00     0.027 C 
BRANCH  10  11
ATOM     11  C   UNL     1       8.824  -6.688  -9.194  1.00  0.00    -0.031 C 
ATOM     12  C   UNL     1       9.227  -5.729 -10.046  1.00  0.00    -0.031 C 
BRANCH  12  13
ATOM     13  C   UNL     1       8.321  -4.771 -10.780  1.00  0.00     0.027 C 
BRANCH  13  14
ATOM     14  C   UNL     1       8.135  -3.439 -10.028  1.00  0.00     0.004 C 
BRANCH  14  15
ATOM     15  C   UNL     1       6.905  -2.613 -10.454  1.00  0.00     0.000 C 
BRANCH  15  16
ATOM     16  C   UNL     1       5.582  -3.381 -10.294  1.00  0.00    -0.000 C 
BRANCH  16  17
ATOM     17  C   UNL     1       4.602  -3.111 -11.446  1.00  0.00    -0.003 C 
ATOM     18  C   UNL     1       4.637  -1.664 -11.933  1.00  0.00     0.004 C 
ENDBRANCH  16  17
ENDBRANCH  15  16
ENDBRANCH  14  15
ENDBRANCH  13  14
ENDBRANCH  12  13
ENDBRANCH  10  11
ENDBRANCH   1  10
TORSDOF 13
ENDMDL
MODEL 6
REMARK VINA RESULT:    -3.433      3.211      4.969
REMARK INTER + INTRA:          -8.237
REMARK INTER:                  -6.030
REMARK INTRA:                  -2.207
REMARK UNBOUND:                -2.195
REMARK SMILES CCCCCCC=CCCCCCCCC(=O)[O-]
REMARK SMILES IDX 10 1 11 2 12 3 13 4 14 5 15 6 16 7 17 8 18 9 9 10 8 11 7 12
REMARK SMILES IDX 6 13 5 14 4 15 3 16 2 17 1 18
REMARK H PARENT
REMARK Flexibility Score: inf
ROOT
ATOM      1  C   UNL     1       2.085   8.062 -14.165  1.00  0.00     0.004 C 
ENDROOT
BRANCH   1   2
ATOM      2  C   UNL     1       1.119   6.911 -14.501  1.00  0.00     0.000 C 
BRANCH   2   3
ATOM      3  C   UNL     1       0.251   7.203 -15.736  1.00  0.00     0.000 C 
BRANCH   3   4
ATOM      4  C   UNL     1       0.006   5.953 -16.601  1.00  0.00     0.000 C 
BRANCH   4   5
ATOM      5  C   UNL     1       0.768   4.691 -16.155  1.00  0.00     0.006 C 
BRANCH   5   6
ATOM      6  C   UNL     1       1.788   4.205 -17.193  1.00  0.00     0.053 C 
BRANCH   6   7
ATOM      7  C   UNL     1       1.234   3.049 -17.966  1.00  0.00     0.041 C 
ATOM      8  O   UNL     1       1.183   3.094 -19.224  1.00  0.00    -0.550 OA
ATOM      9  O   UNL     1       0.726   1.944 -17.294  1.00  0.00    -0.550 OA
ENDBRANCH   6   7
ENDBRANCH   5   6
ENDBRANCH   4   5
ENDBRANCH   3   4
ENDBRANCH   2   3
ENDBRANCH   1   2
BRANCH   1  10
ATOM     10  C   UNL     1       3.576   7.748 -14.400  1.00  0.00     0.027 C 
BRANCH  10  11
ATOM     11  C   UNL     1       3.832   6.502 -15.216  1.00  0.00    -0.031 C 
ATOM     12  C   UNL     1       4.257   5.320 -14.736  1.00  0.00    -0.031 C 
BRANCH  12  13
ATOM     13  C   UNL     1       4.520   5.008 -13.283  1.00  0.00     0.027 C 
BRANCH  13  14
ATOM     14  C   UNL     1       3.224   4.820 -12.473  1.00  0.00     0.004 C 
BRANCH  14  15
ATOM     15  C   UNL     1       3.168   5.587 -11.137  1.00  0.00     0.000 C 
BRANCH  15  16
ATOM     16  C   UNL     1       4.378   6.515 -10.927  1.00  0.00    -0.000 C 
BRANCH  16  17
ATOM     17  C   UNL     1       3.966   7.981 -10.724  1.00  0.00    -0.003 C 
ATOM     18  C   UNL     1       2.478   8.147 -10.428  1.00  0.00     0.004 C 
ENDBRANCH  16  17
ENDBRANCH  15  16
ENDBRANCH  14  15
ENDBRANCH  13  14
ENDBRANCH  12  13
ENDBRANCH  10  11
ENDBRANCH   1  10
TORSDOF 13
ENDMDL
MODEL 7
REMARK VINA RESULT:    -3.425      7.634     11.873
REMARK INTER + INTRA:          -8.223
REMARK INTER:                  -6.322
REMARK INTRA:                  -1.900
REMARK UNBOUND:                -2.195
REMARK SMILES CCCCCCC=CCCCCCCCC(=O)[O-]
REMARK SMILES IDX 10 1 11 2 12 3 13 4 14 5 15 6 16 7 17 8 18 9 9 10 8 11 7 12
REMARK SMILES IDX 6 13 5 14 4 15 3 16 2 17 1 18
REMARK H PARENT
REMARK Flexibility Score: inf
ROOT
ATOM      1  C   UNL     1       6.445  -2.120  -5.761  1.00  0.00     0.004 C 
ENDROOT
BRANCH   1   2
ATOM      2  C   UNL     1       5.122  -2.509  -5.079  1.00  0.00     0.000 C 
BRANCH   2   3
ATOM      3  C   UNL     1       3.991  -2.783  -6.083  1.00  0.00     0.000 C 
BRANCH   3   4
ATOM      4  C   UNL     1       3.655  -1.557  -6.952  1.00  0.00     0.000 C 
BRANCH   4   5
ATOM      5  C   UNL     1       3.950  -1.722  -8.455  1.00  0.00     0.006 C 
BRANCH   5   6
ATOM      6  C   UNL     1       4.196  -0.388  -9.171  1.00  0.00     0.053 C 
BRANCH   6   7
ATOM      7  C   UNL     1       5.138   0.462  -8.379  1.00  0.00     0.041 C 
ATOM      8  O   UNL     1       6.337   0.106  -8.224  1.00  0.00    -0.550 OA
ATOM      9  O   UNL     1       4.679   1.623  -7.766  1.00  0.00    -0.550 OA
ENDBRANCH   6   7
ENDBRANCH   5   6
ENDBRANCH   4   5
ENDBRANCH   3   4
ENDBRANCH   2   3
ENDBRANCH   1   2
BRANCH   1  10
ATOM     10  C   UNL     1       7.050  -3.206  -6.674  1.00  0.00     0.027 C 
BRANCH  10  11
ATOM     11  C   UNL     1       7.618  -4.397  -5.935  1.00  0.00    -0.031 C 
ATOM     12  C   UNL     1       7.721  -5.647  -6.421  1.00  0.00    -0.031 C 
BRANCH  12  13
ATOM     13  C   UNL     1       7.324  -6.084  -7.809  1.00  0.00     0.027 C 
BRANCH  13  14
ATOM     14  C   UNL     1       8.508  -6.074  -8.794  1.00  0.00     0.004 C 
BRANCH  14  15
ATOM     15  C   UNL     1       8.373  -5.090  -9.973  1.00  0.00     0.000 C 
BRANCH  15  16
ATOM     16  C   UNL     1       6.931  -4.978 -10.498  1.00  0.00    -0.000 C 
BRANCH  16  17
ATOM     17  C   UNL     1       6.446  -3.522 -10.578  1.00  0.00    -0.003 C 
ATOM     18  C   UNL     1       7.527  -2.511 -10.202  1.00  0.00     0.004 C 
ENDBRANCH  16  17
ENDBRANCH  15  16
ENDBRANCH  14  15
ENDBRANCH  13  14
ENDBRANCH  12  13
ENDBRANCH  10  11
ENDBRANCH   1  10
TORSDOF 13
ENDMDL
MODEL 8
REMARK VINA RESULT:    -3.395      7.100     10.518
REMARK INTER + INTRA:          -8.171
REMARK INTER:                  -6.090
REMARK INTRA:                  -2.082
REMARK UNBOUND:                -2.195
REMARK SMILES CCCCCCC=CCCCCCCCC(=O)[O-]
REMARK SMILES IDX 10 1 11 2 12 3 13 4 14 5 15 6 16 7 17 8 18 9 9 10 8 11 7 12
REMARK SMILES IDX 6 13 5 14 4 15 3 16 2 17 1 18
REMARK H PARENT
REMARK Flexibility Score: inf
ROOT
ATOM      1  C   UNL     1       7.731  -5.652  -9.246  1.00  0.00     0.004 C 
ENDROOT
BRANCH   1   2
ATOM      2  C   UNL     1       6.883  -5.144  -8.066  1.00  0.00     0.000 C 
BRANCH   2   3
ATOM      3  C   UNL     1       7.623  -5.224  -6.721  1.00  0.00     0.000 C 
BRANCH   3   4
ATOM      4  C   UNL     1       7.504  -3.929  -5.897  1.00  0.00     0.000 C 
BRANCH   4   5
ATOM      5  C   UNL     1       6.801  -2.762  -6.615  1.00  0.00     0.006 C 
BRANCH   5   6
ATOM      6  C   UNL     1       5.936  -1.911  -5.676  1.00  0.00     0.053 C 
BRANCH   6   7
ATOM      7  C   UNL     1       4.493  -2.276  -5.822  1.00  0.00     0.041 C 
ATOM      8  O   UNL     1       4.161  -3.297  -6.482  1.00  0.00    -0.550 OA
ATOM      9  O   UNL     1       3.510  -1.460  -5.274  1.00  0.00    -0.550 OA
ENDBRANCH   6   7
ENDBRANCH   5   6
ENDBRANCH   4   5
ENDBRANCH   3   4
ENDBRANCH   2   3
ENDBRANCH   1   2
BRANCH   1  10
ATOM     10  C   UNL     1       7.793  -4.702 -10.459  1.00  0.00     0.027 C 
BRANCH  10  11
ATOM     11  C   UNL     1       8.047  -3.254 -10.106  1.00  0.00    -0.031 C 
ATOM     12  C   UNL     1       7.185  -2.238 -10.285  1.00  0.00    -0.031 C 
BRANCH  12  13
ATOM     13  C   UNL     1       5.787  -2.362 -10.838  1.00  0.00     0.027 C 
BRANCH  13  14
ATOM     14  C   UNL     1       4.714  -2.398  -9.733  1.00  0.00     0.004 C 
BRANCH  14  15
ATOM     15  C   UNL     1       3.694  -1.243  -9.772  1.00  0.00     0.000 C 
BRANCH  15  16
ATOM     16  C   UNL     1       4.360   0.144  -9.799  1.00  0.00    -0.000 C 
BRANCH  16  17
ATOM     17  C   UNL     1       5.110   0.462  -8.496  1.00  0.00    -0.003 C 
ATOM     18  C   UNL     1       4.502   1.632  -7.727  1.00  0.00     0.004 C 
ENDBRANCH  16  17
ENDBRANCH  15  16
ENDBRANCH  14  15
ENDBRANCH  13  14
ENDBRANCH  12  13
ENDBRANCH  10  11
ENDBRANCH   1  10
TORSDOF 13
ENDMDL
MODEL 9
REMARK VINA RESULT:    -3.382      1.268      2.116
REMARK INTER + INTRA:          -8.147
REMARK INTER:                  -6.063
REMARK INTRA:                  -2.084
REMARK UNBOUND:                -2.195
REMARK SMILES CCCCCCC=CCCCCCCCC(=O)[O-]
REMARK SMILES IDX 10 1 11 2 12 3 13 4 14 5 15 6 16 7 17 8 18 9 9 10 8 11 7 12
REMARK SMILES IDX 6 13 5 14 4 15 3 16 2 17 1 18
REMARK H PARENT
REMARK Flexibility Score: inf
ROOT
ATOM      1  C   UNL     1       2.611   4.585 -13.936  1.00  0.00     0.004 C 
ENDROOT
BRANCH   1   2
ATOM      2  C   UNL     1       2.608   3.230 -13.206  1.00  0.00     0.000 C 
BRANCH   2   3
ATOM      3  C   UNL     1       4.012   2.618 -13.078  1.00  0.00     0.000 C 
BRANCH   3   4
ATOM      4  C   UNL     1       4.295   2.064 -11.670  1.00  0.00     0.000 C 
BRANCH   4   5
ATOM      5  C   UNL     1       3.046   1.824 -10.801  1.00  0.00     0.006 C 
BRANCH   5   6
ATOM      6  C   UNL     1       3.347   1.843  -9.296  1.00  0.00     0.053 C 
BRANCH   6   7
ATOM      7  C   UNL     1       4.217   0.684  -8.924  1.00  0.00     0.041 C 
ATOM      8  O   UNL     1       5.225   0.858  -8.187  1.00  0.00    -0.550 OA
ATOM      9  O   UNL     1       3.947  -0.580  -9.434  1.00  0.00    -0.550 OA
ENDBRANCH   6   7
ENDBRANCH   5   6
ENDBRANCH   4   5
ENDBRANCH   3   4
ENDBRANCH   2   3
ENDBRANCH   1   2
BRANCH   1  10
ATOM     10  C   UNL     1       4.005   5.214 -14.132  1.00  0.00     0.027 C 
BRANCH  10  11
ATOM     11  C   UNL     1       3.999   6.521 -14.892  1.00  0.00    -0.031 C 
ATOM     12  C   UNL     1       3.369   7.647 -14.515  1.00  0.00    -0.031 C 
BRANCH  12  13
ATOM     13  C   UNL     1       2.582   7.826 -13.240  1.00  0.00     0.027 C 
BRANCH  13  14
ATOM     14  C   UNL     1       3.317   8.701 -12.208  1.00  0.00     0.004 C 
BRANCH  14  15
ATOM     15  C   UNL     1       3.621   8.012 -10.862  1.00  0.00     0.000 C 
BRANCH  15  16
ATOM     16  C   UNL     1       4.525   6.776 -11.012  1.00  0.00    -0.000 C 
BRANCH  16  17
ATOM     17  C   UNL     1       3.885   5.506 -10.432  1.00  0.00    -0.003 C 
ATOM     18  C   UNL     1       2.377   5.633 -10.234  1.00  0.00     0.004 C 
ENDBRANCH  16  17
ENDBRANCH  15  16
ENDBRANCH  14  15
ENDBRANCH  13  14
ENDBRANCH  12  13
ENDBRANCH  10  11
ENDBRANCH   1  10
TORSDOF 13
ENDMDL
