MODEL 1
REMARK VINA RESULT:    -6.604      0.000      0.000
REMARK INTER + INTRA:         -10.005
REMARK INTER:                  -9.307
REMARK INTRA:                  -0.698
REMARK UNBOUND:                -0.698
REMARK SMILES COc1ccc(-c2cc(=O)c3c(OC)c(OC)c(OC)c(OC)c3o2)cc1OC
REMARK SMILES IDX 7 1 8 2 9 3 10 4 11 5 24 6 25 7 21 8 18 9 15 10 12 11 6 12
REMARK SMILES IDX 3 13 27 14 4 15 26 16 5 17 2 18 1 19 28 20 29 21 22 22 23 23
REMARK SMILES IDX 13 24 14 25 19 26 20 27 16 28 17 29
REMARK H PARENT
REMARK Flexibility Score: inf
ROOT
ATOM      1  C   UNL     1     106.487 103.749 112.841  1.00  0.00     0.138 A 
ATOM      2  C   UNL     1     105.860 104.441 113.882  1.00  0.00     0.100 A 
ATOM      3  C   UNL     1     106.512 104.568 115.105  1.00  0.00     0.197 A 
ATOM      4  O   UNL     1     105.939 105.213 116.024  1.00  0.00    -0.289 OA
ATOM      5  C   UNL     1     107.791 103.988 115.287  1.00  0.00     0.115 A 
ATOM      6  C   UNL     1     108.347 103.285 114.196  1.00  0.00     0.188 A 
ATOM      7  O   UNL     1     107.686 103.214 113.044  1.00  0.00    -0.452 OA
ATOM      8  C   UNL     1     109.609 102.675 114.303  1.00  0.00     0.209 A 
ATOM      9  C   UNL     1     110.362 102.817 115.495  1.00  0.00     0.211 A 
ATOM     10  C   UNL     1     109.808 103.521 116.600  1.00  0.00     0.208 A 
ATOM     11  C   UNL     1     108.516 104.099 116.497  1.00  0.00     0.179 A 
ENDROOT
BRANCH   1  12
ATOM     12  C   UNL     1     105.855 103.601 111.507  1.00  0.00     0.021 A 
ATOM     13  C   UNL     1     104.678 103.414 108.949  1.00  0.00     0.160 A 
ATOM     14  C   UNL     1     104.247 104.400 109.846  1.00  0.00     0.161 A 
ATOM     15  C   UNL     1     105.696 102.525 109.334  1.00  0.00     0.051 A 
ATOM     16  C   UNL     1     104.838 104.489 111.121  1.00  0.00     0.062 A 
ATOM     17  C   UNL     1     106.281 102.618 110.599  1.00  0.00     0.016 A 
BRANCH  13  18
ATOM     18  O   UNL     1     104.070 103.351 107.685  1.00  0.00    -0.493 OA
ATOM     19  C   UNL     1     102.939 102.545 107.377  1.00  0.00     0.278 C 
ENDBRANCH  13  18
BRANCH  14  20
ATOM     20  O   UNL     1     103.237 105.280 109.430  1.00  0.00    -0.493 OA
ATOM     21  C   UNL     1     101.859 105.138 109.755  1.00  0.00     0.278 C 
ENDBRANCH  14  20
ENDBRANCH   1  12
BRANCH   8  22
ATOM     22  O   UNL     1     110.147 101.948 113.228  1.00  0.00    -0.490 OA
ATOM     23  C   UNL     1     110.013 100.539 113.048  1.00  0.00     0.278 C 
ENDBRANCH   8  22
BRANCH  11  24
ATOM     24  O   UNL     1     107.913 104.811 117.557  1.00  0.00    -0.492 OA
ATOM     25  C   UNL     1     108.314 106.062 118.109  1.00  0.00     0.278 C 
ENDBRANCH  11  24
BRANCH   9  26
ATOM     26  O   UNL     1     111.654 102.271 115.634  1.00  0.00    -0.490 OA
ATOM     27  C   UNL     1     112.901 102.953 115.571  1.00  0.00     0.279 C 
ENDBRANCH   9  26
BRANCH  10  28
ATOM     28  O   UNL     1     110.503 103.684 117.817  1.00  0.00    -0.490 OA
ATOM     29  C   UNL     1     110.518 102.816 118.946  1.00  0.00     0.278 C 
ENDBRANCH  10  28
TORSDOF 7
ENDMDL
MODEL 2
REMARK VINA RESULT:    -6.599      6.130      9.002
REMARK INTER + INTRA:          -9.997
REMARK INTER:                  -9.182
REMARK INTRA:                  -0.815
REMARK UNBOUND:                -0.698
REMARK SMILES COc1ccc(-c2cc(=O)c3c(OC)c(OC)c(OC)c(OC)c3o2)cc1OC
REMARK SMILES IDX 7 1 8 2 9 3 10 4 11 5 24 6 25 7 21 8 18 9 15 10 12 11 6 12
REMARK SMILES IDX 3 13 27 14 4 15 26 16 5 17 2 18 1 19 28 20 29 21 22 22 23 23
REMARK SMILES IDX 13 24 14 25 19 26 20 27 16 28 17 29
REMARK H PARENT
REMARK Flexibility Score: inf
ROOT
ATOM      1  C   UNL     1     100.047 104.321 112.661  1.00  0.00     0.138 A 
ATOM      2  C   UNL     1      98.968 105.212 112.656  1.00  0.00     0.100 A 
ATOM      3  C   UNL     1      98.121 105.262 113.759  1.00  0.00     0.197 A 
ATOM      4  O   UNL     1      97.167 106.086 113.744  1.00  0.00    -0.289 OA
ATOM      5  C   UNL     1      98.350 104.407 114.865  1.00  0.00     0.115 A 
ATOM      6  C   UNL     1      99.445 103.520 114.784  1.00  0.00     0.188 A 
ATOM      7  O   UNL     1     100.233 103.530 113.713  1.00  0.00    -0.452 OA
ATOM      8  C   UNL     1      99.731 102.635 115.839  1.00  0.00     0.209 A 
ATOM      9  C   UNL     1      98.953 102.673 117.023  1.00  0.00     0.211 A 
ATOM     10  C   UNL     1      97.846 103.563 117.111  1.00  0.00     0.208 A 
ATOM     11  C   UNL     1      97.540 104.424 116.025  1.00  0.00     0.179 A 
ENDROOT
BRANCH   1  12
ATOM     12  C   UNL     1     100.999 104.238 111.528  1.00  0.00     0.021 A 
ATOM     13  C   UNL     1     102.779 103.988 109.353  1.00  0.00     0.160 A 
ATOM     14  C   UNL     1     102.832 103.068 110.408  1.00  0.00     0.161 A 
ATOM     15  C   UNL     1     101.836 105.030 109.388  1.00  0.00     0.051 A 
ATOM     16  C   UNL     1     101.941 103.198 111.491  1.00  0.00     0.062 A 
ATOM     17  C   UNL     1     100.953 105.153 110.462  1.00  0.00     0.016 A 
BRANCH  13  18
ATOM     18  O   UNL     1     103.680 103.832 108.287  1.00  0.00    -0.493 OA
ATOM     19  C   UNL     1     104.482 104.880 107.753  1.00  0.00     0.278 C 
ENDBRANCH  13  18
BRANCH  14  20
ATOM     20  O   UNL     1     103.776 102.032 110.339  1.00  0.00    -0.493 OA
ATOM     21  C   UNL     1     105.036 102.044 111.002  1.00  0.00     0.278 C 
ENDBRANCH  14  20
ENDBRANCH   1  12
BRANCH   8  22
ATOM     22  O   UNL     1     100.801 101.729 115.744  1.00  0.00    -0.490 OA
ATOM     23  C   UNL     1     100.701 100.399 115.239  1.00  0.00     0.278 C 
ENDBRANCH   8  22
BRANCH  11  24
ATOM     24  O   UNL     1      96.456 105.330 116.053  1.00  0.00    -0.492 OA
ATOM     25  C   UNL     1      95.064 105.027 116.048  1.00  0.00     0.278 C 
ENDBRANCH  11  24
BRANCH   9  26
ATOM     26  O   UNL     1      99.231 101.845 118.129  1.00  0.00    -0.490 OA
ATOM     27  C   UNL     1      98.705 100.552 118.405  1.00  0.00     0.279 C 
ENDBRANCH   9  26
BRANCH  10  28
ATOM     28  O   UNL     1      97.027 103.637 118.257  1.00  0.00    -0.490 OA
ATOM     29  C   UNL     1      97.091 104.575 119.327  1.00  0.00     0.278 C 
ENDBRANCH  10  28
TORSDOF 7
ENDMDL
MODEL 3
REMARK VINA RESULT:    -6.577      5.964      9.432
REMARK INTER + INTRA:          -9.967
REMARK INTER:                  -9.269
REMARK INTRA:                  -0.697
REMARK UNBOUND:                -0.698
REMARK SMILES COc1ccc(-c2cc(=O)c3c(OC)c(OC)c(OC)c(OC)c3o2)cc1OC
REMARK SMILES IDX 7 1 8 2 9 3 10 4 11 5 24 6 25 7 21 8 18 9 15 10 12 11 6 12
REMARK SMILES IDX 3 13 27 14 4 15 26 16 5 17 2 18 1 19 28 20 29 21 22 22 23 23
REMARK SMILES IDX 13 24 14 25 19 26 20 27 16 28 17 29
REMARK H PARENT
REMARK Flexibility Score: inf
ROOT
ATOM      1  C   UNL     1     100.872 103.575 112.877  1.00  0.00     0.138 A 
ATOM      2  C   UNL     1     101.500 102.896 113.926  1.00  0.00     0.100 A 
ATOM      3  C   UNL     1     100.851 102.788 115.152  1.00  0.00     0.197 A 
ATOM      4  O   UNL     1     101.425 102.155 116.079  1.00  0.00    -0.289 OA
ATOM      5  C   UNL     1      99.574 103.374 115.330  1.00  0.00     0.115 A 
ATOM      6  C   UNL     1      99.016 104.062 114.230  1.00  0.00     0.188 A 
ATOM      7  O   UNL     1      99.674 104.116 113.076  1.00  0.00    -0.452 OA
ATOM      8  C   UNL     1      97.755 104.676 114.332  1.00  0.00     0.209 A 
ATOM      9  C   UNL     1      97.006 104.553 115.528  1.00  0.00     0.211 A 
ATOM     10  C   UNL     1      97.561 103.863 116.642  1.00  0.00     0.208 A 
ATOM     11  C   UNL     1      98.852 103.281 116.543  1.00  0.00     0.179 A 
ENDROOT
BRANCH   1  12
ATOM     12  C   UNL     1     101.500 103.703 111.540  1.00  0.00     0.021 A 
ATOM     13  C   UNL     1     102.670 103.852 108.976  1.00  0.00     0.160 A 
ATOM     14  C   UNL     1     103.091 102.868 109.880  1.00  0.00     0.161 A 
ATOM     15  C   UNL     1     101.665 104.758 109.357  1.00  0.00     0.051 A 
ATOM     16  C   UNL     1     102.504 102.798 111.158  1.00  0.00     0.062 A 
ATOM     17  C   UNL     1     101.084 104.684 110.624  1.00  0.00     0.016 A 
BRANCH  13  18
ATOM     18  O   UNL     1     103.273 103.896 107.709  1.00  0.00    -0.493 OA
ATOM     19  C   UNL     1     104.421 104.675 107.392  1.00  0.00     0.278 C 
ENDBRANCH  13  18
BRANCH  14  20
ATOM     20  O   UNL     1     104.088 101.971 109.468  1.00  0.00    -0.493 OA
ATOM     21  C   UNL     1     105.466 102.085 109.806  1.00  0.00     0.278 C 
ENDBRANCH  14  20
ENDBRANCH   1  12
BRANCH   8  22
ATOM     22  O   UNL     1      97.217 105.390 113.248  1.00  0.00    -0.490 OA
ATOM     23  C   UNL     1      97.365 106.793 113.041  1.00  0.00     0.278 C 
ENDBRANCH   8  22
BRANCH  11  24
ATOM     24  O   UNL     1      99.456 102.582 117.612  1.00  0.00    -0.492 OA
ATOM     25  C   UNL     1      99.072 101.325 118.162  1.00  0.00     0.278 C 
ENDBRANCH  11  24
BRANCH   9  26
ATOM     26  O   UNL     1      95.715 105.104 115.663  1.00  0.00    -0.490 OA
ATOM     27  C   UNL     1      94.466 104.424 115.606  1.00  0.00     0.279 C 
ENDBRANCH   9  26
BRANCH  10  28
ATOM     28  O   UNL     1      96.869 103.719 117.863  1.00  0.00    -0.490 OA
ATOM     29  C   UNL     1      96.867 104.597 118.984  1.00  0.00     0.278 C 
ENDBRANCH  10  28
TORSDOF 7
ENDMDL
MODEL 4
REMARK VINA RESULT:    -6.542      6.328      9.212
REMARK INTER + INTRA:          -9.917
REMARK INTER:                  -9.173
REMARK INTRA:                  -0.744
REMARK UNBOUND:                -0.698
REMARK SMILES COc1ccc(-c2cc(=O)c3c(OC)c(OC)c(OC)c(OC)c3o2)cc1OC
REMARK SMILES IDX 7 1 8 2 9 3 10 4 11 5 24 6 25 7 21 8 18 9 15 10 12 11 6 12
REMARK SMILES IDX 3 13 27 14 4 15 26 16 5 17 2 18 1 19 28 20 29 21 22 22 23 23
REMARK SMILES IDX 13 24 14 25 19 26 20 27 16 28 17 29
REMARK H PARENT
REMARK Flexibility Score: inf
ROOT
ATOM      1  C   UNL     1     101.045 102.833 113.562  1.00  0.00     0.138 A 
ATOM      2  C   UNL     1     101.640 102.410 114.755  1.00  0.00     0.100 A 
ATOM      3  C   UNL     1     100.968 102.607 115.957  1.00  0.00     0.197 A 
ATOM      4  O   UNL     1     101.510 102.200 117.020  1.00  0.00    -0.289 OA
ATOM      5  C   UNL     1      99.701 103.242 115.964  1.00  0.00     0.115 A 
ATOM      6  C   UNL     1      99.179 103.661 114.721  1.00  0.00     0.188 A 
ATOM      7  O   UNL     1      99.857 103.427 113.601  1.00  0.00    -0.452 OA
ATOM      8  C   UNL     1      97.931 104.305 114.647  1.00  0.00     0.209 A 
ATOM      9  C   UNL     1      97.158 104.483 115.821  1.00  0.00     0.211 A 
ATOM     10  C   UNL     1      97.679 104.065 117.079  1.00  0.00     0.208 A 
ATOM     11  C   UNL     1      98.957 103.452 117.148  1.00  0.00     0.179 A 
ENDROOT
BRANCH   1  12
ATOM     12  C   UNL     1     101.698 102.629 112.247  1.00  0.00     0.021 A 
ATOM     13  C   UNL     1     102.984 102.330 109.752  1.00  0.00     0.160 A 
ATOM     14  C   UNL     1     102.143 103.427 109.978  1.00  0.00     0.161 A 
ATOM     15  C   UNL     1     103.180 101.386 110.775  1.00  0.00     0.051 A 
ATOM     16  C   UNL     1     101.504 103.571 111.224  1.00  0.00     0.062 A 
ATOM     17  C   UNL     1     102.547 101.534 112.010  1.00  0.00     0.016 A 
BRANCH  13  18
ATOM     18  O   UNL     1     103.608 102.214 108.500  1.00  0.00    -0.493 OA
ATOM     19  C   UNL     1     104.995 102.434 108.269  1.00  0.00     0.278 C 
ENDBRANCH  13  18
BRANCH  14  20
ATOM     20  O   UNL     1     101.976 104.359 108.942  1.00  0.00    -0.493 OA
ATOM     21  C   UNL     1     102.802 105.502 108.744  1.00  0.00     0.278 C 
ENDBRANCH  14  20
ENDBRANCH   1  12
BRANCH   8  22
ATOM     22  O   UNL     1      97.428 104.752 113.414  1.00  0.00    -0.490 OA
ATOM     23  C   UNL     1      97.708 106.023 112.830  1.00  0.00     0.278 C 
ENDBRANCH   8  22
BRANCH  11  24
ATOM     24  O   UNL     1      99.526 103.015 118.365  1.00  0.00    -0.492 OA
ATOM     25  C   UNL     1      99.058 101.982 119.227  1.00  0.00     0.278 C 
ENDBRANCH  11  24
BRANCH   9  26
ATOM     26  O   UNL     1      95.879 105.073 115.794  1.00  0.00    -0.490 OA
ATOM     27  C   UNL     1      94.616 104.418 115.763  1.00  0.00     0.279 C 
ENDBRANCH   9  26
BRANCH  10  28
ATOM     28  O   UNL     1      96.963 104.226 118.283  1.00  0.00    -0.490 OA
ATOM     29  C   UNL     1      97.043 105.297 119.219  1.00  0.00     0.278 C 
ENDBRANCH  10  28
TORSDOF 7
ENDMDL
MODEL 5
REMARK VINA RESULT:    -6.538      0.997      3.302
REMARK INTER + INTRA:          -9.912
REMARK INTER:                  -9.086
REMARK INTRA:                  -0.826
REMARK UNBOUND:                -0.698
REMARK SMILES COc1ccc(-c2cc(=O)c3c(OC)c(OC)c(OC)c(OC)c3o2)cc1OC
REMARK SMILES IDX 7 1 8 2 9 3 10 4 11 5 24 6 25 7 21 8 18 9 15 10 12 11 6 12
REMARK SMILES IDX 3 13 27 14 4 15 26 16 5 17 2 18 1 19 28 20 29 21 22 22 23 23
REMARK SMILES IDX 13 24 14 25 19 26 20 27 16 28 17 29
REMARK H PARENT
REMARK Flexibility Score: inf
ROOT
ATOM      1  C   UNL     1     107.228 103.130 112.687  1.00  0.00     0.138 A 
ATOM      2  C   UNL     1     108.282 102.212 112.673  1.00  0.00     0.100 A 
ATOM      3  C   UNL     1     109.137 102.140 113.769  1.00  0.00     0.197 A 
ATOM      4  O   UNL     1     110.069 101.291 113.746  1.00  0.00    -0.289 OA
ATOM      5  C   UNL     1     108.940 103.000 114.877  1.00  0.00     0.115 A 
ATOM      6  C   UNL     1     107.867 103.916 114.806  1.00  0.00     0.188 A 
ATOM      7  O   UNL     1     107.071 103.926 113.741  1.00  0.00    -0.452 OA
ATOM      8  C   UNL     1     107.613 104.807 115.863  1.00  0.00     0.209 A 
ATOM      9  C   UNL     1     108.400 104.749 117.040  1.00  0.00     0.211 A 
ATOM     10  C   UNL     1     109.484 103.830 117.119  1.00  0.00     0.208 A 
ATOM     11  C   UNL     1     109.758 102.962 116.030  1.00  0.00     0.179 A 
ENDROOT
BRANCH   1  12
ATOM     12  C   UNL     1     106.269 103.238 111.562  1.00  0.00     0.021 A 
ATOM     13  C   UNL     1     104.473 103.537 109.405  1.00  0.00     0.160 A 
ATOM     14  C   UNL     1     104.414 104.420 110.491  1.00  0.00     0.161 A 
ATOM     15  C   UNL     1     105.431 102.508 109.401  1.00  0.00     0.051 A 
ATOM     16  C   UNL     1     105.311 104.266 111.565  1.00  0.00     0.062 A 
ATOM     17  C   UNL     1     106.321 102.361 110.466  1.00  0.00     0.016 A 
BRANCH  13  18
ATOM     18  O   UNL     1     103.565 103.716 108.349  1.00  0.00    -0.493 OA
ATOM     19  C   UNL     1     102.933 102.653 107.644  1.00  0.00     0.278 C 
ENDBRANCH  13  18
BRANCH  14  20
ATOM     20  O   UNL     1     103.455 105.444 110.462  1.00  0.00    -0.493 OA
ATOM     21  C   UNL     1     102.243 105.435 111.209  1.00  0.00     0.278 C 
ENDBRANCH  14  20
ENDBRANCH   1  12
BRANCH   8  22
ATOM     22  O   UNL     1     106.566 105.741 115.776  1.00  0.00    -0.490 OA
ATOM     23  C   UNL     1     106.692 107.060 115.250  1.00  0.00     0.278 C 
ENDBRANCH   8  22
BRANCH  11  24
ATOM     24  O   UNL     1     110.818 102.028 116.049  1.00  0.00    -0.492 OA
ATOM     25  C   UNL     1     112.218 102.295 116.049  1.00  0.00     0.278 C 
ENDBRANCH  11  24
BRANCH   9  26
ATOM     26  O   UNL     1     108.152 105.583 118.148  1.00  0.00    -0.490 OA
ATOM     27  C   UNL     1     108.694 106.873 118.407  1.00  0.00     0.279 C 
ENDBRANCH   9  26
BRANCH  10  28
ATOM     28  O   UNL     1     110.311 103.734 118.258  1.00  0.00    -0.490 OA
ATOM     29  C   UNL     1     110.170 102.866 119.378  1.00  0.00     0.278 C 
ENDBRANCH  10  28
TORSDOF 7
ENDMDL
MODEL 6
REMARK VINA RESULT:    -6.531      1.009      1.740
REMARK INTER + INTRA:          -9.901
REMARK INTER:                  -9.372
REMARK INTRA:                  -0.529
REMARK UNBOUND:                -0.698
REMARK SMILES COc1ccc(-c2cc(=O)c3c(OC)c(OC)c(OC)c(OC)c3o2)cc1OC
REMARK SMILES IDX 7 1 8 2 9 3 10 4 11 5 24 6 25 7 21 8 18 9 15 10 12 11 6 12
REMARK SMILES IDX 3 13 27 14 4 15 26 16 5 17 2 18 1 19 28 20 29 21 22 22 23 23
REMARK SMILES IDX 13 24 14 25 19 26 20 27 16 28 17 29
REMARK H PARENT
REMARK Flexibility Score: inf
ROOT
ATOM      1  C   UNL     1     106.492 104.361 113.526  1.00  0.00     0.138 A 
ATOM      2  C   UNL     1     105.859 104.789 114.697  1.00  0.00     0.100 A 
ATOM      3  C   UNL     1     106.510 104.637 115.917  1.00  0.00     0.197 A 
ATOM      4  O   UNL     1     105.932 105.048 116.959  1.00  0.00    -0.289 OA
ATOM      5  C   UNL     1     107.795 104.043 115.964  1.00  0.00     0.115 A 
ATOM      6  C   UNL     1     108.357 103.615 114.741  1.00  0.00     0.188 A 
ATOM      7  O   UNL     1     107.697 103.805 113.602  1.00  0.00    -0.452 OA
ATOM      8  C   UNL     1     109.626 103.009 114.707  1.00  0.00     0.209 A 
ATOM      9  C   UNL     1     110.377 102.879 115.902  1.00  0.00     0.211 A 
ATOM     10  C   UNL     1     109.817 103.305 117.138  1.00  0.00     0.208 A 
ATOM     11  C   UNL     1     108.519 103.879 117.168  1.00  0.00     0.179 A 
ENDROOT
BRANCH   1  12
ATOM     12  C   UNL     1     105.862 104.518 112.193  1.00  0.00     0.021 A 
ATOM     13  C   UNL     1     104.618 104.730 109.669  1.00  0.00     0.160 A 
ATOM     14  C   UNL     1     105.429 103.625 109.957  1.00  0.00     0.161 A 
ATOM     15  C   UNL     1     104.431 105.726 110.643  1.00  0.00     0.051 A 
ATOM     16  C   UNL     1     106.048 103.525 111.218  1.00  0.00     0.062 A 
ATOM     17  C   UNL     1     105.044 105.621 111.893  1.00  0.00     0.016 A 
BRANCH  13  18
ATOM     18  O   UNL     1     104.015 104.802 108.403  1.00  0.00    -0.493 OA
ATOM     19  C   UNL     1     102.674 105.223 108.174  1.00  0.00     0.278 C 
ENDBRANCH  13  18
BRANCH  14  20
ATOM     20  O   UNL     1     105.588 102.642 108.969  1.00  0.00    -0.493 OA
ATOM     21  C   UNL     1     104.552 101.776 108.519  1.00  0.00     0.278 C 
ENDBRANCH  14  20
ENDBRANCH   1  12
BRANCH   8  22
ATOM     22  O   UNL     1     110.169 102.553 113.495  1.00  0.00    -0.490 OA
ATOM     23  C   UNL     1     110.034 101.227 112.987  1.00  0.00     0.278 C 
ENDBRANCH   8  22
BRANCH  11  24
ATOM     24  O   UNL     1     107.910 104.323 118.363  1.00  0.00    -0.492 OA
ATOM     25  C   UNL     1     108.303 105.412 119.192  1.00  0.00     0.278 C 
ENDBRANCH  11  24
BRANCH   9  26
ATOM     26  O   UNL     1     111.674 102.327 115.914  1.00  0.00    -0.490 OA
ATOM     27  C   UNL     1     112.917 103.021 115.898  1.00  0.00     0.279 C 
ENDBRANCH   9  26
BRANCH  10  28
ATOM     28  O   UNL     1     110.511 103.190 118.361  1.00  0.00    -0.490 OA
ATOM     29  C   UNL     1     110.460 102.125 119.306  1.00  0.00     0.278 C 
ENDBRANCH  10  28
TORSDOF 7
ENDMDL
MODEL 7
REMARK VINA RESULT:    -6.278      2.260      8.561
REMARK INTER + INTRA:          -9.544
REMARK INTER:                  -8.840
REMARK INTRA:                  -0.705
REMARK UNBOUND:                -0.698
REMARK SMILES COc1ccc(-c2cc(=O)c3c(OC)c(OC)c(OC)c(OC)c3o2)cc1OC
REMARK SMILES IDX 7 1 8 2 9 3 10 4 11 5 24 6 25 7 21 8 18 9 15 10 12 11 6 12
REMARK SMILES IDX 3 13 27 14 4 15 26 16 5 17 2 18 1 19 28 20 29 21 22 22 23 23
REMARK SMILES IDX 13 24 14 25 19 26 20 27 16 28 17 29
REMARK H PARENT
REMARK Flexibility Score: inf
ROOT
ATOM      1  C   UNL     1     107.098 103.737 114.624  1.00  0.00     0.138 A 
ATOM      2  C   UNL     1     106.894 102.354 114.652  1.00  0.00     0.100 A 
ATOM      3  C   UNL     1     105.962 101.786 113.790  1.00  0.00     0.197 A 
ATOM      4  O   UNL     1     105.807 100.535 113.815  1.00  0.00    -0.289 OA
ATOM      5  C   UNL     1     105.222 102.609 112.905  1.00  0.00     0.115 A 
ATOM      6  C   UNL     1     105.469 103.999 112.954  1.00  0.00     0.188 A 
ATOM      7  O   UNL     1     106.388 104.484 113.785  1.00  0.00    -0.452 OA
ATOM      8  C   UNL     1     104.769 104.882 112.112  1.00  0.00     0.209 A 
ATOM      9  C   UNL     1     103.851 104.371 111.162  1.00  0.00     0.211 A 
ATOM     10  C   UNL     1     103.595 102.972 111.108  1.00  0.00     0.208 A 
ATOM     11  C   UNL     1     104.277 102.093 111.989  1.00  0.00     0.179 A 
ENDROOT
BRANCH   1  12
ATOM     12  C   UNL     1     108.095 104.399 115.499  1.00  0.00     0.021 A 
ATOM     13  C   UNL     1     110.062 105.643 117.096  1.00  0.00     0.160 A 
ATOM     14  C   UNL     1     110.242 104.322 116.668  1.00  0.00     0.161 A 
ATOM     15  C   UNL     1     108.898 106.338 116.724  1.00  0.00     0.051 A 
ATOM     16  C   UNL     1     109.258 103.706 115.872  1.00  0.00     0.062 A 
ATOM     17  C   UNL     1     107.925 105.725 115.932  1.00  0.00     0.016 A 
BRANCH  13  18
ATOM     18  O   UNL     1     111.061 106.230 117.889  1.00  0.00    -0.493 OA
ATOM     19  C   UNL     1     110.808 107.096 118.990  1.00  0.00     0.278 C 
ENDBRANCH  13  18
BRANCH  14  20
ATOM     20  O   UNL     1     111.419 103.657 117.046  1.00  0.00    -0.493 OA
ATOM     21  C   UNL     1     112.411 103.193 116.136  1.00  0.00     0.278 C 
ENDBRANCH  14  20
ENDBRANCH   1  12
BRANCH   8  22
ATOM     22  O   UNL     1     104.991 106.267 112.185  1.00  0.00    -0.490 OA
ATOM     23  C   UNL     1     104.169 107.189 112.900  1.00  0.00     0.278 C 
ENDBRANCH   8  22
BRANCH  11  24
ATOM     24  O   UNL     1     104.067 100.696 111.983  1.00  0.00    -0.492 OA
ATOM     25  C   UNL     1     102.962  99.976 112.522  1.00  0.00     0.278 C 
ENDBRANCH  11  24
BRANCH   9  26
ATOM     26  O   UNL     1     103.164 105.208 110.260  1.00  0.00    -0.490 OA
ATOM     27  C   UNL     1     103.509 105.509 108.912  1.00  0.00     0.279 C 
ENDBRANCH   9  26
BRANCH  10  28
ATOM     28  O   UNL     1     102.682 102.406 110.193  1.00  0.00    -0.490 OA
ATOM     29  C   UNL     1     102.942 101.903 108.886  1.00  0.00     0.278 C 
ENDBRANCH  10  28
TORSDOF 7
ENDMDL
MODEL 8
REMARK VINA RESULT:    -6.154      7.864     10.971
REMARK INTER + INTRA:          -9.371
REMARK INTER:                  -8.602
REMARK INTRA:                  -0.769
REMARK UNBOUND:                -0.698
REMARK SMILES COc1ccc(-c2cc(=O)c3c(OC)c(OC)c(OC)c(OC)c3o2)cc1OC
REMARK SMILES IDX 7 1 8 2 9 3 10 4 11 5 24 6 25 7 21 8 18 9 15 10 12 11 6 12
REMARK SMILES IDX 3 13 27 14 4 15 26 16 5 17 2 18 1 19 28 20 29 21 22 22 23 23
REMARK SMILES IDX 13 24 14 25 19 26 20 27 16 28 17 29
REMARK H PARENT
REMARK Flexibility Score: inf
ROOT
ATOM      1  C   UNL     1      98.289 106.991 114.558  1.00  0.00     0.138 A 
ATOM      2  C   UNL     1      99.616 106.671 114.253  1.00  0.00     0.100 A 
ATOM      3  C   UNL     1     100.188 105.533 114.813  1.00  0.00     0.197 A 
ATOM      4  O   UNL     1     101.378 105.250 114.510  1.00  0.00    -0.289 OA
ATOM      5  C   UNL     1      99.431 104.720 115.692  1.00  0.00     0.115 A 
ATOM      6  C   UNL     1      98.106 105.123 115.969  1.00  0.00     0.188 A 
ATOM      7  O   UNL     1      97.605 106.210 115.388  1.00  0.00    -0.452 OA
ATOM      8  C   UNL     1      97.294 104.372 116.837  1.00  0.00     0.209 A 
ATOM      9  C   UNL     1      97.785 103.166 117.395  1.00  0.00     0.211 A 
ATOM     10  C   UNL     1      99.119 102.754 117.123  1.00  0.00     0.208 A 
ATOM     11  C   UNL     1      99.945 103.539 116.277  1.00  0.00     0.179 A 
ENDROOT
BRANCH   1  12
ATOM     12  C   UNL     1      97.615 108.175 113.973  1.00  0.00     0.021 A 
ATOM     13  C   UNL     1      96.248 110.401 112.905  1.00  0.00     0.160 A 
ATOM     14  C   UNL     1      95.781 109.106 112.650  1.00  0.00     0.161 A 
ATOM     15  C   UNL     1      97.398 110.579 113.694  1.00  0.00     0.051 A 
ATOM     16  C   UNL     1      96.467 107.998 113.185  1.00  0.00     0.062 A 
ATOM     17  C   UNL     1      98.074 109.479 114.225  1.00  0.00     0.016 A 
BRANCH  13  18
ATOM     18  O   UNL     1      95.543 111.485 112.359  1.00  0.00    -0.493 OA
ATOM     19  C   UNL     1      95.972 112.234 111.227  1.00  0.00     0.278 C 
ENDBRANCH  13  18
BRANCH  14  20
ATOM     20  O   UNL     1      94.624 108.960 111.869  1.00  0.00    -0.493 OA
ATOM     21  C   UNL     1      94.619 108.555 110.504  1.00  0.00     0.278 C 
ENDBRANCH  14  20
ENDBRANCH   1  12
BRANCH   8  22
ATOM     22  O   UNL     1      95.987 104.792 117.138  1.00  0.00    -0.490 OA
ATOM     23  C   UNL     1      94.836 104.513 116.343  1.00  0.00     0.278 C 
ENDBRANCH   8  22
BRANCH  11  24
ATOM     24  O   UNL     1     101.276 103.183 115.968  1.00  0.00    -0.492 OA
ATOM     25  C   UNL     1     102.419 103.253 116.816  1.00  0.00     0.278 C 
ENDBRANCH  11  24
BRANCH   9  26
ATOM     26  O   UNL     1      96.993 102.349 118.228  1.00  0.00    -0.490 OA
ATOM     27  C   UNL     1      96.145 101.273 117.844  1.00  0.00     0.279 C 
ENDBRANCH   9  26
BRANCH  10  28
ATOM     28  O   UNL     1      99.668 101.570 117.659  1.00  0.00    -0.490 OA
ATOM     29  C   UNL     1     100.149 101.341 118.980  1.00  0.00     0.278 C 
ENDBRANCH  10  28
TORSDOF 7
ENDMDL
MODEL 9
REMARK VINA RESULT:    -6.118      4.101      6.638
REMARK INTER + INTRA:          -9.320
REMARK INTER:                  -8.513
REMARK INTRA:                  -0.807
REMARK UNBOUND:                -0.698
REMARK SMILES COc1ccc(-c2cc(=O)c3c(OC)c(OC)c(OC)c(OC)c3o2)cc1OC
REMARK SMILES IDX 7 1 8 2 9 3 10 4 11 5 24 6 25 7 21 8 18 9 15 10 12 11 6 12
REMARK SMILES IDX 3 13 27 14 4 15 26 16 5 17 2 18 1 19 28 20 29 21 22 22 23 23
REMARK SMILES IDX 13 24 14 25 19 26 20 27 16 28 17 29
REMARK H PARENT
REMARK Flexibility Score: inf
ROOT
ATOM      1  C   UNL     1     109.179 100.074 114.465  1.00  0.00     0.138 A 
ATOM      2  C   UNL     1     107.833 100.361 114.216  1.00  0.00     0.100 A 
ATOM      3  C   UNL     1     107.252 101.474 114.818  1.00  0.00     0.197 A 
ATOM      4  O   UNL     1     106.044 101.729 114.565  1.00  0.00    -0.289 OA
ATOM      5  C   UNL     1     108.021 102.293 115.681  1.00  0.00     0.115 A 
ATOM      6  C   UNL     1     109.366 101.923 115.900  1.00  0.00     0.188 A 
ATOM      7  O   UNL     1     109.873 100.860 115.282  1.00  0.00    -0.452 OA
ATOM      8  C   UNL     1     110.190 102.681 116.750  1.00  0.00     0.209 A 
ATOM      9  C   UNL     1     109.689 103.864 117.347  1.00  0.00     0.211 A 
ATOM     10  C   UNL     1     108.334 104.243 117.133  1.00  0.00     0.208 A 
ATOM     11  C   UNL     1     107.498 103.449 116.306  1.00  0.00     0.179 A 
ENDROOT
BRANCH   1  12
ATOM     12  C   UNL     1     109.861  98.918 113.835  1.00  0.00     0.021 A 
ATOM     13  C   UNL     1     111.244  96.745 112.682  1.00  0.00     0.160 A 
ATOM     14  C   UNL     1     111.717  98.050 112.498  1.00  0.00     0.161 A 
ATOM     15  C   UNL     1     110.082  96.530 113.443  1.00  0.00     0.051 A 
ATOM     16  C   UNL     1     111.023  99.131 113.075  1.00  0.00     0.062 A 
ATOM     17  C   UNL     1     109.398  97.604 114.016  1.00  0.00     0.016 A 
BRANCH  13  18
ATOM     18  O   UNL     1     111.958  95.688 112.095  1.00  0.00    -0.493 OA
ATOM     19  C   UNL     1     111.359  94.509 111.569  1.00  0.00     0.278 C 
ENDBRANCH  13  18
BRANCH  14  20
ATOM     20  O   UNL     1     112.886  98.233 111.743  1.00  0.00    -0.493 OA
ATOM     21  C   UNL     1     112.921  98.782 110.431  1.00  0.00     0.278 C 
ENDBRANCH  14  20
ENDBRANCH   1  12
BRANCH   8  22
ATOM     22  O   UNL     1     111.518 102.293 116.994  1.00  0.00    -0.490 OA
ATOM     23  C   UNL     1     112.638 102.667 116.193  1.00  0.00     0.278 C 
ENDBRANCH   8  22
BRANCH  11  24
ATOM     24  O   UNL     1     106.146 103.773 116.054  1.00  0.00    -0.492 OA
ATOM     25  C   UNL     1     105.060 103.765 116.976  1.00  0.00     0.278 C 
ENDBRANCH  11  24
BRANCH   9  26
ATOM     26  O   UNL     1     110.490 104.688 118.164  1.00  0.00    -0.490 OA
ATOM     27  C   UNL     1     111.284 105.801 117.768  1.00  0.00     0.279 C 
ENDBRANCH   9  26
BRANCH  10  28
ATOM     28  O   UNL     1     107.774 105.402 117.711  1.00  0.00    -0.490 OA
ATOM     29  C   UNL     1     107.671 106.706 117.146  1.00  0.00     0.278 C 
ENDBRANCH  10  28
TORSDOF 7
ENDMDL
