MODEL 1
REMARK VINA RESULT:    -4.160      0.000      0.000
REMARK INTER + INTRA:          -5.883
REMARK INTER:                  -5.619
REMARK INTRA:                  -0.264
REMARK UNBOUND:                -0.264
REMARK SMILES CCCCCCC=CC(=O)[O-]
REMARK SMILES IDX 5 1 6 2 7 3 8 4 9 5 10 6 11 7 4 8 3 9 2 10 1 11
REMARK H PARENT
REMARK Flexibility Score: inf
ROOT
ATOM      1  C   UNL     1      -6.333  64.905  30.101  1.00  0.00     0.004 C 
ENDROOT
BRANCH   1   2
ATOM      2  C   UNL     1      -7.157  65.683  31.142  1.00  0.00     0.027 C 
BRANCH   2   3
ATOM      3  C   UNL     1      -6.301  66.499  32.068  1.00  0.00    -0.025 C 
ATOM      4  C   UNL     1      -6.354  66.339  33.395  1.00  0.00     0.020 C 
BRANCH   4   5
ATOM      5  C   UNL     1      -5.520  67.123  34.318  1.00  0.00     0.064 C 
ATOM      6  O   UNL     1      -6.003  68.085  34.974  1.00  0.00    -0.545 OA
ATOM      7  O   UNL     1      -4.179  66.797  34.471  1.00  0.00    -0.545 OA
ENDBRANCH   4   5
ENDBRANCH   2   3
ENDBRANCH   1   2
BRANCH   1   8
ATOM      8  C   UNL     1      -5.160  65.699  29.498  1.00  0.00     0.000 C 
BRANCH   8   9
ATOM      9  C   UNL     1      -3.889  64.848  29.332  1.00  0.00    -0.000 C 
BRANCH   9  10
ATOM     10  C   UNL     1      -2.628  65.705  29.140  1.00  0.00    -0.003 C 
ATOM     11  C   UNL     1      -1.446  64.906  28.587  1.00  0.00     0.004 C 
ENDBRANCH   9  10
ENDBRANCH   8   9
ENDBRANCH   1   8
TORSDOF 6
ENDMDL
MODEL 2
REMARK VINA RESULT:    -4.153      1.129      1.948
REMARK INTER + INTRA:          -5.874
REMARK INTER:                  -5.387
REMARK INTRA:                  -0.487
REMARK UNBOUND:                -0.264
REMARK SMILES CCCCCCC=CC(=O)[O-]
REMARK SMILES IDX 5 1 6 2 7 3 8 4 9 5 10 6 11 7 4 8 3 9 2 10 1 11
REMARK H PARENT
REMARK Flexibility Score: inf
ROOT
ATOM      1  C   UNL     1      -7.717  65.634  30.433  1.00  0.00     0.004 C 
ENDROOT
BRANCH   1   2
ATOM      2  C   UNL     1      -8.337  66.375  31.631  1.00  0.00     0.027 C 
BRANCH   2   3
ATOM      3  C   UNL     1      -7.315  67.109  32.451  1.00  0.00    -0.025 C 
ATOM      4  C   UNL     1      -6.694  66.525  33.482  1.00  0.00     0.020 C 
BRANCH   4   5
ATOM      5  C   UNL     1      -5.686  67.224  34.295  1.00  0.00     0.064 C 
ATOM      6  O   UNL     1      -4.454  67.067  34.080  1.00  0.00    -0.545 OA
ATOM      7  O   UNL     1      -6.099  68.073  35.313  1.00  0.00    -0.545 OA
ENDBRANCH   4   5
ENDBRANCH   2   3
ENDBRANCH   1   2
BRANCH   1   8
ATOM      8  C   UNL     1      -7.328  66.546  29.254  1.00  0.00     0.000 C 
BRANCH   8   9
ATOM      9  C   UNL     1      -5.815  66.555  28.983  1.00  0.00    -0.000 C 
BRANCH   9  10
ATOM     10  C   UNL     1      -5.038  65.648  29.951  1.00  0.00    -0.003 C 
ATOM     11  C   UNL     1      -3.874  64.920  29.276  1.00  0.00     0.004 C 
ENDBRANCH   9  10
ENDBRANCH   8   9
ENDBRANCH   1   8
TORSDOF 6
ENDMDL
MODEL 3
REMARK VINA RESULT:    -4.150      4.086      5.601
REMARK INTER + INTRA:          -5.869
REMARK INTER:                  -5.221
REMARK INTRA:                  -0.648
REMARK UNBOUND:                -0.264
REMARK SMILES CCCCCCC=CC(=O)[O-]
REMARK SMILES IDX 5 1 6 2 7 3 8 4 9 5 10 6 11 7 4 8 3 9 2 10 1 11
REMARK H PARENT
REMARK Flexibility Score: inf
ROOT
ATOM      1  C   UNL     1      -5.955  67.238  31.857  1.00  0.00     0.004 C 
ENDROOT
BRANCH   1   2
ATOM      2  C   UNL     1      -6.849  66.081  32.340  1.00  0.00     0.027 C 
BRANCH   2   3
ATOM      3  C   UNL     1      -8.306  66.320  32.066  1.00  0.00    -0.025 C 
ATOM      4  C   UNL     1      -8.773  67.539  31.773  1.00  0.00     0.020 C 
BRANCH   4   5
ATOM      5  C   UNL     1     -10.195  67.794  31.496  1.00  0.00     0.064 C 
ATOM      6  O   UNL     1     -10.638  68.969  31.395  1.00  0.00    -0.545 OA
ATOM      7  O   UNL     1     -11.063  66.721  31.340  1.00  0.00    -0.545 OA
ENDBRANCH   4   5
ENDBRANCH   2   3
ENDBRANCH   1   2
BRANCH   1   8
ATOM      8  C   UNL     1      -5.270  68.026  32.989  1.00  0.00     0.000 C 
BRANCH   8   9
ATOM      9  C   UNL     1      -5.227  67.246  34.314  1.00  0.00    -0.000 C 
BRANCH   9  10
ATOM     10  C   UNL     1      -5.855  68.029  35.478  1.00  0.00    -0.003 C 
ATOM     11  C   UNL     1      -7.380  67.911  35.516  1.00  0.00     0.004 C 
ENDBRANCH   9  10
ENDBRANCH   8   9
ENDBRANCH   1   8
TORSDOF 6
ENDMDL
MODEL 4
REMARK VINA RESULT:    -4.117      1.841      3.062
REMARK INTER + INTRA:          -5.825
REMARK INTER:                  -5.338
REMARK INTRA:                  -0.488
REMARK UNBOUND:                -0.264
REMARK SMILES CCCCCCC=CC(=O)[O-]
REMARK SMILES IDX 5 1 6 2 7 3 8 4 9 5 10 6 11 7 4 8 3 9 2 10 1 11
REMARK H PARENT
REMARK Flexibility Score: inf
ROOT
ATOM      1  C   UNL     1      -2.243  67.473  31.285  1.00  0.00     0.004 C 
ENDROOT
BRANCH   1   2
ATOM      2  C   UNL     1      -2.941  67.895  32.591  1.00  0.00     0.027 C 
BRANCH   2   3
ATOM      3  C   UNL     1      -4.312  67.296  32.736  1.00  0.00    -0.025 C 
ATOM      4  C   UNL     1      -5.134  67.661  33.726  1.00  0.00     0.020 C 
BRANCH   4   5
ATOM      5  C   UNL     1      -6.482  67.092  33.882  1.00  0.00     0.064 C 
ATOM      6  O   UNL     1      -6.948  66.280  33.038  1.00  0.00    -0.545 OA
ATOM      7  O   UNL     1      -7.251  67.452  34.980  1.00  0.00    -0.545 OA
ENDBRANCH   4   5
ENDBRANCH   2   3
ENDBRANCH   1   2
BRANCH   1   8
ATOM      8  C   UNL     1      -3.205  67.133  30.133  1.00  0.00     0.000 C 
BRANCH   8   9
ATOM      9  C   UNL     1      -2.734  65.927  29.302  1.00  0.00    -0.000 C 
BRANCH   9  10
ATOM     10  C   UNL     1      -3.773  64.795  29.265  1.00  0.00    -0.003 C 
ATOM     11  C   UNL     1      -5.164  65.253  29.708  1.00  0.00     0.004 C 
ENDBRANCH   9  10
ENDBRANCH   8   9
ENDBRANCH   1   8
TORSDOF 6
ENDMDL
MODEL 5
REMARK VINA RESULT:    -4.072      4.068      6.612
REMARK INTER + INTRA:          -5.764
REMARK INTER:                  -5.411
REMARK INTRA:                  -0.353
REMARK UNBOUND:                -0.264
REMARK SMILES CCCCCCC=CC(=O)[O-]
REMARK SMILES IDX 5 1 6 2 7 3 8 4 9 5 10 6 11 7 4 8 3 9 2 10 1 11
REMARK H PARENT
REMARK Flexibility Score: inf
ROOT
ATOM      1  C   UNL     1     -11.046  67.338  31.141  1.00  0.00     0.004 C 
ENDROOT
BRANCH   1   2
ATOM      2  C   UNL     1      -9.674  66.770  30.735  1.00  0.00     0.027 C 
BRANCH   2   3
ATOM      3  C   UNL     1      -8.835  66.380  31.918  1.00  0.00    -0.025 C 
ATOM      4  C   UNL     1      -7.920  67.210  32.431  1.00  0.00     0.020 C 
BRANCH   4   5
ATOM      5  C   UNL     1      -7.091  66.850  33.592  1.00  0.00     0.064 C 
ATOM      6  O   UNL     1      -6.190  65.973  33.503  1.00  0.00    -0.545 OA
ATOM      7  O   UNL     1      -7.304  67.489  34.807  1.00  0.00    -0.545 OA
ENDBRANCH   4   5
ENDBRANCH   2   3
ENDBRANCH   1   2
BRANCH   1   8
ATOM      8  C   UNL     1     -12.228  66.793  30.318  1.00  0.00     0.000 C 
BRANCH   8   9
ATOM      9  C   UNL     1     -12.593  65.345  30.688  1.00  0.00    -0.000 C 
BRANCH   9  10
ATOM     10  C   UNL     1     -13.635  65.271  31.816  1.00  0.00    -0.003 C 
ATOM     11  C   UNL     1     -13.035  64.817  33.148  1.00  0.00     0.004 C 
ENDBRANCH   9  10
ENDBRANCH   8   9
ENDBRANCH   1   8
TORSDOF 6
ENDMDL
MODEL 6
REMARK VINA RESULT:    -4.020      4.804      6.256
REMARK INTER + INTRA:          -5.695
REMARK INTER:                  -5.247
REMARK INTRA:                  -0.448
REMARK UNBOUND:                -0.264
REMARK SMILES CCCCCCC=CC(=O)[O-]
REMARK SMILES IDX 5 1 6 2 7 3 8 4 9 5 10 6 11 7 4 8 3 9 2 10 1 11
REMARK H PARENT
REMARK Flexibility Score: inf
ROOT
ATOM      1  C   UNL     1      -7.385  67.612  31.736  1.00  0.00     0.004 C 
ENDROOT
BRANCH   1   2
ATOM      2  C   UNL     1      -8.851  68.071  31.636  1.00  0.00     0.027 C 
BRANCH   2   3
ATOM      3  C   UNL     1      -9.816  66.921  31.581  1.00  0.00    -0.025 C 
ATOM      4  C   UNL     1     -11.102  67.100  31.259  1.00  0.00     0.020 C 
BRANCH   4   5
ATOM      5  C   UNL     1     -12.061  65.987  31.194  1.00  0.00     0.064 C 
ATOM      6  O   UNL     1     -12.485  65.556  30.089  1.00  0.00    -0.545 OA
ATOM      7  O   UNL     1     -12.506  65.400  32.372  1.00  0.00    -0.545 OA
ENDBRANCH   4   5
ENDBRANCH   2   3
ENDBRANCH   1   2
BRANCH   1   8
ATOM      8  C   UNL     1      -7.204  66.167  32.233  1.00  0.00     0.000 C 
BRANCH   8   9
ATOM      9  C   UNL     1      -6.564  66.094  33.630  1.00  0.00    -0.000 C 
BRANCH   9  10
ATOM     10  C   UNL     1      -6.252  67.484  34.207  1.00  0.00    -0.003 C 
ATOM     11  C   UNL     1      -7.099  67.819  35.436  1.00  0.00     0.004 C 
ENDBRANCH   9  10
ENDBRANCH   8   9
ENDBRANCH   1   8
TORSDOF 6
ENDMDL
MODEL 7
REMARK VINA RESULT:    -3.987      2.997      3.810
REMARK INTER + INTRA:          -5.649
REMARK INTER:                  -5.260
REMARK INTRA:                  -0.389
REMARK UNBOUND:                -0.264
REMARK SMILES CCCCCCC=CC(=O)[O-]
REMARK SMILES IDX 5 1 6 2 7 3 8 4 9 5 10 6 11 7 4 8 3 9 2 10 1 11
REMARK H PARENT
REMARK Flexibility Score: inf
ROOT
ATOM      1  C   UNL     1      -5.512  67.030  32.180  1.00  0.00     0.004 C 
ENDROOT
BRANCH   1   2
ATOM      2  C   UNL     1      -6.745  66.131  32.377  1.00  0.00     0.027 C 
BRANCH   2   3
ATOM      3  C   UNL     1      -8.028  66.910  32.432  1.00  0.00    -0.025 C 
ATOM      4  C   UNL     1      -8.905  66.888  31.421  1.00  0.00     0.020 C 
BRANCH   4   5
ATOM      5  C   UNL     1     -10.169  67.639  31.457  1.00  0.00     0.064 C 
ATOM      6  O   UNL     1     -10.179  68.899  31.432  1.00  0.00    -0.545 OA
ATOM      7  O   UNL     1     -11.372  66.948  31.515  1.00  0.00    -0.545 OA
ENDBRANCH   4   5
ENDBRANCH   2   3
ENDBRANCH   1   2
BRANCH   1   8
ATOM      8  C   UNL     1      -4.752  66.787  30.864  1.00  0.00     0.000 C 
BRANCH   8   9
ATOM      9  C   UNL     1      -5.348  65.635  30.038  1.00  0.00    -0.000 C 
BRANCH   9  10
ATOM     10  C   UNL     1      -4.267  64.755  29.389  1.00  0.00    -0.003 C 
ATOM     11  C   UNL     1      -2.972  65.520  29.107  1.00  0.00     0.004 C 
ENDBRANCH   9  10
ENDBRANCH   8   9
ENDBRANCH   1   8
TORSDOF 6
ENDMDL
MODEL 8
REMARK VINA RESULT:    -3.943      3.030      4.739
REMARK INTER + INTRA:          -5.590
REMARK INTER:                  -4.837
REMARK INTRA:                  -0.754
REMARK UNBOUND:                -0.264
REMARK SMILES CCCCCCC=CC(=O)[O-]
REMARK SMILES IDX 5 1 6 2 7 3 8 4 9 5 10 6 11 7 4 8 3 9 2 10 1 11
REMARK H PARENT
REMARK Flexibility Score: inf
ROOT
ATOM      1  C   UNL     1      -7.641  67.159  32.667  1.00  0.00     0.004 C 
ENDROOT
BRANCH   1   2
ATOM      2  C   UNL     1      -7.897  66.234  31.463  1.00  0.00     0.027 C 
BRANCH   2   3
ATOM      3  C   UNL     1      -6.802  66.303  30.437  1.00  0.00    -0.025 C 
ATOM      4  C   UNL     1      -5.834  65.381  30.383  1.00  0.00     0.020 C 
BRANCH   4   5
ATOM      5  C   UNL     1      -4.757  65.427  29.382  1.00  0.00     0.064 C 
ATOM      6  O   UNL     1      -3.896  64.509  29.310  1.00  0.00    -0.545 OA
ATOM      7  O   UNL     1      -4.689  66.498  28.500  1.00  0.00    -0.545 OA
ENDBRANCH   4   5
ENDBRANCH   2   3
ENDBRANCH   1   2
BRANCH   1   8
ATOM      8  C   UNL     1      -6.962  66.470  33.865  1.00  0.00     0.000 C 
BRANCH   8   9
ATOM      9  C   UNL     1      -5.455  66.765  33.944  1.00  0.00    -0.000 C 
BRANCH   9  10
ATOM     10  C   UNL     1      -5.065  68.045  33.188  1.00  0.00    -0.003 C 
ATOM     11  C   UNL     1      -3.829  67.859  32.305  1.00  0.00     0.004 C 
ENDBRANCH   9  10
ENDBRANCH   8   9
ENDBRANCH   1   8
TORSDOF 6
ENDMDL
MODEL 9
REMARK VINA RESULT:    -3.932      4.264      5.107
REMARK INTER + INTRA:          -5.575
REMARK INTER:                  -5.027
REMARK INTRA:                  -0.548
REMARK UNBOUND:                -0.264
REMARK SMILES CCCCCCC=CC(=O)[O-]
REMARK SMILES IDX 5 1 6 2 7 3 8 4 9 5 10 6 11 7 4 8 3 9 2 10 1 11
REMARK H PARENT
REMARK Flexibility Score: inf
ROOT
ATOM      1  C   UNL     1      -7.115  66.818  33.996  1.00  0.00     0.004 C 
ENDROOT
BRANCH   1   2
ATOM      2  C   UNL     1      -7.145  66.251  32.565  1.00  0.00     0.027 C 
BRANCH   2   3
ATOM      3  C   UNL     1      -8.373  66.662  31.803  1.00  0.00    -0.025 C 
ATOM      4  C   UNL     1      -8.960  67.846  32.008  1.00  0.00     0.020 C 
BRANCH   4   5
ATOM      5  C   UNL     1     -10.159  68.270  31.269  1.00  0.00     0.064 C 
ATOM      6  O   UNL     1     -11.221  67.593  31.308  1.00  0.00    -0.545 OA
ATOM      7  O   UNL     1     -10.121  69.439  30.520  1.00  0.00    -0.545 OA
ENDBRANCH   4   5
ENDBRANCH   2   3
ENDBRANCH   1   2
BRANCH   1   8
ATOM      8  C   UNL     1      -5.876  67.673  34.315  1.00  0.00     0.000 C 
BRANCH   8   9
ATOM      9  C   UNL     1      -4.605  67.162  33.616  1.00  0.00    -0.000 C 
BRANCH   9  10
ATOM     10  C   UNL     1      -4.017  68.192  32.638  1.00  0.00    -0.003 C 
ATOM     11  C   UNL     1      -4.959  69.369  32.379  1.00  0.00     0.004 C 
ENDBRANCH   9  10
ENDBRANCH   8   9
ENDBRANCH   1   8
TORSDOF 6
ENDMDL
