MODEL 1
REMARK VINA RESULT:    -3.380      0.000      0.000
REMARK INTER + INTRA:          -4.297
REMARK INTER:                  -4.171
REMARK INTRA:                  -0.127
REMARK UNBOUND:                -0.127
REMARK SMILES CCCCC=CC(C)=O
REMARK SMILES IDX 4 1 3 2 2 3 1 4 5 5 6 6 7 7 9 8 8 9
REMARK H PARENT
REMARK Flexibility Score: inf
ROOT
ATOM      1  C   UNL     1      28.474  29.525  24.236  1.00  0.00     0.027 C 
ENDROOT
BRANCH   1   2
ATOM      2  C   UNL     1      27.255  28.990  25.004  1.00  0.00     0.004 C 
BRANCH   2   3
ATOM      3  C   UNL     1      27.650  28.070  26.169  1.00  0.00    -0.003 C 
ATOM      4  C   UNL     1      28.174  26.714  25.698  1.00  0.00     0.004 C 
ENDBRANCH   2   3
ENDBRANCH   1   2
BRANCH   1   5
ATOM      5  C   UNL     1      28.256  30.943  23.793  1.00  0.00    -0.023 C 
ATOM      6  C   UNL     1      29.125  31.912  24.101  1.00  0.00     0.042 C 
BRANCH   6   7
ATOM      7  C   UNL     1      28.924  33.314  23.688  1.00  0.00     0.152 C 
ATOM      8  O   UNL     1      28.720  34.216  24.545  1.00  0.00    -0.295 OA
ATOM      9  C   UNL     1      28.960  33.669  22.236  1.00  0.00     0.093 C 
ENDBRANCH   6   7
ENDBRANCH   1   5
TORSDOF 4
ENDMDL
MODEL 2
REMARK VINA RESULT:    -3.370      3.888      6.527
REMARK INTER + INTRA:          -4.285
REMARK INTER:                  -4.106
REMARK INTRA:                  -0.178
REMARK UNBOUND:                -0.127
REMARK SMILES CCCCC=CC(C)=O
REMARK SMILES IDX 4 1 3 2 2 3 1 4 5 5 6 6 7 7 9 8 8 9
REMARK H PARENT
REMARK Flexibility Score: inf
ROOT
ATOM      1  C   UNL     1      27.873  28.345  25.973  1.00  0.00     0.027 C 
ENDROOT
BRANCH   1   2
ATOM      2  C   UNL     1      27.265  29.010  24.728  1.00  0.00     0.004 C 
BRANCH   2   3
ATOM      3  C   UNL     1      28.068  30.234  24.262  1.00  0.00    -0.003 C 
ATOM      4  C   UNL     1      28.977  29.925  23.073  1.00  0.00     0.004 C 
ENDBRANCH   2   3
ENDBRANCH   1   2
BRANCH   1   5
ATOM      5  C   UNL     1      28.168  26.894  25.723  1.00  0.00    -0.023 C 
ATOM      6  C   UNL     1      27.201  26.033  25.388  1.00  0.00     0.042 C 
BRANCH   6   7
ATOM      7  C   UNL     1      27.466  24.601  25.150  1.00  0.00     0.152 C 
ATOM      8  O   UNL     1      28.452  24.030  25.690  1.00  0.00    -0.295 OA
ATOM      9  C   UNL     1      26.558  23.820  24.257  1.00  0.00     0.093 C 
ENDBRANCH   6   7
ENDBRANCH   1   5
TORSDOF 4
ENDMDL
MODEL 3
REMARK VINA RESULT:    -3.352      2.363      4.130
REMARK INTER + INTRA:          -4.263
REMARK INTER:                  -4.096
REMARK INTRA:                  -0.167
REMARK UNBOUND:                -0.127
REMARK SMILES CCCCC=CC(C)=O
REMARK SMILES IDX 4 1 3 2 2 3 1 4 5 5 6 6 7 7 9 8 8 9
REMARK H PARENT
REMARK Flexibility Score: inf
ROOT
ATOM      1  C   UNL     1      27.603  25.924  25.744  1.00  0.00     0.027 C 
ENDROOT
BRANCH   1   2
ATOM      2  C   UNL     1      28.580  24.798  25.371  1.00  0.00     0.004 C 
BRANCH   2   3
ATOM      3  C   UNL     1      27.889  23.632  24.649  1.00  0.00    -0.003 C 
ATOM      4  C   UNL     1      26.447  23.953  24.256  1.00  0.00     0.004 C 
ENDBRANCH   2   3
ENDBRANCH   1   2
BRANCH   1   5
ATOM      5  C   UNL     1      28.285  27.261  25.728  1.00  0.00    -0.023 C 
ATOM      6  C   UNL     1      27.635  28.372  25.364  1.00  0.00     0.042 C 
BRANCH   6   7
ATOM      7  C   UNL     1      28.289  29.694  25.328  1.00  0.00     0.152 C 
ATOM      8  O   UNL     1      28.762  30.208  26.378  1.00  0.00    -0.295 OA
ATOM      9  C   UNL     1      28.390  30.434  24.034  1.00  0.00     0.093 C 
ENDBRANCH   6   7
ENDBRANCH   1   5
TORSDOF 4
ENDMDL
MODEL 4
REMARK VINA RESULT:    -3.264      2.684      5.824
REMARK INTER + INTRA:          -4.153
REMARK INTER:                  -4.071
REMARK INTRA:                  -0.083
REMARK UNBOUND:                -0.127
REMARK SMILES CCCCC=CC(C)=O
REMARK SMILES IDX 4 1 3 2 2 3 1 4 5 5 6 6 7 7 9 8 8 9
REMARK H PARENT
REMARK Flexibility Score: inf
ROOT
ATOM      1  C   UNL     1      27.960  30.199  24.032  1.00  0.00     0.027 C 
ENDROOT
BRANCH   1   2
ATOM      2  C   UNL     1      29.123  31.077  23.545  1.00  0.00     0.004 C 
BRANCH   2   3
ATOM      3  C   UNL     1      28.825  32.578  23.678  1.00  0.00    -0.003 C 
ATOM      4  C   UNL     1      29.110  33.353  22.392  1.00  0.00     0.004 C 
ENDBRANCH   2   3
ENDBRANCH   1   2
BRANCH   1   5
ATOM      5  C   UNL     1      28.465  28.960  24.713  1.00  0.00    -0.023 C 
ATOM      6  C   UNL     1      27.627  28.018  25.160  1.00  0.00     0.042 C 
BRANCH   6   7
ATOM      7  C   UNL     1      28.100  26.799  25.842  1.00  0.00     0.152 C 
ATOM      8  O   UNL     1      29.125  26.828  26.577  1.00  0.00    -0.295 OA
ATOM      9  C   UNL     1      27.360  25.514  25.659  1.00  0.00     0.093 C 
ENDBRANCH   6   7
ENDBRANCH   1   5
TORSDOF 4
ENDMDL
MODEL 5
REMARK VINA RESULT:    -3.254      4.087      6.582
REMARK INTER + INTRA:          -4.141
REMARK INTER:                  -3.910
REMARK INTRA:                  -0.231
REMARK UNBOUND:                -0.127
REMARK SMILES CCCCC=CC(C)=O
REMARK SMILES IDX 4 1 3 2 2 3 1 4 5 5 6 6 7 7 9 8 8 9
REMARK H PARENT
REMARK Flexibility Score: inf
ROOT
ATOM      1  C   UNL     1      28.510  28.255  25.753  1.00  0.00     0.027 C 
ENDROOT
BRANCH   1   2
ATOM      2  C   UNL     1      27.332  28.854  24.968  1.00  0.00     0.004 C 
BRANCH   2   3
ATOM      3  C   UNL     1      27.754  30.034  24.080  1.00  0.00    -0.003 C 
ATOM      4  C   UNL     1      29.038  29.755  23.300  1.00  0.00     0.004 C 
ENDBRANCH   2   3
ENDBRANCH   1   2
BRANCH   1   5
ATOM      5  C   UNL     1      28.462  26.754  25.739  1.00  0.00    -0.023 C 
ATOM      6  C   UNL     1      27.300  26.092  25.765  1.00  0.00     0.042 C 
BRANCH   6   7
ATOM      7  C   UNL     1      27.231  24.619  25.766  1.00  0.00     0.152 C 
ATOM      8  O   UNL     1      26.365  24.014  26.455  1.00  0.00    -0.295 OA
ATOM      9  C   UNL     1      28.199  23.833  24.942  1.00  0.00     0.093 C 
ENDBRANCH   6   7
ENDBRANCH   1   5
TORSDOF 4
ENDMDL
MODEL 6
REMARK VINA RESULT:    -2.954      5.373      8.090
REMARK INTER + INTRA:          -3.771
REMARK INTER:                  -3.595
REMARK INTRA:                  -0.176
REMARK UNBOUND:                -0.127
REMARK SMILES CCCCC=CC(C)=O
REMARK SMILES IDX 4 1 3 2 2 3 1 4 5 5 6 6 7 7 9 8 8 9
REMARK H PARENT
REMARK Flexibility Score: inf
ROOT
ATOM      1  C   UNL     1      28.084  25.061  25.386  1.00  0.00     0.027 C 
ENDROOT
BRANCH   1   2
ATOM      2  C   UNL     1      27.613  26.511  25.576  1.00  0.00     0.004 C 
BRANCH   2   3
ATOM      3  C   UNL     1      28.780  27.488  25.782  1.00  0.00    -0.003 C 
ATOM      4  C   UNL     1      28.362  28.758  26.524  1.00  0.00     0.004 C 
ENDBRANCH   2   3
ENDBRANCH   1   2
BRANCH   1   5
ATOM      5  C   UNL     1      27.224  24.105  26.161  1.00  0.00    -0.023 C 
ATOM      6  C   UNL     1      26.111  24.513  26.781  1.00  0.00     0.042 C 
BRANCH   6   7
ATOM      7  C   UNL     1      25.259  23.594  27.558  1.00  0.00     0.152 C 
ATOM      8  O   UNL     1      25.611  23.201  28.704  1.00  0.00    -0.295 OA
ATOM      9  C   UNL     1      23.964  23.120  26.981  1.00  0.00     0.093 C 
ENDBRANCH   6   7
ENDBRANCH   1   5
TORSDOF 4
ENDMDL
MODEL 7
REMARK VINA RESULT:    -2.934     14.828     16.058
REMARK INTER + INTRA:          -3.747
REMARK INTER:                  -3.529
REMARK INTRA:                  -0.218
REMARK UNBOUND:                -0.127
REMARK SMILES CCCCC=CC(C)=O
REMARK SMILES IDX 4 1 3 2 2 3 1 4 5 5 6 6 7 7 9 8 8 9
REMARK H PARENT
REMARK Flexibility Score: inf
ROOT
ATOM      1  C   UNL     1      12.029  30.279  29.906  1.00  0.00     0.027 C 
ENDROOT
BRANCH   1   2
ATOM      2  C   UNL     1      11.856  30.826  28.480  1.00  0.00     0.004 C 
BRANCH   2   3
ATOM      3  C   UNL     1      11.121  32.174  28.451  1.00  0.00    -0.003 C 
ATOM      4  C   UNL     1      11.538  33.048  27.268  1.00  0.00     0.004 C 
ENDBRANCH   2   3
ENDBRANCH   1   2
BRANCH   1   5
ATOM      5  C   UNL     1      13.444  30.442  30.381  1.00  0.00    -0.023 C 
ATOM      6  C   UNL     1      14.472  30.439  29.525  1.00  0.00     0.042 C 
BRANCH   6   7
ATOM      7  C   UNL     1      15.871  30.585  29.972  1.00  0.00     0.152 C 
ATOM      8  O   UNL     1      16.609  29.573  30.118  1.00  0.00    -0.295 OA
ATOM      9  C   UNL     1      16.418  31.946  30.256  1.00  0.00     0.093 C 
ENDBRANCH   6   7
ENDBRANCH   1   5
TORSDOF 4
ENDMDL
MODEL 8
REMARK VINA RESULT:    -2.788      3.768      5.649
REMARK INTER + INTRA:          -3.567
REMARK INTER:                  -3.323
REMARK INTRA:                  -0.244
REMARK UNBOUND:                -0.127
REMARK SMILES CCCCC=CC(C)=O
REMARK SMILES IDX 4 1 3 2 2 3 1 4 5 5 6 6 7 7 9 8 8 9
REMARK H PARENT
REMARK Flexibility Score: inf
ROOT
ATOM      1  C   UNL     1      26.624  24.538  25.518  1.00  0.00     0.027 C 
ENDROOT
BRANCH   1   2
ATOM      2  C   UNL     1      26.834  23.367  26.490  1.00  0.00     0.004 C 
BRANCH   2   3
ATOM      3  C   UNL     1      26.066  23.551  27.808  1.00  0.00    -0.003 C 
ATOM      4  C   UNL     1      24.667  24.130  27.600  1.00  0.00     0.004 C 
ENDBRANCH   2   3
ENDBRANCH   1   2
BRANCH   1   5
ATOM      5  C   UNL     1      27.723  25.553  25.646  1.00  0.00    -0.023 C 
ATOM      6  C   UNL     1      27.458  26.847  25.852  1.00  0.00     0.042 C 
BRANCH   6   7
ATOM      7  C   UNL     1      28.521  27.863  25.968  1.00  0.00     0.152 C 
ATOM      8  O   UNL     1      28.928  28.244  27.099  1.00  0.00    -0.295 OA
ATOM      9  C   UNL     1      29.122  28.449  24.731  1.00  0.00     0.093 C 
ENDBRANCH   6   7
ENDBRANCH   1   5
TORSDOF 4
ENDMDL
MODEL 9
REMARK VINA RESULT:    -2.709      4.539      6.789
REMARK INTER + INTRA:          -3.469
REMARK INTER:                  -3.240
REMARK INTRA:                  -0.229
REMARK UNBOUND:                -0.127
REMARK SMILES CCCCC=CC(C)=O
REMARK SMILES IDX 4 1 3 2 2 3 1 4 5 5 6 6 7 7 9 8 8 9
REMARK H PARENT
REMARK Flexibility Score: inf
ROOT
ATOM      1  C   UNL     1      25.811  23.343  25.591  1.00  0.00     0.027 C 
ENDROOT
BRANCH   1   2
ATOM      2  C   UNL     1      25.875  23.188  27.118  1.00  0.00     0.004 C 
BRANCH   2   3
ATOM      3  C   UNL     1      24.516  23.428  27.793  1.00  0.00    -0.003 C 
ATOM      4  C   UNL     1      23.343  22.915  26.957  1.00  0.00     0.004 C 
ENDBRANCH   2   3
ENDBRANCH   1   2
BRANCH   1   5
ATOM      5  C   UNL     1      26.647  24.502  25.129  1.00  0.00    -0.023 C 
ATOM      6  C   UNL     1      27.121  25.409  25.990  1.00  0.00     0.042 C 
BRANCH   6   7
ATOM      7  C   UNL     1      27.933  26.561  25.556  1.00  0.00     0.152 C 
ATOM      8  O   UNL     1      29.118  26.400  25.156  1.00  0.00    -0.295 OA
ATOM      9  C   UNL     1      27.346  27.935  25.594  1.00  0.00     0.093 C 
ENDBRANCH   6   7
ENDBRANCH   1   5
TORSDOF 4
ENDMDL
