MODEL 1
REMARK VINA RESULT:    -6.469      0.000      0.000
REMARK INTER + INTRA:          -6.847
REMARK INTER:                  -6.847
REMARK INTRA:                   0.000
REMARK UNBOUND:                 0.000
REMARK SMILES O=c1ccc2cc(O)c(O)cc2o1
REMARK SMILES IDX 4 1 3 2 2 3 1 4 13 5 12 6 11 7 9 8 7 9 6 10 5 11 8 12 10 14
REMARK H PARENT 8 13 10 15
REMARK Flexibility Score: inf
ROOT
ATOM      1  C   UNL     1      27.284  24.281  46.892  1.00  0.00     0.019 A 
ATOM      2  C   UNL     1      28.294  24.954  46.206  1.00  0.00     0.094 A 
ATOM      3  C   UNL     1      29.611  24.848  46.664  1.00  0.00     0.336 A 
ATOM      4  O   UNL     1      30.538  25.448  46.059  1.00  0.00    -0.246 OA
ATOM      5  O   UNL     1      29.894  24.115  47.739  1.00  0.00    -0.423 OA
ATOM      6  C   UNL     1      28.960  23.457  48.422  1.00  0.00     0.142 A 
ATOM      7  C   UNL     1      29.316  22.703  49.544  1.00  0.00     0.098 A 
ATOM      8  C   UNL     1      28.336  22.008  50.268  1.00  0.00     0.161 A 
ATOM      9  C   UNL     1      26.993  22.068  49.867  1.00  0.00     0.158 A 
ATOM     10  C   UNL     1      26.631  22.823  48.742  1.00  0.00     0.062 A 
ATOM     11  C   UNL     1      27.609  23.518  48.018  1.00  0.00     0.022 A 
ENDROOT
BRANCH   9  12
ATOM     12  O   UNL     1      26.025  21.374  50.591  1.00  0.00    -0.504 OA
ATOM     13  H   UNL     1      25.638  20.500  50.257  1.00  0.00     0.293 HD
ENDBRANCH   9  12
BRANCH   8  14
ATOM     14  O   UNL     1      28.688  21.255  51.387  1.00  0.00    -0.504 OA
ATOM     15  H   UNL     1      28.969  20.285  51.306  1.00  0.00     0.293 HD
ENDBRANCH   8  14
TORSDOF 2
ENDMDL
MODEL 2
REMARK VINA RESULT:    -6.400      2.109      2.764
REMARK INTER + INTRA:          -6.774
REMARK INTER:                  -6.774
REMARK INTRA:                   0.000
REMARK UNBOUND:                 0.000
REMARK SMILES O=c1ccc2cc(O)c(O)cc2o1
REMARK SMILES IDX 4 1 3 2 2 3 1 4 13 5 12 6 11 7 9 8 7 9 6 10 5 11 8 12 10 14
REMARK H PARENT 8 13 10 15
REMARK Flexibility Score: inf
ROOT
ATOM      1  C   UNL     1      28.705  25.094  48.339  1.00  0.00     0.019 A 
ATOM      2  C   UNL     1      28.171  24.886  47.067  1.00  0.00     0.094 A 
ATOM      3  C   UNL     1      27.219  23.877  46.889  1.00  0.00     0.336 A 
ATOM      4  O   UNL     1      26.725  23.673  45.748  1.00  0.00    -0.246 OA
ATOM      5  O   UNL     1      26.829  23.128  47.918  1.00  0.00    -0.423 OA
ATOM      6  C   UNL     1      27.314  23.294  49.147  1.00  0.00     0.142 A 
ATOM      7  C   UNL     1      26.867  22.476  50.189  1.00  0.00     0.098 A 
ATOM      8  C   UNL     1      27.374  22.646  51.486  1.00  0.00     0.161 A 
ATOM      9  C   UNL     1      28.332  23.638  51.741  1.00  0.00     0.158 A 
ATOM     10  C   UNL     1      28.783  24.461  50.698  1.00  0.00     0.062 A 
ATOM     11  C   UNL     1      28.277  24.293  49.402  1.00  0.00     0.022 A 
ENDROOT
BRANCH   9  12
ATOM     12  O   UNL     1      28.830  23.801  53.032  1.00  0.00    -0.504 OA
ATOM     13  H   UNL     1      28.653  24.643  53.566  1.00  0.00     0.293 HD
ENDBRANCH   9  12
BRANCH   8  14
ATOM     14  O   UNL     1      26.930  21.833  52.528  1.00  0.00    -0.504 OA
ATOM     15  H   UNL     1      25.977  21.492  52.565  1.00  0.00     0.293 HD
ENDBRANCH   8  14
TORSDOF 2
ENDMDL
MODEL 3
REMARK VINA RESULT:    -6.322      2.003      2.767
REMARK INTER + INTRA:          -6.691
REMARK INTER:                  -6.691
REMARK INTRA:                   0.000
REMARK UNBOUND:                 0.000
REMARK SMILES O=c1ccc2cc(O)c(O)cc2o1
REMARK SMILES IDX 4 1 3 2 2 3 1 4 13 5 12 6 11 7 9 8 7 9 6 10 5 11 8 12 10 14
REMARK H PARENT 8 13 10 15
REMARK Flexibility Score: inf
ROOT
ATOM      1  C   UNL     1      29.435  24.699  46.930  1.00  0.00     0.019 A 
ATOM      2  C   UNL     1      28.649  24.945  45.804  1.00  0.00     0.094 A 
ATOM      3  C   UNL     1      27.260  24.828  45.908  1.00  0.00     0.336 A 
ATOM      4  O   UNL     1      26.533  25.046  44.903  1.00  0.00    -0.246 OA
ATOM      5  O   UNL     1      26.697  24.488  47.066  1.00  0.00    -0.423 OA
ATOM      6  C   UNL     1      27.410  24.244  48.163  1.00  0.00     0.142 A 
ATOM      7  C   UNL     1      26.763  23.890  49.351  1.00  0.00     0.098 A 
ATOM      8  C   UNL     1      27.509  23.632  50.511  1.00  0.00     0.161 A 
ATOM      9  C   UNL     1      28.908  23.729  50.482  1.00  0.00     0.158 A 
ATOM     10  C   UNL     1      29.561  24.085  49.292  1.00  0.00     0.062 A 
ATOM     11  C   UNL     1      28.817  24.343  48.133  1.00  0.00     0.022 A 
ENDROOT
BRANCH   9  12
ATOM     12  O   UNL     1      29.641  23.472  51.638  1.00  0.00    -0.504 OA
ATOM     13  H   UNL     1      29.533  24.038  52.471  1.00  0.00     0.293 HD
ENDBRANCH   9  12
BRANCH   8  14
ATOM     14  O   UNL     1      26.867  23.279  51.697  1.00  0.00    -0.504 OA
ATOM     15  H   UNL     1      26.205  23.900  52.147  1.00  0.00     0.293 HD
ENDBRANCH   8  14
TORSDOF 2
ENDMDL
MODEL 4
REMARK VINA RESULT:    -6.063      1.701      4.543
REMARK INTER + INTRA:          -6.418
REMARK INTER:                  -6.418
REMARK INTRA:                   0.000
REMARK UNBOUND:                 0.000
REMARK SMILES O=c1ccc2cc(O)c(O)cc2o1
REMARK SMILES IDX 4 1 3 2 2 3 1 4 13 5 12 6 11 7 9 8 7 9 6 10 5 11 8 12 10 14
REMARK H PARENT 8 13 10 15
REMARK Flexibility Score: inf
ROOT
ATOM      1  C   UNL     1      26.546  23.568  49.002  1.00  0.00     0.019 A 
ATOM      2  C   UNL     1      26.910  23.456  50.344  1.00  0.00     0.094 A 
ATOM      3  C   UNL     1      28.205  23.818  50.728  1.00  0.00     0.336 A 
ATOM      4  O   UNL     1      28.554  23.723  51.934  1.00  0.00    -0.246 OA
ATOM      5  O   UNL     1      29.076  24.265  49.825  1.00  0.00    -0.423 OA
ATOM      6  C   UNL     1      28.769  24.388  48.535  1.00  0.00     0.142 A 
ATOM      7  C   UNL     1      29.725  24.863  47.632  1.00  0.00     0.098 A 
ATOM      8  C   UNL     1      29.407  24.994  46.272  1.00  0.00     0.161 A 
ATOM      9  C   UNL     1      28.127  24.649  45.814  1.00  0.00     0.158 A 
ATOM     10  C   UNL     1      27.164  24.172  46.717  1.00  0.00     0.062 A 
ATOM     11  C   UNL     1      27.480  24.041  48.076  1.00  0.00     0.022 A 
ENDROOT
BRANCH   9  12
ATOM     12  O   UNL     1      27.819  24.783  44.462  1.00  0.00    -0.504 OA
ATOM     13  H   UNL     1      26.872  24.672  44.120  1.00  0.00     0.293 HD
ENDBRANCH   9  12
BRANCH   8  14
ATOM     14  O   UNL     1      30.358  25.467  45.370  1.00  0.00    -0.504 OA
ATOM     15  H   UNL     1      31.347  25.454  45.587  1.00  0.00     0.293 HD
ENDBRANCH   8  14
TORSDOF 2
ENDMDL
MODEL 5
REMARK VINA RESULT:    -6.022      1.345      5.058
REMARK INTER + INTRA:          -6.374
REMARK INTER:                  -6.374
REMARK INTRA:                   0.000
REMARK UNBOUND:                 0.000
REMARK SMILES O=c1ccc2cc(O)c(O)cc2o1
REMARK SMILES IDX 4 1 3 2 2 3 1 4 13 5 12 6 11 7 9 8 7 9 6 10 5 11 8 12 10 14
REMARK H PARENT 8 13 10 15
REMARK Flexibility Score: inf
ROOT
ATOM      1  C   UNL     1      28.524  23.327  49.949  1.00  0.00     0.019 A 
ATOM      2  C   UNL     1      27.478  22.591  50.508  1.00  0.00     0.094 A 
ATOM      3  C   UNL     1      26.367  22.284  49.716  1.00  0.00     0.336 A 
ATOM      4  O   UNL     1      25.413  21.622  50.201  1.00  0.00    -0.246 OA
ATOM      5  O   UNL     1      26.310  22.687  48.448  1.00  0.00    -0.423 OA
ATOM      6  C   UNL     1      27.286  23.391  47.877  1.00  0.00     0.142 A 
ATOM      7  C   UNL     1      27.170  23.788  46.541  1.00  0.00     0.098 A 
ATOM      8  C   UNL     1      28.195  24.529  45.935  1.00  0.00     0.161 A 
ATOM      9  C   UNL     1      29.340  24.874  46.668  1.00  0.00     0.158 A 
ATOM     10  C   UNL     1      29.461  24.478  48.008  1.00  0.00     0.062 A 
ATOM     11  C   UNL     1      28.437  23.737  48.615  1.00  0.00     0.022 A 
ENDROOT
BRANCH   9  12
ATOM     12  O   UNL     1      30.354  25.610  46.057  1.00  0.00    -0.504 OA
ATOM     13  H   UNL     1      31.324  25.498  46.323  1.00  0.00     0.293 HD
ENDBRANCH   9  12
BRANCH   8  14
ATOM     14  O   UNL     1      28.083  24.926  44.603  1.00  0.00    -0.504 OA
ATOM     15  H   UNL     1      27.980  25.901  44.348  1.00  0.00     0.293 HD
ENDBRANCH   8  14
TORSDOF 2
ENDMDL
MODEL 6
REMARK VINA RESULT:    -5.757      2.623      4.416
REMARK INTER + INTRA:          -6.093
REMARK INTER:                  -6.093
REMARK INTRA:                   0.000
REMARK UNBOUND:                 0.000
REMARK SMILES O=c1ccc2cc(O)c(O)cc2o1
REMARK SMILES IDX 4 1 3 2 2 3 1 4 13 5 12 6 11 7 9 8 7 9 6 10 5 11 8 12 10 14
REMARK H PARENT 8 13 10 15
REMARK Flexibility Score: inf
ROOT
ATOM      1  C   UNL     1      28.926  21.877  52.385  1.00  0.00     0.019 A 
ATOM      2  C   UNL     1      30.138  22.368  52.870  1.00  0.00     0.094 A 
ATOM      3  C   UNL     1      30.677  23.525  52.301  1.00  0.00     0.336 A 
ATOM      4  O   UNL     1      31.771  23.984  52.724  1.00  0.00    -0.246 OA
ATOM      5  O   UNL     1      30.041  24.149  51.312  1.00  0.00    -0.423 OA
ATOM      6  C   UNL     1      28.883  23.715  50.820  1.00  0.00     0.142 A 
ATOM      7  C   UNL     1      28.261  24.411  49.779  1.00  0.00     0.098 A 
ATOM      8  C   UNL     1      27.040  23.958  49.257  1.00  0.00     0.161 A 
ATOM      9  C   UNL     1      26.440  22.802  49.779  1.00  0.00     0.158 A 
ATOM     10  C   UNL     1      27.060  22.100  50.823  1.00  0.00     0.062 A 
ATOM     11  C   UNL     1      28.279  22.552  51.345  1.00  0.00     0.022 A 
ENDROOT
BRANCH   9  12
ATOM     12  O   UNL     1      25.227  22.359  49.255  1.00  0.00    -0.504 OA
ATOM     13  H   UNL     1      24.727  22.891  48.553  1.00  0.00     0.293 HD
ENDBRANCH   9  12
BRANCH   8  14
ATOM     14  O   UNL     1      26.417  24.650  48.220  1.00  0.00    -0.504 OA
ATOM     15  H   UNL     1      26.863  24.767  47.318  1.00  0.00     0.293 HD
ENDBRANCH   8  14
TORSDOF 2
ENDMDL
MODEL 7
REMARK VINA RESULT:    -5.669      1.789      4.852
REMARK INTER + INTRA:          -6.001
REMARK INTER:                  -6.001
REMARK INTRA:                   0.000
REMARK UNBOUND:                 0.000
REMARK SMILES O=c1ccc2cc(O)c(O)cc2o1
REMARK SMILES IDX 4 1 3 2 2 3 1 4 13 5 12 6 11 7 9 8 7 9 6 10 5 11 8 12 10 14
REMARK H PARENT 8 13 10 15
REMARK Flexibility Score: inf
ROOT
ATOM      1  C   UNL     1      29.368  24.192  50.420  1.00  0.00     0.019 A 
ATOM      2  C   UNL     1      28.866  23.566  51.560  1.00  0.00     0.094 A 
ATOM      3  C   UNL     1      27.683  22.827  51.462  1.00  0.00     0.336 A 
ATOM      4  O   UNL     1      27.212  22.255  52.480  1.00  0.00    -0.246 OA
ATOM      5  O   UNL     1      27.048  22.722  50.297  1.00  0.00    -0.423 OA
ATOM      6  C   UNL     1      27.493  23.303  49.185  1.00  0.00     0.142 A 
ATOM      7  C   UNL     1      26.784  23.158  47.989  1.00  0.00     0.098 A 
ATOM      8  C   UNL     1      27.249  23.769  46.814  1.00  0.00     0.161 A 
ATOM      9  C   UNL     1      28.429  24.527  46.837  1.00  0.00     0.158 A 
ATOM     10  C   UNL     1      29.144  24.674  48.035  1.00  0.00     0.062 A 
ATOM     11  C   UNL     1      28.681  24.065  49.209  1.00  0.00     0.022 A 
ENDROOT
BRANCH   9  12
ATOM     12  O   UNL     1      28.884  25.129  45.666  1.00  0.00    -0.504 OA
ATOM     13  H   UNL     1      28.243  25.448  44.950  1.00  0.00     0.293 HD
ENDBRANCH   9  12
BRANCH   8  14
ATOM     14  O   UNL     1      26.544  23.626  45.620  1.00  0.00    -0.504 OA
ATOM     15  H   UNL     1      26.077  24.412  45.183  1.00  0.00     0.293 HD
ENDBRANCH   8  14
TORSDOF 2
ENDMDL
MODEL 8
REMARK VINA RESULT:    -5.552      2.092      4.316
REMARK INTER + INTRA:          -5.877
REMARK INTER:                  -5.877
REMARK INTRA:                   0.000
REMARK UNBOUND:                 0.000
REMARK SMILES O=c1ccc2cc(O)c(O)cc2o1
REMARK SMILES IDX 4 1 3 2 2 3 1 4 13 5 12 6 11 7 9 8 7 9 6 10 5 11 8 12 10 14
REMARK H PARENT 8 13 10 15
REMARK Flexibility Score: inf
ROOT
ATOM      1  C   UNL     1      30.787  22.755  49.538  1.00  0.00     0.019 A 
ATOM      2  C   UNL     1      31.447  22.292  50.677  1.00  0.00     0.094 A 
ATOM      3  C   UNL     1      30.693  21.770  51.732  1.00  0.00     0.336 A 
ATOM      4  O   UNL     1      31.269  21.348  52.769  1.00  0.00    -0.246 OA
ATOM      5  O   UNL     1      29.365  21.714  51.649  1.00  0.00    -0.423 OA
ATOM      6  C   UNL     1      28.697  22.144  50.580  1.00  0.00     0.142 A 
ATOM      7  C   UNL     1      27.301  22.061  50.550  1.00  0.00     0.098 A 
ATOM      8  C   UNL     1      26.592  22.513  49.427  1.00  0.00     0.161 A 
ATOM      9  C   UNL     1      27.282  23.050  48.330  1.00  0.00     0.158 A 
ATOM     10  C   UNL     1      28.683  23.135  48.356  1.00  0.00     0.062 A 
ATOM     11  C   UNL     1      29.392  22.684  49.477  1.00  0.00     0.022 A 
ENDROOT
BRANCH   9  12
ATOM     12  O   UNL     1      26.570  23.495  47.218  1.00  0.00    -0.504 OA
ATOM     13  H   UNL     1      26.005  22.864  46.663  1.00  0.00     0.293 HD
ENDBRANCH   9  12
BRANCH   8  14
ATOM     14  O   UNL     1      25.201  22.431  49.393  1.00  0.00    -0.504 OA
ATOM     15  H   UNL     1      24.727  21.574  49.132  1.00  0.00     0.293 HD
ENDBRANCH   8  14
TORSDOF 2
ENDMDL
