MODEL 1
REMARK VINA RESULT:    -3.868      0.000      0.000
REMARK INTER + INTRA:          -5.181
REMARK INTER:                  -4.999
REMARK INTRA:                  -0.182
REMARK UNBOUND:                -0.182
REMARK SMILES CCO[C@H]1O[C@H](CO)[C@H](O)[C@H](O)[C@H]1O
REMARK SMILES IDX 4 1 13 2 11 3 9 4 6 5 5 6 3 7 2 8 1 9 14 10 12 12 7 14 8 15
REMARK SMILES IDX 10 17
REMARK H PARENT 14 11 12 13 8 16 10 18
REMARK Flexibility Score: inf
ROOT
ATOM      1  C   UNL     1       7.572  34.419  34.509  1.00  0.00     0.281 C 
ATOM      2  C   UNL     1       8.789  33.569  34.932  1.00  0.00     0.202 C 
ATOM      3  C   UNL     1       9.068  32.474  33.892  1.00  0.00     0.179 C 
ATOM      4  C   UNL     1       7.782  31.684  33.595  1.00  0.00     0.177 C 
ATOM      5  C   UNL     1       6.655  32.678  33.223  1.00  0.00     0.178 C 
ATOM      6  O   UNL     1       6.433  33.598  34.281  1.00  0.00    -0.341 OA
ENDROOT
BRANCH   1   7
ATOM      7  O   UNL     1       7.892  35.198  33.367  1.00  0.00    -0.350 OA
BRANCH   7   8
ATOM      8  C   UNL     1       7.540  36.549  33.581  1.00  0.00     0.160 C 
ATOM      9  C   UNL     1       8.549  37.443  32.879  1.00  0.00     0.035 C 
ENDBRANCH   7   8
ENDBRANCH   1   7
BRANCH   2  10
ATOM     10  O   UNL     1       9.927  34.382  35.070  1.00  0.00    -0.385 OA
ATOM     11  H   UNL     1      10.393  34.374  34.193  1.00  0.00     0.211 HD
ENDBRANCH   2  10
BRANCH   3  12
ATOM     12  O   UNL     1      10.068  31.614  34.375  1.00  0.00    -0.387 OA
ATOM     13  H   UNL     1       9.665  31.097  35.120  1.00  0.00     0.211 HD
ENDBRANCH   3  12
BRANCH   5  14
ATOM     14  C   UNL     1       5.332  31.960  32.916  1.00  0.00     0.191 C 
BRANCH  14  15
ATOM     15  O   UNL     1       5.056  31.987  31.541  1.00  0.00    -0.394 OA
ATOM     16  H   UNL     1       5.915  31.825  31.070  1.00  0.00     0.210 HD
ENDBRANCH  14  15
ENDBRANCH   5  14
BRANCH   4  17
ATOM     17  O   UNL     1       7.421  30.933  34.728  1.00  0.00    -0.387 OA
ATOM     18  H   UNL     1       8.060  30.176  34.794  1.00  0.00     0.211 HD
ENDBRANCH   4  17
TORSDOF 7
ENDMDL
MODEL 2
REMARK VINA RESULT:    -3.316      2.062      4.004
REMARK INTER + INTRA:          -4.468
REMARK INTER:                  -4.057
REMARK INTRA:                  -0.411
REMARK UNBOUND:                -0.182
REMARK SMILES CCO[C@H]1O[C@H](CO)[C@H](O)[C@H](O)[C@H]1O
REMARK SMILES IDX 4 1 13 2 11 3 9 4 6 5 5 6 3 7 2 8 1 9 14 10 12 12 7 14 8 15
REMARK SMILES IDX 10 17
REMARK H PARENT 14 11 12 13 8 16 10 18
REMARK Flexibility Score: inf
ROOT
ATOM      1  C   UNL     1      10.642  33.610  35.019  1.00  0.00     0.281 C 
ATOM      2  C   UNL     1       9.813  32.326  34.807  1.00  0.00     0.202 C 
ATOM      3  C   UNL     1       8.939  32.450  33.550  1.00  0.00     0.179 C 
ATOM      4  C   UNL     1       8.131  33.759  33.593  1.00  0.00     0.177 C 
ATOM      5  C   UNL     1       9.098  34.941  33.846  1.00  0.00     0.178 C 
ATOM      6  O   UNL     1       9.800  34.757  35.066  1.00  0.00    -0.341 OA
ENDROOT
BRANCH   1   7
ATOM      7  O   UNL     1      11.630  33.728  34.007  1.00  0.00    -0.350 OA
BRANCH   7   8
ATOM      8  C   UNL     1      12.903  33.921  34.586  1.00  0.00     0.160 C 
ATOM      9  C   UNL     1      13.755  32.687  34.336  1.00  0.00     0.035 C 
ENDBRANCH   7   8
ENDBRANCH   1   7
BRANCH   2  10
ATOM     10  O   UNL     1      10.662  31.214  34.677  1.00  0.00    -0.385 OA
ATOM     11  H   UNL     1      10.825  31.091  33.705  1.00  0.00     0.211 HD
ENDBRANCH   2  10
BRANCH   3  12
ATOM     12  O   UNL     1       8.075  31.346  33.469  1.00  0.00    -0.387 OA
ATOM     13  H   UNL     1       8.601  30.551  33.749  1.00  0.00     0.211 HD
ENDBRANCH   3  12
BRANCH   5  14
ATOM     14  C   UNL     1       8.360  36.286  33.906  1.00  0.00     0.191 C 
BRANCH  14  15
ATOM     15  O   UNL     1       7.114  36.201  33.267  1.00  0.00    -0.394 OA
ATOM     16  H   UNL     1       6.525  36.881  33.688  1.00  0.00     0.210 HD
ENDBRANCH  14  15
ENDBRANCH   5  14
BRANCH   4  17
ATOM     17  O   UNL     1       7.169  33.682  34.616  1.00  0.00    -0.387 OA
ATOM     18  H   UNL     1       7.243  34.515  35.151  1.00  0.00     0.211 HD
ENDBRANCH   4  17
TORSDOF 7
ENDMDL
MODEL 3
REMARK VINA RESULT:    -3.312      1.526      3.678
REMARK INTER + INTRA:          -4.461
REMARK INTER:                  -4.043
REMARK INTRA:                  -0.418
REMARK UNBOUND:                -0.182
REMARK SMILES CCO[C@H]1O[C@H](CO)[C@H](O)[C@H](O)[C@H]1O
REMARK SMILES IDX 4 1 13 2 11 3 9 4 6 5 5 6 3 7 2 8 1 9 14 10 12 12 7 14 8 15
REMARK SMILES IDX 10 17
REMARK H PARENT 14 11 12 13 8 16 10 18
REMARK Flexibility Score: inf
ROOT
ATOM      1  C   UNL     1       8.592  34.346  33.222  1.00  0.00     0.281 C 
ATOM      2  C   UNL     1       7.843  33.018  33.466  1.00  0.00     0.202 C 
ATOM      3  C   UNL     1       8.135  32.487  34.877  1.00  0.00     0.179 C 
ATOM      4  C   UNL     1       9.653  32.445  35.125  1.00  0.00     0.177 C 
ATOM      5  C   UNL     1      10.255  33.834  34.804  1.00  0.00     0.178 C 
ATOM      6  O   UNL     1       9.987  34.194  33.457  1.00  0.00    -0.341 OA
ENDROOT
BRANCH   1   7
ATOM      7  O   UNL     1       8.037  35.376  34.026  1.00  0.00    -0.350 OA
BRANCH   7   8
ATOM      8  C   UNL     1       7.870  36.554  33.265  1.00  0.00     0.160 C 
ATOM      9  C   UNL     1       9.002  37.517  33.584  1.00  0.00     0.035 C 
ENDBRANCH   7   8
ENDBRANCH   1   7
BRANCH   2  10
ATOM     10  O   UNL     1       6.459  33.205  33.315  1.00  0.00    -0.385 OA
ATOM     11  H   UNL     1       6.018  32.656  34.015  1.00  0.00     0.211 HD
ENDBRANCH   2  10
BRANCH   3  12
ATOM     12  O   UNL     1       7.582  31.204  35.018  1.00  0.00    -0.387 OA
ATOM     13  H   UNL     1       7.206  30.956  34.132  1.00  0.00     0.211 HD
ENDBRANCH   3  12
BRANCH   5  14
ATOM     14  C   UNL     1      11.775  33.868  35.024  1.00  0.00     0.191 C 
BRANCH  14  15
ATOM     15  O   UNL     1      12.443  33.178  34.001  1.00  0.00    -0.394 OA
ATOM     16  H   UNL     1      12.289  33.686  33.162  1.00  0.00     0.210 HD
ENDBRANCH  14  15
ENDBRANCH   5  14
BRANCH   4  17
ATOM     17  O   UNL     1      10.234  31.456  34.310  1.00  0.00    -0.387 OA
ATOM     18  H   UNL     1       9.499  30.867  33.995  1.00  0.00     0.211 HD
ENDBRANCH   4  17
TORSDOF 7
ENDMDL
MODEL 4
REMARK VINA RESULT:    -3.135     10.657     12.565
REMARK INTER + INTRA:          -4.233
REMARK INTER:                  -4.013
REMARK INTRA:                  -0.220
REMARK UNBOUND:                -0.182
REMARK SMILES CCO[C@H]1O[C@H](CO)[C@H](O)[C@H](O)[C@H]1O
REMARK SMILES IDX 4 1 13 2 11 3 9 4 6 5 5 6 3 7 2 8 1 9 14 10 12 12 7 14 8 15
REMARK SMILES IDX 10 17
REMARK H PARENT 14 11 12 13 8 16 10 18
REMARK Flexibility Score: inf
ROOT
ATOM      1  C   UNL     1      19.674  38.103  33.410  1.00  0.00     0.281 C 
ATOM      2  C   UNL     1      18.147  38.324  33.437  1.00  0.00     0.202 C 
ATOM      3  C   UNL     1      17.410  36.981  33.525  1.00  0.00     0.179 C 
ATOM      4  C   UNL     1      17.919  36.023  32.433  1.00  0.00     0.177 C 
ATOM      5  C   UNL     1      19.462  35.938  32.518  1.00  0.00     0.178 C 
ATOM      6  O   UNL     1      20.042  37.223  32.354  1.00  0.00    -0.341 OA
ENDROOT
BRANCH   1   7
ATOM      7  O   UNL     1      20.122  37.624  34.669  1.00  0.00    -0.350 OA
BRANCH   7   8
ATOM      8  C   UNL     1      21.414  38.119  34.950  1.00  0.00     0.160 C 
ATOM      9  C   UNL     1      22.409  36.971  34.894  1.00  0.00     0.035 C 
ENDBRANCH   7   8
ENDBRANCH   1   7
BRANCH   2  10
ATOM     10  O   UNL     1      17.790  39.125  34.536  1.00  0.00    -0.385 OA
ATOM     11  H   UNL     1      18.050  40.056  34.308  1.00  0.00     0.211 HD
ENDBRANCH   2  10
BRANCH   3  12
ATOM     12  O   UNL     1      16.029  37.194  33.380  1.00  0.00    -0.387 OA
ATOM     13  H   UNL     1      15.920  37.917  32.708  1.00  0.00     0.211 HD
ENDBRANCH   3  12
BRANCH   5  14
ATOM     14  C   UNL     1      20.046  35.000  31.451  1.00  0.00     0.191 C 
BRANCH  14  15
ATOM     15  O   UNL     1      21.303  34.517  31.845  1.00  0.00    -0.394 OA
ATOM     16  H   UNL     1      21.389  33.599  31.475  1.00  0.00     0.210 HD
ENDBRANCH  14  15
ENDBRANCH   5  14
BRANCH   4  17
ATOM     17  O   UNL     1      17.521  36.498  31.170  1.00  0.00    -0.387 OA
ATOM     18  H   UNL     1      18.266  37.053  30.818  1.00  0.00     0.211 HD
ENDBRANCH   4  17
TORSDOF 7
ENDMDL
MODEL 5
REMARK VINA RESULT:    -3.096      2.604      5.369
REMARK INTER + INTRA:          -4.183
REMARK INTER:                  -3.970
REMARK INTRA:                  -0.213
REMARK UNBOUND:                -0.182
REMARK SMILES CCO[C@H]1O[C@H](CO)[C@H](O)[C@H](O)[C@H]1O
REMARK SMILES IDX 4 1 13 2 11 3 9 4 6 5 5 6 3 7 2 8 1 9 14 10 12 12 7 14 8 15
REMARK SMILES IDX 10 17
REMARK H PARENT 14 11 12 13 8 16 10 18
REMARK Flexibility Score: inf
ROOT
ATOM      1  C   UNL     1       9.316  34.374  34.009  1.00  0.00     0.281 C 
ATOM      2  C   UNL     1       9.027  35.882  33.854  1.00  0.00     0.202 C 
ATOM      3  C   UNL     1      10.053  36.534  32.916  1.00  0.00     0.179 C 
ATOM      4  C   UNL     1      11.481  36.178  33.362  1.00  0.00     0.177 C 
ATOM      5  C   UNL     1      11.597  34.641  33.504  1.00  0.00     0.178 C 
ATOM      6  O   UNL     1      10.652  34.155  34.446  1.00  0.00    -0.341 OA
ENDROOT
BRANCH   1   7
ATOM      7  O   UNL     1       9.047  33.696  32.791  1.00  0.00    -0.350 OA
BRANCH   7   8
ATOM      8  C   UNL     1       8.235  32.565  33.030  1.00  0.00     0.160 C 
ATOM      9  C   UNL     1       6.935  32.714  32.256  1.00  0.00     0.035 C 
ENDBRANCH   7   8
ENDBRANCH   1   7
BRANCH   2  10
ATOM     10  O   UNL     1       7.734  36.080  33.341  1.00  0.00    -0.385 OA
ATOM     11  H   UNL     1       7.734  35.715  32.417  1.00  0.00     0.211 HD
ENDBRANCH   2  10
BRANCH   3  12
ATOM     12  O   UNL     1       9.874  37.927  32.921  1.00  0.00    -0.387 OA
ATOM     13  H   UNL     1       8.945  38.094  33.229  1.00  0.00     0.211 HD
ENDBRANCH   3  12
BRANCH   5  14
ATOM     14  C   UNL     1      13.000  34.208  33.953  1.00  0.00     0.191 C 
BRANCH  14  15
ATOM     15  O   UNL     1      13.647  33.481  32.942  1.00  0.00    -0.394 OA
ATOM     16  H   UNL     1      14.488  33.127  33.333  1.00  0.00     0.210 HD
ENDBRANCH  14  15
ENDBRANCH   5  14
BRANCH   4  17
ATOM     17  O   UNL     1      11.760  36.807  34.590  1.00  0.00    -0.387 OA
ATOM     18  H   UNL     1      11.598  37.778  34.464  1.00  0.00     0.211 HD
ENDBRANCH   4  17
TORSDOF 7
ENDMDL
MODEL 6
REMARK VINA RESULT:    -3.071      3.211      5.137
REMARK INTER + INTRA:          -4.150
REMARK INTER:                  -3.931
REMARK INTRA:                  -0.220
REMARK UNBOUND:                -0.182
REMARK SMILES CCO[C@H]1O[C@H](CO)[C@H](O)[C@H](O)[C@H]1O
REMARK SMILES IDX 4 1 13 2 11 3 9 4 6 5 5 6 3 7 2 8 1 9 14 10 12 12 7 14 8 15
REMARK SMILES IDX 10 17
REMARK H PARENT 14 11 12 13 8 16 10 18
REMARK Flexibility Score: inf
ROOT
ATOM      1  C   UNL     1      11.871  35.376  32.938  1.00  0.00     0.281 C 
ATOM      2  C   UNL     1      11.548  36.848  33.274  1.00  0.00     0.202 C 
ATOM      3  C   UNL     1      10.447  36.928  34.341  1.00  0.00     0.179 C 
ATOM      4  C   UNL     1       9.242  36.065  33.927  1.00  0.00     0.177 C 
ATOM      5  C   UNL     1       9.736  34.637  33.592  1.00  0.00     0.178 C 
ATOM      6  O   UNL     1      10.697  34.674  32.547  1.00  0.00    -0.341 OA
ENDROOT
BRANCH   1   7
ATOM      7  O   UNL     1      12.509  34.752  34.042  1.00  0.00    -0.350 OA
BRANCH   7   8
ATOM      8  C   UNL     1      13.599  33.970  33.598  1.00  0.00     0.160 C 
ATOM      9  C   UNL     1      13.640  32.677  34.396  1.00  0.00     0.035 C 
ENDBRANCH   7   8
ENDBRANCH   1   7
BRANCH   2  10
ATOM     10  O   UNL     1      12.699  37.505  33.740  1.00  0.00    -0.385 OA
ATOM     11  H   UNL     1      13.253  36.820  34.199  1.00  0.00     0.211 HD
ENDBRANCH   2  10
BRANCH   3  12
ATOM     12  O   UNL     1      10.054  38.266  34.508  1.00  0.00    -0.387 OA
ATOM     13  H   UNL     1      10.478  38.585  35.348  1.00  0.00     0.211 HD
ENDBRANCH   3  12
BRANCH   5  14
ATOM     14  C   UNL     1       8.585  33.715  33.163  1.00  0.00     0.191 C 
BRANCH  14  15
ATOM     15  O   UNL     1       8.906  33.033  31.980  1.00  0.00    -0.394 OA
ATOM     16  H   UNL     1       8.138  33.149  31.362  1.00  0.00     0.210 HD
ENDBRANCH  14  15
ENDBRANCH   5  14
BRANCH   4  17
ATOM     17  O   UNL     1       8.614  36.643  32.808  1.00  0.00    -0.387 OA
ATOM     18  H   UNL     1       8.961  37.569  32.723  1.00  0.00     0.211 HD
ENDBRANCH   4  17
TORSDOF 7
ENDMDL
MODEL 7
REMARK VINA RESULT:    -3.009      1.772      3.592
REMARK INTER + INTRA:          -4.070
REMARK INTER:                  -3.657
REMARK INTRA:                  -0.413
REMARK UNBOUND:                -0.182
REMARK SMILES CCO[C@H]1O[C@H](CO)[C@H](O)[C@H](O)[C@H]1O
REMARK SMILES IDX 4 1 13 2 11 3 9 4 6 5 5 6 3 7 2 8 1 9 14 10 12 12 7 14 8 15
REMARK SMILES IDX 10 17
REMARK H PARENT 14 11 12 13 8 16 10 18
REMARK Flexibility Score: inf
ROOT
ATOM      1  C   UNL     1       9.047  32.017  33.689  1.00  0.00     0.281 C 
ATOM      2  C   UNL     1       8.599  33.347  33.045  1.00  0.00     0.202 C 
ATOM      3  C   UNL     1       7.509  34.016  33.894  1.00  0.00     0.179 C 
ATOM      4  C   UNL     1       6.380  33.016  34.195  1.00  0.00     0.177 C 
ATOM      5  C   UNL     1       6.994  31.730  34.801  1.00  0.00     0.178 C 
ATOM      6  O   UNL     1       7.934  31.157  33.904  1.00  0.00    -0.341 OA
ENDROOT
BRANCH   1   7
ATOM      7  O   UNL     1       9.752  32.270  34.894  1.00  0.00    -0.350 OA
BRANCH   7   8
ATOM      8  C   UNL     1      11.021  31.652  34.857  1.00  0.00     0.160 C 
ATOM      9  C   UNL     1      12.092  32.697  35.124  1.00  0.00     0.035 C 
ENDBRANCH   7   8
ENDBRANCH   1   7
BRANCH   2  10
ATOM     10  O   UNL     1       9.693  34.219  32.917  1.00  0.00    -0.385 OA
ATOM     11  H   UNL     1       9.461  34.867  32.201  1.00  0.00     0.211 HD
ENDBRANCH   2  10
BRANCH   3  12
ATOM     12  O   UNL     1       7.001  35.132  33.209  1.00  0.00    -0.387 OA
ATOM     13  H   UNL     1       7.777  35.713  32.994  1.00  0.00     0.211 HD
ENDBRANCH   3  12
BRANCH   5  14
ATOM     14  C   UNL     1       5.924  30.678  35.125  1.00  0.00     0.191 C 
BRANCH  14  15
ATOM     15  O   UNL     1       5.743  29.801  34.044  1.00  0.00    -0.394 OA
ATOM     16  H   UNL     1       4.764  29.676  33.934  1.00  0.00     0.210 HD
ENDBRANCH  14  15
ENDBRANCH   5  14
BRANCH   4  17
ATOM     17  O   UNL     1       5.689  32.717  33.007  1.00  0.00    -0.387 OA
ATOM     18  H   UNL     1       6.192  33.137  32.261  1.00  0.00     0.211 HD
ENDBRANCH   4  17
TORSDOF 7
ENDMDL
MODEL 8
REMARK VINA RESULT:    -2.985     10.347     12.472
REMARK INTER + INTRA:          -4.040
REMARK INTER:                  -3.587
REMARK INTRA:                  -0.453
REMARK UNBOUND:                -0.182
REMARK SMILES CCO[C@H]1O[C@H](CO)[C@H](O)[C@H](O)[C@H]1O
REMARK SMILES IDX 4 1 13 2 11 3 9 4 6 5 5 6 3 7 2 8 1 9 14 10 12 12 7 14 8 15
REMARK SMILES IDX 10 17
REMARK H PARENT 14 11 12 13 8 16 10 18
REMARK Flexibility Score: inf
ROOT
ATOM      1  C   UNL     1      18.047  37.948  32.913  1.00  0.00     0.281 C 
ATOM      2  C   UNL     1      18.337  36.946  31.775  1.00  0.00     0.202 C 
ATOM      3  C   UNL     1      19.195  35.781  32.288  1.00  0.00     0.179 C 
ATOM      4  C   UNL     1      20.434  36.318  33.026  1.00  0.00     0.177 C 
ATOM      5  C   UNL     1      19.978  37.330  34.106  1.00  0.00     0.178 C 
ATOM      6  O   UNL     1      19.256  38.399  33.513  1.00  0.00    -0.341 OA
ENDROOT
BRANCH   1   7
ATOM      7  O   UNL     1      17.176  37.363  33.869  1.00  0.00    -0.350 OA
BRANCH   7   8
ATOM      8  C   UNL     1      16.247  38.320  34.332  1.00  0.00     0.160 C 
ATOM      9  C   UNL     1      15.061  38.362  33.382  1.00  0.00     0.035 C 
ENDBRANCH   7   8
ENDBRANCH   1   7
BRANCH   2  10
ATOM     10  O   UNL     1      17.135  36.444  31.250  1.00  0.00    -0.385 OA
ATOM     11  H   UNL     1      17.376  35.876  30.472  1.00  0.00     0.211 HD
ENDBRANCH   2  10
BRANCH   3  12
ATOM     12  O   UNL     1      19.585  34.974  31.207  1.00  0.00    -0.387 OA
ATOM     13  H   UNL     1      18.994  35.213  30.445  1.00  0.00     0.211 HD
ENDBRANCH   3  12
BRANCH   5  14
ATOM     14  C   UNL     1      21.165  37.915  34.884  1.00  0.00     0.191 C 
BRANCH  14  15
ATOM     15  O   UNL     1      22.254  37.030  34.874  1.00  0.00    -0.394 OA
ATOM     16  H   UNL     1      21.916  36.160  34.538  1.00  0.00     0.210 HD
ENDBRANCH  14  15
ENDBRANCH   5  14
BRANCH   4  17
ATOM     17  O   UNL     1      21.296  36.939  32.104  1.00  0.00    -0.387 OA
ATOM     18  H   UNL     1      22.056  37.315  32.621  1.00  0.00     0.211 HD
ENDBRANCH   4  17
TORSDOF 7
ENDMDL
MODEL 9
REMARK VINA RESULT:    -2.655      1.483      3.941
REMARK INTER + INTRA:          -3.613
REMARK INTER:                  -3.186
REMARK INTRA:                  -0.427
REMARK UNBOUND:                -0.182
REMARK SMILES CCO[C@H]1O[C@H](CO)[C@H](O)[C@H](O)[C@H]1O
REMARK SMILES IDX 4 1 13 2 11 3 9 4 6 5 5 6 3 7 2 8 1 9 14 10 12 12 7 14 8 15
REMARK SMILES IDX 10 17
REMARK H PARENT 14 11 12 13 8 16 10 18
REMARK Flexibility Score: inf
ROOT
ATOM      1  C   UNL     1       6.210  32.719  33.698  1.00  0.00     0.281 C 
ATOM      2  C   UNL     1       7.352  31.685  33.599  1.00  0.00     0.202 C 
ATOM      3  C   UNL     1       8.636  32.237  34.233  1.00  0.00     0.179 C 
ATOM      4  C   UNL     1       8.955  33.629  33.660  1.00  0.00     0.177 C 
ATOM      5  C   UNL     1       7.706  34.532  33.804  1.00  0.00     0.178 C 
ATOM      6  O   UNL     1       6.598  33.961  33.122  1.00  0.00    -0.341 OA
ENDROOT
BRANCH   1   7
ATOM      7  O   UNL     1       5.807  32.875  35.050  1.00  0.00    -0.350 OA
BRANCH   7   8
ATOM      8  C   UNL     1       4.409  33.059  35.125  1.00  0.00     0.160 C 
ATOM      9  C   UNL     1       3.721  31.997  34.283  1.00  0.00     0.035 C 
ENDBRANCH   7   8
ENDBRANCH   1   7
BRANCH   2  10
ATOM     10  O   UNL     1       6.986  30.493  34.248  1.00  0.00    -0.385 OA
ATOM     11  H   UNL     1       7.646  30.349  34.976  1.00  0.00     0.211 HD
ENDBRANCH   2  10
BRANCH   3  12
ATOM     12  O   UNL     1       9.699  31.353  33.985  1.00  0.00    -0.387 OA
ATOM     13  H   UNL     1      10.520  31.906  33.909  1.00  0.00     0.211 HD
ENDBRANCH   3  12
BRANCH   5  14
ATOM     14  C   UNL     1       7.947  35.942  33.246  1.00  0.00     0.191 C 
BRANCH  14  15
ATOM     15  O   UNL     1       9.302  36.130  32.934  1.00  0.00    -0.394 OA
ATOM     16  H   UNL     1       9.572  36.999  33.332  1.00  0.00     0.210 HD
ENDBRANCH  14  15
ENDBRANCH   5  14
BRANCH   4  17
ATOM     17  O   UNL     1       9.321  33.506  32.307  1.00  0.00    -0.387 OA
ATOM     18  H   UNL     1       8.487  33.560  31.772  1.00  0.00     0.211 HD
ENDBRANCH   4  17
TORSDOF 7
ENDMDL
