MODEL 1
REMARK VINA RESULT:    -5.978      0.000      0.000
REMARK INTER + INTRA:         -11.071
REMARK INTER:                  -9.123
REMARK INTRA:                  -1.948
REMARK UNBOUND:                -1.948
REMARK SMILES CC(=O)CCC=C(C)CCC=C(C)CCC=C(C)C
REMARK SMILES IDX 10 1 11 2 12 3 13 4 14 5 15 6 16 7 18 8 17 9 19 10 9 11 7 12
REMARK SMILES IDX 6 13 8 14 5 15 4 16 2 17 3 18 1 19
REMARK H PARENT
REMARK Flexibility Score: inf
ROOT
ATOM      1  C   UNL     1      25.130  56.407  10.286  1.00  0.00     0.032 C 
ENDROOT
BRANCH   1   2
ATOM      2  C   UNL     1      25.442  55.435   9.172  1.00  0.00    -0.028 C 
ATOM      3  C   UNL     1      24.528  54.651   8.558  1.00  0.00    -0.077 C 
ATOM      4  C   UNL     1      23.080  54.625   8.987  1.00  0.00     0.039 C 
BRANCH   3   5
ATOM      5  C   UNL     1      24.974  53.764   7.415  1.00  0.00     0.034 C 
BRANCH   5   6
ATOM      6  C   UNL     1      25.196  52.325   7.893  1.00  0.00     0.032 C 
BRANCH   6   7
ATOM      7  C   UNL     1      26.604  52.128   8.401  1.00  0.00    -0.028 C 
ATOM      8  C   UNL     1      25.845  52.144  10.779  1.00  0.00     0.039 C 
ATOM      9  C   UNL     1      26.909  52.045   9.713  1.00  0.00    -0.080 C 
ATOM     10  C   UNL     1      28.350  51.849  10.111  1.00  0.00     0.039 C 
ENDBRANCH   6   7
ENDBRANCH   5   6
ENDBRANCH   3   5
ENDBRANCH   1   2
BRANCH   1  11
ATOM     11  C   UNL     1      25.295  55.766  11.671  1.00  0.00     0.034 C 
BRANCH  11  12
ATOM     12  C   UNL     1      26.624  56.129  12.302  1.00  0.00    -0.077 C 
ATOM     13  C   UNL     1      26.882  57.423  12.602  1.00  0.00    -0.028 C 
ATOM     14  C   UNL     1      27.648  55.039  12.510  1.00  0.00     0.039 C 
BRANCH  13  15
ATOM     15  C   UNL     1      28.161  57.913  13.236  1.00  0.00     0.035 C 
BRANCH  15  16
ATOM     16  C   UNL     1      29.047  58.613  12.198  1.00  0.00     0.079 C 
BRANCH  16  17
ATOM     17  C   UNL     1      30.133  57.752  11.583  1.00  0.00     0.130 C 
ATOM     18  O   UNL     1      31.255  57.828  12.060  1.00  0.00    -0.300 OA
ATOM     19  C   UNL     1      29.927  56.808  10.427  1.00  0.00     0.087 C 
ENDBRANCH  16  17
ENDBRANCH  15  16
ENDBRANCH  13  15
ENDBRANCH  11  12
ENDBRANCH   1  11
TORSDOF 9
ENDMDL
MODEL 2
REMARK VINA RESULT:    -5.973      1.479      3.752
REMARK INTER + INTRA:         -11.063
REMARK INTER:                  -9.309
REMARK INTRA:                  -1.754
REMARK UNBOUND:                -1.948
REMARK SMILES CC(=O)CCC=C(C)CCC=C(C)CCC=C(C)C
REMARK SMILES IDX 10 1 11 2 12 3 13 4 14 5 15 6 16 7 18 8 17 9 19 10 9 11 7 12
REMARK SMILES IDX 6 13 8 14 5 15 4 16 2 17 3 18 1 19
REMARK H PARENT
REMARK Flexibility Score: inf
ROOT
ATOM      1  C   UNL     1      28.474  52.021  10.959  1.00  0.00     0.032 C 
ENDROOT
BRANCH   1   2
ATOM      2  C   UNL     1      27.806  51.919   9.608  1.00  0.00    -0.028 C 
ATOM      3  C   UNL     1      26.469  51.901   9.410  1.00  0.00    -0.077 C 
ATOM      4  C   UNL     1      25.491  51.917  10.561  1.00  0.00     0.039 C 
BRANCH   3   5
ATOM      5  C   UNL     1      25.937  51.854   7.993  1.00  0.00     0.034 C 
BRANCH   5   6
ATOM      6  C   UNL     1      25.609  53.262   7.485  1.00  0.00     0.032 C 
BRANCH   6   7
ATOM      7  C   UNL     1      24.202  53.664   7.858  1.00  0.00    -0.028 C 
ATOM      8  C   UNL     1      25.022  55.506   9.329  1.00  0.00     0.039 C 
ATOM      9  C   UNL     1      23.925  54.684   8.697  1.00  0.00    -0.080 C 
ATOM     10  C   UNL     1      22.484  55.001   9.002  1.00  0.00     0.039 C 
ENDBRANCH   6   7
ENDBRANCH   5   6
ENDBRANCH   3   5
ENDBRANCH   1   2
BRANCH   1  11
ATOM     11  C   UNL     1      29.415  53.230  11.044  1.00  0.00     0.034 C 
BRANCH  11  12
ATOM     12  C   UNL     1      28.651  54.525  11.231  1.00  0.00    -0.077 C 
ATOM     13  C   UNL     1      29.107  55.653  10.640  1.00  0.00    -0.028 C 
ATOM     14  C   UNL     1      27.441  54.528  12.134  1.00  0.00     0.039 C 
BRANCH  13  15
ATOM     15  C   UNL     1      28.437  57.002  10.741  1.00  0.00     0.035 C 
BRANCH  15  16
ATOM     16  C   UNL     1      29.029  57.814  11.899  1.00  0.00     0.079 C 
BRANCH  16  17
ATOM     17  C   UNL     1      28.045  58.229  12.975  1.00  0.00     0.130 C 
ATOM     18  O   UNL     1      26.874  57.911  12.825  1.00  0.00    -0.300 OA
ATOM     19  C   UNL     1      28.405  59.004  14.216  1.00  0.00     0.087 C 
ENDBRANCH  16  17
ENDBRANCH  15  16
ENDBRANCH  13  15
ENDBRANCH  11  12
ENDBRANCH   1  11
TORSDOF 9
ENDMDL
MODEL 3
REMARK VINA RESULT:    -5.964      7.438      9.233
REMARK INTER + INTRA:         -11.050
REMARK INTER:                  -9.721
REMARK INTRA:                  -1.329
REMARK UNBOUND:                -1.948
REMARK SMILES CC(=O)CCC=C(C)CCC=C(C)CCC=C(C)C
REMARK SMILES IDX 10 1 11 2 12 3 13 4 14 5 15 6 16 7 18 8 17 9 19 10 9 11 7 12
REMARK SMILES IDX 6 13 8 14 5 15 4 16 2 17 3 18 1 19
REMARK H PARENT
REMARK Flexibility Score: inf
ROOT
ATOM      1  C   UNL     1      27.030  53.341  16.697  1.00  0.00     0.032 C 
ENDROOT
BRANCH   1   2
ATOM      2  C   UNL     1      27.788  52.034  16.667  1.00  0.00    -0.028 C 
ATOM      3  C   UNL     1      29.129  51.926  16.534  1.00  0.00    -0.077 C 
ATOM      4  C   UNL     1      30.011  53.135  16.331  1.00  0.00     0.039 C 
BRANCH   3   5
ATOM      5  C   UNL     1      29.762  50.552  16.579  1.00  0.00     0.034 C 
BRANCH   5   6
ATOM      6  C   UNL     1      28.718  49.480  16.915  1.00  0.00     0.032 C 
BRANCH   6   7
ATOM      7  C   UNL     1      28.160  48.848  15.663  1.00  0.00    -0.028 C 
ATOM      8  C   UNL     1      30.019  47.184  15.568  1.00  0.00     0.039 C 
ATOM      9  C   UNL     1      28.746  47.802  15.042  1.00  0.00    -0.080 C 
ATOM     10  C   UNL     1      28.104  47.247  13.797  1.00  0.00     0.039 C 
ENDBRANCH   6   7
ENDBRANCH   5   6
ENDBRANCH   3   5
ENDBRANCH   1   2
BRANCH   1  11
ATOM     11  C   UNL     1      26.992  53.951  18.105  1.00  0.00     0.034 C 
BRANCH  11  12
ATOM     12  C   UNL     1      25.767  53.503  18.878  1.00  0.00    -0.077 C 
ATOM     13  C   UNL     1      24.630  53.215  18.205  1.00  0.00    -0.028 C 
ATOM     14  C   UNL     1      25.838  53.463  20.385  1.00  0.00     0.039 C 
BRANCH  13  15
ATOM     15  C   UNL     1      23.347  52.754  18.854  1.00  0.00     0.035 C 
BRANCH  15  16
ATOM     16  C   UNL     1      23.078  51.279  18.531  1.00  0.00     0.079 C 
BRANCH  16  17
ATOM     17  C   UNL     1      24.260  50.347  18.708  1.00  0.00     0.130 C 
ATOM     18  O   UNL     1      24.637  50.119  19.848  1.00  0.00    -0.300 OA
ATOM     19  C   UNL     1      25.003  49.680  17.580  1.00  0.00     0.087 C 
ENDBRANCH  16  17
ENDBRANCH  15  16
ENDBRANCH  13  15
ENDBRANCH  11  12
ENDBRANCH   1  11
TORSDOF 9
ENDMDL
MODEL 4
REMARK VINA RESULT:    -5.955      6.915      9.329
REMARK INTER + INTRA:         -11.037
REMARK INTER:                  -9.469
REMARK INTRA:                  -1.567
REMARK UNBOUND:                -1.948
REMARK SMILES CC(=O)CCC=C(C)CCC=C(C)CCC=C(C)C
REMARK SMILES IDX 10 1 11 2 12 3 13 4 14 5 15 6 16 7 18 8 17 9 19 10 9 11 7 12
REMARK SMILES IDX 6 13 8 14 5 15 4 16 2 17 3 18 1 19
REMARK H PARENT
REMARK Flexibility Score: inf
ROOT
ATOM      1  C   UNL     1      26.935  53.998  16.333  1.00  0.00     0.032 C 
ENDROOT
BRANCH   1   2
ATOM      2  C   UNL     1      25.850  53.881  17.377  1.00  0.00    -0.028 C 
ATOM      3  C   UNL     1      26.026  54.110  18.698  1.00  0.00    -0.077 C 
ATOM      4  C   UNL     1      27.379  54.448  19.276  1.00  0.00     0.039 C 
BRANCH   3   5
ATOM      5  C   UNL     1      24.832  54.012  19.624  1.00  0.00     0.034 C 
BRANCH   5   6
ATOM      6  C   UNL     1      24.810  52.660  20.346  1.00  0.00     0.032 C 
BRANCH   6   7
ATOM      7  C   UNL     1      25.217  51.539  19.421  1.00  0.00    -0.028 C 
ATOM      8  C   UNL     1      22.867  51.200  18.651  1.00  0.00     0.039 C 
ATOM      9  C   UNL     1      24.340  50.868  18.646  1.00  0.00    -0.080 C 
ATOM     10  C   UNL     1      24.854  49.764  17.758  1.00  0.00     0.039 C 
ENDBRANCH   6   7
ENDBRANCH   5   6
ENDBRANCH   3   5
ENDBRANCH   1   2
BRANCH   1  11
ATOM     11  C   UNL     1      26.851  52.876  15.289  1.00  0.00     0.034 C 
BRANCH  11  12
ATOM     12  C   UNL     1      28.053  51.955  15.357  1.00  0.00    -0.077 C 
ATOM     13  C   UNL     1      28.341  51.328  16.521  1.00  0.00    -0.028 C 
ATOM     14  C   UNL     1      28.933  51.823  14.138  1.00  0.00     0.039 C 
BRANCH  13  15
ATOM     15  C   UNL     1      29.501  50.384  16.718  1.00  0.00     0.035 C 
BRANCH  15  16
ATOM     16  C   UNL     1      29.000  48.954  16.958  1.00  0.00     0.079 C 
BRANCH  16  17
ATOM     17  C   UNL     1      28.992  48.053  15.739  1.00  0.00     0.130 C 
ATOM     18  O   UNL     1      29.877  47.217  15.646  1.00  0.00    -0.300 OA
ATOM     19  C   UNL     1      27.969  48.115  14.634  1.00  0.00     0.087 C 
ENDBRANCH  16  17
ENDBRANCH  15  16
ENDBRANCH  13  15
ENDBRANCH  11  12
ENDBRANCH   1  11
TORSDOF 9
ENDMDL
MODEL 5
REMARK VINA RESULT:    -5.920      3.065      6.476
REMARK INTER + INTRA:         -10.983
REMARK INTER:                  -9.053
REMARK INTRA:                  -1.931
REMARK UNBOUND:                -1.948
REMARK SMILES CC(=O)CCC=C(C)CCC=C(C)CCC=C(C)C
REMARK SMILES IDX 10 1 11 2 12 3 13 4 14 5 15 6 16 7 18 8 17 9 19 10 9 11 7 12
REMARK SMILES IDX 6 13 8 14 5 15 4 16 2 17 3 18 1 19
REMARK H PARENT
REMARK Flexibility Score: inf
ROOT
ATOM      1  C   UNL     1      24.511  54.867   6.648  1.00  0.00     0.032 C 
ENDROOT
BRANCH   1   2
ATOM      2  C   UNL     1      24.945  55.597   7.897  1.00  0.00    -0.028 C 
ATOM      3  C   UNL     1      24.189  55.734   9.009  1.00  0.00    -0.077 C 
ATOM      4  C   UNL     1      22.774  55.212   9.083  1.00  0.00     0.039 C 
BRANCH   3   5
ATOM      5  C   UNL     1      24.776  56.443  10.211  1.00  0.00     0.034 C 
BRANCH   5   6
ATOM      6  C   UNL     1      25.750  55.529  10.963  1.00  0.00     0.032 C 
BRANCH   6   7
ATOM      7  C   UNL     1      27.175  55.770  10.525  1.00  0.00    -0.028 C 
ATOM      8  C   UNL     1      27.540  57.457  12.328  1.00  0.00     0.039 C 
ATOM      9  C   UNL     1      27.997  56.646  11.140  1.00  0.00    -0.080 C 
ATOM     10  C   UNL     1      29.402  56.808  10.620  1.00  0.00     0.039 C 
ENDBRANCH   6   7
ENDBRANCH   5   6
ENDBRANCH   3   5
ENDBRANCH   1   2
BRANCH   1  11
ATOM     11  C   UNL     1      25.333  53.593   6.412  1.00  0.00     0.034 C 
BRANCH  11  12
ATOM     12  C   UNL     1      25.075  52.552   7.482  1.00  0.00    -0.077 C 
ATOM     13  C   UNL     1      23.818  52.085   7.660  1.00  0.00    -0.028 C 
ATOM     14  C   UNL     1      26.221  52.123   8.365  1.00  0.00     0.039 C 
BRANCH  13  15
ATOM     15  C   UNL     1      23.430  51.046   8.684  1.00  0.00     0.035 C 
BRANCH  15  16
ATOM     16  C   UNL     1      22.138  51.451   9.404  1.00  0.00     0.079 C 
BRANCH  16  17
ATOM     17  C   UNL     1      22.324  52.094  10.764  1.00  0.00     0.130 C 
ATOM     18  O   UNL     1      21.320  52.387  11.395  1.00  0.00    -0.300 OA
ATOM     19  C   UNL     1      23.659  52.397  11.394  1.00  0.00     0.087 C 
ENDBRANCH  16  17
ENDBRANCH  15  16
ENDBRANCH  13  15
ENDBRANCH  11  12
ENDBRANCH   1  11
TORSDOF 9
ENDMDL
MODEL 6
REMARK VINA RESULT:    -5.896      2.287      6.360
REMARK INTER + INTRA:         -10.946
REMARK INTER:                  -9.389
REMARK INTRA:                  -1.558
REMARK UNBOUND:                -1.948
REMARK SMILES CC(=O)CCC=C(C)CCC=C(C)CCC=C(C)C
REMARK SMILES IDX 10 1 11 2 12 3 13 4 14 5 15 6 16 7 18 8 17 9 19 10 9 11 7 12
REMARK SMILES IDX 6 13 8 14 5 15 4 16 2 17 3 18 1 19
REMARK H PARENT
REMARK Flexibility Score: inf
ROOT
ATOM      1  C   UNL     1      27.050  53.177  11.302  1.00  0.00     0.032 C 
ENDROOT
BRANCH   1   2
ATOM      2  C   UNL     1      27.855  54.432  11.056  1.00  0.00    -0.028 C 
ATOM      3  C   UNL     1      29.205  54.499  11.095  1.00  0.00    -0.077 C 
ATOM      4  C   UNL     1      30.053  53.305  11.462  1.00  0.00     0.039 C 
BRANCH   3   5
ATOM      5  C   UNL     1      29.883  55.813  10.770  1.00  0.00     0.034 C 
BRANCH   5   6
ATOM      6  C   UNL     1      28.859  56.950  10.685  1.00  0.00     0.032 C 
BRANCH   6   7
ATOM      7  C   UNL     1      29.008  57.908  11.843  1.00  0.00    -0.028 C 
ATOM      8  C   UNL     1      26.764  57.297  12.752  1.00  0.00     0.039 C 
ATOM      9  C   UNL     1      28.059  58.073  12.789  1.00  0.00    -0.080 C 
ATOM     10  C   UNL     1      28.310  59.056  13.903  1.00  0.00     0.039 C 
ENDBRANCH   6   7
ENDBRANCH   5   6
ENDBRANCH   3   5
ENDBRANCH   1   2
BRANCH   1  11
ATOM     11  C   UNL     1      27.064  52.238  10.088  1.00  0.00     0.034 C 
BRANCH  11  12
ATOM     12  C   UNL     1      25.830  52.415   9.227  1.00  0.00    -0.077 C 
ATOM     13  C   UNL     1      24.684  52.856   9.796  1.00  0.00    -0.028 C 
ATOM     14  C   UNL     1      25.901  52.022   7.771  1.00  0.00     0.039 C 
BRANCH  13  15
ATOM     15  C   UNL     1      23.391  53.080   9.050  1.00  0.00     0.035 C 
BRANCH  15  16
ATOM     16  C   UNL     1      23.011  54.566   9.059  1.00  0.00     0.079 C 
BRANCH  16  17
ATOM     17  C   UNL     1      24.153  55.531   8.811  1.00  0.00     0.130 C 
ATOM     18  O   UNL     1      24.578  55.625   7.669  1.00  0.00    -0.300 OA
ATOM     19  C   UNL     1      24.801  56.385   9.870  1.00  0.00     0.087 C 
ENDBRANCH  16  17
ENDBRANCH  15  16
ENDBRANCH  13  15
ENDBRANCH  11  12
ENDBRANCH   1  11
TORSDOF 9
ENDMDL
MODEL 7
REMARK VINA RESULT:    -5.883      7.159      8.980
REMARK INTER + INTRA:         -10.926
REMARK INTER:                  -9.405
REMARK INTRA:                  -1.521
REMARK UNBOUND:                -1.948
REMARK SMILES CC(=O)CCC=C(C)CCC=C(C)CCC=C(C)C
REMARK SMILES IDX 10 1 11 2 12 3 13 4 14 5 15 6 16 7 18 8 17 9 19 10 9 11 7 12
REMARK SMILES IDX 6 13 8 14 5 15 4 16 2 17 3 18 1 19
REMARK H PARENT
REMARK Flexibility Score: inf
ROOT
ATOM      1  C   UNL     1      27.806  52.924  16.273  1.00  0.00     0.032 C 
ENDROOT
BRANCH   1   2
ATOM      2  C   UNL     1      28.609  51.730  16.736  1.00  0.00    -0.028 C 
ATOM      3  C   UNL     1      29.673  51.218  16.078  1.00  0.00    -0.077 C 
ATOM      4  C   UNL     1      30.130  51.768  14.747  1.00  0.00     0.039 C 
BRANCH   3   5
ATOM      5  C   UNL     1      30.421  50.052  16.689  1.00  0.00     0.034 C 
BRANCH   5   6
ATOM      6  C   UNL     1      29.486  48.857  16.908  1.00  0.00     0.032 C 
BRANCH   6   7
ATOM      7  C   UNL     1      29.406  47.991  15.674  1.00  0.00    -0.028 C 
ATOM      8  C   UNL     1      27.110  48.812  15.137  1.00  0.00     0.039 C 
ATOM      9  C   UNL     1      28.329  47.963  14.862  1.00  0.00    -0.080 C 
ATOM     10  C   UNL     1      28.354  47.061  13.655  1.00  0.00     0.039 C 
ENDBRANCH   6   7
ENDBRANCH   5   6
ENDBRANCH   3   5
ENDBRANCH   1   2
BRANCH   1  11
ATOM     11  C   UNL     1      27.689  53.995  17.365  1.00  0.00     0.034 C 
BRANCH  11  12
ATOM     12  C   UNL     1      26.275  54.099  17.901  1.00  0.00    -0.077 C 
ATOM     13  C   UNL     1      26.077  54.159  19.238  1.00  0.00    -0.028 C 
ATOM     14  C   UNL     1      25.126  54.057  16.922  1.00  0.00     0.039 C 
BRANCH  13  15
ATOM     15  C   UNL     1      24.724  54.270  19.896  1.00  0.00     0.035 C 
BRANCH  15  16
ATOM     16  C   UNL     1      24.349  52.953  20.587  1.00  0.00     0.079 C 
BRANCH  16  17
ATOM     17  C   UNL     1      24.178  51.761  19.667  1.00  0.00     0.130 C 
ATOM     18  O   UNL     1      25.058  50.913  19.669  1.00  0.00    -0.300 OA
ATOM     19  C   UNL     1      23.001  51.545  18.751  1.00  0.00     0.087 C 
ENDBRANCH  16  17
ENDBRANCH  15  16
ENDBRANCH  13  15
ENDBRANCH  11  12
ENDBRANCH   1  11
TORSDOF 9
ENDMDL
MODEL 8
REMARK VINA RESULT:    -5.846      6.754      9.309
REMARK INTER + INTRA:         -10.870
REMARK INTER:                  -9.236
REMARK INTRA:                  -1.635
REMARK UNBOUND:                -1.948
REMARK SMILES CC(=O)CCC=C(C)CCC=C(C)CCC=C(C)C
REMARK SMILES IDX 10 1 11 2 12 3 13 4 14 5 15 6 16 7 18 8 17 9 19 10 9 11 7 12
REMARK SMILES IDX 6 13 8 14 5 15 4 16 2 17 3 18 1 19
REMARK H PARENT
REMARK Flexibility Score: inf
ROOT
ATOM      1  C   UNL     1      25.309  49.760  17.092  1.00  0.00     0.032 C 
ENDROOT
BRANCH   1   2
ATOM      2  C   UNL     1      25.633  50.685  18.241  1.00  0.00    -0.028 C 
ATOM      3  C   UNL     1      24.778  51.595  18.760  1.00  0.00    -0.077 C 
ATOM      4  C   UNL     1      23.403  51.822  18.179  1.00  0.00     0.039 C 
BRANCH   3   5
ATOM      5  C   UNL     1      25.219  52.418  19.953  1.00  0.00     0.034 C 
BRANCH   5   6
ATOM      6  C   UNL     1      25.496  53.869  19.544  1.00  0.00     0.032 C 
BRANCH   6   7
ATOM      7  C   UNL     1      26.913  54.037  19.050  1.00  0.00    -0.028 C 
ATOM      8  C   UNL     1      26.184  53.972  16.663  1.00  0.00     0.039 C 
ATOM      9  C   UNL     1      27.236  54.084  17.741  1.00  0.00    -0.080 C 
ATOM     10  C   UNL     1      28.683  54.255  17.357  1.00  0.00     0.039 C 
ENDBRANCH   6   7
ENDBRANCH   5   6
ENDBRANCH   3   5
ENDBRANCH   1   2
BRANCH   1  11
ATOM     11  C   UNL     1      25.656  50.386  15.735  1.00  0.00     0.034 C 
BRANCH  11  12
ATOM     12  C   UNL     1      27.154  50.518  15.544  1.00  0.00    -0.077 C 
ATOM     13  C   UNL     1      27.954  50.597  16.632  1.00  0.00    -0.028 C 
ATOM     14  C   UNL     1      27.697  50.632  14.140  1.00  0.00     0.039 C 
BRANCH  13  15
ATOM     15  C   UNL     1      29.457  50.724  16.579  1.00  0.00     0.035 C 
BRANCH  15  16
ATOM     16  C   UNL     1      30.127  49.432  17.064  1.00  0.00     0.079 C 
BRANCH  16  17
ATOM     17  C   UNL     1      30.520  48.454  15.975  1.00  0.00     0.130 C 
ATOM     18  O   UNL     1      31.656  48.527  15.530  1.00  0.00    -0.300 OA
ATOM     19  C   UNL     1      29.612  47.396  15.403  1.00  0.00     0.087 C 
ENDBRANCH  16  17
ENDBRANCH  15  16
ENDBRANCH  13  15
ENDBRANCH  11  12
ENDBRANCH   1  11
TORSDOF 9
ENDMDL
MODEL 9
REMARK VINA RESULT:    -5.802      2.880      7.006
REMARK INTER + INTRA:         -10.803
REMARK INTER:                  -9.112
REMARK INTRA:                  -1.691
REMARK UNBOUND:                -1.948
REMARK SMILES CC(=O)CCC=C(C)CCC=C(C)CCC=C(C)C
REMARK SMILES IDX 10 1 11 2 12 3 13 4 14 5 15 6 16 7 18 8 17 9 19 10 9 11 7 12
REMARK SMILES IDX 6 13 8 14 5 15 4 16 2 17 3 18 1 19
REMARK H PARENT
REMARK Flexibility Score: inf
ROOT
ATOM      1  C   UNL     1      28.868  52.097  11.100  1.00  0.00     0.032 C 
ENDROOT
BRANCH   1   2
ATOM      2  C   UNL     1      29.355  53.457  10.659  1.00  0.00    -0.028 C 
ATOM      3  C   UNL     1      29.716  54.454  11.499  1.00  0.00    -0.077 C 
ATOM      4  C   UNL     1      29.597  54.317  12.998  1.00  0.00     0.039 C 
BRANCH   3   5
ATOM      5  C   UNL     1      30.242  55.748  10.917  1.00  0.00     0.034 C 
BRANCH   5   6
ATOM      6  C   UNL     1      29.100  56.738  10.663  1.00  0.00     0.032 C 
BRANCH   6   7
ATOM      7  C   UNL     1      29.049  57.801  11.734  1.00  0.00    -0.028 C 
ATOM      8  C   UNL     1      26.937  56.869  12.685  1.00  0.00     0.039 C 
ATOM      9  C   UNL     1      28.068  57.869  12.658  1.00  0.00    -0.080 C 
ATOM     10  C   UNL     1      28.114  58.973  13.684  1.00  0.00     0.039 C 
ENDBRANCH   6   7
ENDBRANCH   5   6
ENDBRANCH   3   5
ENDBRANCH   1   2
BRANCH   1  11
ATOM     11  C   UNL     1      27.354  52.084  11.356  1.00  0.00     0.034 C 
BRANCH  11  12
ATOM     12  C   UNL     1      26.583  52.675  10.193  1.00  0.00    -0.077 C 
ATOM     13  C   UNL     1      26.429  51.946   9.064  1.00  0.00    -0.028 C 
ATOM     14  C   UNL     1      26.074  54.091  10.307  1.00  0.00     0.039 C 
BRANCH  13  15
ATOM     15  C   UNL     1      25.680  52.414   7.840  1.00  0.00     0.035 C 
BRANCH  15  16
ATOM     16  C   UNL     1      24.327  51.700   7.727  1.00  0.00     0.079 C 
BRANCH  16  17
ATOM     17  C   UNL     1      23.232  52.232   8.629  1.00  0.00     0.130 C 
ATOM     18  O   UNL     1      22.627  51.428   9.323  1.00  0.00    -0.300 OA
ATOM     19  C   UNL     1      22.835  53.682   8.733  1.00  0.00     0.087 C 
ENDBRANCH  16  17
ENDBRANCH  15  16
ENDBRANCH  13  15
ENDBRANCH  11  12
ENDBRANCH   1  11
TORSDOF 9
ENDMDL
