MODEL 1
REMARK VINA RESULT:    -5.560      0.000      0.000
REMARK INTER + INTRA:          -6.902
REMARK INTER:                  -6.698
REMARK INTRA:                  -0.204
REMARK UNBOUND:                -0.204
REMARK SMILES O=c1c(O)c(-c2ccc(O)c(O)c2)oc2cc(O)cc(O)c12
REMARK SMILES IDX 5 1 3 2 2 3 1 4 22 5 20 6 19 7 17 8 16 9 15 10 14 11 6 12
REMARK SMILES IDX 7 13 8 14 9 15 13 16 11 17 10 18 12 20 4 22 21 24 18 26
REMARK H PARENT 10 19 12 21 4 23 21 25 18 27
REMARK Flexibility Score: inf
ROOT
ATOM      1  C   UNL     1      21.442   6.324   5.868  1.00  0.00     0.180 A 
ATOM      2  C   UNL     1      20.169   6.850   6.146  1.00  0.00     0.208 A 
ATOM      3  C   UNL     1      19.363   6.214   7.104  1.00  0.00     0.238 A 
ATOM      4  O   UNL     1      18.247   6.722   7.387  1.00  0.00    -0.285 OA
ATOM      5  C   UNL     1      19.834   5.051   7.761  1.00  0.00     0.111 A 
ATOM      6  C   UNL     1      19.086   4.304   8.720  1.00  0.00     0.134 A 
ATOM      7  C   UNL     1      19.701   3.246   9.400  1.00  0.00     0.093 A 
ATOM      8  C   UNL     1      21.015   2.868   9.111  1.00  0.00     0.123 A 
ATOM      9  C   UNL     1      21.732   3.555   8.135  1.00  0.00     0.094 A 
ATOM     10  C   UNL     1      21.158   4.638   7.463  1.00  0.00     0.146 A 
ATOM     11  O   UNL     1      21.881   5.271   6.548  1.00  0.00    -0.452 OA
ENDROOT
BRANCH   1  12
ATOM     12  C   UNL     1      22.338   6.923   4.853  1.00  0.00     0.025 A 
ATOM     13  C   UNL     1      22.562   6.247   3.643  1.00  0.00     0.016 A 
ATOM     14  C   UNL     1      23.388   6.804   2.664  1.00  0.00     0.051 A 
ATOM     15  C   UNL     1      23.990   8.049   2.870  1.00  0.00     0.157 A 
ATOM     16  C   UNL     1      22.928   8.185   5.051  1.00  0.00     0.062 A 
ATOM     17  C   UNL     1      23.756   8.746   4.067  1.00  0.00     0.158 A 
BRANCH  15  18
ATOM     18  O   UNL     1      24.810   8.579   1.876  1.00  0.00    -0.504 OA
ATOM     19  H   UNL     1      24.436   8.952   1.011  1.00  0.00     0.293 HD
ENDBRANCH  15  18
BRANCH  17  20
ATOM     20  O   UNL     1      24.341   9.995   4.274  1.00  0.00    -0.504 OA
ATOM     21  H   UNL     1      24.806  10.226   5.144  1.00  0.00     0.293 HD
ENDBRANCH  17  20
ENDBRANCH   1  12
BRANCH   2  22
ATOM     22  O   UNL     1      19.733   8.012   5.502  1.00  0.00    -0.502 OA
ATOM     23  H   UNL     1      18.921   8.532   5.811  1.00  0.00     0.293 HD
ENDBRANCH   2  22
BRANCH   6  24
ATOM     24  O   UNL     1      17.741   4.539   9.015  1.00  0.00    -0.507 OA
ATOM     25  H   UNL     1      17.321   5.453   9.094  1.00  0.00     0.293 HD
ENDBRANCH   6  24
BRANCH   8  26
ATOM     26  O   UNL     1      21.612   1.804   9.784  1.00  0.00    -0.508 OA
ATOM     27  H   UNL     1      22.603   1.799   9.993  1.00  0.00     0.293 HD
ENDBRANCH   8  26
TORSDOF 6
ENDMDL
MODEL 2
REMARK VINA RESULT:    -5.383      3.805      7.017
REMARK INTER + INTRA:          -6.689
REMARK INTER:                  -6.522
REMARK INTRA:                  -0.166
REMARK UNBOUND:                -0.204
REMARK SMILES O=c1c(O)c(-c2ccc(O)c(O)c2)oc2cc(O)cc(O)c12
REMARK SMILES IDX 5 1 3 2 2 3 1 4 22 5 20 6 19 7 17 8 16 9 15 10 14 11 6 12
REMARK SMILES IDX 7 13 8 14 9 15 13 16 11 17 10 18 12 20 4 22 21 24 18 26
REMARK H PARENT 10 19 12 21 4 23 21 25 18 27
REMARK Flexibility Score: inf
ROOT
ATOM      1  C   UNL     1      19.202   4.666   7.164  1.00  0.00     0.180 A 
ATOM      2  C   UNL     1      19.024   3.763   6.102  1.00  0.00     0.208 A 
ATOM      3  C   UNL     1      18.534   4.241   4.876  1.00  0.00     0.238 A 
ATOM      4  O   UNL     1      18.428   3.438   3.914  1.00  0.00    -0.285 OA
ATOM      5  C   UNL     1      18.214   5.613   4.732  1.00  0.00     0.111 A 
ATOM      6  C   UNL     1      17.673   6.198   3.548  1.00  0.00     0.134 A 
ATOM      7  C   UNL     1      17.517   7.588   3.475  1.00  0.00     0.093 A 
ATOM      8  C   UNL     1      17.821   8.406   4.566  1.00  0.00     0.123 A 
ATOM      9  C   UNL     1      18.293   7.837   5.747  1.00  0.00     0.094 A 
ATOM     10  C   UNL     1      18.493   6.457   5.838  1.00  0.00     0.146 A 
ATOM     11  O   UNL     1      18.955   5.958   6.977  1.00  0.00    -0.452 OA
ENDROOT
BRANCH   1  12
ATOM     12  C   UNL     1      19.690   4.233   8.493  1.00  0.00     0.025 A 
ATOM     13  C   UNL     1      18.824   4.285   9.598  1.00  0.00     0.016 A 
ATOM     14  C   UNL     1      19.258   3.863  10.857  1.00  0.00     0.051 A 
ATOM     15  C   UNL     1      20.554   3.369  11.030  1.00  0.00     0.157 A 
ATOM     16  C   UNL     1      20.987   3.717   8.665  1.00  0.00     0.062 A 
ATOM     17  C   UNL     1      21.423   3.291   9.928  1.00  0.00     0.158 A 
BRANCH  15  18
ATOM     18  O   UNL     1      20.959   2.956  12.298  1.00  0.00    -0.504 OA
ATOM     19  H   UNL     1      21.936   2.913  12.564  1.00  0.00     0.293 HD
ENDBRANCH  15  18
BRANCH  17  20
ATOM     20  O   UNL     1      22.712   2.786  10.091  1.00  0.00    -0.504 OA
ATOM     21  H   UNL     1      23.327   2.633   9.299  1.00  0.00     0.293 HD
ENDBRANCH  17  20
ENDBRANCH   1  12
BRANCH   2  22
ATOM     22  O   UNL     1      19.368   2.417   6.259  1.00  0.00    -0.502 OA
ATOM     23  H   UNL     1      19.698   2.040   7.139  1.00  0.00     0.293 HD
ENDBRANCH   2  22
BRANCH   6  24
ATOM     24  O   UNL     1      17.252   5.463   2.437  1.00  0.00    -0.507 OA
ATOM     25  H   UNL     1      16.420   4.893   2.406  1.00  0.00     0.293 HD
ENDBRANCH   6  24
BRANCH   8  26
ATOM     26  O   UNL     1      17.648   9.786   4.489  1.00  0.00    -0.508 OA
ATOM     27  H   UNL     1      17.052  10.283   5.140  1.00  0.00     0.293 HD
ENDBRANCH   8  26
TORSDOF 6
ENDMDL
MODEL 3
REMARK VINA RESULT:    -5.366      3.079      7.626
REMARK INTER + INTRA:          -6.668
REMARK INTER:                  -6.349
REMARK INTRA:                  -0.319
REMARK UNBOUND:                -0.204
REMARK SMILES O=c1c(O)c(-c2ccc(O)c(O)c2)oc2cc(O)cc(O)c12
REMARK SMILES IDX 5 1 3 2 2 3 1 4 22 5 20 6 19 7 17 8 16 9 15 10 14 11 6 12
REMARK SMILES IDX 7 13 8 14 9 15 13 16 11 17 10 18 12 20 4 22 21 24 18 26
REMARK H PARENT 10 19 12 21 4 23 21 25 18 27
REMARK Flexibility Score: inf
ROOT
ATOM      1  C   UNL     1      18.601   4.975   9.466  1.00  0.00     0.180 A 
ATOM      2  C   UNL     1      19.525   4.031   9.944  1.00  0.00     0.208 A 
ATOM      3  C   UNL     1      20.506   3.534   9.071  1.00  0.00     0.238 A 
ATOM      4  O   UNL     1      21.363   2.730   9.520  1.00  0.00    -0.285 OA
ATOM      5  C   UNL     1      20.540   3.975   7.726  1.00  0.00     0.111 A 
ATOM      6  C   UNL     1      21.465   3.509   6.744  1.00  0.00     0.134 A 
ATOM      7  C   UNL     1      21.490   4.110   5.480  1.00  0.00     0.093 A 
ATOM      8  C   UNL     1      20.582   5.117   5.142  1.00  0.00     0.123 A 
ATOM      9  C   UNL     1      19.637   5.538   6.075  1.00  0.00     0.094 A 
ATOM     10  C   UNL     1      19.610   4.981   7.356  1.00  0.00     0.146 A 
ATOM     11  O   UNL     1      18.701   5.419   8.218  1.00  0.00    -0.452 OA
ENDROOT
BRANCH   1  12
ATOM     12  C   UNL     1      17.523   5.526  10.319  1.00  0.00     0.025 A 
ATOM     13  C   UNL     1      16.319   4.817  10.456  1.00  0.00     0.016 A 
ATOM     14  C   UNL     1      15.297   5.308  11.271  1.00  0.00     0.051 A 
ATOM     15  C   UNL     1      15.466   6.505  11.974  1.00  0.00     0.157 A 
ATOM     16  C   UNL     1      17.700   6.719  11.042  1.00  0.00     0.062 A 
ATOM     17  C   UNL     1      16.675   7.213  11.863  1.00  0.00     0.158 A 
BRANCH  15  18
ATOM     18  O   UNL     1      14.428   6.971  12.779  1.00  0.00    -0.504 OA
ATOM     19  H   UNL     1      13.688   6.364  13.110  1.00  0.00     0.293 HD
ENDBRANCH  15  18
BRANCH  17  20
ATOM     20  O   UNL     1      16.856   8.399  12.572  1.00  0.00    -0.504 OA
ATOM     21  H   UNL     1      17.154   8.399  13.541  1.00  0.00     0.293 HD
ENDBRANCH  17  20
ENDBRANCH   1  12
BRANCH   2  22
ATOM     22  O   UNL     1      19.487   3.626  11.282  1.00  0.00    -0.502 OA
ATOM     23  H   UNL     1      19.466   4.286  12.049  1.00  0.00     0.293 HD
ENDBRANCH   2  22
BRANCH   6  24
ATOM     24  O   UNL     1      22.351   2.448   6.949  1.00  0.00    -0.507 OA
ATOM     25  H   UNL     1      22.805   1.927   6.213  1.00  0.00     0.293 HD
ENDBRANCH   6  24
BRANCH   8  26
ATOM     26  O   UNL     1      20.606   5.699   3.876  1.00  0.00    -0.508 OA
ATOM     27  H   UNL     1      19.971   6.447   3.625  1.00  0.00     0.293 HD
ENDBRANCH   8  26
TORSDOF 6
ENDMDL
MODEL 4
REMARK VINA RESULT:    -5.352      2.353      7.251
REMARK INTER + INTRA:          -6.650
REMARK INTER:                  -6.397
REMARK INTRA:                  -0.253
REMARK UNBOUND:                -0.204
REMARK SMILES O=c1c(O)c(-c2ccc(O)c(O)c2)oc2cc(O)cc(O)c12
REMARK SMILES IDX 5 1 3 2 2 3 1 4 22 5 20 6 19 7 17 8 16 9 15 10 14 11 6 12
REMARK SMILES IDX 7 13 8 14 9 15 13 16 11 17 10 18 12 20 4 22 21 24 18 26
REMARK H PARENT 10 19 12 21 4 23 21 25 18 27
REMARK Flexibility Score: inf
ROOT
ATOM      1  C   UNL     1      19.402   4.568   8.761  1.00  0.00     0.180 A 
ATOM      2  C   UNL     1      18.566   5.684   8.584  1.00  0.00     0.208 A 
ATOM      3  C   UNL     1      18.798   6.545   7.498  1.00  0.00     0.238 A 
ATOM      4  O   UNL     1      18.014   7.511   7.315  1.00  0.00    -0.285 OA
ATOM      5  C   UNL     1      19.872   6.286   6.612  1.00  0.00     0.111 A 
ATOM      6  C   UNL     1      20.223   7.113   5.503  1.00  0.00     0.134 A 
ATOM      7  C   UNL     1      21.223   6.691   4.618  1.00  0.00     0.093 A 
ATOM      8  C   UNL     1      21.927   5.505   4.838  1.00  0.00     0.123 A 
ATOM      9  C   UNL     1      21.632   4.721   5.951  1.00  0.00     0.094 A 
ATOM     10  C   UNL     1      20.615   5.098   6.833  1.00  0.00     0.146 A 
ATOM     11  O   UNL     1      20.359   4.317   7.875  1.00  0.00    -0.452 OA
ENDROOT
BRANCH   1  12
ATOM     12  C   UNL     1      19.236   3.631   9.895  1.00  0.00     0.025 A 
ATOM     13  C   UNL     1      18.190   2.693   9.870  1.00  0.00     0.016 A 
ATOM     14  C   UNL     1      18.028   1.787  10.920  1.00  0.00     0.051 A 
ATOM     15  C   UNL     1      18.913   1.791  12.002  1.00  0.00     0.157 A 
ATOM     16  C   UNL     1      20.138   3.620  10.974  1.00  0.00     0.062 A 
ATOM     17  C   UNL     1      19.977   2.709  12.028  1.00  0.00     0.158 A 
BRANCH  15  18
ATOM     18  O   UNL     1      18.725   0.875  13.036  1.00  0.00    -0.504 OA
ATOM     19  H   UNL     1      18.049   1.028  13.774  1.00  0.00     0.293 HD
ENDBRANCH  15  18
BRANCH  17  20
ATOM     20  O   UNL     1      20.872   2.709  13.097  1.00  0.00    -0.504 OA
ATOM     21  H   UNL     1      21.009   1.888  13.676  1.00  0.00     0.293 HD
ENDBRANCH  17  20
ENDBRANCH   1  12
BRANCH   2  22
ATOM     22  O   UNL     1      17.498   5.908   9.458  1.00  0.00    -0.502 OA
ATOM     23  H   UNL     1      16.536   5.731   9.197  1.00  0.00     0.293 HD
ENDBRANCH   2  22
BRANCH   6  24
ATOM     24  O   UNL     1      19.645   8.359   5.245  1.00  0.00    -0.507 OA
ATOM     25  H   UNL     1      19.747   8.872   4.382  1.00  0.00     0.293 HD
ENDBRANCH   6  24
BRANCH   8  26
ATOM     26  O   UNL     1      22.931   5.101   3.960  1.00  0.00    -0.508 OA
ATOM     27  H   UNL     1      23.120   5.607   3.103  1.00  0.00     0.293 HD
ENDBRANCH   8  26
TORSDOF 6
ENDMDL
MODEL 5
REMARK VINA RESULT:    -5.351      2.487      3.266
REMARK INTER + INTRA:          -6.650
REMARK INTER:                  -6.455
REMARK INTRA:                  -0.194
REMARK UNBOUND:                -0.204
REMARK SMILES O=c1c(O)c(-c2ccc(O)c(O)c2)oc2cc(O)cc(O)c12
REMARK SMILES IDX 5 1 3 2 2 3 1 4 22 5 20 6 19 7 17 8 16 9 15 10 14 11 6 12
REMARK SMILES IDX 7 13 8 14 9 15 13 16 11 17 10 18 12 20 4 22 21 24 18 26
REMARK H PARENT 10 19 12 21 4 23 21 25 18 27
REMARK Flexibility Score: inf
ROOT
ATOM      1  C   UNL     1      21.134   5.021   5.391  1.00  0.00     0.180 A 
ATOM      2  C   UNL     1      21.370   4.598   6.711  1.00  0.00     0.208 A 
ATOM      3  C   UNL     1      20.464   3.712   7.315  1.00  0.00     0.238 A 
ATOM      4  O   UNL     1      20.710   3.296   8.476  1.00  0.00    -0.285 OA
ATOM      5  C   UNL     1      19.325   3.272   6.597  1.00  0.00     0.111 A 
ATOM      6  C   UNL     1      18.321   2.405   7.124  1.00  0.00     0.134 A 
ATOM      7  C   UNL     1      17.307   1.932   6.282  1.00  0.00     0.093 A 
ATOM      8  C   UNL     1      17.225   2.344   4.950  1.00  0.00     0.123 A 
ATOM      9  C   UNL     1      18.167   3.236   4.443  1.00  0.00     0.094 A 
ATOM     10  C   UNL     1      19.211   3.699   5.248  1.00  0.00     0.146 A 
ATOM     11  O   UNL     1      20.093   4.539   4.722  1.00  0.00    -0.452 OA
ENDROOT
BRANCH   1  12
ATOM     12  C   UNL     1      22.030   5.974   4.697  1.00  0.00     0.025 A 
ATOM     13  C   UNL     1      22.711   5.564   3.539  1.00  0.00     0.016 A 
ATOM     14  C   UNL     1      23.545   6.453   2.857  1.00  0.00     0.051 A 
ATOM     15  C   UNL     1      23.701   7.766   3.309  1.00  0.00     0.157 A 
ATOM     16  C   UNL     1      22.172   7.302   5.139  1.00  0.00     0.062 A 
ATOM     17  C   UNL     1      23.008   8.196   4.454  1.00  0.00     0.158 A 
BRANCH  15  18
ATOM     18  O   UNL     1      24.541   8.630   2.609  1.00  0.00    -0.504 OA
ATOM     19  H   UNL     1      25.238   9.200   3.075  1.00  0.00     0.293 HD
ENDBRANCH  15  18
BRANCH  17  20
ATOM     20  O   UNL     1      23.146   9.508   4.902  1.00  0.00    -0.504 OA
ATOM     21  H   UNL     1      23.778   9.748   5.658  1.00  0.00     0.293 HD
ENDBRANCH  17  20
ENDBRANCH   1  12
BRANCH   2  22
ATOM     22  O   UNL     1      22.512   5.028   7.392  1.00  0.00    -0.502 OA
ATOM     23  H   UNL     1      23.446   4.744   7.122  1.00  0.00     0.293 HD
ENDBRANCH   2  22
BRANCH   6  24
ATOM     24  O   UNL     1      18.259   2.007   8.462  1.00  0.00    -0.507 OA
ATOM     25  H   UNL     1      18.125   1.056   8.774  1.00  0.00     0.293 HD
ENDBRANCH   6  24
BRANCH   8  26
ATOM     26  O   UNL     1      16.204   1.879   4.124  1.00  0.00    -0.508 OA
ATOM     27  H   UNL     1      16.398   1.486   3.211  1.00  0.00     0.293 HD
ENDBRANCH   8  26
TORSDOF 6
ENDMDL
MODEL 6
REMARK VINA RESULT:    -5.150      2.016      3.410
REMARK INTER + INTRA:          -6.407
REMARK INTER:                  -6.689
REMARK INTRA:                   0.281
REMARK UNBOUND:                -0.204
REMARK SMILES O=c1c(O)c(-c2ccc(O)c(O)c2)oc2cc(O)cc(O)c12
REMARK SMILES IDX 5 1 3 2 2 3 1 4 22 5 20 6 19 7 17 8 16 9 15 10 14 11 6 12
REMARK SMILES IDX 7 13 8 14 9 15 13 16 11 17 10 18 12 20 4 22 21 24 18 26
REMARK H PARENT 10 19 12 21 4 23 21 25 18 27
REMARK Flexibility Score: inf
ROOT
ATOM      1  C   UNL     1      22.526   6.968   4.349  1.00  0.00     0.180 A 
ATOM      2  C   UNL     1      22.541   5.605   4.008  1.00  0.00     0.208 A 
ATOM      3  C   UNL     1      21.615   4.741   4.615  1.00  0.00     0.238 A 
ATOM      4  O   UNL     1      21.597   3.533   4.265  1.00  0.00    -0.285 OA
ATOM      5  C   UNL     1      20.696   5.248   5.565  1.00  0.00     0.111 A 
ATOM      6  C   UNL     1      19.741   4.457   6.271  1.00  0.00     0.134 A 
ATOM      7  C   UNL     1      18.796   5.085   7.092  1.00  0.00     0.093 A 
ATOM      8  C   UNL     1      18.813   6.469   7.282  1.00  0.00     0.123 A 
ATOM      9  C   UNL     1      19.780   7.243   6.644  1.00  0.00     0.094 A 
ATOM     10  C   UNL     1      20.713   6.649   5.791  1.00  0.00     0.146 A 
ATOM     11  O   UNL     1      21.610   7.425   5.194  1.00  0.00    -0.452 OA
ENDROOT
BRANCH   1  12
ATOM     12  C   UNL     1      23.487   7.935   3.771  1.00  0.00     0.025 A 
ATOM     13  C   UNL     1      23.922   7.771   2.446  1.00  0.00     0.016 A 
ATOM     14  C   UNL     1      24.812   8.682   1.875  1.00  0.00     0.051 A 
ATOM     15  C   UNL     1      25.271   9.779   2.610  1.00  0.00     0.157 A 
ATOM     16  C   UNL     1      23.933   9.050   4.503  1.00  0.00     0.062 A 
ATOM     17  C   UNL     1      24.826   9.968   3.930  1.00  0.00     0.158 A 
BRANCH  15  18
ATOM     18  O   UNL     1      26.160  10.672   2.014  1.00  0.00    -0.504 OA
ATOM     19  H   UNL     1      26.077  10.947   1.043  1.00  0.00     0.293 HD
ENDBRANCH  15  18
BRANCH  17  20
ATOM     20  O   UNL     1      25.267  11.068   4.665  1.00  0.00    -0.504 OA
ATOM     21  H   UNL     1      25.734  11.851   4.221  1.00  0.00     0.293 HD
ENDBRANCH  17  20
ENDBRANCH   1  12
BRANCH   2  22
ATOM     22  O   UNL     1      23.441   5.130   3.050  1.00  0.00    -0.502 OA
ATOM     23  H   UNL     1      23.500   4.151   2.798  1.00  0.00     0.293 HD
ENDBRANCH   2  22
BRANCH   6  24
ATOM     24  O   UNL     1      19.696   3.061   6.223  1.00  0.00    -0.507 OA
ATOM     25  H   UNL     1      18.991   2.524   5.740  1.00  0.00     0.293 HD
ENDBRANCH   6  24
BRANCH   8  26
ATOM     26  O   UNL     1      17.878   7.083   8.113  1.00  0.00    -0.508 OA
ATOM     27  H   UNL     1      17.031   7.496   7.743  1.00  0.00     0.293 HD
ENDBRANCH   8  26
TORSDOF 6
ENDMDL
MODEL 7
REMARK VINA RESULT:    -5.118      2.296      7.614
REMARK INTER + INTRA:          -6.369
REMARK INTER:                  -6.648
REMARK INTRA:                   0.279
REMARK UNBOUND:                -0.204
REMARK SMILES O=c1c(O)c(-c2ccc(O)c(O)c2)oc2cc(O)cc(O)c12
REMARK SMILES IDX 5 1 3 2 2 3 1 4 22 5 20 6 19 7 17 8 16 9 15 10 14 11 6 12
REMARK SMILES IDX 7 13 8 14 9 15 13 16 11 17 10 18 12 20 4 22 21 24 18 26
REMARK H PARENT 10 19 12 21 4 23 21 25 18 27
REMARK Flexibility Score: inf
ROOT
ATOM      1  C   UNL     1      19.184   4.685   7.890  1.00  0.00     0.180 A 
ATOM      2  C   UNL     1      19.786   3.541   7.338  1.00  0.00     0.208 A 
ATOM      3  C   UNL     1      20.800   3.700   6.379  1.00  0.00     0.238 A 
ATOM      4  O   UNL     1      21.371   2.673   5.929  1.00  0.00    -0.285 OA
ATOM      5  C   UNL     1      21.190   4.999   5.975  1.00  0.00     0.111 A 
ATOM      6  C   UNL     1      22.179   5.277   4.983  1.00  0.00     0.134 A 
ATOM      7  C   UNL     1      22.576   6.600   4.756  1.00  0.00     0.093 A 
ATOM      8  C   UNL     1      21.975   7.661   5.439  1.00  0.00     0.123 A 
ATOM      9  C   UNL     1      20.967   7.404   6.366  1.00  0.00     0.094 A 
ATOM     10  C   UNL     1      20.574   6.091   6.640  1.00  0.00     0.146 A 
ATOM     11  O   UNL     1      19.618   5.891   7.538  1.00  0.00    -0.452 OA
ENDROOT
BRANCH   1  12
ATOM     12  C   UNL     1      18.092   4.599   8.885  1.00  0.00     0.025 A 
ATOM     13  C   UNL     1      17.882   5.664   9.776  1.00  0.00     0.016 A 
ATOM     14  C   UNL     1      16.844   5.612  10.709  1.00  0.00     0.051 A 
ATOM     15  C   UNL     1      15.992   4.505  10.759  1.00  0.00     0.157 A 
ATOM     16  C   UNL     1      17.221   3.495   8.923  1.00  0.00     0.062 A 
ATOM     17  C   UNL     1      16.177   3.442   9.858  1.00  0.00     0.158 A 
BRANCH  15  18
ATOM     18  O   UNL     1      14.966   4.480  11.702  1.00  0.00    -0.504 OA
ATOM     19  H   UNL     1      14.923   5.141  12.469  1.00  0.00     0.293 HD
ENDBRANCH  15  18
BRANCH  17  20
ATOM     20  O   UNL     1      15.322   2.341   9.892  1.00  0.00    -0.504 OA
ATOM     21  H   UNL     1      15.490   1.521   9.322  1.00  0.00     0.293 HD
ENDBRANCH  17  20
ENDBRANCH   1  12
BRANCH   2  22
ATOM     22  O   UNL     1      19.401   2.268   7.768  1.00  0.00    -0.502 OA
ATOM     23  H   UNL     1      19.751   1.854   8.623  1.00  0.00     0.293 HD
ENDBRANCH   2  22
BRANCH   6  24
ATOM     24  O   UNL     1      22.774   4.299   4.182  1.00  0.00    -0.507 OA
ATOM     25  H   UNL     1      22.383   3.943   3.322  1.00  0.00     0.293 HD
ENDBRANCH   6  24
BRANCH   8  26
ATOM     26  O   UNL     1      22.366   8.975   5.196  1.00  0.00    -0.508 OA
ATOM     27  H   UNL     1      23.028   9.451   5.796  1.00  0.00     0.293 HD
ENDBRANCH   8  26
TORSDOF 6
ENDMDL
MODEL 8
REMARK VINA RESULT:    -5.008      1.544      3.213
REMARK INTER + INTRA:          -6.237
REMARK INTER:                  -6.222
REMARK INTRA:                  -0.015
REMARK UNBOUND:                -0.204
REMARK SMILES O=c1c(O)c(-c2ccc(O)c(O)c2)oc2cc(O)cc(O)c12
REMARK SMILES IDX 5 1 3 2 2 3 1 4 22 5 20 6 19 7 17 8 16 9 15 10 14 11 6 12
REMARK SMILES IDX 7 13 8 14 9 15 13 16 11 17 10 18 12 20 4 22 21 24 18 26
REMARK H PARENT 10 19 12 21 4 23 21 25 18 27
REMARK Flexibility Score: inf
ROOT
ATOM      1  C   UNL     1      21.057   4.809   6.644  1.00  0.00     0.180 A 
ATOM      2  C   UNL     1      21.474   3.524   7.033  1.00  0.00     0.208 A 
ATOM      3  C   UNL     1      20.821   2.890   8.103  1.00  0.00     0.238 A 
ATOM      4  O   UNL     1      21.163   1.720   8.410  1.00  0.00    -0.285 OA
ATOM      5  C   UNL     1      19.770   3.556   8.780  1.00  0.00     0.111 A 
ATOM      6  C   UNL     1      19.066   3.024   9.902  1.00  0.00     0.134 A 
ATOM      7  C   UNL     1      17.959   3.714  10.411  1.00  0.00     0.093 A 
ATOM      8  C   UNL     1      17.571   4.946   9.880  1.00  0.00     0.123 A 
ATOM      9  C   UNL     1      18.288   5.501   8.823  1.00  0.00     0.094 A 
ATOM     10  C   UNL     1      19.376   4.820   8.270  1.00  0.00     0.146 A 
ATOM     11  O   UNL     1      20.025   5.379   7.257  1.00  0.00    -0.452 OA
ENDROOT
BRANCH   1  12
ATOM     12  C   UNL     1      21.712   5.551   5.543  1.00  0.00     0.025 A 
ATOM     13  C   UNL     1      21.815   4.957   4.275  1.00  0.00     0.016 A 
ATOM     14  C   UNL     1      22.412   5.647   3.217  1.00  0.00     0.051 A 
ATOM     15  C   UNL     1      22.900   6.944   3.404  1.00  0.00     0.157 A 
ATOM     16  C   UNL     1      22.185   6.863   5.724  1.00  0.00     0.062 A 
ATOM     17  C   UNL     1      22.783   7.558   4.662  1.00  0.00     0.158 A 
BRANCH  15  18
ATOM     18  O   UNL     1      23.491   7.607   2.330  1.00  0.00    -0.504 OA
ATOM     19  H   UNL     1      23.716   8.595   2.364  1.00  0.00     0.293 HD
ENDBRANCH  15  18
BRANCH  17  20
ATOM     20  O   UNL     1      23.254   8.856   4.852  1.00  0.00    -0.504 OA
ATOM     21  H   UNL     1      24.074   9.200   4.365  1.00  0.00     0.293 HD
ENDBRANCH  17  20
ENDBRANCH   1  12
BRANCH   2  22
ATOM     22  O   UNL     1      22.498   2.877   6.336  1.00  0.00    -0.502 OA
ATOM     23  H   UNL     1      22.329   2.348   5.489  1.00  0.00     0.293 HD
ENDBRANCH   2  22
BRANCH   6  24
ATOM     24  O   UNL     1      19.428   1.848  10.565  1.00  0.00    -0.507 OA
ATOM     25  H   UNL     1      19.242   0.916  10.226  1.00  0.00     0.293 HD
ENDBRANCH   6  24
BRANCH   8  26
ATOM     26  O   UNL     1      16.477   5.632  10.403  1.00  0.00    -0.508 OA
ATOM     27  H   UNL     1      16.533   6.614  10.646  1.00  0.00     0.293 HD
ENDBRANCH   8  26
TORSDOF 6
ENDMDL
