MODEL 1
REMARK VINA RESULT:    -4.931      0.000      0.000
REMARK INTER + INTRA:          -7.135
REMARK INTER:                  -6.949
REMARK INTRA:                  -0.186
REMARK UNBOUND:                -0.186
REMARK SMILES C=CCCCCCCC(=O)[O-]
REMARK SMILES IDX 6 1 7 2 8 3 9 4 10 5 11 6 5 7 4 8 3 9 2 10 1 11
REMARK H PARENT
REMARK Flexibility Score: inf
ROOT
ATOM      1  C   UNL     1      27.600 135.908 354.454  1.00  0.00     0.000 C 
ENDROOT
BRANCH   1   2
ATOM      2  C   UNL     1      28.856 135.023 354.432  1.00  0.00     0.006 C 
BRANCH   2   3
ATOM      3  C   UNL     1      29.925 135.537 353.459  1.00  0.00     0.053 C 
BRANCH   3   4
ATOM      4  C   UNL     1      30.560 134.395 352.731  1.00  0.00     0.041 C 
ATOM      5  O   UNL     1      30.513 134.341 351.473  1.00  0.00    -0.550 OA
ATOM      6  O   UNL     1      31.246 133.415 353.436  1.00  0.00    -0.550 OA
ENDBRANCH   3   4
ENDBRANCH   2   3
ENDBRANCH   1   2
BRANCH   1   7
ATOM      7  C   UNL     1      26.727 135.730 353.199  1.00  0.00     0.000 C 
BRANCH   7   8
ATOM      8  C   UNL     1      25.304 136.295 353.387  1.00  0.00     0.004 C 
BRANCH   8   9
ATOM      9  C   UNL     1      25.101 137.669 352.732  1.00  0.00     0.027 C 
BRANCH   9  10
ATOM     10  C   UNL     1      23.864 138.358 353.237  1.00  0.00    -0.035 C 
ATOM     11  C   UNL     1      23.820 139.681 353.426  1.00  0.00     0.004 C 
ENDBRANCH   9  10
ENDBRANCH   8   9
ENDBRANCH   7   8
ENDBRANCH   1   7
TORSDOF 7
ENDMDL
MODEL 2
REMARK VINA RESULT:    -4.875      3.366      6.218
REMARK INTER + INTRA:          -7.055
REMARK INTER:                  -6.672
REMARK INTRA:                  -0.383
REMARK UNBOUND:                -0.186
REMARK SMILES C=CCCCCCCC(=O)[O-]
REMARK SMILES IDX 6 1 7 2 8 3 9 4 10 5 11 6 5 7 4 8 3 9 2 10 1 11
REMARK H PARENT
REMARK Flexibility Score: inf
ROOT
ATOM      1  C   UNL     1      26.921 135.285 352.760  1.00  0.00     0.000 C 
ENDROOT
BRANCH   1   2
ATOM      2  C   UNL     1      25.694 136.083 352.292  1.00  0.00     0.006 C 
BRANCH   2   3
ATOM      3  C   UNL     1      25.153 137.026 353.375  1.00  0.00     0.053 C 
BRANCH   3   4
ATOM      4  C   UNL     1      24.727 138.326 352.768  1.00  0.00     0.041 C 
ATOM      5  O   UNL     1      25.081 138.626 351.597  1.00  0.00    -0.550 OA
ATOM      6  O   UNL     1      23.897 139.185 353.477  1.00  0.00    -0.550 OA
ENDBRANCH   3   4
ENDBRANCH   2   3
ENDBRANCH   1   2
BRANCH   1   7
ATOM      7  C   UNL     1      27.397 135.698 354.165  1.00  0.00     0.000 C 
BRANCH   7   8
ATOM      8  C   UNL     1      28.804 135.159 354.491  1.00  0.00     0.004 C 
BRANCH   8   9
ATOM      9  C   UNL     1      29.883 135.631 353.505  1.00  0.00     0.027 C 
BRANCH   9  10
ATOM     10  C   UNL     1      30.761 134.501 353.044  1.00  0.00    -0.035 C 
ATOM     11  C   UNL     1      30.900 133.379 353.757  1.00  0.00     0.004 C 
ENDBRANCH   9  10
ENDBRANCH   8   9
ENDBRANCH   7   8
ENDBRANCH   1   7
TORSDOF 7
ENDMDL
MODEL 3
REMARK VINA RESULT:    -4.814      1.454      2.299
REMARK INTER + INTRA:          -6.969
REMARK INTER:                  -6.597
REMARK INTRA:                  -0.372
REMARK UNBOUND:                -0.186
REMARK SMILES C=CCCCCCCC(=O)[O-]
REMARK SMILES IDX 6 1 7 2 8 3 9 4 10 5 11 6 5 7 4 8 3 9 2 10 1 11
REMARK H PARENT
REMARK Flexibility Score: inf
ROOT
ATOM      1  C   UNL     1      28.912 134.987 354.378  1.00  0.00     0.000 C 
ENDROOT
BRANCH   1   2
ATOM      2  C   UNL     1      30.033 135.458 353.439  1.00  0.00     0.006 C 
BRANCH   2   3
ATOM      3  C   UNL     1      29.991 134.763 352.072  1.00  0.00     0.053 C 
BRANCH   3   4
ATOM      4  C   UNL     1      31.085 133.748 351.969  1.00  0.00     0.041 C 
ATOM      5  O   UNL     1      31.526 133.183 353.005  1.00  0.00    -0.550 OA
ATOM      6  O   UNL     1      31.586 133.388 350.724  1.00  0.00    -0.550 OA
ENDBRANCH   3   4
ENDBRANCH   2   3
ENDBRANCH   1   2
BRANCH   1   7
ATOM      7  C   UNL     1      27.752 135.995 354.469  1.00  0.00     0.000 C 
BRANCH   7   8
ATOM      8  C   UNL     1      26.548 135.586 353.595  1.00  0.00     0.004 C 
BRANCH   8   9
ATOM      9  C   UNL     1      25.623 136.760 353.242  1.00  0.00     0.027 C 
BRANCH   9  10
ATOM     10  C   UNL     1      25.259 136.774 351.784  1.00  0.00    -0.035 C 
ATOM     11  C   UNL     1      25.872 135.985 350.896  1.00  0.00     0.004 C 
ENDBRANCH   9  10
ENDBRANCH   8   9
ENDBRANCH   7   8
ENDBRANCH   1   7
TORSDOF 7
ENDMDL
MODEL 4
REMARK VINA RESULT:    -4.768      8.544     11.584
REMARK INTER + INTRA:          -6.905
REMARK INTER:                  -6.552
REMARK INTRA:                  -0.353
REMARK UNBOUND:                -0.186
REMARK SMILES C=CCCCCCCC(=O)[O-]
REMARK SMILES IDX 6 1 7 2 8 3 9 4 10 5 11 6 5 7 4 8 3 9 2 10 1 11
REMARK H PARENT
REMARK Flexibility Score: inf
ROOT
ATOM      1  C   UNL     1      20.604 142.525 354.150  1.00  0.00     0.000 C 
ENDROOT
BRANCH   1   2
ATOM      2  C   UNL     1      19.383 143.279 354.700  1.00  0.00     0.006 C 
BRANCH   2   3
ATOM      3  C   UNL     1      18.096 142.966 353.926  1.00  0.00     0.053 C 
BRANCH   3   4
ATOM      4  C   UNL     1      17.604 144.186 353.215  1.00  0.00     0.041 C 
ATOM      5  O   UNL     1      17.840 144.342 351.987  1.00  0.00    -0.550 OA
ATOM      6  O   UNL     1      16.843 145.129 353.894  1.00  0.00    -0.550 OA
ENDBRANCH   3   4
ENDBRANCH   2   3
ENDBRANCH   1   2
BRANCH   1   7
ATOM      7  C   UNL     1      21.137 143.135 352.840  1.00  0.00     0.000 C 
BRANCH   7   8
ATOM      8  C   UNL     1      22.593 142.718 352.548  1.00  0.00     0.004 C 
BRANCH   8   9
ATOM      9  C   UNL     1      23.091 141.572 353.440  1.00  0.00     0.027 C 
BRANCH   9  10
ATOM     10  C   UNL     1      23.173 140.270 352.693  1.00  0.00    -0.035 C 
ATOM     11  C   UNL     1      23.511 139.128 353.300  1.00  0.00     0.004 C 
ENDBRANCH   9  10
ENDBRANCH   8   9
ENDBRANCH   7   8
ENDBRANCH   1   7
TORSDOF 7
ENDMDL
MODEL 5
REMARK VINA RESULT:    -4.635      4.142      6.549
REMARK INTER + INTRA:          -6.717
REMARK INTER:                  -6.385
REMARK INTRA:                  -0.332
REMARK UNBOUND:                -0.186
REMARK SMILES C=CCCCCCCC(=O)[O-]
REMARK SMILES IDX 6 1 7 2 8 3 9 4 10 5 11 6 5 7 4 8 3 9 2 10 1 11
REMARK H PARENT
REMARK Flexibility Score: inf
ROOT
ATOM      1  C   UNL     1      25.459 136.075 352.528  1.00  0.00     0.000 C 
ENDROOT
BRANCH   1   2
ATOM      2  C   UNL     1      25.312 137.502 353.079  1.00  0.00     0.006 C 
BRANCH   2   3
ATOM      3  C   UNL     1      23.859 137.860 353.417  1.00  0.00     0.053 C 
BRANCH   3   4
ATOM      4  C   UNL     1      23.524 139.223 352.899  1.00  0.00     0.041 C 
ATOM      5  O   UNL     1      22.976 139.357 351.773  1.00  0.00    -0.550 OA
ATOM      6  O   UNL     1      23.772 140.344 353.681  1.00  0.00    -0.550 OA
ENDBRANCH   3   4
ENDBRANCH   2   3
ENDBRANCH   1   2
BRANCH   1   7
ATOM      7  C   UNL     1      26.823 135.446 352.866  1.00  0.00     0.000 C 
BRANCH   7   8
ATOM      8  C   UNL     1      27.271 135.753 354.310  1.00  0.00     0.004 C 
BRANCH   8   9
ATOM      9  C   UNL     1      28.714 135.320 354.607  1.00  0.00     0.027 C 
BRANCH   9  10
ATOM     10  C   UNL     1      29.573 135.333 353.373  1.00  0.00    -0.035 C 
ATOM     11  C   UNL     1      30.587 134.478 353.210  1.00  0.00     0.004 C 
ENDBRANCH   9  10
ENDBRANCH   8   9
ENDBRANCH   7   8
ENDBRANCH   1   7
TORSDOF 7
ENDMDL
MODEL 6
REMARK VINA RESULT:    -4.632      3.043      5.398
REMARK INTER + INTRA:          -6.714
REMARK INTER:                  -6.176
REMARK INTRA:                  -0.537
REMARK UNBOUND:                -0.186
REMARK SMILES C=CCCCCCCC(=O)[O-]
REMARK SMILES IDX 6 1 7 2 8 3 9 4 10 5 11 6 5 7 4 8 3 9 2 10 1 11
REMARK H PARENT
REMARK Flexibility Score: inf
ROOT
ATOM      1  C   UNL     1      26.617 135.537 353.724  1.00  0.00     0.000 C 
ENDROOT
BRANCH   1   2
ATOM      2  C   UNL     1      25.876 136.747 353.135  1.00  0.00     0.006 C 
BRANCH   2   3
ATOM      3  C   UNL     1      24.676 136.342 352.270  1.00  0.00     0.053 C 
BRANCH   3   4
ATOM      4  C   UNL     1      25.110 136.092 350.860  1.00  0.00     0.041 C 
ATOM      5  O   UNL     1      24.638 135.119 350.214  1.00  0.00    -0.550 OA
ATOM      6  O   UNL     1      25.998 136.962 350.241  1.00  0.00    -0.550 OA
ENDBRANCH   3   4
ENDBRANCH   2   3
ENDBRANCH   1   2
BRANCH   1   7
ATOM      7  C   UNL     1      27.860 135.941 354.538  1.00  0.00     0.000 C 
BRANCH   7   8
ATOM      8  C   UNL     1      29.077 135.042 354.238  1.00  0.00     0.004 C 
BRANCH   8   9
ATOM      9  C   UNL     1      30.045 135.647 353.210  1.00  0.00     0.027 C 
BRANCH   9  10
ATOM     10  C   UNL     1      29.978 134.936 351.886  1.00  0.00    -0.035 C 
ATOM     11  C   UNL     1      29.072 135.257 350.958  1.00  0.00     0.004 C 
ENDBRANCH   9  10
ENDBRANCH   8   9
ENDBRANCH   7   8
ENDBRANCH   1   7
TORSDOF 7
ENDMDL
MODEL 7
REMARK VINA RESULT:    -4.622      3.573      6.035
REMARK INTER + INTRA:          -6.699
REMARK INTER:                  -6.372
REMARK INTRA:                  -0.328
REMARK UNBOUND:                -0.186
REMARK SMILES C=CCCCCCCC(=O)[O-]
REMARK SMILES IDX 6 1 7 2 8 3 9 4 10 5 11 6 5 7 4 8 3 9 2 10 1 11
REMARK H PARENT
REMARK Flexibility Score: inf
ROOT
ATOM      1  C   UNL     1      26.094 136.176 353.309  1.00  0.00     0.000 C 
ENDROOT
BRANCH   1   2
ATOM      2  C   UNL     1      26.317 135.592 351.906  1.00  0.00     0.006 C 
BRANCH   2   3
ATOM      3  C   UNL     1      25.616 136.404 350.808  1.00  0.00     0.053 C 
BRANCH   3   4
ATOM      4  C   UNL     1      24.303 135.779 350.457  1.00  0.00     0.041 C 
ATOM      5  O   UNL     1      24.263 134.769 349.705  1.00  0.00    -0.550 OA
ATOM      6  O   UNL     1      23.126 136.280 350.999  1.00  0.00    -0.550 OA
ENDBRANCH   3   4
ENDBRANCH   2   3
ENDBRANCH   1   2
BRANCH   1   7
ATOM      7  C   UNL     1      27.216 135.799 354.294  1.00  0.00     0.000 C 
BRANCH   7   8
ATOM      8  C   UNL     1      28.308 134.931 353.636  1.00  0.00     0.004 C 
BRANCH   8   9
ATOM      9  C   UNL     1      29.684 135.611 353.590  1.00  0.00     0.027 C 
BRANCH   9  10
ATOM     10  C   UNL     1      30.769 134.661 353.163  1.00  0.00    -0.035 C 
ATOM     11  C   UNL     1      30.900 133.448 353.708  1.00  0.00     0.004 C 
ENDBRANCH   9  10
ENDBRANCH   8   9
ENDBRANCH   7   8
ENDBRANCH   1   7
TORSDOF 7
ENDMDL
MODEL 8
REMARK VINA RESULT:    -4.566      5.409      8.286
REMARK INTER + INTRA:          -6.620
REMARK INTER:                  -6.374
REMARK INTRA:                  -0.246
REMARK UNBOUND:                -0.186
REMARK SMILES C=CCCCCCCC(=O)[O-]
REMARK SMILES IDX 6 1 7 2 8 3 9 4 10 5 11 6 5 7 4 8 3 9 2 10 1 11
REMARK H PARENT
REMARK Flexibility Score: inf
ROOT
ATOM      1  C   UNL     1      22.426 142.416 353.174  1.00  0.00     0.000 C 
ENDROOT
BRANCH   1   2
ATOM      2  C   UNL     1      22.625 140.892 353.158  1.00  0.00     0.006 C 
BRANCH   2   3
ATOM      3  C   UNL     1      24.060 140.479 353.511  1.00  0.00     0.053 C 
BRANCH   3   4
ATOM      4  C   UNL     1      24.519 139.374 352.613  1.00  0.00     0.041 C 
ATOM      5  O   UNL     1      24.873 138.267 353.100  1.00  0.00    -0.550 OA
ATOM      6  O   UNL     1      24.511 139.548 351.235  1.00  0.00    -0.550 OA
ENDBRANCH   3   4
ENDBRANCH   2   3
ENDBRANCH   1   2
BRANCH   1   7
ATOM      7  C   UNL     1      20.951 142.823 353.009  1.00  0.00     0.000 C 
BRANCH   7   8
ATOM      8  C   UNL     1      20.233 142.997 354.363  1.00  0.00     0.004 C 
BRANCH   8   9
ATOM      9  C   UNL     1      18.727 142.704 354.299  1.00  0.00     0.027 C 
BRANCH   9  10
ATOM     10  C   UNL     1      18.031 143.548 353.267  1.00  0.00    -0.035 C 
ATOM     11  C   UNL     1      17.279 144.600 353.606  1.00  0.00     0.004 C 
ENDBRANCH   9  10
ENDBRANCH   8   9
ENDBRANCH   7   8
ENDBRANCH   1   7
TORSDOF 7
ENDMDL
MODEL 9
REMARK VINA RESULT:    -4.532     12.999     14.943
REMARK INTER + INTRA:          -6.573
REMARK INTER:                  -6.241
REMARK INTRA:                  -0.332
REMARK UNBOUND:                -0.186
REMARK SMILES C=CCCCCCCC(=O)[O-]
REMARK SMILES IDX 6 1 7 2 8 3 9 4 10 5 11 6 5 7 4 8 3 9 2 10 1 11
REMARK H PARENT
REMARK Flexibility Score: inf
ROOT
ATOM      1  C   UNL     1      19.366 138.275 341.711  1.00  0.00     0.000 C 
ENDROOT
BRANCH   1   2
ATOM      2  C   UNL     1      17.886 138.649 341.536  1.00  0.00     0.006 C 
BRANCH   2   3
ATOM      3  C   UNL     1      17.462 139.821 342.430  1.00  0.00     0.053 C 
BRANCH   3   4
ATOM      4  C   UNL     1      16.276 139.442 343.260  1.00  0.00     0.041 C 
ATOM      5  O   UNL     1      16.400 139.269 344.501  1.00  0.00    -0.550 OA
ATOM      6  O   UNL     1      15.023 139.328 342.671  1.00  0.00    -0.550 OA
ENDBRANCH   3   4
ENDBRANCH   2   3
ENDBRANCH   1   2
BRANCH   1   7
ATOM      7  C   UNL     1      19.696 137.816 343.143  1.00  0.00     0.000 C 
BRANCH   7   8
ATOM      8  C   UNL     1      21.159 137.349 343.289  1.00  0.00     0.004 C 
BRANCH   8   9
ATOM      9  C   UNL     1      22.118 138.027 342.299  1.00  0.00     0.027 C 
BRANCH   9  10
ATOM     10  C   UNL     1      23.006 139.035 342.973  1.00  0.00    -0.035 C 
ATOM     11  C   UNL     1      24.187 139.392 342.459  1.00  0.00     0.004 C 
ENDBRANCH   9  10
ENDBRANCH   8   9
ENDBRANCH   7   8
ENDBRANCH   1   7
TORSDOF 7
ENDMDL
