MODEL 1
REMARK VINA RESULT:    -6.037      0.000      0.000
REMARK INTER + INTRA:         -10.548
REMARK INTER:                  -9.037
REMARK INTRA:                  -1.511
REMARK UNBOUND:                -1.511
REMARK SMILES C=C(CC[C@H](C(=O)[O-])[C@@H]1[C@@H](O)C[C@@]2(C)C3=C(CC[C@]12C)[C@@]1(C)CC[C@@H](OC(C)=O)C(C)(C)[C@H]1CC3)C(C)C
REMARK SMILES IDX 4 1 5 2 6 3 7 4 8 5 9 6 10 7 19 8 12 9 13 10 18 11 20 12
REMARK SMILES IDX 14 13 15 14 17 15 16 16 35 17 21 18 34 19 33 20 23 21 22 22
REMARK SMILES IDX 30 23 24 24 25 25 31 26 32 27 11 28 26 30 27 31 29 32 28 33
REMARK SMILES IDX 3 34 2 35 1 36 36 37 37 38 38 39
REMARK H PARENT 11 29
REMARK Flexibility Score: inf
ROOT
ATOM      1  C   UNL     1      13.512  18.121  15.033  1.00  0.00     0.014 C 
ENDROOT
BRANCH   1   2
ATOM      2  C   UNL     1      12.227  17.264  14.864  1.00  0.00     0.042 C 
BRANCH   2   3
ATOM      3  C   UNL     1      12.619  15.806  14.866  1.00  0.00     0.045 C 
ATOM      4  O   UNL     1      13.367  15.333  13.969  1.00  0.00    -0.550 OA
ATOM      5  O   UNL     1      12.190  14.979  15.896  1.00  0.00    -0.550 OA
ENDBRANCH   2   3
BRANCH   2   6
ATOM      6  C   UNL     1      11.339  17.630  13.622  1.00  0.00     0.033 C 
ATOM      7  C   UNL     1      11.545  19.080  13.087  1.00  0.00     0.119 C 
ATOM      8  C   UNL     1       9.778  17.499  13.802  1.00  0.00    -0.017 C 
ATOM      9  C   UNL     1      10.146  19.690  12.889  1.00  0.00     0.043 C 
ATOM     10  C   UNL     1       9.276  18.967  13.922  1.00  0.00    -0.003 C 
ATOM     11  C   UNL     1       9.214  16.717  15.010  1.00  0.00     0.012 C 
ATOM     12  C   UNL     1       9.247  16.782  12.508  1.00  0.00     0.013 C 
ATOM     13  C   UNL     1       9.534  19.651  15.304  1.00  0.00     0.017 C 
ATOM     14  C   UNL     1       7.765  18.991  13.740  1.00  0.00    -0.064 C 
ATOM     15  C   UNL     1       7.669  16.880  15.140  1.00  0.00     0.032 C 
ATOM     16  C   UNL     1       7.000  18.053  14.380  1.00  0.00    -0.064 C 
ATOM     17  C   UNL     1       7.088  20.061  12.927  1.00  0.00     0.032 C 
ATOM     18  C   UNL     1       5.454  18.247  14.440  1.00  0.00    -0.008 C 
ATOM     19  C   UNL     1       5.974  19.404  12.129  1.00  0.00     0.009 C 
ATOM     20  C   UNL     1       4.860  18.791  13.047  1.00  0.00     0.009 C 
ATOM     21  C   UNL     1       5.217  19.232  15.623  1.00  0.00     0.015 C 
ATOM     22  C   UNL     1       4.781  16.886  14.784  1.00  0.00     0.016 C 
ATOM     23  C   UNL     1       3.498  19.640  13.142  1.00  0.00     0.005 C 
ATOM     24  C   UNL     1       3.810  19.813  15.684  1.00  0.00     0.047 C 
ATOM     25  C   UNL     1       3.471  20.568  14.392  1.00  0.00     0.182 C 
ATOM     26  C   UNL     1       2.260  18.691  13.180  1.00  0.00     0.015 C 
ATOM     27  C   UNL     1       3.249  20.527  11.887  1.00  0.00     0.015 C 
BRANCH   7  28
ATOM     28  O   UNL     1      12.254  19.064  11.875  1.00  0.00    -0.393 OA
ATOM     29  H   UNL     1      12.124  18.161  11.481  1.00  0.00     0.210 HD
ENDBRANCH   7  28
BRANCH  25  30
ATOM     30  O   UNL     1       4.382  21.657  14.217  1.00  0.00    -0.462 OA
BRANCH  30  31
ATOM     31  C   UNL     1       3.990  22.994  14.101  1.00  0.00     0.302 C 
ATOM     32  O   UNL     1       2.771  23.316  14.121  1.00  0.00    -0.253 OA
ATOM     33  C   UNL     1       5.027  24.043  13.884  1.00  0.00     0.139 C 
ENDBRANCH  30  31
ENDBRANCH  25  30
ENDBRANCH   2   6
ENDBRANCH   1   2
BRANCH   1  34
ATOM     34  C   UNL     1      14.222  17.998  16.406  1.00  0.00     0.031 C 
BRANCH  34  35
ATOM     35  C   UNL     1      15.726  17.854  16.254  1.00  0.00    -0.075 C 
ATOM     36  C   UNL     1      16.473  18.952  16.031  1.00  0.00     0.008 C 
BRANCH  35  37
ATOM     37  C   UNL     1      16.368  16.475  16.351  1.00  0.00     0.008 C 
ATOM     38  C   UNL     1      15.492  15.503  17.153  1.00  0.00     0.012 C 
ATOM     39  C   UNL     1      16.687  15.913  14.961  1.00  0.00     0.012 C 
ENDBRANCH  35  37
ENDBRANCH  34  35
ENDBRANCH   1  34
TORSDOF 9
ENDMDL
MODEL 2
REMARK VINA RESULT:    -6.023      3.551     10.689
REMARK INTER + INTRA:         -10.527
REMARK INTER:                  -8.998
REMARK INTRA:                  -1.530
REMARK UNBOUND:                -1.511
REMARK SMILES C=C(CC[C@H](C(=O)[O-])[C@@H]1[C@@H](O)C[C@@]2(C)C3=C(CC[C@]12C)[C@@]1(C)CC[C@@H](OC(C)=O)C(C)(C)[C@H]1CC3)C(C)C
REMARK SMILES IDX 4 1 5 2 6 3 7 4 8 5 9 6 10 7 19 8 12 9 13 10 18 11 20 12
REMARK SMILES IDX 14 13 15 14 17 15 16 16 35 17 21 18 34 19 33 20 23 21 22 22
REMARK SMILES IDX 30 23 24 24 25 25 31 26 32 27 11 28 26 30 27 31 29 32 28 33
REMARK SMILES IDX 3 34 2 35 1 36 36 37 37 38 38 39
REMARK H PARENT 11 29
REMARK Flexibility Score: inf
ROOT
ATOM      1  C   UNL     1      10.351  16.101  14.896  1.00  0.00     0.014 C 
ENDROOT
BRANCH   1   2
ATOM      2  C   UNL     1      11.506  15.761  13.914  1.00  0.00     0.042 C 
BRANCH   2   3
ATOM      3  C   UNL     1      11.012  14.725  12.933  1.00  0.00     0.045 C 
ATOM      4  O   UNL     1       9.787  14.622  12.659  1.00  0.00    -0.550 OA
ATOM      5  O   UNL     1      11.923  13.902  12.284  1.00  0.00    -0.550 OA
ENDBRANCH   2   3
BRANCH   2   6
ATOM      6  C   UNL     1      12.854  15.329  14.593  1.00  0.00     0.033 C 
ATOM      7  C   UNL     1      12.875  15.486  16.143  1.00  0.00     0.119 C 
ATOM      8  C   UNL     1      14.161  16.067  14.109  1.00  0.00    -0.017 C 
ATOM      9  C   UNL     1      14.190  16.199  16.507  1.00  0.00     0.043 C 
ATOM     10  C   UNL     1      14.509  17.044  15.269  1.00  0.00    -0.003 C 
ATOM     11  C   UNL     1      14.129  16.894  12.803  1.00  0.00     0.012 C 
ATOM     12  C   UNL     1      15.249  14.949  13.913  1.00  0.00     0.013 C 
ATOM     13  C   UNL     1      13.624  18.331  15.347  1.00  0.00     0.017 C 
ATOM     14  C   UNL     1      15.932  17.549  15.084  1.00  0.00    -0.064 C 
ATOM     15  C   UNL     1      15.436  17.721  12.604  1.00  0.00     0.032 C 
ATOM     16  C   UNL     1      16.345  17.943  13.839  1.00  0.00    -0.064 C 
ATOM     17  C   UNL     1      16.876  17.686  16.249  1.00  0.00     0.032 C 
ATOM     18  C   UNL     1      17.684  18.730  13.697  1.00  0.00    -0.008 C 
ATOM     19  C   UNL     1      18.250  17.230  15.790  1.00  0.00     0.009 C 
ATOM     20  C   UNL     1      18.835  18.137  14.652  1.00  0.00     0.009 C 
ATOM     21  C   UNL     1      17.321  20.206  14.034  1.00  0.00     0.015 C 
ATOM     22  C   UNL     1      18.163  18.661  12.218  1.00  0.00     0.016 C 
ATOM     23  C   UNL     1      19.975  19.173  15.113  1.00  0.00     0.005 C 
ATOM     24  C   UNL     1      18.524  21.113  14.262  1.00  0.00     0.047 C 
ATOM     25  C   UNL     1      19.397  20.589  15.410  1.00  0.00     0.182 C 
ATOM     26  C   UNL     1      21.085  19.291  14.022  1.00  0.00     0.015 C 
ATOM     27  C   UNL     1      20.747  18.701  16.379  1.00  0.00     0.015 C 
BRANCH   7  28
ATOM     28  O   UNL     1      12.803  14.231  16.769  1.00  0.00    -0.393 OA
ATOM     29  H   UNL     1      12.354  13.620  16.128  1.00  0.00     0.210 HD
ENDBRANCH   7  28
BRANCH  25  30
ATOM     30  O   UNL     1      18.637  20.566  16.621  1.00  0.00    -0.462 OA
BRANCH  30  31
ATOM     31  C   UNL     1      18.931  21.346  17.744  1.00  0.00     0.302 C 
ATOM     32  O   UNL     1      19.983  22.038  17.794  1.00  0.00    -0.253 OA
ATOM     33  C   UNL     1      18.018  21.301  18.922  1.00  0.00     0.139 C 
ENDBRANCH  30  31
ENDBRANCH  25  30
ENDBRANCH   2   6
ENDBRANCH   1   2
BRANCH   1  34
ATOM     34  C   UNL     1       9.730  17.513  14.735  1.00  0.00     0.031 C 
BRANCH  34  35
ATOM     35  C   UNL     1       8.291  17.555  15.216  1.00  0.00    -0.075 C 
ATOM     36  C   UNL     1       7.453  16.557  14.876  1.00  0.00     0.008 C 
BRANCH  35  37
ATOM     37  C   UNL     1       7.814  18.723  16.072  1.00  0.00     0.008 C 
ATOM     38  C   UNL     1       8.773  19.917  15.978  1.00  0.00     0.012 C 
ATOM     39  C   UNL     1       6.383  19.132  15.703  1.00  0.00     0.012 C 
ENDBRANCH  35  37
ENDBRANCH  34  35
ENDBRANCH   1  34
TORSDOF 9
ENDMDL
MODEL 3
REMARK VINA RESULT:    -5.228      2.199      9.335
REMARK INTER + INTRA:          -9.337
REMARK INTER:                  -8.060
REMARK INTRA:                  -1.277
REMARK UNBOUND:                -1.511
REMARK SMILES C=C(CC[C@H](C(=O)[O-])[C@@H]1[C@@H](O)C[C@@]2(C)C3=C(CC[C@]12C)[C@@]1(C)CC[C@@H](OC(C)=O)C(C)(C)[C@H]1CC3)C(C)C
REMARK SMILES IDX 4 1 5 2 6 3 7 4 8 5 9 6 10 7 19 8 12 9 13 10 18 11 20 12
REMARK SMILES IDX 14 13 15 14 17 15 16 16 35 17 21 18 34 19 33 20 23 21 22 22
REMARK SMILES IDX 30 23 24 24 25 25 31 26 32 27 11 28 26 30 27 31 29 32 28 33
REMARK SMILES IDX 3 34 2 35 1 36 36 37 37 38 38 39
REMARK H PARENT 11 29
REMARK Flexibility Score: inf
ROOT
ATOM      1  C   UNL     1       4.913  18.536  12.208  1.00  0.00     0.014 C 
ENDROOT
BRANCH   1   2
ATOM      2  C   UNL     1       6.004  17.686  12.918  1.00  0.00     0.042 C 
BRANCH   2   3
ATOM      3  C   UNL     1       5.326  16.565  13.667  1.00  0.00     0.045 C 
ATOM      4  O   UNL     1       5.062  15.471  13.101  1.00  0.00    -0.550 OA
ATOM      5  O   UNL     1       5.028  16.719  15.014  1.00  0.00    -0.550 OA
ENDBRANCH   2   3
BRANCH   2   6
ATOM      6  C   UNL     1       6.987  18.495  13.837  1.00  0.00     0.033 C 
ATOM      7  C   UNL     1       7.533  19.808  13.199  1.00  0.00     0.119 C 
ATOM      8  C   UNL     1       8.277  17.738  14.336  1.00  0.00    -0.017 C 
ATOM      9  C   UNL     1       9.057  19.819  13.423  1.00  0.00     0.043 C 
ATOM     10  C   UNL     1       9.433  18.334  13.483  1.00  0.00    -0.003 C 
ATOM     11  C   UNL     1       8.354  16.199  14.208  1.00  0.00     0.012 C 
ATOM     12  C   UNL     1       8.418  18.075  15.865  1.00  0.00     0.013 C 
ATOM     13  C   UNL     1       9.512  17.817  12.009  1.00  0.00     0.017 C 
ATOM     14  C   UNL     1      10.765  17.950  14.112  1.00  0.00    -0.064 C 
ATOM     15  C   UNL     1       9.776  15.656  14.547  1.00  0.00     0.032 C 
ATOM     16  C   UNL     1      10.953  16.664  14.542  1.00  0.00    -0.064 C 
ATOM     17  C   UNL     1      11.900  18.933  14.213  1.00  0.00     0.032 C 
ATOM     18  C   UNL     1      12.393  16.190  14.910  1.00  0.00    -0.008 C 
ATOM     19  C   UNL     1      12.565  18.738  15.564  1.00  0.00     0.009 C 
ATOM     20  C   UNL     1      13.211  17.317  15.716  1.00  0.00     0.009 C 
ATOM     21  C   UNL     1      13.055  15.822  13.549  1.00  0.00     0.015 C 
ATOM     22  C   UNL     1      12.301  14.904  15.782  1.00  0.00     0.016 C 
ATOM     23  C   UNL     1      14.811  17.267  15.574  1.00  0.00     0.005 C 
ATOM     24  C   UNL     1      14.564  15.623  13.618  1.00  0.00     0.047 C 
ATOM     25  C   UNL     1      15.261  16.889  14.131  1.00  0.00     0.182 C 
ATOM     26  C   UNL     1      15.422  16.247  16.585  1.00  0.00     0.015 C 
ATOM     27  C   UNL     1      15.495  18.615  15.947  1.00  0.00     0.015 C 
BRANCH   7  28
ATOM     28  O   UNL     1       6.938  20.932  13.793  1.00  0.00    -0.393 OA
ATOM     29  H   UNL     1       7.313  21.729  13.333  1.00  0.00     0.210 HD
ENDBRANCH   7  28
BRANCH  25  30
ATOM     30  O   UNL     1      15.009  17.976  13.236  1.00  0.00    -0.462 OA
BRANCH  30  31
ATOM     31  C   UNL     1      15.997  18.610  12.477  1.00  0.00     0.302 C 
ATOM     32  O   UNL     1      16.988  17.968  12.037  1.00  0.00    -0.253 OA
ATOM     33  C   UNL     1      15.905  20.080  12.243  1.00  0.00     0.139 C 
ENDBRANCH  30  31
ENDBRANCH  25  30
ENDBRANCH   2   6
ENDBRANCH   1   2
BRANCH   1  34
ATOM     34  C   UNL     1       3.508  18.499  12.861  1.00  0.00     0.031 C 
BRANCH  34  35
ATOM     35  C   UNL     1       3.247  19.730  13.710  1.00  0.00    -0.075 C 
ATOM     36  C   UNL     1       3.274  20.946  13.133  1.00  0.00     0.008 C 
BRANCH  35  37
ATOM     37  C   UNL     1       2.965  19.575  15.200  1.00  0.00     0.008 C 
ATOM     38  C   UNL     1       4.234  19.781  16.037  1.00  0.00     0.012 C 
ATOM     39  C   UNL     1       1.845  20.519  15.653  1.00  0.00     0.012 C 
ENDBRANCH  35  37
ENDBRANCH  34  35
ENDBRANCH   1  34
TORSDOF 9
ENDMDL
MODEL 4
REMARK VINA RESULT:    -5.072      2.101      9.055
REMARK INTER + INTRA:          -9.103
REMARK INTER:                  -7.714
REMARK INTRA:                  -1.389
REMARK UNBOUND:                -1.511
REMARK SMILES C=C(CC[C@H](C(=O)[O-])[C@@H]1[C@@H](O)C[C@@]2(C)C3=C(CC[C@]12C)[C@@]1(C)CC[C@@H](OC(C)=O)C(C)(C)[C@H]1CC3)C(C)C
REMARK SMILES IDX 4 1 5 2 6 3 7 4 8 5 9 6 10 7 19 8 12 9 13 10 18 11 20 12
REMARK SMILES IDX 14 13 15 14 17 15 16 16 35 17 21 18 34 19 33 20 23 21 22 22
REMARK SMILES IDX 30 23 24 24 25 25 31 26 32 27 11 28 26 30 27 31 29 32 28 33
REMARK SMILES IDX 3 34 2 35 1 36 36 37 37 38 38 39
REMARK H PARENT 11 29
REMARK Flexibility Score: inf
ROOT
ATOM      1  C   UNL     1       5.204  19.509  15.235  1.00  0.00     0.014 C 
ENDROOT
BRANCH   1   2
ATOM      2  C   UNL     1       4.999  18.876  13.830  1.00  0.00     0.042 C 
BRANCH   2   3
ATOM      3  C   UNL     1       3.526  18.604  13.638  1.00  0.00     0.045 C 
ATOM      4  O   UNL     1       3.004  17.534  14.049  1.00  0.00    -0.550 OA
ATOM      5  O   UNL     1       2.721  19.565  13.040  1.00  0.00    -0.550 OA
ENDBRANCH   2   3
BRANCH   2   6
ATOM      6  C   UNL     1       5.872  17.606  13.536  1.00  0.00     0.033 C 
ATOM      7  C   UNL     1       5.937  16.581  14.710  1.00  0.00     0.119 C 
ATOM      8  C   UNL     1       7.382  17.855  13.153  1.00  0.00    -0.017 C 
ATOM      9  C   UNL     1       7.418  16.208  14.902  1.00  0.00     0.043 C 
ATOM     10  C   UNL     1       8.178  17.451  14.427  1.00  0.00    -0.003 C 
ATOM     11  C   UNL     1       7.841  19.276  12.752  1.00  0.00     0.012 C 
ATOM     12  C   UNL     1       7.683  16.916  11.929  1.00  0.00     0.013 C 
ATOM     13  C   UNL     1       8.142  18.490  15.595  1.00  0.00     0.017 C 
ATOM     14  C   UNL     1       9.650  17.306  14.068  1.00  0.00    -0.064 C 
ATOM     15  C   UNL     1       9.391  19.373  12.621  1.00  0.00     0.032 C 
ATOM     16  C   UNL     1      10.242  18.257  13.279  1.00  0.00    -0.064 C 
ATOM     17  C   UNL     1      10.485  16.178  14.611  1.00  0.00     0.032 C 
ATOM     18  C   UNL     1      11.796  18.277  13.153  1.00  0.00    -0.008 C 
ATOM     19  C   UNL     1      11.396  15.694  13.496  1.00  0.00     0.009 C 
ATOM     20  C   UNL     1      12.410  16.795  13.029  1.00  0.00     0.009 C 
ATOM     21  C   UNL     1      12.293  19.033  14.421  1.00  0.00     0.015 C 
ATOM     22  C   UNL     1      12.196  19.102  11.894  1.00  0.00     0.016 C 
ATOM     23  C   UNL     1      13.919  16.610  13.550  1.00  0.00     0.005 C 
ATOM     24  C   UNL     1      13.791  18.913  14.677  1.00  0.00     0.047 C 
ATOM     25  C   UNL     1      14.204  17.444  14.835  1.00  0.00     0.182 C 
ATOM     26  C   UNL     1      14.939  17.013  12.440  1.00  0.00     0.015 C 
ATOM     27  C   UNL     1      14.274  15.125  13.860  1.00  0.00     0.015 C 
BRANCH   7  28
ATOM     28  O   UNL     1       5.173  15.441  14.413  1.00  0.00    -0.393 OA
ATOM     29  H   UNL     1       5.212  14.857  15.216  1.00  0.00     0.210 HD
ENDBRANCH   7  28
BRANCH  25  30
ATOM     30  O   UNL     1      13.526  16.870  15.956  1.00  0.00    -0.462 OA
BRANCH  30  31
ATOM     31  C   UNL     1      14.112  15.962  16.844  1.00  0.00     0.302 C 
ATOM     32  O   UNL     1      15.283  16.142  17.275  1.00  0.00    -0.253 OA
ATOM     33  C   UNL     1      13.362  14.733  17.230  1.00  0.00     0.139 C 
ENDBRANCH  30  31
ENDBRANCH  25  30
ENDBRANCH   2   6
ENDBRANCH   1   2
BRANCH   1  34
ATOM     34  C   UNL     1       4.992  21.043  15.314  1.00  0.00     0.031 C 
BRANCH  34  35
ATOM     35  C   UNL     1       6.046  21.800  14.527  1.00  0.00    -0.075 C 
ATOM     36  C   UNL     1       7.344  21.655  14.855  1.00  0.00     0.008 C 
BRANCH  35  37
ATOM     37  C   UNL     1       5.623  22.715  13.383  1.00  0.00     0.008 C 
ATOM     38  C   UNL     1       6.483  22.485  12.133  1.00  0.00     0.012 C 
ATOM     39  C   UNL     1       4.132  22.554  13.066  1.00  0.00     0.012 C 
ENDBRANCH  35  37
ENDBRANCH  34  35
ENDBRANCH   1  34
TORSDOF 9
ENDMDL
MODEL 5
REMARK VINA RESULT:    -4.920      2.791      9.053
REMARK INTER + INTRA:          -8.876
REMARK INTER:                  -6.786
REMARK INTRA:                  -2.089
REMARK UNBOUND:                -1.511
REMARK SMILES C=C(CC[C@H](C(=O)[O-])[C@@H]1[C@@H](O)C[C@@]2(C)C3=C(CC[C@]12C)[C@@]1(C)CC[C@@H](OC(C)=O)C(C)(C)[C@H]1CC3)C(C)C
REMARK SMILES IDX 4 1 5 2 6 3 7 4 8 5 9 6 10 7 19 8 12 9 13 10 18 11 20 12
REMARK SMILES IDX 14 13 15 14 17 15 16 16 35 17 21 18 34 19 33 20 23 21 22 22
REMARK SMILES IDX 30 23 24 24 25 25 31 26 32 27 11 28 26 30 27 31 29 32 28 33
REMARK SMILES IDX 3 34 2 35 1 36 36 37 37 38 38 39
REMARK H PARENT 11 29
REMARK Flexibility Score: inf
ROOT
ATOM      1  C   UNL     1       6.498  17.382  12.664  1.00  0.00     0.014 C 
ENDROOT
BRANCH   1   2
ATOM      2  C   UNL     1       7.676  16.370  12.725  1.00  0.00     0.042 C 
BRANCH   2   3
ATOM      3  C   UNL     1       7.124  14.979  12.522  1.00  0.00     0.045 C 
ATOM      4  O   UNL     1       7.844  14.055  12.057  1.00  0.00    -0.550 OA
ATOM      5  O   UNL     1       5.816  14.696  12.894  1.00  0.00    -0.550 OA
ENDBRANCH   2   3
BRANCH   2   6
ATOM      6  C   UNL     1       8.570  16.463  14.013  1.00  0.00     0.033 C 
ATOM      7  C   UNL     1       8.341  17.748  14.865  1.00  0.00     0.119 C 
ATOM      8  C   UNL     1      10.131  16.409  13.798  1.00  0.00    -0.017 C 
ATOM      9  C   UNL     1       9.730  18.327  15.189  1.00  0.00     0.043 C 
ATOM     10  C   UNL     1      10.603  17.876  14.012  1.00  0.00    -0.003 C 
ATOM     11  C   UNL     1      10.697  15.935  12.440  1.00  0.00     0.012 C 
ATOM     12  C   UNL     1      10.690  15.428  14.892  1.00  0.00     0.013 C 
ATOM     13  C   UNL     1      10.317  18.851  12.823  1.00  0.00     0.017 C 
ATOM     14  C   UNL     1      12.115  17.892  14.185  1.00  0.00    -0.064 C 
ATOM     15  C   UNL     1      12.237  16.156  12.341  1.00  0.00     0.032 C 
ATOM     16  C   UNL     1      12.891  17.140  13.345  1.00  0.00    -0.064 C 
ATOM     17  C   UNL     1      12.780  18.763  15.217  1.00  0.00     0.032 C 
ATOM     18  C   UNL     1      14.433  17.375  13.321  1.00  0.00    -0.008 C 
ATOM     19  C   UNL     1      13.915  17.965  15.837  1.00  0.00     0.009 C 
ATOM     20  C   UNL     1      15.031  17.601  14.797  1.00  0.00     0.009 C 
ATOM     21  C   UNL     1      14.637  18.609  12.392  1.00  0.00     0.015 C 
ATOM     22  C   UNL     1      15.128  16.143  12.672  1.00  0.00     0.016 C 
ATOM     23  C   UNL     1      16.374  18.478  14.890  1.00  0.00     0.005 C 
ATOM     24  C   UNL     1      16.032  19.219  12.456  1.00  0.00     0.047 C 
ATOM     25  C   UNL     1      16.370  19.667  13.883  1.00  0.00     0.182 C 
ATOM     26  C   UNL     1      17.630  17.590  14.629  1.00  0.00     0.015 C 
ATOM     27  C   UNL     1      16.620  19.062  16.312  1.00  0.00     0.015 C 
BRANCH   7  28
ATOM     28  O   UNL     1       7.646  17.441  16.046  1.00  0.00    -0.393 OA
ATOM     29  H   UNL     1       7.222  18.285  16.354  1.00  0.00     0.210 HD
ENDBRANCH   7  28
BRANCH  25  30
ATOM     30  O   UNL     1      15.440  20.668  14.307  1.00  0.00    -0.462 OA
BRANCH  30  31
ATOM     31  C   UNL     1      15.528  22.018  13.953  1.00  0.00     0.302 C 
ATOM     32  O   UNL     1      16.391  22.771  14.479  1.00  0.00    -0.253 OA
ATOM     33  C   UNL     1      14.542  22.584  12.988  1.00  0.00     0.139 C 
ENDBRANCH  30  31
ENDBRANCH  25  30
ENDBRANCH   2   6
ENDBRANCH   1   2
BRANCH   1  34
ATOM     34  C   UNL     1       6.779  18.687  11.876  1.00  0.00     0.031 C 
BRANCH  34  35
ATOM     35  C   UNL     1       6.505  19.923  12.714  1.00  0.00    -0.075 C 
ATOM     36  C   UNL     1       7.271  21.017  12.543  1.00  0.00     0.008 C 
BRANCH  35  37
ATOM     37  C   UNL     1       5.374  19.909  13.736  1.00  0.00     0.008 C 
ATOM     38  C   UNL     1       5.794  20.586  15.047  1.00  0.00     0.012 C 
ATOM     39  C   UNL     1       4.103  20.549  13.166  1.00  0.00     0.012 C 
ENDBRANCH  35  37
ENDBRANCH  34  35
ENDBRANCH   1  34
TORSDOF 9
ENDMDL
MODEL 6
REMARK VINA RESULT:    -4.784      8.494     10.401
REMARK INTER + INTRA:          -8.672
REMARK INTER:                  -8.683
REMARK INTRA:                   0.011
REMARK UNBOUND:                -1.511
REMARK SMILES C=C(CC[C@H](C(=O)[O-])[C@@H]1[C@@H](O)C[C@@]2(C)C3=C(CC[C@]12C)[C@@]1(C)CC[C@@H](OC(C)=O)C(C)(C)[C@H]1CC3)C(C)C
REMARK SMILES IDX 4 1 5 2 6 3 7 4 8 5 9 6 10 7 19 8 12 9 13 10 18 11 20 12
REMARK SMILES IDX 14 13 15 14 17 15 16 16 35 17 21 18 34 19 33 20 23 21 22 22
REMARK SMILES IDX 30 23 24 24 25 25 31 26 32 27 11 28 26 30 27 31 29 32 28 33
REMARK SMILES IDX 3 34 2 35 1 36 36 37 37 38 38 39
REMARK H PARENT 11 29
REMARK Flexibility Score: inf
ROOT
ATOM      1  C   UNL     1      17.627  27.191  15.048  1.00  0.00     0.014 C 
ENDROOT
BRANCH   1   2
ATOM      2  C   UNL     1      16.145  26.846  14.732  1.00  0.00     0.042 C 
BRANCH   2   3
ATOM      3  C   UNL     1      16.082  25.426  14.221  1.00  0.00     0.045 C 
ATOM      4  O   UNL     1      15.358  24.564  14.786  1.00  0.00    -0.550 OA
ATOM      5  O   UNL     1      16.795  25.072  13.084  1.00  0.00    -0.550 OA
ENDBRANCH   2   3
BRANCH   2   6
ATOM      6  C   UNL     1      15.417  27.848  13.768  1.00  0.00     0.033 C 
ATOM      7  C   UNL     1      15.438  29.332  14.244  1.00  0.00     0.119 C 
ATOM      8  C   UNL     1      13.898  27.560  13.458  1.00  0.00    -0.017 C 
ATOM      9  C   UNL     1      14.001  29.869  14.112  1.00  0.00     0.043 C 
ATOM     10  C   UNL     1      13.123  28.625  14.286  1.00  0.00    -0.003 C 
ATOM     11  C   UNL     1      13.299  26.178  13.809  1.00  0.00     0.012 C 
ATOM     12  C   UNL     1      13.722  27.753  11.909  1.00  0.00     0.013 C 
ATOM     13  C   UNL     1      13.026  28.339  15.820  1.00  0.00     0.017 C 
ATOM     14  C   UNL     1      11.682  28.682  13.799  1.00  0.00    -0.064 C 
ATOM     15  C   UNL     1      11.750  26.153  13.635  1.00  0.00     0.032 C 
ATOM     16  C   UNL     1      11.009  27.513  13.567  1.00  0.00    -0.064 C 
ATOM     17  C   UNL     1      10.961  29.992  13.627  1.00  0.00     0.032 C 
ATOM     18  C   UNL     1       9.464  27.555  13.358  1.00  0.00    -0.008 C 
ATOM     19  C   UNL     1      10.129  29.903  12.359  1.00  0.00     0.009 C 
ATOM     20  C   UNL     1       9.013  28.805  12.450  1.00  0.00     0.009 C 
ATOM     21  C   UNL     1       8.865  27.605  14.794  1.00  0.00     0.015 C 
ATOM     22  C   UNL     1       9.004  26.235  12.673  1.00  0.00     0.016 C 
ATOM     23  C   UNL     1       7.522  29.354  12.693  1.00  0.00     0.005 C 
ATOM     24  C   UNL     1       7.384  27.961  14.845  1.00  0.00     0.047 C 
ATOM     25  C   UNL     1       7.125  29.328  14.199  1.00  0.00     0.182 C 
ATOM     26  C   UNL     1       6.488  28.519  11.875  1.00  0.00     0.015 C 
ATOM     27  C   UNL     1       7.320  30.808  12.174  1.00  0.00     0.015 C 
BRANCH   7  28
ATOM     28  O   UNL     1      16.324  30.091  13.462  1.00  0.00    -0.393 OA
ATOM     29  H   UNL     1      16.127  29.868  12.514  1.00  0.00     0.210 HD
ENDBRANCH   7  28
BRANCH  25  30
ATOM     30  O   UNL     1       7.837  30.341  14.914  1.00  0.00    -0.462 OA
BRANCH  30  31
ATOM     31  C   UNL     1       7.226  31.420  15.560  1.00  0.00     0.302 C 
ATOM     32  O   UNL     1       7.910  32.381  16.005  1.00  0.00    -0.253 OA
ATOM     33  C   UNL     1       5.752  31.397  15.782  1.00  0.00     0.139 C 
ENDBRANCH  30  31
ENDBRANCH  25  30
ENDBRANCH   2   6
ENDBRANCH   1   2
BRANCH   1  34
ATOM     34  C   UNL     1      18.507  27.547  13.822  1.00  0.00     0.031 C 
BRANCH  34  35
ATOM     35  C   UNL     1      19.920  27.013  13.967  1.00  0.00    -0.075 C 
ATOM     36  C   UNL     1      20.929  27.640  13.331  1.00  0.00     0.008 C 
BRANCH  35  37
ATOM     37  C   UNL     1      20.179  25.779  14.823  1.00  0.00     0.008 C 
ATOM     38  C   UNL     1      20.739  24.622  13.985  1.00  0.00     0.012 C 
ATOM     39  C   UNL     1      21.102  26.105  16.002  1.00  0.00     0.012 C 
ENDBRANCH  35  37
ENDBRANCH  34  35
ENDBRANCH   1  34
TORSDOF 9
ENDMDL
MODEL 7
REMARK VINA RESULT:    -4.496      2.392      9.627
REMARK INTER + INTRA:          -8.241
REMARK INTER:                  -6.971
REMARK INTRA:                  -1.269
REMARK UNBOUND:                -1.511
REMARK SMILES C=C(CC[C@H](C(=O)[O-])[C@@H]1[C@@H](O)C[C@@]2(C)C3=C(CC[C@]12C)[C@@]1(C)CC[C@@H](OC(C)=O)C(C)(C)[C@H]1CC3)C(C)C
REMARK SMILES IDX 4 1 5 2 6 3 7 4 8 5 9 6 10 7 19 8 12 9 13 10 18 11 20 12
REMARK SMILES IDX 14 13 15 14 17 15 16 16 35 17 21 18 34 19 33 20 23 21 22 22
REMARK SMILES IDX 30 23 24 24 25 25 31 26 32 27 11 28 26 30 27 31 29 32 28 33
REMARK SMILES IDX 3 34 2 35 1 36 36 37 37 38 38 39
REMARK H PARENT 11 29
REMARK Flexibility Score: inf
ROOT
ATOM      1  C   UNL     1       7.676  21.709  11.885  1.00  0.00     0.014 C 
ENDROOT
BRANCH   1   2
ATOM      2  C   UNL     1       7.844  20.535  12.890  1.00  0.00     0.042 C 
BRANCH   2   3
ATOM      3  C   UNL     1       6.528  20.320  13.599  1.00  0.00     0.045 C 
ATOM      4  O   UNL     1       6.336  20.767  14.761  1.00  0.00    -0.550 OA
ATOM      5  O   UNL     1       5.495  19.660  12.948  1.00  0.00    -0.550 OA
ENDBRANCH   2   3
BRANCH   2   6
ATOM      6  C   UNL     1       9.036  20.687  13.900  1.00  0.00     0.033 C 
ATOM      7  C   UNL     1      10.214  21.565  13.380  1.00  0.00     0.119 C 
ATOM      8  C   UNL     1       9.727  19.356  14.388  1.00  0.00    -0.017 C 
ATOM      9  C   UNL     1      11.514  20.787  13.658  1.00  0.00     0.043 C 
ATOM     10  C   UNL     1      11.081  19.318  13.622  1.00  0.00    -0.003 C 
ATOM     11  C   UNL     1       9.023  18.001  14.150  1.00  0.00     0.012 C 
ATOM     12  C   UNL     1       9.916  19.505  15.941  1.00  0.00     0.013 C 
ATOM     13  C   UNL     1      10.986  18.900  12.118  1.00  0.00     0.017 C 
ATOM     14  C   UNL     1      11.988  18.280  14.268  1.00  0.00    -0.064 C 
ATOM     15  C   UNL     1       9.946  16.794  14.498  1.00  0.00     0.032 C 
ATOM     16  C   UNL     1      11.469  17.060  14.609  1.00  0.00    -0.064 C 
ATOM     17  C   UNL     1      13.455  18.541  14.480  1.00  0.00     0.032 C 
ATOM     18  C   UNL     1      12.442  15.902  14.991  1.00  0.00    -0.008 C 
ATOM     19  C   UNL     1      13.836  17.973  15.837  1.00  0.00     0.009 C 
ATOM     20  C   UNL     1      13.661  16.416  15.907  1.00  0.00     0.009 C 
ATOM     21  C   UNL     1      12.916  15.309  13.631  1.00  0.00     0.015 C 
ATOM     22  C   UNL     1      11.652  14.805  15.763  1.00  0.00     0.016 C 
ATOM     23  C   UNL     1      15.020  15.563  15.818  1.00  0.00     0.005 C 
ATOM     24  C   UNL     1      14.107  14.366  13.739  1.00  0.00     0.047 C 
ATOM     25  C   UNL     1      15.314  15.074  14.368  1.00  0.00     0.182 C 
ATOM     26  C   UNL     1      14.960  14.330  16.773  1.00  0.00     0.015 C 
ATOM     27  C   UNL     1      16.266  16.356  16.312  1.00  0.00     0.015 C 
BRANCH   7  28
ATOM     28  O   UNL     1      10.232  22.808  14.033  1.00  0.00    -0.393 OA
ATOM     29  H   UNL     1       9.353  23.234  13.856  1.00  0.00     0.210 HD
ENDBRANCH   7  28
BRANCH  25  30
ATOM     30  O   UNL     1      15.708  16.177  13.546  1.00  0.00    -0.462 OA
BRANCH  30  31
ATOM     31  C   UNL     1      16.890  16.214  12.801  1.00  0.00     0.302 C 
ATOM     32  O   UNL     1      17.267  15.212  12.134  1.00  0.00    -0.253 OA
ATOM     33  C   UNL     1      17.746  17.434  12.850  1.00  0.00     0.139 C 
ENDBRANCH  30  31
ENDBRANCH  25  30
ENDBRANCH   2   6
ENDBRANCH   1   2
BRANCH   1  34
ATOM     34  C   UNL     1       6.474  22.651  12.152  1.00  0.00     0.031 C 
BRANCH  34  35
ATOM     35  C   UNL     1       6.921  23.992  12.707  1.00  0.00    -0.075 C 
ATOM     36  C   UNL     1       8.073  24.535  12.270  1.00  0.00     0.008 C 
BRANCH  35  37
ATOM     37  C   UNL     1       6.066  24.701  13.751  1.00  0.00     0.008 C 
ATOM     38  C   UNL     1       6.125  26.225  13.583  1.00  0.00     0.012 C 
ATOM     39  C   UNL     1       4.618  24.197  13.717  1.00  0.00     0.012 C 
ENDBRANCH  35  37
ENDBRANCH  34  35
ENDBRANCH   1  34
TORSDOF 9
ENDMDL
MODEL 8
REMARK VINA RESULT:    -4.439      2.036      9.215
REMARK INTER + INTRA:          -8.156
REMARK INTER:                  -6.450
REMARK INTRA:                  -1.706
REMARK UNBOUND:                -1.511
REMARK SMILES C=C(CC[C@H](C(=O)[O-])[C@@H]1[C@@H](O)C[C@@]2(C)C3=C(CC[C@]12C)[C@@]1(C)CC[C@@H](OC(C)=O)C(C)(C)[C@H]1CC3)C(C)C
REMARK SMILES IDX 4 1 5 2 6 3 7 4 8 5 9 6 10 7 19 8 12 9 13 10 18 11 20 12
REMARK SMILES IDX 14 13 15 14 17 15 16 16 35 17 21 18 34 19 33 20 23 21 22 22
REMARK SMILES IDX 30 23 24 24 25 25 31 26 32 27 11 28 26 30 27 31 29 32 28 33
REMARK SMILES IDX 3 34 2 35 1 36 36 37 37 38 38 39
REMARK H PARENT 11 29
REMARK Flexibility Score: inf
ROOT
ATOM      1  C   UNL     1       2.939  21.693  13.502  1.00  0.00     0.014 C 
ENDROOT
BRANCH   1   2
ATOM      2  C   UNL     1       2.935  20.151  13.306  1.00  0.00     0.042 C 
BRANCH   2   3
ATOM      3  C   UNL     1       1.505  19.691  13.152  1.00  0.00     0.045 C 
ATOM      4  O   UNL     1       0.884  19.853  12.068  1.00  0.00    -0.550 OA
ATOM      5  O   UNL     1       0.876  19.037  14.202  1.00  0.00    -0.550 OA
ENDBRANCH   2   3
BRANCH   2   6
ATOM      6  C   UNL     1       3.697  19.336  14.410  1.00  0.00     0.033 C 
ATOM      7  C   UNL     1       4.427  20.214  15.471  1.00  0.00     0.119 C 
ATOM      8  C   UNL     1       4.802  18.326  13.912  1.00  0.00    -0.017 C 
ATOM      9  C   UNL     1       5.851  19.648  15.621  1.00  0.00     0.043 C 
ATOM     10  C   UNL     1       6.150  19.026  14.253  1.00  0.00    -0.003 C 
ATOM     11  C   UNL     1       4.853  17.930  12.418  1.00  0.00     0.012 C 
ATOM     12  C   UNL     1       4.585  17.001  14.728  1.00  0.00     0.013 C 
ATOM     13  C   UNL     1       6.560  20.190  13.294  1.00  0.00     0.017 C 
ATOM     14  C   UNL     1       7.277  18.008  14.151  1.00  0.00    -0.064 C 
ATOM     15  C   UNL     1       6.131  17.105  12.077  1.00  0.00     0.032 C 
ATOM     16  C   UNL     1       7.311  17.154  13.082  1.00  0.00    -0.064 C 
ATOM     17  C   UNL     1       8.389  17.963  15.164  1.00  0.00     0.032 C 
ATOM     18  C   UNL     1       8.603  16.322  12.815  1.00  0.00    -0.008 C 
ATOM     19  C   UNL     1       8.704  16.503  15.444  1.00  0.00     0.009 C 
ATOM     20  C   UNL     1       9.244  15.752  14.177  1.00  0.00     0.009 C 
ATOM     21  C   UNL     1       9.558  17.293  12.059  1.00  0.00     0.015 C 
ATOM     22  C   UNL     1       8.259  15.130  11.875  1.00  0.00     0.016 C 
ATOM     23  C   UNL     1      10.829  15.485  14.155  1.00  0.00     0.005 C 
ATOM     24  C   UNL     1      10.998  16.806  11.960  1.00  0.00     0.047 C 
ATOM     25  C   UNL     1      11.597  16.578  13.355  1.00  0.00     0.182 C 
ATOM     26  C   UNL     1      11.142  14.084  13.543  1.00  0.00     0.015 C 
ATOM     27  C   UNL     1      11.451  15.415  15.581  1.00  0.00     0.015 C 
BRANCH   7  28
ATOM     28  O   UNL     1       3.747  20.173  16.699  1.00  0.00    -0.393 OA
ATOM     29  H   UNL     1       2.853  19.782  16.515  1.00  0.00     0.210 HD
ENDBRANCH   7  28
BRANCH  25  30
ATOM     30  O   UNL     1      11.605  17.809  14.083  1.00  0.00    -0.462 OA
BRANCH  30  31
ATOM     31  C   UNL     1      12.633  18.754  14.012  1.00  0.00     0.302 C 
ATOM     32  O   UNL     1      12.649  19.627  13.102  1.00  0.00    -0.253 OA
ATOM     33  C   UNL     1      13.759  18.682  14.986  1.00  0.00     0.139 C 
ENDBRANCH  30  31
ENDBRANCH  25  30
ENDBRANCH   2   6
ENDBRANCH   1   2
BRANCH   1  34
ATOM     34  C   UNL     1       4.119  22.448  12.837  1.00  0.00     0.031 C 
BRANCH  34  35
ATOM     35  C   UNL     1       4.447  23.738  13.567  1.00  0.00    -0.075 C 
ATOM     36  C   UNL     1       5.486  23.763  14.424  1.00  0.00     0.008 C 
BRANCH  35  37
ATOM     37  C   UNL     1       3.599  24.981  13.325  1.00  0.00     0.008 C 
ATOM     38  C   UNL     1       3.523  25.861  14.579  1.00  0.00     0.012 C 
ATOM     39  C   UNL     1       4.112  25.777  12.120  1.00  0.00     0.012 C 
ENDBRANCH  35  37
ENDBRANCH  34  35
ENDBRANCH   1  34
TORSDOF 9
ENDMDL
MODEL 9
REMARK VINA RESULT:    -4.388      2.725      4.700
REMARK INTER + INTRA:          -8.079
REMARK INTER:                  -6.776
REMARK INTRA:                  -1.303
REMARK UNBOUND:                -1.511
REMARK SMILES C=C(CC[C@H](C(=O)[O-])[C@@H]1[C@@H](O)C[C@@]2(C)C3=C(CC[C@]12C)[C@@]1(C)CC[C@@H](OC(C)=O)C(C)(C)[C@H]1CC3)C(C)C
REMARK SMILES IDX 4 1 5 2 6 3 7 4 8 5 9 6 10 7 19 8 12 9 13 10 18 11 20 12
REMARK SMILES IDX 14 13 15 14 17 15 16 16 35 17 21 18 34 19 33 20 23 21 22 22
REMARK SMILES IDX 30 23 24 24 25 25 31 26 32 27 11 28 26 30 27 31 29 32 28 33
REMARK SMILES IDX 3 34 2 35 1 36 36 37 37 38 38 39
REMARK H PARENT 11 29
REMARK Flexibility Score: inf
ROOT
ATOM      1  C   UNL     1      16.897  18.283  16.031  1.00  0.00     0.014 C 
ENDROOT
BRANCH   1   2
ATOM      2  C   UNL     1      16.507  17.391  14.819  1.00  0.00     0.042 C 
BRANCH   2   3
ATOM      3  C   UNL     1      17.771  16.836  14.206  1.00  0.00     0.045 C 
ATOM      4  O   UNL     1      18.347  15.832  14.703  1.00  0.00    -0.550 OA
ATOM      5  O   UNL     1      18.285  17.409  13.051  1.00  0.00    -0.550 OA
ENDBRANCH   2   3
BRANCH   2   6
ATOM      6  C   UNL     1      15.592  18.084  13.747  1.00  0.00     0.033 C 
ATOM      7  C   UNL     1      15.275  19.582  14.041  1.00  0.00     0.119 C 
ATOM      8  C   UNL     1      14.180  17.429  13.490  1.00  0.00    -0.017 C 
ATOM      9  C   UNL     1      13.757  19.766  13.859  1.00  0.00     0.043 C 
ATOM     10  C   UNL     1      13.174  18.388  14.191  1.00  0.00    -0.003 C 
ATOM     11  C   UNL     1      13.897  16.002  14.011  1.00  0.00     0.012 C 
ATOM     12  C   UNL     1      13.993  17.391  11.930  1.00  0.00     0.013 C 
ATOM     13  C   UNL     1      13.116  18.273  15.749  1.00  0.00     0.017 C 
ATOM     14  C   UNL     1      11.765  18.064  13.714  1.00  0.00    -0.064 C 
ATOM     15  C   UNL     1      12.395  15.612  13.857  1.00  0.00     0.032 C 
ATOM     16  C   UNL     1      11.372  16.755  13.632  1.00  0.00    -0.064 C 
ATOM     17  C   UNL     1      10.775  19.151  13.393  1.00  0.00     0.032 C 
ATOM     18  C   UNL     1       9.861  16.428  13.434  1.00  0.00    -0.008 C 
ATOM     19  C   UNL     1      10.006  18.727  12.153  1.00  0.00     0.009 C 
ATOM     20  C   UNL     1       9.160  17.427  12.386  1.00  0.00     0.009 C 
ATOM     21  C   UNL     1       9.240  16.515  14.860  1.00  0.00     0.015 C 
ATOM     22  C   UNL     1       9.717  14.966  12.919  1.00  0.00     0.016 C 
ATOM     23  C   UNL     1       7.580  17.656  12.576  1.00  0.00     0.005 C 
ATOM     24  C   UNL     1       7.716  16.535  14.881  1.00  0.00     0.047 C 
ATOM     25  C   UNL     1       7.172  17.724  14.078  1.00  0.00     0.182 C 
ATOM     26  C   UNL     1       6.771  16.521  11.875  1.00  0.00     0.015 C 
ATOM     27  C   UNL     1       7.070  18.956  11.887  1.00  0.00     0.015 C 
BRANCH   7  28
ATOM     28  O   UNL     1      15.984  20.418  13.164  1.00  0.00    -0.393 OA
ATOM     29  H   UNL     1      16.842  20.639  13.613  1.00  0.00     0.210 HD
ENDBRANCH   7  28
BRANCH  25  30
ATOM     30  O   UNL     1       7.629  18.948  14.658  1.00  0.00    -0.462 OA
BRANCH  30  31
ATOM     31  C   UNL     1       6.790  19.890  15.262  1.00  0.00     0.302 C 
ATOM     32  O   UNL     1       5.851  19.527  16.021  1.00  0.00    -0.253 OA
ATOM     33  C   UNL     1       6.971  21.336  14.948  1.00  0.00     0.139 C 
ENDBRANCH  30  31
ENDBRANCH  25  30
ENDBRANCH   2   6
ENDBRANCH   1   2
BRANCH   1  34
ATOM     34  C   UNL     1      18.368  18.772  16.055  1.00  0.00     0.031 C 
BRANCH  34  35
ATOM     35  C   UNL     1      18.510  20.100  16.776  1.00  0.00    -0.075 C 
ATOM     36  C   UNL     1      17.404  20.741  17.200  1.00  0.00     0.008 C 
BRANCH  35  37
ATOM     37  C   UNL     1      19.896  20.691  17.008  1.00  0.00     0.008 C 
ATOM     38  C   UNL     1      20.082  21.131  18.466  1.00  0.00     0.012 C 
ATOM     39  C   UNL     1      20.995  19.710  16.582  1.00  0.00     0.012 C 
ENDBRANCH  35  37
ENDBRANCH  34  35
ENDBRANCH   1  34
TORSDOF 9
ENDMDL
