MODEL 1
REMARK VINA RESULT:    -4.102      0.000      0.000
REMARK INTER + INTRA:          -9.799
REMARK INTER:                  -7.459
REMARK INTRA:                  -2.341
REMARK UNBOUND:                -2.341
REMARK SMILES CCCCCCCCCCCCCC[C@H](C)C(=O)[O-]
REMARK SMILES IDX 9 1 10 2 11 3 12 4 13 5 14 6 15 7 16 8 17 9 18 10 19 11 8 12
REMARK SMILES IDX 7 13 6 14 5 15 4 16 3 17 2 18 1 19
REMARK H PARENT
REMARK Flexibility Score: inf
ROOT
ATOM      1  C   UNL     1       9.514 -27.190 -30.160  1.00  0.00     0.000 C 
ENDROOT
BRANCH   1   2
ATOM      2  C   UNL     1      10.798 -27.097 -31.003  1.00  0.00     0.000 C 
BRANCH   2   3
ATOM      3  C   UNL     1      10.814 -25.883 -31.945  1.00  0.00     0.000 C 
BRANCH   3   4
ATOM      4  C   UNL     1       9.826 -24.807 -31.470  1.00  0.00     0.000 C 
BRANCH   4   5
ATOM      5  C   UNL     1      10.528 -23.586 -30.855  1.00  0.00     0.001 C 
BRANCH   5   6
ATOM      6  C   UNL     1      12.055 -23.615 -31.056  1.00  0.00     0.009 C 
BRANCH   6   7
ATOM      7  C   UNL     1      12.533 -22.519 -32.030  1.00  0.00     0.032 C 
ATOM      8  C   UNL     1      12.718 -23.091 -33.438  1.00  0.00     0.014 C 
BRANCH   7   9
ATOM      9  C   UNL     1      13.823 -21.897 -31.563  1.00  0.00     0.044 C 
ATOM     10  O   UNL     1      13.859 -21.255 -30.480  1.00  0.00    -0.550 OA
ATOM     11  O   UNL     1      14.979 -22.022 -32.324  1.00  0.00    -0.550 OA
ENDBRANCH   7   9
ENDBRANCH   6   7
ENDBRANCH   5   6
ENDBRANCH   4   5
ENDBRANCH   3   4
ENDBRANCH   2   3
ENDBRANCH   1   2
BRANCH   1  12
ATOM     12  C   UNL     1       9.262 -28.554 -29.492  1.00  0.00     0.000 C 
BRANCH  12  13
ATOM     13  C   UNL     1       8.678 -28.431 -28.075  1.00  0.00    -0.000 C 
BRANCH  13  14
ATOM     14  C   UNL     1       8.525 -26.970 -27.613  1.00  0.00    -0.000 C 
BRANCH  14  15
ATOM     15  C   UNL     1       9.008 -26.676 -26.181  1.00  0.00    -0.000 C 
BRANCH  15  16
ATOM     16  C   UNL     1      10.383 -25.986 -26.140  1.00  0.00    -0.000 C 
BRANCH  16  17
ATOM     17  C   UNL     1      10.752 -25.328 -27.480  1.00  0.00    -0.000 C 
BRANCH  17  18
ATOM     18  C   UNL     1      12.191 -25.641 -27.917  1.00  0.00    -0.003 C 
ATOM     19  C   UNL     1      12.490 -27.132 -27.794  1.00  0.00     0.004 C 
ENDBRANCH  17  18
ENDBRANCH  16  17
ENDBRANCH  15  16
ENDBRANCH  14  15
ENDBRANCH  13  14
ENDBRANCH  12  13
ENDBRANCH   1  12
TORSDOF 14
ENDMDL
MODEL 2
REMARK VINA RESULT:    -3.845      3.039      5.975
REMARK INTER + INTRA:          -9.333
REMARK INTER:                  -7.279
REMARK INTRA:                  -2.054
REMARK UNBOUND:                -2.341
REMARK SMILES CCCCCCCCCCCCCC[C@H](C)C(=O)[O-]
REMARK SMILES IDX 9 1 10 2 11 3 12 4 13 5 14 6 15 7 16 8 17 9 18 10 19 11 8 12
REMARK SMILES IDX 7 13 6 14 5 15 4 16 3 17 2 18 1 19
REMARK H PARENT
REMARK Flexibility Score: inf
ROOT
ATOM      1  C   UNL     1       8.440 -28.045 -28.738  1.00  0.00     0.000 C 
ENDROOT
BRANCH   1   2
ATOM      2  C   UNL     1       8.756 -26.706 -28.046  1.00  0.00     0.000 C 
BRANCH   2   3
ATOM      3  C   UNL     1       8.747 -26.804 -26.513  1.00  0.00     0.000 C 
BRANCH   3   4
ATOM      4  C   UNL     1       9.813 -25.883 -25.899  1.00  0.00     0.000 C 
BRANCH   4   5
ATOM      5  C   UNL     1      11.244 -26.395 -26.129  1.00  0.00     0.001 C 
BRANCH   5   6
ATOM      6  C   UNL     1      11.382 -27.907 -25.873  1.00  0.00     0.009 C 
BRANCH   6   7
ATOM      7  C   UNL     1      12.126 -28.624 -27.019  1.00  0.00     0.032 C 
ATOM      8  C   UNL     1      11.557 -30.030 -27.235  1.00  0.00     0.014 C 
BRANCH   7   9
ATOM      9  C   UNL     1      13.603 -28.713 -26.741  1.00  0.00     0.044 C 
ATOM     10  O   UNL     1      14.060 -29.667 -26.056  1.00  0.00    -0.550 OA
ATOM     11  O   UNL     1      14.470 -27.745 -27.232  1.00  0.00    -0.550 OA
ENDBRANCH   7   9
ENDBRANCH   6   7
ENDBRANCH   5   6
ENDBRANCH   4   5
ENDBRANCH   3   4
ENDBRANCH   2   3
ENDBRANCH   1   2
BRANCH   1  12
ATOM     12  C   UNL     1       9.428 -28.464 -29.842  1.00  0.00     0.000 C 
BRANCH  12  13
ATOM     13  C   UNL     1      10.545 -27.432 -30.071  1.00  0.00    -0.000 C 
BRANCH  13  14
ATOM     14  C   UNL     1      10.706 -27.036 -31.551  1.00  0.00    -0.000 C 
BRANCH  14  15
ATOM     15  C   UNL     1      10.825 -25.525 -31.821  1.00  0.00    -0.000 C 
BRANCH  15  16
ATOM     16  C   UNL     1      10.215 -24.665 -30.700  1.00  0.00    -0.000 C 
BRANCH  16  17
ATOM     17  C   UNL     1      11.284 -24.030 -29.796  1.00  0.00    -0.000 C 
BRANCH  17  18
ATOM     18  C   UNL     1      12.211 -23.072 -30.558  1.00  0.00    -0.003 C 
ATOM     19  C   UNL     1      11.442 -21.863 -31.081  1.00  0.00     0.004 C 
ENDBRANCH  17  18
ENDBRANCH  16  17
ENDBRANCH  15  16
ENDBRANCH  14  15
ENDBRANCH  13  14
ENDBRANCH  12  13
ENDBRANCH   1  12
TORSDOF 14
ENDMDL
MODEL 3
REMARK VINA RESULT:    -3.823      1.806      3.426
REMARK INTER + INTRA:          -9.293
REMARK INTER:                  -7.048
REMARK INTRA:                  -2.244
REMARK UNBOUND:                -2.341
REMARK SMILES CCCCCCCCCCCCCC[C@H](C)C(=O)[O-]
REMARK SMILES IDX 9 1 10 2 11 3 12 4 13 5 14 6 15 7 16 8 17 9 18 10 19 11 8 12
REMARK SMILES IDX 7 13 6 14 5 15 4 16 3 17 2 18 1 19
REMARK H PARENT
REMARK Flexibility Score: inf
ROOT
ATOM      1  C   UNL     1       9.490 -29.949 -28.026  1.00  0.00     0.000 C 
ENDROOT
BRANCH   1   2
ATOM      2  C   UNL     1       8.816 -29.189 -29.183  1.00  0.00     0.000 C 
BRANCH   2   3
ATOM      3  C   UNL     1       8.393 -27.762 -28.802  1.00  0.00     0.000 C 
BRANCH   3   4
ATOM      4  C   UNL     1       9.254 -26.721 -29.533  1.00  0.00     0.000 C 
BRANCH   4   5
ATOM      5  C   UNL     1      10.280 -27.359 -30.483  1.00  0.00     0.001 C 
BRANCH   5   6
ATOM      6  C   UNL     1      11.022 -26.318 -31.341  1.00  0.00     0.009 C 
BRANCH   6   7
ATOM      7  C   UNL     1      10.260 -24.979 -31.417  1.00  0.00     0.032 C 
ATOM      8  C   UNL     1       9.728 -24.741 -32.834  1.00  0.00     0.014 C 
BRANCH   7   9
ATOM      9  C   UNL     1      11.137 -23.826 -31.006  1.00  0.00     0.044 C 
ATOM     10  O   UNL     1      10.894 -22.665 -31.431  1.00  0.00    -0.550 OA
ATOM     11  O   UNL     1      12.220 -24.034 -30.161  1.00  0.00    -0.550 OA
ENDBRANCH   7   9
ENDBRANCH   6   7
ENDBRANCH   5   6
ENDBRANCH   4   5
ENDBRANCH   3   4
ENDBRANCH   2   3
ENDBRANCH   1   2
BRANCH   1  12
ATOM     12  C   UNL     1      11.026 -29.846 -27.977  1.00  0.00     0.000 C 
BRANCH  12  13
ATOM     13  C   UNL     1      11.561 -29.511 -26.575  1.00  0.00    -0.000 C 
BRANCH  13  14
ATOM     14  C   UNL     1      12.937 -28.819 -26.606  1.00  0.00    -0.000 C 
BRANCH  14  15
ATOM     15  C   UNL     1      12.919 -27.302 -26.344  1.00  0.00    -0.000 C 
BRANCH  15  16
ATOM     16  C   UNL     1      12.413 -26.491 -27.550  1.00  0.00    -0.000 C 
BRANCH  16  17
ATOM     17  C   UNL     1      11.350 -25.452 -27.156  1.00  0.00    -0.000 C 
BRANCH  17  18
ATOM     18  C   UNL     1      10.837 -25.645 -25.721  1.00  0.00    -0.003 C 
ATOM     19  C   UNL     1       9.432 -26.240 -25.716  1.00  0.00     0.004 C 
ENDBRANCH  17  18
ENDBRANCH  16  17
ENDBRANCH  15  16
ENDBRANCH  14  15
ENDBRANCH  13  14
ENDBRANCH  12  13
ENDBRANCH   1  12
TORSDOF 14
ENDMDL
MODEL 4
REMARK VINA RESULT:    -3.795      2.076      3.328
REMARK INTER + INTRA:          -9.242
REMARK INTER:                  -7.343
REMARK INTRA:                  -1.899
REMARK UNBOUND:                -2.341
REMARK SMILES CCCCCCCCCCCCCC[C@H](C)C(=O)[O-]
REMARK SMILES IDX 9 1 10 2 11 3 12 4 13 5 14 6 15 7 16 8 17 9 18 10 19 11 8 12
REMARK SMILES IDX 7 13 6 14 5 15 4 16 3 17 2 18 1 19
REMARK H PARENT
REMARK Flexibility Score: inf
ROOT
ATOM      1  C   UNL     1       9.388 -28.371 -28.920  1.00  0.00     0.000 C 
ENDROOT
BRANCH   1   2
ATOM      2  C   UNL     1      10.591 -27.666 -29.572  1.00  0.00     0.000 C 
BRANCH   2   3
ATOM      3  C   UNL     1      11.809 -27.567 -28.640  1.00  0.00     0.000 C 
BRANCH   3   4
ATOM      4  C   UNL     1      12.121 -26.102 -28.299  1.00  0.00     0.000 C 
BRANCH   4   5
ATOM      5  C   UNL     1      11.115 -25.120 -28.920  1.00  0.00     0.001 C 
BRANCH   5   6
ATOM      6  C   UNL     1      11.775 -24.141 -29.909  1.00  0.00     0.009 C 
BRANCH   6   7
ATOM      7  C   UNL     1      10.764 -23.574 -30.927  1.00  0.00     0.032 C 
ATOM      8  C   UNL     1       9.510 -24.452 -30.988  1.00  0.00     0.014 C 
BRANCH   7   9
ATOM      9  C   UNL     1      11.372 -23.466 -32.300  1.00  0.00     0.044 C 
ATOM     10  O   UNL     1      12.589 -23.169 -32.429  1.00  0.00    -0.550 OA
ATOM     11  O   UNL     1      10.597 -23.686 -33.432  1.00  0.00    -0.550 OA
ENDBRANCH   7   9
ENDBRANCH   6   7
ENDBRANCH   5   6
ENDBRANCH   4   5
ENDBRANCH   3   4
ENDBRANCH   2   3
ENDBRANCH   1   2
BRANCH   1  12
ATOM     12  C   UNL     1       8.263 -27.438 -28.434  1.00  0.00     0.000 C 
BRANCH  12  13
ATOM     13  C   UNL     1       8.152 -27.379 -26.901  1.00  0.00    -0.000 C 
BRANCH  13  14
ATOM     14  C   UNL     1       9.105 -26.350 -26.267  1.00  0.00    -0.000 C 
BRANCH  14  15
ATOM     15  C   UNL     1      10.172 -26.932 -25.322  1.00  0.00    -0.000 C 
BRANCH  15  16
ATOM     16  C   UNL     1      10.888 -25.855 -24.488  1.00  0.00    -0.000 C 
BRANCH  16  17
ATOM     17  C   UNL     1      10.111 -25.482 -23.215  1.00  0.00    -0.000 C 
BRANCH  17  18
ATOM     18  C   UNL     1       9.372 -24.142 -23.344  1.00  0.00    -0.003 C 
ATOM     19  C   UNL     1      10.298 -23.054 -23.880  1.00  0.00     0.004 C 
ENDBRANCH  17  18
ENDBRANCH  16  17
ENDBRANCH  15  16
ENDBRANCH  14  15
ENDBRANCH  13  14
ENDBRANCH  12  13
ENDBRANCH   1  12
TORSDOF 14
ENDMDL
MODEL 5
REMARK VINA RESULT:    -3.753      4.189      7.016
REMARK INTER + INTRA:          -9.165
REMARK INTER:                  -7.730
REMARK INTRA:                  -1.435
REMARK UNBOUND:                -2.341
REMARK SMILES CCCCCCCCCCCCCC[C@H](C)C(=O)[O-]
REMARK SMILES IDX 9 1 10 2 11 3 12 4 13 5 14 6 15 7 16 8 17 9 18 10 19 11 8 12
REMARK SMILES IDX 7 13 6 14 5 15 4 16 3 17 2 18 1 19
REMARK H PARENT
REMARK Flexibility Score: inf
ROOT
ATOM      1  C   UNL     1       8.387 -27.067 -26.984  1.00  0.00     0.000 C 
ENDROOT
BRANCH   1   2
ATOM      2  C   UNL     1       9.835 -27.006 -26.463  1.00  0.00     0.000 C 
BRANCH   2   3
ATOM      3  C   UNL     1      10.348 -25.569 -26.280  1.00  0.00     0.000 C 
BRANCH   3   4
ATOM      4  C   UNL     1      11.314 -25.480 -25.089  1.00  0.00     0.000 C 
BRANCH   4   5
ATOM      5  C   UNL     1      10.931 -24.371 -24.096  1.00  0.00     0.001 C 
BRANCH   5   6
ATOM      6  C   UNL     1       9.419 -24.328 -23.807  1.00  0.00     0.009 C 
BRANCH   6   7
ATOM      7  C   UNL     1       9.020 -23.087 -22.983  1.00  0.00     0.032 C 
ATOM      8  C   UNL     1       9.625 -21.818 -23.592  1.00  0.00     0.014 C 
BRANCH   7   9
ATOM      9  C   UNL     1       9.459 -23.218 -21.549  1.00  0.00     0.044 C 
ATOM     10  O   UNL     1      10.195 -22.337 -21.031  1.00  0.00    -0.550 OA
ATOM     11  O   UNL     1       9.059 -24.311 -20.789  1.00  0.00    -0.550 OA
ENDBRANCH   7   9
ENDBRANCH   6   7
ENDBRANCH   5   6
ENDBRANCH   4   5
ENDBRANCH   3   4
ENDBRANCH   2   3
ENDBRANCH   1   2
BRANCH   1  12
ATOM     12  C   UNL     1       8.192 -27.851 -28.295  1.00  0.00     0.000 C 
BRANCH  12  13
ATOM     13  C   UNL     1       9.517 -28.333 -28.909  1.00  0.00    -0.000 C 
BRANCH  13  14
ATOM     14  C   UNL     1       9.890 -27.583 -30.202  1.00  0.00    -0.000 C 
BRANCH  14  15
ATOM     15  C   UNL     1      10.870 -26.410 -30.025  1.00  0.00    -0.000 C 
BRANCH  15  16
ATOM     16  C   UNL     1      10.161 -25.059 -29.821  1.00  0.00    -0.000 C 
BRANCH  16  17
ATOM     17  C   UNL     1       9.594 -24.488 -31.131  1.00  0.00    -0.000 C 
BRANCH  17  18
ATOM     18  C   UNL     1      10.656 -23.758 -31.967  1.00  0.00    -0.003 C 
ATOM     19  C   UNL     1      11.154 -22.507 -31.250  1.00  0.00     0.004 C 
ENDBRANCH  17  18
ENDBRANCH  16  17
ENDBRANCH  15  16
ENDBRANCH  14  15
ENDBRANCH  13  14
ENDBRANCH  12  13
ENDBRANCH   1  12
TORSDOF 14
ENDMDL
MODEL 6
REMARK VINA RESULT:    -3.749      2.316      5.957
REMARK INTER + INTRA:          -9.158
REMARK INTER:                  -7.428
REMARK INTRA:                  -1.730
REMARK UNBOUND:                -2.341
REMARK SMILES CCCCCCCCCCCCCC[C@H](C)C(=O)[O-]
REMARK SMILES IDX 9 1 10 2 11 3 12 4 13 5 14 6 15 7 16 8 17 9 18 10 19 11 8 12
REMARK SMILES IDX 7 13 6 14 5 15 4 16 3 17 2 18 1 19
REMARK H PARENT
REMARK Flexibility Score: inf
ROOT
ATOM      1  C   UNL     1      10.468 -27.192 -30.088  1.00  0.00     0.000 C 
ENDROOT
BRANCH   1   2
ATOM      2  C   UNL     1       9.386 -28.270 -29.893  1.00  0.00     0.000 C 
BRANCH   2   3
ATOM      3  C   UNL     1       8.439 -27.968 -28.722  1.00  0.00     0.000 C 
BRANCH   3   4
ATOM      4  C   UNL     1       8.858 -26.681 -27.995  1.00  0.00     0.000 C 
BRANCH   4   5
ATOM      5  C   UNL     1       8.932 -26.857 -26.470  1.00  0.00     0.001 C 
BRANCH   5   6
ATOM      6  C   UNL     1      10.361 -26.686 -25.922  1.00  0.00     0.009 C 
BRANCH   6   7
ATOM      7  C   UNL     1      11.335 -27.733 -26.502  1.00  0.00     0.032 C 
ATOM      8  C   UNL     1      11.817 -28.687 -25.405  1.00  0.00     0.014 C 
BRANCH   7   9
ATOM      9  C   UNL     1      12.520 -27.074 -27.156  1.00  0.00     0.044 C 
ATOM     10  O   UNL     1      13.569 -27.736 -27.374  1.00  0.00    -0.550 OA
ATOM     11  O   UNL     1      12.468 -25.734 -27.519  1.00  0.00    -0.550 OA
ENDBRANCH   7   9
ENDBRANCH   6   7
ENDBRANCH   5   6
ENDBRANCH   4   5
ENDBRANCH   3   4
ENDBRANCH   2   3
ENDBRANCH   1   2
BRANCH   1  12
ATOM     12  C   UNL     1      10.954 -27.002 -31.537  1.00  0.00     0.000 C 
BRANCH  12  13
ATOM     13  C   UNL     1      10.590 -25.625 -32.116  1.00  0.00    -0.000 C 
BRANCH  13  14
ATOM     14  C   UNL     1       9.847 -24.726 -31.110  1.00  0.00    -0.000 C 
BRANCH  14  15
ATOM     15  C   UNL     1      10.650 -23.522 -30.583  1.00  0.00    -0.000 C 
BRANCH  15  16
ATOM     16  C   UNL     1      11.867 -23.180 -31.461  1.00  0.00    -0.000 C 
BRANCH  16  17
ATOM     17  C   UNL     1      11.561 -22.080 -32.489  1.00  0.00    -0.000 C 
BRANCH  17  18
ATOM     18  C   UNL     1      11.949 -22.481 -33.920  1.00  0.00    -0.003 C 
ATOM     19  C   UNL     1      13.234 -23.304 -33.929  1.00  0.00     0.004 C 
ENDBRANCH  17  18
ENDBRANCH  16  17
ENDBRANCH  15  16
ENDBRANCH  14  15
ENDBRANCH  13  14
ENDBRANCH  12  13
ENDBRANCH   1  12
TORSDOF 14
ENDMDL
MODEL 7
REMARK VINA RESULT:    -3.691      1.933      2.906
REMARK INTER + INTRA:          -9.053
REMARK INTER:                  -6.847
REMARK INTRA:                  -2.205
REMARK UNBOUND:                -2.341
REMARK SMILES CCCCCCCCCCCCCC[C@H](C)C(=O)[O-]
REMARK SMILES IDX 9 1 10 2 11 3 12 4 13 5 14 6 15 7 16 8 17 9 18 10 19 11 8 12
REMARK SMILES IDX 7 13 6 14 5 15 4 16 3 17 2 18 1 19
REMARK H PARENT
REMARK Flexibility Score: inf
ROOT
ATOM      1  C   UNL     1       8.727 -29.437 -29.265  1.00  0.00     0.000 C 
ENDROOT
BRANCH   1   2
ATOM      2  C   UNL     1       8.451 -28.013 -28.750  1.00  0.00     0.000 C 
BRANCH   2   3
ATOM      3  C   UNL     1       9.240 -26.934 -29.508  1.00  0.00     0.000 C 
BRANCH   3   4
ATOM      4  C   UNL     1      10.369 -27.563 -30.338  1.00  0.00     0.000 C 
BRANCH   4   5
ATOM      5  C   UNL     1      10.904 -26.618 -31.425  1.00  0.00     0.001 C 
BRANCH   5   6
ATOM      6  C   UNL     1      10.499 -25.151 -31.189  1.00  0.00     0.009 C 
BRANCH   6   7
ATOM      7  C   UNL     1      11.647 -24.172 -31.509  1.00  0.00     0.032 C 
ATOM      8  C   UNL     1      11.721 -23.063 -30.455  1.00  0.00     0.014 C 
BRANCH   7   9
ATOM      9  C   UNL     1      11.482 -23.562 -32.875  1.00  0.00     0.044 C 
ATOM     10  O   UNL     1      10.420 -23.749 -33.526  1.00  0.00    -0.550 OA
ATOM     11  O   UNL     1      12.498 -22.793 -33.429  1.00  0.00    -0.550 OA
ENDBRANCH   7   9
ENDBRANCH   6   7
ENDBRANCH   5   6
ENDBRANCH   4   5
ENDBRANCH   3   4
ENDBRANCH   2   3
ENDBRANCH   1   2
BRANCH   1  12
ATOM     12  C   UNL     1       9.196 -30.443 -28.198  1.00  0.00     0.000 C 
BRANCH  12  13
ATOM     13  C   UNL     1      10.726 -30.513 -28.071  1.00  0.00    -0.000 C 
BRANCH  13  14
ATOM     14  C   UNL     1      11.264 -29.752 -26.844  1.00  0.00    -0.000 C 
BRANCH  14  15
ATOM     15  C   UNL     1      11.761 -28.322 -27.121  1.00  0.00    -0.000 C 
BRANCH  15  16
ATOM     16  C   UNL     1      11.241 -27.296 -26.098  1.00  0.00    -0.000 C 
BRANCH  16  17
ATOM     17  C   UNL     1      11.011 -25.909 -26.719  1.00  0.00    -0.000 C 
BRANCH  17  18
ATOM     18  C   UNL     1      12.125 -25.506 -27.697  1.00  0.00    -0.003 C 
ATOM     19  C   UNL     1      13.338 -24.957 -26.950  1.00  0.00     0.004 C 
ENDBRANCH  17  18
ENDBRANCH  16  17
ENDBRANCH  15  16
ENDBRANCH  14  15
ENDBRANCH  13  14
ENDBRANCH  12  13
ENDBRANCH   1  12
TORSDOF 14
ENDMDL
MODEL 8
REMARK VINA RESULT:    -3.681      1.678      3.255
REMARK INTER + INTRA:          -9.035
REMARK INTER:                  -6.793
REMARK INTRA:                  -2.242
REMARK UNBOUND:                -2.341
REMARK SMILES CCCCCCCCCCCCCC[C@H](C)C(=O)[O-]
REMARK SMILES IDX 9 1 10 2 11 3 12 4 13 5 14 6 15 7 16 8 17 9 18 10 19 11 8 12
REMARK SMILES IDX 7 13 6 14 5 15 4 16 3 17 2 18 1 19
REMARK H PARENT
REMARK Flexibility Score: inf
ROOT
ATOM      1  C   UNL     1       8.545 -27.429 -27.073  1.00  0.00     0.000 C 
ENDROOT
BRANCH   1   2
ATOM      2  C   UNL     1       8.253 -27.379 -28.584  1.00  0.00     0.000 C 
BRANCH   2   3
ATOM      3  C   UNL     1       9.227 -28.229 -29.414  1.00  0.00     0.000 C 
BRANCH   3   4
ATOM      4  C   UNL     1      10.187 -27.336 -30.215  1.00  0.00     0.000 C 
BRANCH   4   5
ATOM      5  C   UNL     1       9.825 -25.845 -30.128  1.00  0.00     0.001 C 
BRANCH   5   6
ATOM      6  C   UNL     1      11.065 -24.931 -30.147  1.00  0.00     0.009 C 
BRANCH   6   7
ATOM      7  C   UNL     1      10.863 -23.698 -31.051  1.00  0.00     0.032 C 
ATOM      8  C   UNL     1      11.028 -24.078 -32.526  1.00  0.00     0.014 C 
BRANCH   7   9
ATOM      9  C   UNL     1      11.830 -22.598 -30.700  1.00  0.00     0.044 C 
ATOM     10  O   UNL     1      11.451 -21.397 -30.710  1.00  0.00    -0.550 OA
ATOM     11  O   UNL     1      13.146 -22.899 -30.369  1.00  0.00    -0.550 OA
ENDBRANCH   7   9
ENDBRANCH   6   7
ENDBRANCH   5   6
ENDBRANCH   4   5
ENDBRANCH   3   4
ENDBRANCH   2   3
ENDBRANCH   1   2
BRANCH   1  12
ATOM     12  C   UNL     1       9.412 -26.276 -26.532  1.00  0.00     0.000 C 
BRANCH  12  13
ATOM     13  C   UNL     1      10.215 -26.666 -25.280  1.00  0.00    -0.000 C 
BRANCH  13  14
ATOM     14  C   UNL     1      11.736 -26.679 -25.521  1.00  0.00    -0.000 C 
BRANCH  14  15
ATOM     15  C   UNL     1      12.173 -26.570 -26.993  1.00  0.00    -0.000 C 
BRANCH  15  16
ATOM     16  C   UNL     1      12.767 -27.879 -27.543  1.00  0.00    -0.000 C 
BRANCH  16  17
ATOM     17  C   UNL     1      13.312 -28.790 -26.432  1.00  0.00    -0.000 C 
BRANCH  17  18
ATOM     18  C   UNL     1      12.622 -30.162 -26.400  1.00  0.00    -0.003 C 
ATOM     19  C   UNL     1      11.302 -30.131 -27.165  1.00  0.00     0.004 C 
ENDBRANCH  17  18
ENDBRANCH  16  17
ENDBRANCH  15  16
ENDBRANCH  14  15
ENDBRANCH  13  14
ENDBRANCH  12  13
ENDBRANCH   1  12
TORSDOF 14
ENDMDL
MODEL 9
REMARK VINA RESULT:    -3.657      1.490      2.702
REMARK INTER + INTRA:          -8.991
REMARK INTER:                  -7.554
REMARK INTRA:                  -1.437
REMARK UNBOUND:                -2.341
REMARK SMILES CCCCCCCCCCCCCC[C@H](C)C(=O)[O-]
REMARK SMILES IDX 9 1 10 2 11 3 12 4 13 5 14 6 15 7 16 8 17 9 18 10 19 11 8 12
REMARK SMILES IDX 7 13 6 14 5 15 4 16 3 17 2 18 1 19
REMARK H PARENT
REMARK Flexibility Score: inf
ROOT
ATOM      1  C   UNL     1       9.508 -24.700 -30.803  1.00  0.00     0.000 C 
ENDROOT
BRANCH   1   2
ATOM      2  C   UNL     1       9.951 -24.520 -32.267  1.00  0.00     0.000 C 
BRANCH   2   3
ATOM      3  C   UNL     1      11.420 -24.093 -32.404  1.00  0.00     0.000 C 
BRANCH   3   4
ATOM      4  C   UNL     1      11.557 -22.901 -33.363  1.00  0.00     0.000 C 
BRANCH   4   5
ATOM      5  C   UNL     1      11.410 -21.546 -32.653  1.00  0.00     0.001 C 
BRANCH   5   6
ATOM      6  C   UNL     1      11.558 -21.658 -31.124  1.00  0.00     0.009 C 
BRANCH   6   7
ATOM      7  C   UNL     1      12.911 -21.106 -30.630  1.00  0.00     0.032 C 
ATOM      8  C   UNL     1      13.428 -20.018 -31.576  1.00  0.00     0.014 C 
BRANCH   7   9
ATOM      9  C   UNL     1      13.938 -22.201 -30.509  1.00  0.00     0.044 C 
ATOM     10  O   UNL     1      14.049 -22.847 -29.434  1.00  0.00    -0.550 OA
ATOM     11  O   UNL     1      14.772 -22.503 -31.579  1.00  0.00    -0.550 OA
ENDBRANCH   7   9
ENDBRANCH   6   7
ENDBRANCH   5   6
ENDBRANCH   4   5
ENDBRANCH   3   4
ENDBRANCH   2   3
ENDBRANCH   1   2
BRANCH   1  12
ATOM     12  C   UNL     1      10.354 -25.685 -29.976  1.00  0.00     0.000 C 
BRANCH  12  13
ATOM     13  C   UNL     1      10.254 -27.133 -30.480  1.00  0.00    -0.000 C 
BRANCH  13  14
ATOM     14  C   UNL     1       9.809 -28.123 -29.387  1.00  0.00    -0.000 C 
BRANCH  14  15
ATOM     15  C   UNL     1       8.331 -28.025 -28.970  1.00  0.00    -0.000 C 
BRANCH  15  16
ATOM     16  C   UNL     1       8.136 -27.350 -27.600  1.00  0.00    -0.000 C 
BRANCH  16  17
ATOM     17  C   UNL     1       9.451 -27.218 -26.817  1.00  0.00    -0.000 C 
BRANCH  17  18
ATOM     18  C   UNL     1       9.410 -26.089 -25.776  1.00  0.00    -0.003 C 
ATOM     19  C   UNL     1      10.730 -25.325 -25.743  1.00  0.00     0.004 C 
ENDBRANCH  17  18
ENDBRANCH  16  17
ENDBRANCH  15  16
ENDBRANCH  14  15
ENDBRANCH  13  14
ENDBRANCH  12  13
ENDBRANCH   1  12
TORSDOF 14
ENDMDL
