MODEL 1
REMARK VINA RESULT:    -3.137      0.000      0.000
REMARK INTER + INTRA:          -4.017
REMARK INTER:                  -3.870
REMARK INTRA:                  -0.147
REMARK UNBOUND:                -0.147
REMARK SMILES CCCCCC(=O)[O-]
REMARK SMILES IDX 4 1 5 2 6 3 7 4 8 5 3 6 2 7 1 8
REMARK H PARENT
REMARK Flexibility Score: inf
ROOT
ATOM      1  C   UNL     1      59.983  -0.669  95.658  1.00  0.00     0.006 C 
ENDROOT
BRANCH   1   2
ATOM      2  C   UNL     1      60.977  -1.175  94.603  1.00  0.00     0.053 C 
BRANCH   2   3
ATOM      3  C   UNL     1      60.395  -1.129  93.224  1.00  0.00     0.041 C 
ATOM      4  O   UNL     1      59.637  -0.182  92.887  1.00  0.00    -0.550 OA
ATOM      5  O   UNL     1      60.662  -2.151  92.322  1.00  0.00    -0.550 OA
ENDBRANCH   2   3
ENDBRANCH   1   2
BRANCH   1   6
ATOM      6  C   UNL     1      60.673   0.131  96.772  1.00  0.00     0.000 C 
BRANCH   6   7
ATOM      7  C   UNL     1      59.989   1.487  96.980  1.00  0.00    -0.003 C 
ATOM      8  C   UNL     1      58.690   1.578  96.184  1.00  0.00     0.004 C 
ENDBRANCH   6   7
ENDBRANCH   1   6
TORSDOF 4
ENDMDL
MODEL 2
REMARK VINA RESULT:    -2.945      0.896      1.395
REMARK INTER + INTRA:          -3.780
REMARK INTER:                  -3.716
REMARK INTRA:                  -0.064
REMARK UNBOUND:                -0.147
REMARK SMILES CCCCCC(=O)[O-]
REMARK SMILES IDX 4 1 5 2 6 3 7 4 8 5 3 6 2 7 1 8
REMARK H PARENT
REMARK Flexibility Score: inf
ROOT
ATOM      1  C   UNL     1      61.015  -0.964  94.535  1.00  0.00     0.006 C 
ENDROOT
BRANCH   1   2
ATOM      2  C   UNL     1      60.503  -2.048  93.577  1.00  0.00     0.053 C 
BRANCH   2   3
ATOM      3  C   UNL     1      59.934  -1.458  92.323  1.00  0.00     0.041 C 
ATOM      4  O   UNL     1      59.892  -0.208  92.173  1.00  0.00    -0.550 OA
ATOM      5  O   UNL     1      59.418  -2.287  91.335  1.00  0.00    -0.550 OA
ENDBRANCH   2   3
ENDBRANCH   1   2
BRANCH   1   6
ATOM      6  C   UNL     1      60.002  -0.641  95.644  1.00  0.00     0.000 C 
BRANCH   6   7
ATOM      7  C   UNL     1      60.662   0.154  96.776  1.00  0.00    -0.003 C 
ATOM      8  C   UNL     1      59.950   1.484  97.004  1.00  0.00     0.004 C 
ENDBRANCH   6   7
ENDBRANCH   1   6
TORSDOF 4
ENDMDL
MODEL 3
REMARK VINA RESULT:    -2.914      2.499      4.093
REMARK INTER + INTRA:          -3.742
REMARK INTER:                  -3.585
REMARK INTRA:                  -0.157
REMARK UNBOUND:                -0.147
REMARK SMILES CCCCCC(=O)[O-]
REMARK SMILES IDX 4 1 5 2 6 3 7 4 8 5 3 6 2 7 1 8
REMARK H PARENT
REMARK Flexibility Score: inf
ROOT
ATOM      1  C   UNL     1      59.985  -0.637  95.902  1.00  0.00     0.006 C 
ENDROOT
BRANCH   1   2
ATOM      2  C   UNL     1      60.347   0.565  96.783  1.00  0.00     0.053 C 
BRANCH   2   3
ATOM      3  C   UNL     1      59.345   1.671  96.654  1.00  0.00     0.041 C 
ATOM      4  O   UNL     1      58.238   1.461  96.091  1.00  0.00    -0.550 OA
ATOM      5  O   UNL     1      59.647   2.942  97.125  1.00  0.00    -0.550 OA
ENDBRANCH   2   3
ENDBRANCH   1   2
BRANCH   1   6
ATOM      6  C   UNL     1      61.108  -0.999  94.919  1.00  0.00     0.000 C 
BRANCH   6   7
ATOM      7  C   UNL     1      60.537  -1.399  93.554  1.00  0.00    -0.003 C 
ATOM      8  C   UNL     1      59.688  -0.279  92.960  1.00  0.00     0.004 C 
ENDBRANCH   6   7
ENDBRANCH   1   6
TORSDOF 4
ENDMDL
MODEL 4
REMARK VINA RESULT:    -2.797      2.765      3.306
REMARK INTER + INTRA:          -3.598
REMARK INTER:                  -3.388
REMARK INTRA:                  -0.211
REMARK UNBOUND:                -0.147
REMARK SMILES CCCCCC(=O)[O-]
REMARK SMILES IDX 4 1 5 2 6 3 7 4 8 5 3 6 2 7 1 8
REMARK H PARENT
REMARK Flexibility Score: inf
ROOT
ATOM      1  C   UNL     1      59.362  -0.096  94.691  1.00  0.00     0.006 C 
ENDROOT
BRANCH   1   2
ATOM      2  C   UNL     1      58.216  -1.114  94.775  1.00  0.00     0.053 C 
BRANCH   2   3
ATOM      3  C   UNL     1      57.375  -0.906  95.997  1.00  0.00     0.041 C 
ATOM      4  O   UNL     1      56.860   0.221  96.227  1.00  0.00    -0.550 OA
ATOM      5  O   UNL     1      57.189  -1.944  96.899  1.00  0.00    -0.550 OA
ENDBRANCH   2   3
ENDBRANCH   1   2
BRANCH   1   6
ATOM      6  C   UNL     1      60.660  -0.627  95.317  1.00  0.00     0.000 C 
BRANCH   6   7
ATOM      7  C   UNL     1      60.806  -0.150  96.767  1.00  0.00    -0.003 C 
ATOM      8  C   UNL     1      60.238   1.255  96.946  1.00  0.00     0.004 C 
ENDBRANCH   6   7
ENDBRANCH   1   6
TORSDOF 4
ENDMDL
MODEL 5
REMARK VINA RESULT:    -2.746      2.316      3.974
REMARK INTER + INTRA:          -3.534
REMARK INTER:                  -3.370
REMARK INTRA:                  -0.165
REMARK UNBOUND:                -0.147
REMARK SMILES CCCCCC(=O)[O-]
REMARK SMILES IDX 4 1 5 2 6 3 7 4 8 5 3 6 2 7 1 8
REMARK H PARENT
REMARK Flexibility Score: inf
ROOT
ATOM      1  C   UNL     1      61.042  -1.026  94.924  1.00  0.00     0.006 C 
ENDROOT
BRANCH   1   2
ATOM      2  C   UNL     1      60.530  -0.146  96.072  1.00  0.00     0.053 C 
BRANCH   2   3
ATOM      3  C   UNL     1      59.035  -0.056  96.080  1.00  0.00     0.041 C 
ATOM      4  O   UNL     1      58.467   1.057  95.925  1.00  0.00    -0.550 OA
ATOM      5  O   UNL     1      58.270  -1.195  96.293  1.00  0.00    -0.550 OA
ENDBRANCH   2   3
ENDBRANCH   1   2
BRANCH   1   6
ATOM      6  C   UNL     1      60.374  -0.683  93.585  1.00  0.00     0.000 C 
BRANCH   6   7
ATOM      7  C   UNL     1      60.286  -1.918  92.681  1.00  0.00    -0.003 C 
ATOM      8  C   UNL     1      60.729  -3.176  93.421  1.00  0.00     0.004 C 
ENDBRANCH   6   7
ENDBRANCH   1   6
TORSDOF 4
ENDMDL
MODEL 6
REMARK VINA RESULT:    -2.700      1.555      2.480
REMARK INTER + INTRA:          -3.479
REMARK INTER:                  -3.348
REMARK INTRA:                  -0.130
REMARK UNBOUND:                -0.147
REMARK SMILES CCCCCC(=O)[O-]
REMARK SMILES IDX 4 1 5 2 6 3 7 4 8 5 3 6 2 7 1 8
REMARK H PARENT
REMARK Flexibility Score: inf
ROOT
ATOM      1  C   UNL     1      60.160  -2.113  93.829  1.00  0.00     0.006 C 
ENDROOT
BRANCH   1   2
ATOM      2  C   UNL     1      60.379  -2.044  92.312  1.00  0.00     0.053 C 
BRANCH   2   3
ATOM      3  C   UNL     1      59.371  -1.161  91.644  1.00  0.00     0.041 C 
ATOM      4  O   UNL     1      58.477  -1.661  90.911  1.00  0.00    -0.550 OA
ATOM      5  O   UNL     1      59.439   0.217  91.803  1.00  0.00    -0.550 OA
ENDBRANCH   2   3
ENDBRANCH   1   2
BRANCH   1   6
ATOM      6  C   UNL     1      61.095  -1.166  94.596  1.00  0.00     0.000 C 
BRANCH   6   7
ATOM      7  C   UNL     1      60.295  -0.109  95.367  1.00  0.00    -0.003 C 
ATOM      8  C   UNL     1      60.720  -0.055  96.831  1.00  0.00     0.004 C 
ENDBRANCH   6   7
ENDBRANCH   1   6
TORSDOF 4
ENDMDL
MODEL 7
REMARK VINA RESULT:    -2.697      1.406      2.295
REMARK INTER + INTRA:          -3.475
REMARK INTER:                  -3.353
REMARK INTRA:                  -0.122
REMARK UNBOUND:                -0.147
REMARK SMILES CCCCCC(=O)[O-]
REMARK SMILES IDX 4 1 5 2 6 3 7 4 8 5 3 6 2 7 1 8
REMARK H PARENT
REMARK Flexibility Score: inf
ROOT
ATOM      1  C   UNL     1      60.070  -0.633  93.650  1.00  0.00     0.006 C 
ENDROOT
BRANCH   1   2
ATOM      2  C   UNL     1      60.769  -1.920  94.107  1.00  0.00     0.053 C 
BRANCH   2   3
ATOM      3  C   UNL     1      60.738  -2.976  93.045  1.00  0.00     0.041 C 
ATOM      4  O   UNL     1      60.951  -4.181  93.344  1.00  0.00    -0.550 OA
ATOM      5  O   UNL     1      60.510  -2.626  91.721  1.00  0.00    -0.550 OA
ENDBRANCH   2   3
ENDBRANCH   1   2
BRANCH   1   6
ATOM      6  C   UNL     1      59.144  -0.057  94.731  1.00  0.00     0.000 C 
BRANCH   6   7
ATOM      7  C   UNL     1      59.635  -0.433  96.134  1.00  0.00    -0.003 C 
ATOM      8  C   UNL     1      60.422   0.710  96.768  1.00  0.00     0.004 C 
ENDBRANCH   6   7
ENDBRANCH   1   6
TORSDOF 4
ENDMDL
MODEL 8
REMARK VINA RESULT:    -2.529     19.986     21.536
REMARK INTER + INTRA:          -3.267
REMARK INTER:                  -3.063
REMARK INTRA:                  -0.204
REMARK UNBOUND:                -0.147
REMARK SMILES CCCCCC(=O)[O-]
REMARK SMILES IDX 4 1 5 2 6 3 7 4 8 5 3 6 2 7 1 8
REMARK H PARENT
REMARK Flexibility Score: inf
ROOT
ATOM      1  C   UNL     1      48.762  -7.212  77.404  1.00  0.00     0.006 C 
ENDROOT
BRANCH   1   2
ATOM      2  C   UNL     1      47.563  -6.413  76.875  1.00  0.00     0.053 C 
BRANCH   2   3
ATOM      3  C   UNL     1      47.649  -4.966  77.251  1.00  0.00     0.041 C 
ATOM      4  O   UNL     1      46.605  -4.265  77.315  1.00  0.00    -0.550 OA
ATOM      5  O   UNL     1      48.885  -4.383  77.497  1.00  0.00    -0.550 OA
ENDBRANCH   2   3
ENDBRANCH   1   2
BRANCH   1   6
ATOM      6  C   UNL     1      48.381  -8.125  78.579  1.00  0.00     0.000 C 
BRANCH   6   7
ATOM      7  C   UNL     1      49.146  -7.736  79.849  1.00  0.00    -0.003 C 
ATOM      8  C   UNL     1      48.387  -6.681  80.648  1.00  0.00     0.004 C 
ENDBRANCH   6   7
ENDBRANCH   1   6
TORSDOF 4
ENDMDL
MODEL 9
REMARK VINA RESULT:    -1.125      2.753      4.023
REMARK INTER + INTRA:          -1.535
REMARK INTER:                  -1.311
REMARK INTRA:                  -0.224
REMARK UNBOUND:                -0.147
REMARK SMILES CCCCCC(=O)[O-]
REMARK SMILES IDX 4 1 5 2 6 3 7 4 8 5 3 6 2 7 1 8
REMARK H PARENT
REMARK Flexibility Score: inf
ROOT
ATOM      1  C   UNL     1      58.281  -0.961  96.008  1.00  0.00     0.006 C 
ENDROOT
BRANCH   1   2
ATOM      2  C   UNL     1      56.996  -0.192  95.672  1.00  0.00     0.053 C 
BRANCH   2   3
ATOM      3  C   UNL     1      57.169   1.285  95.850  1.00  0.00     0.041 C 
ATOM      4  O   UNL     1      57.240   2.041  94.845  1.00  0.00    -0.550 OA
ATOM      5  O   UNL     1      57.287   1.823  97.125  1.00  0.00    -0.550 OA
ENDBRANCH   2   3
ENDBRANCH   1   2
BRANCH   1   6
ATOM      6  C   UNL     1      59.323  -0.874  94.883  1.00  0.00     0.000 C 
BRANCH   6   7
ATOM      7  C   UNL     1      60.735  -0.702  95.454  1.00  0.00    -0.003 C 
ATOM      8  C   UNL     1      60.720   0.159  96.713  1.00  0.00     0.004 C 
ENDBRANCH   6   7
ENDBRANCH   1   6
TORSDOF 4
ENDMDL
