MODEL 1
REMARK VINA RESULT:    -3.693      0.000      0.000
REMARK INTER + INTRA:          -4.017
REMARK INTER:                  -4.017
REMARK INTRA:                   0.000
REMARK UNBOUND:                 0.000
REMARK SMILES [NH3+]CC(=O)[O-]
REMARK SMILES IDX 2 1 1 2 3 6 4 7 5 8
REMARK H PARENT 1 3 1 4 1 5
REMARK Flexibility Score: inf
ROOT
ATOM      1  C   UNL     1      61.586  23.896  27.853  1.00  0.00     0.312 C 
ENDROOT
BRANCH   1   2
ATOM      2  N   UNL     1      61.720  22.597  28.508  1.00  0.00    -0.353 N 
ATOM      3  H   UNL     1      62.526  22.611  29.174  1.00  0.00     0.344 HD
ATOM      4  H   UNL     1      60.844  22.390  29.041  1.00  0.00     0.344 HD
ATOM      5  H   UNL     1      61.866  21.847  27.793  1.00  0.00     0.344 HD
ENDBRANCH   1   2
BRANCH   1   6
ATOM      6  C   UNL     1      61.093  23.730  26.448  1.00  0.00     0.096 C 
ATOM      7  O   UNL     1      61.171  24.686  25.632  1.00  0.00    -0.544 OA
ATOM      8  O   UNL     1      60.594  22.505  26.026  1.00  0.00    -0.544 OA
ENDBRANCH   1   6
TORSDOF 2
ENDMDL
MODEL 2
REMARK VINA RESULT:    -3.496      0.521      1.433
REMARK INTER + INTRA:          -3.802
REMARK INTER:                  -3.802
REMARK INTRA:                   0.000
REMARK UNBOUND:                 0.000
REMARK SMILES [NH3+]CC(=O)[O-]
REMARK SMILES IDX 2 1 1 2 3 6 4 7 5 8
REMARK H PARENT 1 3 1 4 1 5
REMARK Flexibility Score: inf
ROOT
ATOM      1  C   UNL     1      61.666  23.858  27.791  1.00  0.00     0.312 C 
ENDROOT
BRANCH   1   2
ATOM      2  N   UNL     1      61.731  22.621  28.567  1.00  0.00    -0.353 N 
ATOM      3  H   UNL     1      61.654  22.833  29.589  1.00  0.00     0.344 HD
ATOM      4  H   UNL     1      60.935  22.001  28.290  1.00  0.00     0.344 HD
ATOM      5  H   UNL     1      62.630  22.123  28.376  1.00  0.00     0.344 HD
ENDBRANCH   1   2
BRANCH   1   6
ATOM      6  C   UNL     1      60.841  23.663  26.556  1.00  0.00     0.096 C 
ATOM      7  O   UNL     1      60.752  22.524  26.027  1.00  0.00    -0.544 OA
ATOM      8  O   UNL     1      60.129  24.728  26.020  1.00  0.00    -0.544 OA
ENDBRANCH   1   6
TORSDOF 2
ENDMDL
MODEL 3
REMARK VINA RESULT:    -3.387     11.212     11.632
REMARK INTER + INTRA:          -3.684
REMARK INTER:                  -3.684
REMARK INTRA:                   0.000
REMARK UNBOUND:                 0.000
REMARK SMILES [NH3+]CC(=O)[O-]
REMARK SMILES IDX 2 1 1 2 3 6 4 7 5 8
REMARK H PARENT 1 3 1 4 1 5
REMARK Flexibility Score: inf
ROOT
ATOM      1  C   UNL     1      64.659  29.003  36.534  1.00  0.00     0.312 C 
ENDROOT
BRANCH   1   2
ATOM      2  N   UNL     1      65.417  29.876  37.429  1.00  0.00    -0.353 N 
ATOM      3  H   UNL     1      66.135  29.322  37.949  1.00  0.00     0.344 HD
ATOM      4  H   UNL     1      65.901  30.610  36.863  1.00  0.00     0.344 HD
ATOM      5  H   UNL     1      64.771  30.343  38.107  1.00  0.00     0.344 HD
ENDBRANCH   1   2
BRANCH   1   6
ATOM      6  C   UNL     1      65.501  27.846  36.090  1.00  0.00     0.096 C 
ATOM      7  O   UNL     1      64.968  26.857  35.520  1.00  0.00    -0.544 OA
ATOM      8  O   UNL     1      66.878  27.882  36.259  1.00  0.00    -0.544 OA
ENDBRANCH   1   6
TORSDOF 2
ENDMDL
MODEL 4
REMARK VINA RESULT:    -3.363     11.159     11.515
REMARK INTER + INTRA:          -3.658
REMARK INTER:                  -3.658
REMARK INTRA:                   0.000
REMARK UNBOUND:                 0.000
REMARK SMILES [NH3+]CC(=O)[O-]
REMARK SMILES IDX 2 1 1 2 3 6 4 7 5 8
REMARK H PARENT 1 3 1 4 1 5
REMARK Flexibility Score: inf
ROOT
ATOM      1  C   UNL     1      64.668  28.825  36.512  1.00  0.00     0.312 C 
ENDROOT
BRANCH   1   2
ATOM      2  N   UNL     1      65.390  29.794  37.334  1.00  0.00    -0.353 N 
ATOM      3  H   UNL     1      64.849  30.687  37.397  1.00  0.00     0.344 HD
ATOM      4  H   UNL     1      65.512  29.403  38.297  1.00  0.00     0.344 HD
ATOM      5  H   UNL     1      66.334  29.981  36.923  1.00  0.00     0.344 HD
ENDBRANCH   1   2
BRANCH   1   6
ATOM      6  C   UNL     1      65.573  27.704  36.100  1.00  0.00     0.096 C 
ATOM      7  O   UNL     1      66.823  27.833  36.193  1.00  0.00    -0.544 OA
ATOM      8  O   UNL     1      65.037  26.501  35.663  1.00  0.00    -0.544 OA
ENDBRANCH   1   6
TORSDOF 2
ENDMDL
MODEL 5
REMARK VINA RESULT:    -3.239     10.117     10.590
REMARK INTER + INTRA:          -3.523
REMARK INTER:                  -3.523
REMARK INTRA:                   0.000
REMARK UNBOUND:                 0.000
REMARK SMILES [NH3+]CC(=O)[O-]
REMARK SMILES IDX 2 1 1 2 3 6 4 7 5 8
REMARK H PARENT 1 3 1 4 1 5
REMARK Flexibility Score: inf
ROOT
ATOM      1  C   UNL     1      61.283  13.382  29.868  1.00  0.00     0.312 C 
ENDROOT
BRANCH   1   2
ATOM      2  N   UNL     1      61.162  14.838  29.819  1.00  0.00    -0.353 N 
ATOM      3  H   UNL     1      61.828  15.277  30.496  1.00  0.00     0.344 HD
ATOM      4  H   UNL     1      61.393  15.168  28.854  1.00  0.00     0.344 HD
ATOM      5  H   UNL     1      60.183  15.125  30.050  1.00  0.00     0.344 HD
ENDBRANCH   1   2
BRANCH   1   6
ATOM      6  C   UNL     1      61.218  12.801  28.488  1.00  0.00     0.096 C 
ATOM      7  O   UNL     1      60.543  11.761  28.270  1.00  0.00    -0.544 OA
ATOM      8  O   UNL     1      61.862  13.437  27.435  1.00  0.00    -0.544 OA
ENDBRANCH   1   6
TORSDOF 2
ENDMDL
MODEL 6
REMARK VINA RESULT:    -3.218     10.620     10.881
REMARK INTER + INTRA:          -3.500
REMARK INTER:                  -3.500
REMARK INTRA:                   0.000
REMARK UNBOUND:                 0.000
REMARK SMILES [NH3+]CC(=O)[O-]
REMARK SMILES IDX 2 1 1 2 3 6 4 7 5 8
REMARK H PARENT 1 3 1 4 1 5
REMARK Flexibility Score: inf
ROOT
ATOM      1  C   UNL     1      66.785  26.759  36.187  1.00  0.00     0.312 C 
ENDROOT
BRANCH   1   2
ATOM      2  N   UNL     1      67.596  25.604  36.569  1.00  0.00    -0.353 N 
ATOM      3  H   UNL     1      68.522  25.922  36.937  1.00  0.00     0.344 HD
ATOM      4  H   UNL     1      67.099  25.069  37.318  1.00  0.00     0.344 HD
ATOM      5  H   UNL     1      67.740  24.977  35.744  1.00  0.00     0.344 HD
ENDBRANCH   1   2
BRANCH   1   6
ATOM      6  C   UNL     1      65.329  26.405  36.193  1.00  0.00     0.096 C 
ATOM      7  O   UNL     1      64.495  27.149  35.614  1.00  0.00    -0.544 OA
ATOM      8  O   UNL     1      64.901  25.228  36.793  1.00  0.00    -0.544 OA
ENDBRANCH   1   6
TORSDOF 2
ENDMDL
MODEL 7
REMARK VINA RESULT:    -3.190     10.252     10.427
REMARK INTER + INTRA:          -3.469
REMARK INTER:                  -3.469
REMARK INTRA:                   0.000
REMARK UNBOUND:                 0.000
REMARK SMILES [NH3+]CC(=O)[O-]
REMARK SMILES IDX 2 1 1 2 3 6 4 7 5 8
REMARK H PARENT 1 3 1 4 1 5
REMARK Flexibility Score: inf
ROOT
ATOM      1  C   UNL     1      60.937  13.805  30.694  1.00  0.00     0.312 C 
ENDROOT
BRANCH   1   2
ATOM      2  N   UNL     1      61.165  14.850  29.697  1.00  0.00    -0.353 N 
ATOM      3  H   UNL     1      61.801  14.497  28.945  1.00  0.00     0.344 HD
ATOM      4  H   UNL     1      60.249  15.118  29.268  1.00  0.00     0.344 HD
ATOM      5  H   UNL     1      61.587  15.693  30.150  1.00  0.00     0.344 HD
ENDBRANCH   1   2
BRANCH   1   6
ATOM      6  C   UNL     1      59.923  14.251  31.702  1.00  0.00     0.096 C 
ATOM      7  O   UNL     1      60.217  15.136  32.549  1.00  0.00    -0.544 OA
ATOM      8  O   UNL     1      58.637  13.727  31.674  1.00  0.00    -0.544 OA
ENDBRANCH   1   6
TORSDOF 2
ENDMDL
MODEL 8
REMARK VINA RESULT:    -3.154     10.760     11.073
REMARK INTER + INTRA:          -3.431
REMARK INTER:                  -3.431
REMARK INTRA:                   0.000
REMARK UNBOUND:                 0.000
REMARK SMILES [NH3+]CC(=O)[O-]
REMARK SMILES IDX 2 1 1 2 3 6 4 7 5 8
REMARK H PARENT 1 3 1 4 1 5
REMARK Flexibility Score: inf
ROOT
ATOM      1  C   UNL     1      60.903  14.414  30.956  1.00  0.00     0.312 C 
ENDROOT
BRANCH   1   2
ATOM      2  N   UNL     1      61.178  14.866  29.594  1.00  0.00    -0.353 N 
ATOM      3  H   UNL     1      61.663  15.792  29.613  1.00  0.00     0.344 HD
ATOM      4  H   UNL     1      61.798  14.169  29.121  1.00  0.00     0.344 HD
ATOM      5  H   UNL     1      60.285  14.945  29.054  1.00  0.00     0.344 HD
ENDBRANCH   1   2
BRANCH   1   6
ATOM      6  C   UNL     1      61.387  13.011  31.154  1.00  0.00     0.096 C 
ATOM      7  O   UNL     1      62.107  12.724  32.147  1.00  0.00    -0.544 OA
ATOM      8  O   UNL     1      61.003  12.011  30.271  1.00  0.00    -0.544 OA
ENDBRANCH   1   6
TORSDOF 2
ENDMDL
MODEL 9
REMARK VINA RESULT:    -3.128     10.707     11.094
REMARK INTER + INTRA:          -3.402
REMARK INTER:                  -3.402
REMARK INTRA:                   0.000
REMARK UNBOUND:                 0.000
REMARK SMILES [NH3+]CC(=O)[O-]
REMARK SMILES IDX 2 1 1 2 3 6 4 7 5 8
REMARK H PARENT 1 3 1 4 1 5
REMARK Flexibility Score: inf
ROOT
ATOM      1  C   UNL     1      60.913  14.425  30.943  1.00  0.00     0.312 C 
ENDROOT
BRANCH   1   2
ATOM      2  N   UNL     1      61.173  14.864  29.573  1.00  0.00    -0.353 N 
ATOM      3  H   UNL     1      61.888  14.244  29.126  1.00  0.00     0.344 HD
ATOM      4  H   UNL     1      60.286  14.810  29.022  1.00  0.00     0.344 HD
ATOM      5  H   UNL     1      61.513  15.853  29.571  1.00  0.00     0.344 HD
ENDBRANCH   1   2
BRANCH   1   6
ATOM      6  C   UNL     1      61.326  12.997  31.126  1.00  0.00     0.096 C 
ATOM      7  O   UNL     1      60.982  12.125  30.285  1.00  0.00    -0.544 OA
ATOM      8  O   UNL     1      62.133  12.638  32.198  1.00  0.00    -0.544 OA
ENDBRANCH   1   6
TORSDOF 2
ENDMDL
