MODEL 1
REMARK VINA RESULT:    -5.688      0.000      0.000
REMARK INTER + INTRA:          -9.801
REMARK INTER:                  -8.681
REMARK INTRA:                  -1.120
REMARK UNBOUND:                -1.120
REMARK SMILES CC(=O)CCC=C(C)CCC=C(C)CCC=C(C)C
REMARK SMILES IDX 10 1 11 2 12 3 13 4 14 5 15 6 16 7 18 8 17 9 19 10 9 11 7 12
REMARK SMILES IDX 6 13 8 14 5 15 4 16 2 17 3 18 1 19
REMARK H PARENT
REMARK Flexibility Score: inf
ROOT
ATOM      1  C   UNL     1      86.084  35.950  27.390  1.00  0.00     0.032 C 
ENDROOT
BRANCH   1   2
ATOM      2  C   UNL     1      85.135  36.314  28.506  1.00  0.00    -0.028 C 
ATOM      3  C   UNL     1      85.340  37.297  29.411  1.00  0.00    -0.077 C 
ATOM      4  C   UNL     1      86.545  38.205  29.348  1.00  0.00     0.039 C 
BRANCH   3   5
ATOM      5  C   UNL     1      84.332  37.491  30.523  1.00  0.00     0.034 C 
BRANCH   5   6
ATOM      6  C   UNL     1      83.315  38.577  30.155  1.00  0.00     0.032 C 
BRANCH   6   7
ATOM      7  C   UNL     1      82.300  38.049  29.172  1.00  0.00    -0.028 C 
ATOM      8  C   UNL     1      81.236  40.289  28.823  1.00  0.00     0.039 C 
ATOM      9  C   UNL     1      81.339  38.801  28.591  1.00  0.00    -0.080 C 
ATOM     10  C   UNL     1      80.356  38.163  27.644  1.00  0.00     0.039 C 
ENDBRANCH   6   7
ENDBRANCH   5   6
ENDBRANCH   3   5
ENDBRANCH   1   2
BRANCH   1  11
ATOM     11  C   UNL     1      85.624  36.539  26.048  1.00  0.00     0.034 C 
BRANCH  11  12
ATOM     12  C   UNL     1      86.628  36.278  24.940  1.00  0.00    -0.077 C 
ATOM     13  C   UNL     1      87.634  37.128  24.627  1.00  0.00    -0.028 C 
ATOM     14  C   UNL     1      86.479  35.022  24.119  1.00  0.00     0.039 C 
BRANCH  13  15
ATOM     15  C   UNL     1      87.960  38.399  25.370  1.00  0.00     0.035 C 
BRANCH  15  16
ATOM     16  C   UNL     1      88.909  38.120  26.540  1.00  0.00     0.079 C 
BRANCH  16  17
ATOM     17  C   UNL     1      89.928  39.221  26.671  1.00  0.00     0.130 C 
ATOM     18  O   UNL     1      90.990  38.992  27.230  1.00  0.00    -0.300 OA
ATOM     19  C   UNL     1      89.674  40.592  26.118  1.00  0.00     0.087 C 
ENDBRANCH  16  17
ENDBRANCH  15  16
ENDBRANCH  13  15
ENDBRANCH  11  12
ENDBRANCH   1  11
TORSDOF 9
ENDMDL
MODEL 2
REMARK VINA RESULT:    -5.636      3.254      7.049
REMARK INTER + INTRA:          -9.721
REMARK INTER:                  -7.951
REMARK INTRA:                  -1.770
REMARK UNBOUND:                -1.120
REMARK SMILES CC(=O)CCC=C(C)CCC=C(C)CCC=C(C)C
REMARK SMILES IDX 10 1 11 2 12 3 13 4 14 5 15 6 16 7 18 8 17 9 19 10 9 11 7 12
REMARK SMILES IDX 6 13 8 14 5 15 4 16 2 17 3 18 1 19
REMARK H PARENT
REMARK Flexibility Score: inf
ROOT
ATOM      1  C   UNL     1      85.972  34.443  29.190  1.00  0.00     0.032 C 
ENDROOT
BRANCH   1   2
ATOM      2  C   UNL     1      86.005  35.162  27.863  1.00  0.00    -0.028 C 
ATOM      3  C   UNL     1      86.279  36.475  27.697  1.00  0.00    -0.077 C 
ATOM      4  C   UNL     1      86.663  37.366  28.854  1.00  0.00     0.039 C 
BRANCH   3   5
ATOM      5  C   UNL     1      86.195  37.072  26.309  1.00  0.00     0.034 C 
BRANCH   5   6
ATOM      6  C   UNL     1      87.579  37.129  25.654  1.00  0.00     0.032 C 
BRANCH   6   7
ATOM      7  C   UNL     1      88.068  38.552  25.559  1.00  0.00    -0.028 C 
ATOM      8  C   UNL     1      89.875  38.215  27.261  1.00  0.00     0.039 C 
ATOM      9  C   UNL     1      89.078  39.063  26.300  1.00  0.00    -0.080 C 
ATOM     10  C   UNL     1      89.466  40.510  26.144  1.00  0.00     0.039 C 
ENDBRANCH   6   7
ENDBRANCH   5   6
ENDBRANCH   3   5
ENDBRANCH   1   2
BRANCH   1  11
ATOM     11  C   UNL     1      84.532  34.259  29.692  1.00  0.00     0.034 C 
BRANCH  11  12
ATOM     12  C   UNL     1      84.180  35.253  30.784  1.00  0.00    -0.077 C 
ATOM     13  C   UNL     1      84.392  35.022  32.101  1.00  0.00    -0.028 C 
ATOM     14  C   UNL     1      83.528  36.553  30.387  1.00  0.00     0.039 C 
BRANCH  13  15
ATOM     15  C   UNL     1      85.073  33.804  32.670  1.00  0.00     0.035 C 
BRANCH  15  16
ATOM     16  C   UNL     1      86.566  34.066  32.892  1.00  0.00     0.079 C 
BRANCH  16  17
ATOM     17  C   UNL     1      87.397  32.997  32.234  1.00  0.00     0.130 C 
ATOM     18  O   UNL     1      88.609  33.133  32.169  1.00  0.00    -0.300 OA
ATOM     19  C   UNL     1      86.770  31.758  31.665  1.00  0.00     0.087 C 
ENDBRANCH  16  17
ENDBRANCH  15  16
ENDBRANCH  13  15
ENDBRANCH  11  12
ENDBRANCH   1  11
TORSDOF 9
ENDMDL
MODEL 3
REMARK VINA RESULT:    -5.601      2.817      5.170
REMARK INTER + INTRA:          -9.668
REMARK INTER:                  -8.651
REMARK INTRA:                  -1.017
REMARK UNBOUND:                -1.120
REMARK SMILES CC(=O)CCC=C(C)CCC=C(C)CCC=C(C)C
REMARK SMILES IDX 10 1 11 2 12 3 13 4 14 5 15 6 16 7 18 8 17 9 19 10 9 11 7 12
REMARK SMILES IDX 6 13 8 14 5 15 4 16 2 17 3 18 1 19
REMARK H PARENT
REMARK Flexibility Score: inf
ROOT
ATOM      1  C   UNL     1      87.270  38.266  28.517  1.00  0.00     0.032 C 
ENDROOT
BRANCH   1   2
ATOM      2  C   UNL     1      86.271  37.138  28.605  1.00  0.00    -0.028 C 
ATOM      3  C   UNL     1      85.173  37.132  29.392  1.00  0.00    -0.077 C 
ATOM      4  C   UNL     1      84.785  38.324  30.235  1.00  0.00     0.039 C 
BRANCH   3   5
ATOM      5  C   UNL     1      84.306  35.892  29.434  1.00  0.00     0.034 C 
BRANCH   5   6
ATOM      6  C   UNL     1      84.137  35.392  30.872  1.00  0.00     0.032 C 
BRANCH   6   7
ATOM      7  C   UNL     1      85.387  34.697  31.349  1.00  0.00    -0.028 C 
ATOM      8  C   UNL     1      84.643  34.653  33.741  1.00  0.00     0.039 C 
ATOM      9  C   UNL     1      85.642  34.388  32.640  1.00  0.00    -0.080 C 
ATOM     10  C   UNL     1      86.940  33.719  33.010  1.00  0.00     0.039 C 
ENDBRANCH   6   7
ENDBRANCH   5   6
ENDBRANCH   3   5
ENDBRANCH   1   2
BRANCH   1  11
ATOM     11  C   UNL     1      88.478  37.879  27.651  1.00  0.00     0.034 C 
BRANCH  11  12
ATOM     12  C   UNL     1      88.485  38.616  26.324  1.00  0.00    -0.077 C 
ATOM     13  C   UNL     1      87.971  38.104  25.181  1.00  0.00    -0.028 C 
ATOM     14  C   UNL     1      89.129  39.979  26.265  1.00  0.00     0.039 C 
BRANCH  13  15
ATOM     15  C   UNL     1      87.251  36.784  25.068  1.00  0.00     0.035 C 
BRANCH  15  16
ATOM     16  C   UNL     1      87.691  36.027  23.810  1.00  0.00     0.079 C 
BRANCH  16  17
ATOM     17  C   UNL     1      86.775  34.863  23.543  1.00  0.00     0.130 C 
ATOM     18  O   UNL     1      85.650  35.070  23.116  1.00  0.00    -0.300 OA
ATOM     19  C   UNL     1      87.219  33.448  23.779  1.00  0.00     0.087 C 
ENDBRANCH  16  17
ENDBRANCH  15  16
ENDBRANCH  13  15
ENDBRANCH  11  12
ENDBRANCH   1  11
TORSDOF 9
ENDMDL
MODEL 4
REMARK VINA RESULT:    -5.559      1.735      2.744
REMARK INTER + INTRA:          -9.604
REMARK INTER:                  -7.891
REMARK INTRA:                  -1.713
REMARK UNBOUND:                -1.120
REMARK SMILES CC(=O)CCC=C(C)CCC=C(C)CCC=C(C)C
REMARK SMILES IDX 10 1 11 2 12 3 13 4 14 5 15 6 16 7 18 8 17 9 19 10 9 11 7 12
REMARK SMILES IDX 6 13 8 14 5 15 4 16 2 17 3 18 1 19
REMARK H PARENT
REMARK Flexibility Score: inf
ROOT
ATOM      1  C   UNL     1      84.479  35.293  25.617  1.00  0.00     0.032 C 
ENDROOT
BRANCH   1   2
ATOM      2  C   UNL     1      84.862  35.565  27.052  1.00  0.00    -0.028 C 
ATOM      3  C   UNL     1      85.584  34.732  27.835  1.00  0.00    -0.077 C 
ATOM      4  C   UNL     1      86.160  33.439  27.310  1.00  0.00     0.039 C 
BRANCH   3   5
ATOM      5  C   UNL     1      85.819  35.107  29.281  1.00  0.00     0.034 C 
BRANCH   5   6
ATOM      6  C   UNL     1      84.492  35.374  29.999  1.00  0.00     0.032 C 
BRANCH   6   7
ATOM      7  C   UNL     1      84.565  36.647  30.805  1.00  0.00    -0.028 C 
ATOM      8  C   UNL     1      83.206  37.957  29.158  1.00  0.00     0.039 C 
ATOM      9  C   UNL     1      84.020  37.824  30.422  1.00  0.00    -0.080 C 
ATOM     10  C   UNL     1      84.179  39.043  31.293  1.00  0.00     0.039 C 
ENDBRANCH   6   7
ENDBRANCH   5   6
ENDBRANCH   3   5
ENDBRANCH   1   2
BRANCH   1  11
ATOM     11  C   UNL     1      85.177  36.268  24.657  1.00  0.00     0.034 C 
BRANCH  11  12
ATOM     12  C   UNL     1      86.548  35.768  24.237  1.00  0.00    -0.077 C 
ATOM     13  C   UNL     1      87.665  36.532  24.274  1.00  0.00    -0.028 C 
ATOM     14  C   UNL     1      86.668  34.357  23.720  1.00  0.00     0.039 C 
BRANCH  13  15
ATOM     15  C   UNL     1      87.736  37.941  24.806  1.00  0.00     0.035 C 
BRANCH  15  16
ATOM     16  C   UNL     1      88.280  37.958  26.239  1.00  0.00     0.079 C 
BRANCH  16  17
ATOM     17  C   UNL     1      89.201  39.131  26.443  1.00  0.00     0.130 C 
ATOM     18  O   UNL     1      88.834  40.248  26.113  1.00  0.00    -0.300 OA
ATOM     19  C   UNL     1      90.560  38.960  27.057  1.00  0.00     0.087 C 
ENDBRANCH  16  17
ENDBRANCH  15  16
ENDBRANCH  13  15
ENDBRANCH  11  12
ENDBRANCH   1  11
TORSDOF 9
ENDMDL
MODEL 5
REMARK VINA RESULT:    -5.537      3.574      5.490
REMARK INTER + INTRA:          -9.571
REMARK INTER:                  -8.462
REMARK INTRA:                  -1.109
REMARK UNBOUND:                -1.120
REMARK SMILES CC(=O)CCC=C(C)CCC=C(C)CCC=C(C)C
REMARK SMILES IDX 10 1 11 2 12 3 13 4 14 5 15 6 16 7 18 8 17 9 19 10 9 11 7 12
REMARK SMILES IDX 6 13 8 14 5 15 4 16 2 17 3 18 1 19
REMARK H PARENT
REMARK Flexibility Score: inf
ROOT
ATOM      1  C   UNL     1      84.521  35.235  22.708  1.00  0.00     0.032 C 
ENDROOT
BRANCH   1   2
ATOM      2  C   UNL     1      83.797  36.468  22.223  1.00  0.00    -0.028 C 
ATOM      3  C   UNL     1      83.161  36.579  21.036  1.00  0.00    -0.077 C 
ATOM      4  C   UNL     1      83.047  35.418  20.077  1.00  0.00     0.039 C 
BRANCH   3   5
ATOM      5  C   UNL     1      82.547  37.908  20.654  1.00  0.00     0.034 C 
BRANCH   5   6
ATOM      6  C   UNL     1      83.053  39.027  21.571  1.00  0.00     0.032 C 
BRANCH   6   7
ATOM      7  C   UNL     1      81.900  39.807  22.151  1.00  0.00    -0.028 C 
ATOM      8  C   UNL     1      82.018  38.644  24.367  1.00  0.00     0.039 C 
ATOM      9  C   UNL     1      81.403  39.622  23.395  1.00  0.00    -0.080 C 
ATOM     10  C   UNL     1      80.226  40.439  23.862  1.00  0.00     0.039 C 
ENDBRANCH   6   7
ENDBRANCH   5   6
ENDBRANCH   3   5
ENDBRANCH   1   2
BRANCH   1  11
ATOM     11  C   UNL     1      85.289  35.513  24.009  1.00  0.00     0.034 C 
BRANCH  11  12
ATOM     12  C   UNL     1      86.793  35.494  23.796  1.00  0.00    -0.077 C 
ATOM     13  C   UNL     1      87.648  36.324  24.437  1.00  0.00    -0.028 C 
ATOM     14  C   UNL     1      87.361  34.523  22.792  1.00  0.00     0.039 C 
BRANCH  13  15
ATOM     15  C   UNL     1      87.261  37.317  25.502  1.00  0.00     0.035 C 
BRANCH  15  16
ATOM     16  C   UNL     1      88.254  38.483  25.549  1.00  0.00     0.079 C 
BRANCH  16  17
ATOM     17  C   UNL     1      88.936  38.546  26.890  1.00  0.00     0.130 C 
ATOM     18  O   UNL     1      88.311  38.246  27.896  1.00  0.00    -0.300 OA
ATOM     19  C   UNL     1      90.373  38.958  27.019  1.00  0.00     0.087 C 
ENDBRANCH  16  17
ENDBRANCH  15  16
ENDBRANCH  13  15
ENDBRANCH  11  12
ENDBRANCH   1  11
TORSDOF 9
ENDMDL
MODEL 6
REMARK VINA RESULT:    -5.517      2.504      5.100
REMARK INTER + INTRA:          -9.541
REMARK INTER:                  -8.109
REMARK INTRA:                  -1.432
REMARK UNBOUND:                -1.120
REMARK SMILES CC(=O)CCC=C(C)CCC=C(C)CCC=C(C)C
REMARK SMILES IDX 10 1 11 2 12 3 13 4 14 5 15 6 16 7 18 8 17 9 19 10 9 11 7 12
REMARK SMILES IDX 6 13 8 14 5 15 4 16 2 17 3 18 1 19
REMARK H PARENT
REMARK Flexibility Score: inf
ROOT
ATOM      1  C   UNL     1      84.507  36.417  26.633  1.00  0.00     0.032 C 
ENDROOT
BRANCH   1   2
ATOM      2  C   UNL     1      84.341  35.478  25.462  1.00  0.00    -0.028 C 
ATOM      3  C   UNL     1      85.146  35.439  24.377  1.00  0.00    -0.077 C 
ATOM      4  C   UNL     1      86.374  36.310  24.259  1.00  0.00     0.039 C 
BRANCH   3   5
ATOM      5  C   UNL     1      84.805  34.495  23.245  1.00  0.00     0.034 C 
BRANCH   5   6
ATOM      6  C   UNL     1      83.432  34.829  22.651  1.00  0.00     0.032 C 
BRANCH   6   7
ATOM      7  C   UNL     1      83.546  35.923  21.619  1.00  0.00    -0.028 C 
ATOM      8  C   UNL     1      82.448  37.635  23.081  1.00  0.00     0.039 C 
ATOM      9  C   UNL     1      83.079  37.180  21.787  1.00  0.00    -0.080 C 
ATOM     10  C   UNL     1      83.220  38.188  20.676  1.00  0.00     0.039 C 
ENDBRANCH   6   7
ENDBRANCH   5   6
ENDBRANCH   3   5
ENDBRANCH   1   2
BRANCH   1  11
ATOM     11  C   UNL     1      85.608  35.932  27.588  1.00  0.00     0.034 C 
BRANCH  11  12
ATOM     12  C   UNL     1      86.021  37.012  28.572  1.00  0.00    -0.077 C 
ATOM     13  C   UNL     1      87.056  37.858  28.362  1.00  0.00    -0.028 C 
ATOM     14  C   UNL     1      85.259  37.129  29.868  1.00  0.00     0.039 C 
BRANCH  13  15
ATOM     15  C   UNL     1      87.891  37.914  27.108  1.00  0.00     0.035 C 
BRANCH  15  16
ATOM     16  C   UNL     1      89.373  38.105  27.446  1.00  0.00     0.079 C 
BRANCH  16  17
ATOM     17  C   UNL     1      89.915  39.341  26.779  1.00  0.00     0.130 C 
ATOM     18  O   UNL     1      91.113  39.576  26.832  1.00  0.00    -0.300 OA
ATOM     19  C   UNL     1      89.017  40.288  26.039  1.00  0.00     0.087 C 
ENDBRANCH  16  17
ENDBRANCH  15  16
ENDBRANCH  13  15
ENDBRANCH  11  12
ENDBRANCH   1  11
TORSDOF 9
ENDMDL
MODEL 7
REMARK VINA RESULT:    -5.466      1.918      3.296
REMARK INTER + INTRA:          -9.463
REMARK INTER:                  -8.025
REMARK INTRA:                  -1.438
REMARK UNBOUND:                -1.120
REMARK SMILES CC(=O)CCC=C(C)CCC=C(C)CCC=C(C)C
REMARK SMILES IDX 10 1 11 2 12 3 13 4 14 5 15 6 16 7 18 8 17 9 19 10 9 11 7 12
REMARK SMILES IDX 6 13 8 14 5 15 4 16 2 17 3 18 1 19
REMARK H PARENT
REMARK Flexibility Score: inf
ROOT
ATOM      1  C   UNL     1      85.609  34.836  25.894  1.00  0.00     0.032 C 
ENDROOT
BRANCH   1   2
ATOM      2  C   UNL     1      85.870  35.408  27.266  1.00  0.00    -0.028 C 
ATOM      3  C   UNL     1      84.998  36.160  27.974  1.00  0.00    -0.077 C 
ATOM      4  C   UNL     1      83.603  36.451  27.475  1.00  0.00     0.039 C 
BRANCH   3   5
ATOM      5  C   UNL     1      85.435  36.732  29.305  1.00  0.00     0.034 C 
BRANCH   5   6
ATOM      6  C   UNL     1      84.303  36.644  30.335  1.00  0.00     0.032 C 
BRANCH   6   7
ATOM      7  C   UNL     1      84.752  35.890  31.561  1.00  0.00    -0.028 C 
ATOM      8  C   UNL     1      83.057  34.071  31.260  1.00  0.00     0.039 C 
ATOM      9  C   UNL     1      84.179  34.750  32.007  1.00  0.00    -0.080 C 
ATOM     10  C   UNL     1      84.690  34.094  33.264  1.00  0.00     0.039 C 
ENDBRANCH   6   7
ENDBRANCH   5   6
ENDBRANCH   3   5
ENDBRANCH   1   2
BRANCH   1  11
ATOM     11  C   UNL     1      85.713  35.916  24.807  1.00  0.00     0.034 C 
BRANCH  11  12
ATOM     12  C   UNL     1      87.133  36.064  24.289  1.00  0.00    -0.077 C 
ATOM     13  C   UNL     1      87.942  37.101  24.612  1.00  0.00    -0.028 C 
ATOM     14  C   UNL     1      87.661  35.020  23.338  1.00  0.00     0.039 C 
BRANCH  13  15
ATOM     15  C   UNL     1      87.596  38.202  25.581  1.00  0.00     0.035 C 
BRANCH  15  16
ATOM     16  C   UNL     1      88.453  38.104  26.848  1.00  0.00     0.079 C 
BRANCH  16  17
ATOM     17  C   UNL     1      89.662  38.995  26.742  1.00  0.00     0.130 C 
ATOM     18  O   UNL     1      90.757  38.563  27.068  1.00  0.00    -0.300 OA
ATOM     19  C   UNL     1      89.554  40.403  26.233  1.00  0.00     0.087 C 
ENDBRANCH  16  17
ENDBRANCH  15  16
ENDBRANCH  13  15
ENDBRANCH  11  12
ENDBRANCH   1  11
TORSDOF 9
ENDMDL
MODEL 8
REMARK VINA RESULT:    -5.394      3.223      5.375
REMARK INTER + INTRA:          -9.352
REMARK INTER:                  -7.857
REMARK INTRA:                  -1.495
REMARK UNBOUND:                -1.120
REMARK SMILES CC(=O)CCC=C(C)CCC=C(C)CCC=C(C)C
REMARK SMILES IDX 10 1 11 2 12 3 13 4 14 5 15 6 16 7 18 8 17 9 19 10 9 11 7 12
REMARK SMILES IDX 6 13 8 14 5 15 4 16 2 17 3 18 1 19
REMARK H PARENT
REMARK Flexibility Score: inf
ROOT
ATOM      1  C   UNL     1      83.947  36.609  30.362  1.00  0.00     0.032 C 
ENDROOT
BRANCH   1   2
ATOM      2  C   UNL     1      84.767  35.822  31.355  1.00  0.00    -0.028 C 
ATOM      3  C   UNL     1      84.417  34.625  31.876  1.00  0.00    -0.077 C 
ATOM      4  C   UNL     1      83.164  33.899  31.445  1.00  0.00     0.039 C 
BRANCH   3   5
ATOM      5  C   UNL     1      85.306  33.994  32.925  1.00  0.00     0.034 C 
BRANCH   5   6
ATOM      6  C   UNL     1      86.782  34.103  32.528  1.00  0.00     0.032 C 
BRANCH   6   7
ATOM      7  C   UNL     1      87.361  32.741  32.238  1.00  0.00    -0.028 C 
ATOM      8  C   UNL     1      86.810  32.849  29.797  1.00  0.00     0.039 C 
ATOM      9  C   UNL     1      87.351  32.152  31.022  1.00  0.00    -0.080 C 
ATOM     10  C   UNL     1      87.933  30.772  30.851  1.00  0.00     0.039 C 
ENDBRANCH   6   7
ENDBRANCH   5   6
ENDBRANCH   3   5
ENDBRANCH   1   2
BRANCH   1  11
ATOM     11  C   UNL     1      84.842  37.325  29.339  1.00  0.00     0.034 C 
BRANCH  11  12
ATOM     12  C   UNL     1      85.338  36.379  28.259  1.00  0.00    -0.077 C 
ATOM     13  C   UNL     1      86.485  36.572  27.567  1.00  0.00    -0.028 C 
ATOM     14  C   UNL     1      84.493  35.179  27.915  1.00  0.00     0.039 C 
BRANCH  13  15
ATOM     15  C   UNL     1      87.470  37.686  27.812  1.00  0.00     0.035 C 
BRANCH  15  16
ATOM     16  C   UNL     1      88.053  38.201  26.492  1.00  0.00     0.079 C 
BRANCH  16  17
ATOM     17  C   UNL     1      89.367  38.897  26.727  1.00  0.00     0.130 C 
ATOM     18  O   UNL     1      90.262  38.308  27.314  1.00  0.00    -0.300 OA
ATOM     19  C   UNL     1      89.608  40.297  26.244  1.00  0.00     0.087 C 
ENDBRANCH  16  17
ENDBRANCH  15  16
ENDBRANCH  13  15
ENDBRANCH  11  12
ENDBRANCH   1  11
TORSDOF 9
ENDMDL
MODEL 9
REMARK VINA RESULT:    -5.375      2.794      6.875
REMARK INTER + INTRA:          -9.323
REMARK INTER:                  -7.653
REMARK INTRA:                  -1.670
REMARK UNBOUND:                -1.120
REMARK SMILES CC(=O)CCC=C(C)CCC=C(C)CCC=C(C)C
REMARK SMILES IDX 10 1 11 2 12 3 13 4 14 5 15 6 16 7 18 8 17 9 19 10 9 11 7 12
REMARK SMILES IDX 6 13 8 14 5 15 4 16 2 17 3 18 1 19
REMARK H PARENT
REMARK Flexibility Score: inf
ROOT
ATOM      1  C   UNL     1      83.721  36.176  29.223  1.00  0.00     0.032 C 
ENDROOT
BRANCH   1   2
ATOM      2  C   UNL     1      84.348  36.339  27.860  1.00  0.00    -0.028 C 
ATOM      3  C   UNL     1      85.596  36.804  27.629  1.00  0.00    -0.077 C 
ATOM      4  C   UNL     1      86.543  37.148  28.754  1.00  0.00     0.039 C 
BRANCH   3   5
ATOM      5  C   UNL     1      86.057  36.988  26.200  1.00  0.00     0.034 C 
BRANCH   5   6
ATOM      6  C   UNL     1      87.585  37.093  26.128  1.00  0.00     0.032 C 
BRANCH   6   7
ATOM      7  C   UNL     1      88.012  38.517  25.874  1.00  0.00    -0.028 C 
ATOM      8  C   UNL     1      90.077  38.317  27.277  1.00  0.00     0.039 C 
ATOM      9  C   UNL     1      89.113  39.090  26.410  1.00  0.00    -0.080 C 
ATOM     10  C   UNL     1      89.430  40.532  26.111  1.00  0.00     0.039 C 
ENDBRANCH   6   7
ENDBRANCH   5   6
ENDBRANCH   3   5
ENDBRANCH   1   2
BRANCH   1  11
ATOM     11  C   UNL     1      82.470  37.055  29.373  1.00  0.00     0.034 C 
BRANCH  11  12
ATOM     12  C   UNL     1      82.826  38.505  29.651  1.00  0.00    -0.077 C 
ATOM     13  C   UNL     1      82.245  39.551  29.018  1.00  0.00    -0.028 C 
ATOM     14  C   UNL     1      83.907  38.797  30.661  1.00  0.00     0.039 C 
BRANCH  13  15
ATOM     15  C   UNL     1      81.119  39.446  28.021  1.00  0.00     0.035 C 
BRANCH  15  16
ATOM     16  C   UNL     1      81.423  40.271  26.765  1.00  0.00     0.079 C 
BRANCH  16  17
ATOM     17  C   UNL     1      81.465  39.387  25.547  1.00  0.00     0.130 C 
ATOM     18  O   UNL     1      80.738  39.637  24.598  1.00  0.00    -0.300 OA
ATOM     19  C   UNL     1      82.392  38.209  25.466  1.00  0.00     0.087 C 
ENDBRANCH  16  17
ENDBRANCH  15  16
ENDBRANCH  13  15
ENDBRANCH  11  12
ENDBRANCH   1  11
TORSDOF 9
ENDMDL
