MODEL 1
REMARK VINA RESULT:    -5.875      0.000      0.000
REMARK INTER + INTRA:          -5.875
REMARK INTER:                  -5.875
REMARK INTRA:                   0.000
REMARK UNBOUND:                 0.000
REMARK SMILES C=C1CCC[C@]2(C)CC(=O)C(=C(C)C)C[C@@H]12
REMARK SMILES IDX 13 1 12 2 11 3 15 4 16 5 2 6 1 7 3 8 4 9 5 10 6 11 8 12 9 13
REMARK SMILES IDX 10 14 7 15 14 16
REMARK H PARENT
REMARK Flexibility Score: inf
ROOT
ATOM      1  C   UNL     1      19.125  13.958  50.788  1.00  0.00     0.039 C 
ATOM      2  C   UNL     1      18.452  12.879  51.605  1.00  0.00    -0.070 C 
ATOM      3  C   UNL     1      17.587  11.991  51.033  1.00  0.00    -0.006 C 
ATOM      4  C   UNL     1      17.247  12.066  49.550  1.00  0.00     0.047 C 
ATOM      5  C   UNL     1      15.816  11.563  49.236  1.00  0.00     0.025 C 
ATOM      6  C   UNL     1      15.434  11.577  47.756  1.00  0.00    -0.073 C 
ATOM      7  C   UNL     1      16.255  11.980  46.768  1.00  0.00     0.008 C 
ATOM      8  C   UNL     1      14.023  11.148  47.427  1.00  0.00     0.031 C 
ATOM      9  C   UNL     1      13.725   9.779  48.045  1.00  0.00     0.005 C 
ATOM     10  C   UNL     1      14.059   9.748  49.546  1.00  0.00     0.008 C 
ATOM     11  C   UNL     1      15.532  10.157  49.852  1.00  0.00    -0.018 C 
ATOM     12  C   UNL     1      15.696  10.248  51.389  1.00  0.00     0.088 C 
ATOM     13  C   UNL     1      17.023  10.830  51.783  1.00  0.00     0.159 C 
ATOM     14  O   UNL     1      17.649  10.308  52.745  1.00  0.00    -0.295 OA
ATOM     15  C   UNL     1      16.499   9.076  49.295  1.00  0.00     0.012 C 
ATOM     16  C   UNL     1      18.753  12.855  53.087  1.00  0.00     0.039 C 
ENDROOT
TORSDOF 0
ENDMDL
MODEL 2
REMARK VINA RESULT:    -5.428     15.001     17.394
REMARK INTER + INTRA:          -5.428
REMARK INTER:                  -5.428
REMARK INTRA:                   0.000
REMARK UNBOUND:                 0.000
REMARK SMILES C=C1CCC[C@]2(C)CC(=O)C(=C(C)C)C[C@@H]12
REMARK SMILES IDX 13 1 12 2 11 3 15 4 16 5 2 6 1 7 3 8 4 9 5 10 6 11 8 12 9 13
REMARK SMILES IDX 10 14 7 15 14 16
REMARK H PARENT
REMARK Flexibility Score: inf
ROOT
ATOM      1  C   UNL     1      19.125  19.708  37.196  1.00  0.00     0.039 C 
ATOM      2  C   UNL     1      18.543  20.631  36.149  1.00  0.00    -0.070 C 
ATOM      3  C   UNL     1      17.519  21.484  36.445  1.00  0.00    -0.006 C 
ATOM      4  C   UNL     1      16.906  21.525  37.838  1.00  0.00     0.047 C 
ATOM      5  C   UNL     1      15.407  21.917  37.822  1.00  0.00     0.025 C 
ATOM      6  C   UNL     1      14.747  22.014  39.197  1.00  0.00    -0.073 C 
ATOM      7  C   UNL     1      15.390  21.793  40.360  1.00  0.00     0.008 C 
ATOM      8  C   UNL     1      13.271  22.336  39.209  1.00  0.00     0.031 C 
ATOM      9  C   UNL     1      12.996  23.602  38.391  1.00  0.00     0.005 C 
ATOM     10  C   UNL     1      13.611  23.514  36.984  1.00  0.00     0.008 C 
ATOM     11  C   UNL     1      15.142  23.220  37.005  1.00  0.00    -0.018 C 
ATOM     12  C   UNL     1      15.608  22.992  35.545  1.00  0.00     0.088 C 
ATOM     13  C   UNL     1      17.026  22.504  35.474  1.00  0.00     0.159 C 
ATOM     14  O   UNL     1      17.784  22.985  34.589  1.00  0.00    -0.295 OA
ATOM     15  C   UNL     1      15.898  24.440  37.600  1.00  0.00     0.012 C 
ATOM     16  C   UNL     1      19.123  20.535  34.756  1.00  0.00     0.039 C 
ENDROOT
TORSDOF 0
ENDMDL
MODEL 3
REMARK VINA RESULT:    -5.352     15.028     16.955
REMARK INTER + INTRA:          -5.352
REMARK INTER:                  -5.352
REMARK INTRA:                   0.000
REMARK UNBOUND:                 0.000
REMARK SMILES C=C1CCC[C@]2(C)CC(=O)C(=C(C)C)C[C@@H]12
REMARK SMILES IDX 13 1 12 2 11 3 15 4 16 5 2 6 1 7 3 8 4 9 5 10 6 11 8 12 9 13
REMARK SMILES IDX 10 14 7 15 14 16
REMARK H PARENT
REMARK Flexibility Score: inf
ROOT
ATOM      1  C   UNL     1      17.611  22.999  34.387  1.00  0.00     0.039 C 
ATOM      2  C   UNL     1      17.672  21.916  35.441  1.00  0.00    -0.070 C 
ATOM      3  C   UNL     1      16.690  21.785  36.381  1.00  0.00    -0.006 C 
ATOM      4  C   UNL     1      15.504  22.740  36.421  1.00  0.00     0.047 C 
ATOM      5  C   UNL     1      14.948  22.946  37.852  1.00  0.00     0.025 C 
ATOM      6  C   UNL     1      13.730  23.864  37.948  1.00  0.00    -0.073 C 
ATOM      7  C   UNL     1      13.147  24.459  36.889  1.00  0.00     0.008 C 
ATOM      8  C   UNL     1      13.202  24.131  39.338  1.00  0.00     0.031 C 
ATOM      9  C   UNL     1      12.939  22.812  40.070  1.00  0.00     0.005 C 
ATOM     10  C   UNL     1      14.165  21.885  40.029  1.00  0.00     0.008 C 
ATOM     11  C   UNL     1      14.663  21.595  38.580  1.00  0.00    -0.018 C 
ATOM     12  C   UNL     1      15.986  20.796  38.676  1.00  0.00     0.088 C 
ATOM     13  C   UNL     1      16.652  20.641  37.339  1.00  0.00     0.159 C 
ATOM     14  O   UNL     1      17.158  19.525  37.044  1.00  0.00    -0.295 OA
ATOM     15  C   UNL     1      13.603  20.745  37.826  1.00  0.00     0.012 C 
ATOM     16  C   UNL     1      18.885  21.015  35.426  1.00  0.00     0.039 C 
ENDROOT
TORSDOF 0
ENDMDL
MODEL 4
REMARK VINA RESULT:    -5.267     14.993     17.135
REMARK INTER + INTRA:          -5.267
REMARK INTER:                  -5.267
REMARK INTRA:                   0.000
REMARK UNBOUND:                 0.000
REMARK SMILES C=C1CCC[C@]2(C)CC(=O)C(=C(C)C)C[C@@H]12
REMARK SMILES IDX 13 1 12 2 11 3 15 4 16 5 2 6 1 7 3 8 4 9 5 10 6 11 8 12 9 13
REMARK SMILES IDX 10 14 7 15 14 16
REMARK H PARENT
REMARK Flexibility Score: inf
ROOT
ATOM      1  C   UNL     1      17.537  19.595  37.941  1.00  0.00     0.039 C 
ATOM      2  C   UNL     1      17.253  20.702  36.951  1.00  0.00    -0.070 C 
ATOM      3  C   UNL     1      16.065  21.374  36.959  1.00  0.00    -0.006 C 
ATOM      4  C   UNL     1      14.966  21.019  37.953  1.00  0.00     0.047 C 
ATOM      5  C   UNL     1      13.545  21.287  37.396  1.00  0.00     0.025 C 
ATOM      6  C   UNL     1      12.402  20.988  38.365  1.00  0.00    -0.073 C 
ATOM      7  C   UNL     1      12.576  20.535  39.622  1.00  0.00     0.008 C 
ATOM      8  C   UNL     1      11.003  21.183  37.829  1.00  0.00     0.031 C 
ATOM      9  C   UNL     1      10.851  22.588  37.237  1.00  0.00     0.005 C 
ATOM     10  C   UNL     1      11.964  22.901  36.223  1.00  0.00     0.008 C 
ATOM     11  C   UNL     1      13.396  22.729  36.816  1.00  0.00    -0.018 C 
ATOM     12  C   UNL     1      14.417  22.908  35.666  1.00  0.00     0.088 C 
ATOM     13  C   UNL     1      15.815  22.563  36.092  1.00  0.00     0.159 C 
ATOM     14  O   UNL     1      16.761  23.306  35.714  1.00  0.00    -0.295 OA
ATOM     15  C   UNL     1      13.645  23.816  37.898  1.00  0.00     0.012 C 
ATOM     16  C   UNL     1      18.330  21.001  35.933  1.00  0.00     0.039 C 
ENDROOT
TORSDOF 0
ENDMDL
MODEL 5
REMARK VINA RESULT:    -5.223      1.997      5.570
REMARK INTER + INTRA:          -5.223
REMARK INTER:                  -5.223
REMARK INTRA:                   0.000
REMARK UNBOUND:                 0.000
REMARK SMILES C=C1CCC[C@]2(C)CC(=O)C(=C(C)C)C[C@@H]12
REMARK SMILES IDX 13 1 12 2 11 3 15 4 16 5 2 6 1 7 3 8 4 9 5 10 6 11 8 12 9 13
REMARK SMILES IDX 10 14 7 15 14 16
REMARK H PARENT
REMARK Flexibility Score: inf
ROOT
ATOM      1  C   UNL     1      15.228   9.093  49.707  1.00  0.00     0.039 C 
ATOM      2  C   UNL     1      15.289  10.361  48.885  1.00  0.00    -0.070 C 
ATOM      3  C   UNL     1      16.117  11.390  49.228  1.00  0.00    -0.006 C 
ATOM      4  C   UNL     1      16.998  11.312  50.469  1.00  0.00     0.047 C 
ATOM      5  C   UNL     1      17.260  12.699  51.106  1.00  0.00     0.025 C 
ATOM      6  C   UNL     1      18.173  12.687  52.332  1.00  0.00    -0.073 C 
ATOM      7  C   UNL     1      18.736  11.576  52.844  1.00  0.00     0.008 C 
ATOM      8  C   UNL     1      18.398  14.019  53.011  1.00  0.00     0.031 C 
ATOM      9  C   UNL     1      18.877  15.060  51.995  1.00  0.00     0.005 C 
ATOM     10  C   UNL     1      17.951  15.125  50.769  1.00  0.00     0.008 C 
ATOM     11  C   UNL     1      17.770  13.746  50.066  1.00  0.00    -0.018 C 
ATOM     12  C   UNL     1      16.698  13.906  48.960  1.00  0.00     0.088 C 
ATOM     13  C   UNL     1      16.304  12.588  48.358  1.00  0.00     0.159 C 
ATOM     14  O   UNL     1      16.151  12.518  47.109  1.00  0.00    -0.295 OA
ATOM     15  C   UNL     1      19.114  13.310  49.419  1.00  0.00     0.012 C 
ATOM     16  C   UNL     1      14.364  10.447  47.692  1.00  0.00     0.039 C 
ENDROOT
TORSDOF 0
ENDMDL
MODEL 6
REMARK VINA RESULT:    -5.185     14.719     17.110
REMARK INTER + INTRA:          -5.185
REMARK INTER:                  -5.185
REMARK INTRA:                   0.000
REMARK UNBOUND:                 0.000
REMARK SMILES C=C1CCC[C@]2(C)CC(=O)C(=C(C)C)C[C@@H]12
REMARK SMILES IDX 13 1 12 2 11 3 15 4 16 5 2 6 1 7 3 8 4 9 5 10 6 11 8 12 9 13
REMARK SMILES IDX 10 14 7 15 14 16
REMARK H PARENT
REMARK Flexibility Score: inf
ROOT
ATOM      1  C   UNL     1      15.691  20.523  37.453  1.00  0.00     0.039 C 
ATOM      2  C   UNL     1      14.980  21.767  36.967  1.00  0.00    -0.070 C 
ATOM      3  C   UNL     1      13.700  22.047  37.349  1.00  0.00    -0.006 C 
ATOM      4  C   UNL     1      12.926  21.105  38.262  1.00  0.00     0.047 C 
ATOM      5  C   UNL     1      11.399  21.136  38.001  1.00  0.00     0.025 C 
ATOM      6  C   UNL     1      10.566  20.240  38.917  1.00  0.00    -0.073 C 
ATOM      7  C   UNL     1      11.082  19.474  39.897  1.00  0.00     0.008 C 
ATOM      8  C   UNL     1       9.080  20.204  38.646  1.00  0.00     0.031 C 
ATOM      9  C   UNL     1       8.510  21.626  38.622  1.00  0.00     0.005 C 
ATOM     10  C   UNL     1       9.302  22.540  37.673  1.00  0.00     0.008 C 
ATOM     11  C   UNL     1      10.825  22.588  38.001  1.00  0.00    -0.018 C 
ATOM     12  C   UNL     1      11.532  23.399  36.888  1.00  0.00     0.088 C 
ATOM     13  C   UNL     1      13.028  23.334  37.003  1.00  0.00     0.159 C 
ATOM     14  O   UNL     1      13.693  24.388  36.816  1.00  0.00    -0.295 OA
ATOM     15  C   UNL     1      11.041  23.295  39.368  1.00  0.00     0.012 C 
ATOM     16  C   UNL     1      15.740  22.660  36.014  1.00  0.00     0.039 C 
ENDROOT
TORSDOF 0
ENDMDL
MODEL 7
REMARK VINA RESULT:    -5.118     19.037     21.255
REMARK INTER + INTRA:          -5.118
REMARK INTER:                  -5.118
REMARK INTRA:                   0.000
REMARK UNBOUND:                 0.000
REMARK SMILES C=C1CCC[C@]2(C)CC(=O)C(=C(C)C)C[C@@H]12
REMARK SMILES IDX 13 1 12 2 11 3 15 4 16 5 2 6 1 7 3 8 4 9 5 10 6 11 8 12 9 13
REMARK SMILES IDX 10 14 7 15 14 16
REMARK H PARENT
REMARK Flexibility Score: inf
ROOT
ATOM      1  C   UNL     1       4.085  25.265  42.882  1.00  0.00     0.039 C 
ATOM      2  C   UNL     1       4.623  24.407  41.759  1.00  0.00    -0.070 C 
ATOM      3  C   UNL     1       3.809  23.947  40.764  1.00  0.00    -0.006 C 
ATOM      4  C   UNL     1       2.318  24.261  40.758  1.00  0.00     0.047 C 
ATOM      5  C   UNL     1       1.474  23.147  40.090  1.00  0.00     0.025 C 
ATOM      6  C   UNL     1      -0.027  23.427  40.018  1.00  0.00    -0.073 C 
ATOM      7  C   UNL     1      -0.609  24.550  40.479  1.00  0.00     0.008 C 
ATOM      8  C   UNL     1      -0.883  22.331  39.426  1.00  0.00     0.031 C 
ATOM      9  C   UNL     1      -0.347  21.922  38.050  1.00  0.00     0.005 C 
ATOM     10  C   UNL     1       1.154  21.591  38.101  1.00  0.00     0.008 C 
ATOM     11  C   UNL     1       2.016  22.754  38.680  1.00  0.00    -0.018 C 
ATOM     12  C   UNL     1       3.471  22.245  38.834  1.00  0.00     0.088 C 
ATOM     13  C   UNL     1       4.338  23.224  39.571  1.00  0.00     0.159 C 
ATOM     14  O   UNL     1       5.509  23.427  39.150  1.00  0.00    -0.295 OA
ATOM     15  C   UNL     1       1.995  23.957  37.696  1.00  0.00     0.012 C 
ATOM     16  C   UNL     1       6.092  24.054  41.812  1.00  0.00     0.039 C 
ENDROOT
TORSDOF 0
ENDMDL
MODEL 8
REMARK VINA RESULT:    -5.068      1.704      3.163
REMARK INTER + INTRA:          -5.068
REMARK INTER:                  -5.068
REMARK INTRA:                   0.000
REMARK UNBOUND:                 0.000
REMARK SMILES C=C1CCC[C@]2(C)CC(=O)C(=C(C)C)C[C@@H]12
REMARK SMILES IDX 13 1 12 2 11 3 15 4 16 5 2 6 1 7 3 8 4 9 5 10 6 11 8 12 9 13
REMARK SMILES IDX 10 14 7 15 14 16
REMARK H PARENT
REMARK Flexibility Score: inf
ROOT
ATOM      1  C   UNL     1      17.921  11.123  52.408  1.00  0.00     0.039 C 
ATOM      2  C   UNL     1      17.931  12.038  51.204  1.00  0.00    -0.070 C 
ATOM      3  C   UNL     1      16.928  12.005  50.278  1.00  0.00    -0.006 C 
ATOM      4  C   UNL     1      15.767  11.027  50.410  1.00  0.00     0.047 C 
ATOM      5  C   UNL     1      15.188  10.597  49.039  1.00  0.00     0.025 C 
ATOM      6  C   UNL     1      13.993   9.647  49.109  1.00  0.00    -0.073 C 
ATOM      7  C   UNL     1      13.448   9.203  50.258  1.00  0.00     0.008 C 
ATOM      8  C   UNL     1      13.445   9.163  47.787  1.00  0.00     0.031 C 
ATOM      9  C   UNL     1      13.132  10.352  46.873  1.00  0.00     0.005 C 
ATOM     10  C   UNL     1      14.333  11.304  46.748  1.00  0.00     0.008 C 
ATOM     11  C   UNL     1      14.852  11.818  48.125  1.00  0.00    -0.018 C 
ATOM     12  C   UNL     1      16.151  12.624  47.880  1.00  0.00     0.088 C 
ATOM     13  C   UNL     1      16.839  12.993  49.163  1.00  0.00     0.159 C 
ATOM     14  O   UNL     1      17.322  14.151  49.277  1.00  0.00    -0.295 OA
ATOM     15  C   UNL     1      13.785  12.745  48.770  1.00  0.00     0.012 C 
ATOM     16  C   UNL     1      19.120  12.960  51.056  1.00  0.00     0.039 C 
ENDROOT
TORSDOF 0
ENDMDL
MODEL 9
REMARK VINA RESULT:    -5.042     12.507     14.937
REMARK INTER + INTRA:          -5.042
REMARK INTER:                  -5.042
REMARK INTRA:                   0.000
REMARK UNBOUND:                 0.000
REMARK SMILES C=C1CCC[C@]2(C)CC(=O)C(=C(C)C)C[C@@H]12
REMARK SMILES IDX 13 1 12 2 11 3 15 4 16 5 2 6 1 7 3 8 4 9 5 10 6 11 8 12 9 13
REMARK SMILES IDX 10 14 7 15 14 16
REMARK H PARENT
REMARK Flexibility Score: inf
ROOT
ATOM      1  C   UNL     1       5.671  12.152  45.396  1.00  0.00     0.039 C 
ATOM      2  C   UNL     1       4.946  11.336  46.443  1.00  0.00    -0.070 C 
ATOM      3  C   UNL     1       3.636  11.574  46.746  1.00  0.00    -0.006 C 
ATOM      4  C   UNL     1       2.857  12.686  46.056  1.00  0.00     0.047 C 
ATOM      5  C   UNL     1       1.752  13.292  46.958  1.00  0.00     0.025 C 
ATOM      6  C   UNL     1       0.910  14.387  46.303  1.00  0.00    -0.073 C 
ATOM      7  C   UNL     1       1.077  14.813  45.037  1.00  0.00     0.008 C 
ATOM      8  C   UNL     1      -0.136  15.038  47.178  1.00  0.00     0.031 C 
ATOM      9  C   UNL     1      -1.038  13.973  47.811  1.00  0.00     0.005 C 
ATOM     10  C   UNL     1      -0.217  12.880  48.516  1.00  0.00     0.008 C 
ATOM     11  C   UNL     1       0.826  12.200  47.579  1.00  0.00    -0.018 C 
ATOM     12  C   UNL     1       1.694  11.246  48.437  1.00  0.00     0.088 C 
ATOM     13  C   UNL     1       2.858  10.693  47.666  1.00  0.00     0.159 C 
ATOM     14  O   UNL     1       3.149   9.475  47.806  1.00  0.00    -0.295 OA
ATOM     15  C   UNL     1       0.087  11.379  46.486  1.00  0.00     0.012 C 
ATOM     16  C   UNL     1       5.749  10.276  47.161  1.00  0.00     0.039 C 
ENDROOT
TORSDOF 0
ENDMDL
