MODEL 1
REMARK VINA RESULT:    -4.624      0.000      0.000
REMARK INTER + INTRA:          -9.592
REMARK INTER:                  -8.949
REMARK INTRA:                  -0.643
REMARK UNBOUND:                -0.643
REMARK SMILES CCCCCCCCCCCCCCCCCC(=O)[O-]
REMARK SMILES IDX 10 1 11 2 12 3 13 4 14 5 15 6 16 7 17 8 18 9 19 10 20 11
REMARK SMILES IDX 9 12 8 13 7 14 6 15 5 16 4 17 3 18 2 19 1 20
REMARK H PARENT
REMARK Flexibility Score: inf
ROOT
ATOM      1  C   UNL     1      -6.343  19.601  15.125  1.00  0.00     0.000 C 
ENDROOT
BRANCH   1   2
ATOM      2  C   UNL     1      -5.436  19.383  13.905  1.00  0.00     0.000 C 
BRANCH   2   3
ATOM      3  C   UNL     1      -4.203  18.524  14.228  1.00  0.00     0.000 C 
BRANCH   3   4
ATOM      4  C   UNL     1      -3.247  18.386  13.030  1.00  0.00     0.000 C 
BRANCH   4   5
ATOM      5  C   UNL     1      -1.768  18.308  13.470  1.00  0.00     0.000 C 
BRANCH   5   6
ATOM      6  C   UNL     1      -0.957  17.228  12.727  1.00  0.00     0.000 C 
BRANCH   6   7
ATOM      7  C   UNL     1      -1.795  16.276  11.854  1.00  0.00     0.006 C 
BRANCH   7   8
ATOM      8  C   UNL     1      -1.945  14.858  12.429  1.00  0.00     0.053 C 
BRANCH   8   9
ATOM      9  C   UNL     1      -2.507  13.902  11.423  1.00  0.00     0.041 C 
ATOM     10  O   UNL     1      -2.641  14.254  10.221  1.00  0.00    -0.550 OA
ATOM     11  O   UNL     1      -2.849  12.610  11.803  1.00  0.00    -0.550 OA
ENDBRANCH   8   9
ENDBRANCH   7   8
ENDBRANCH   6   7
ENDBRANCH   5   6
ENDBRANCH   4   5
ENDBRANCH   3   4
ENDBRANCH   2   3
ENDBRANCH   1   2
BRANCH   1  12
ATOM     12  C   UNL     1      -7.067  20.950  15.037  1.00  0.00     0.000 C 
BRANCH  12  13
ATOM     13  C   UNL     1      -8.419  20.802  14.322  1.00  0.00    -0.000 C 
BRANCH  13  14
ATOM     14  C   UNL     1      -9.122  22.151  14.100  1.00  0.00    -0.000 C 
BRANCH  14  15
ATOM     15  C   UNL     1      -8.290  23.340  14.612  1.00  0.00    -0.000 C 
BRANCH  15  16
ATOM     16  C   UNL     1      -8.174  24.478  13.581  1.00  0.00    -0.000 C 
BRANCH  16  17
ATOM     17  C   UNL     1      -8.757  25.831  14.031  1.00  0.00    -0.000 C 
BRANCH  17  18
ATOM     18  C   UNL     1      -9.304  26.717  12.896  1.00  0.00    -0.000 C 
BRANCH  18  19
ATOM     19  C   UNL     1      -9.435  28.207  13.276  1.00  0.00    -0.003 C 
ATOM     20  C   UNL     1      -8.133  28.983  13.081  1.00  0.00     0.004 C 
ENDBRANCH  18  19
ENDBRANCH  17  18
ENDBRANCH  16  17
ENDBRANCH  15  16
ENDBRANCH  14  15
ENDBRANCH  13  14
ENDBRANCH  12  13
ENDBRANCH   1  12
TORSDOF 16
ENDMDL
MODEL 2
REMARK VINA RESULT:    -4.429      0.991      2.390
REMARK INTER + INTRA:          -9.216
REMARK INTER:                  -8.481
REMARK INTRA:                  -0.735
REMARK UNBOUND:                -0.643
REMARK SMILES CCCCCCCCCCCCCCCCCC(=O)[O-]
REMARK SMILES IDX 10 1 11 2 12 3 13 4 14 5 15 6 16 7 17 8 18 9 19 10 20 11
REMARK SMILES IDX 9 12 8 13 7 14 6 15 5 16 4 17 3 18 2 19 1 20
REMARK H PARENT
REMARK Flexibility Score: inf
ROOT
ATOM      1  C   UNL     1      -4.015  18.330  14.430  1.00  0.00     0.000 C 
ENDROOT
BRANCH   1   2
ATOM      2  C   UNL     1      -2.886  18.256  13.392  1.00  0.00     0.000 C 
BRANCH   2   3
ATOM      3  C   UNL     1      -1.597  18.945  13.868  1.00  0.00     0.000 C 
BRANCH   3   4
ATOM      4  C   UNL     1      -0.326  18.245  13.354  1.00  0.00     0.000 C 
BRANCH   4   5
ATOM      5  C   UNL     1      -0.259  16.765  13.789  1.00  0.00     0.000 C 
BRANCH   5   6
ATOM      6  C   UNL     1      -0.018  15.787  12.622  1.00  0.00     0.000 C 
BRANCH   6   7
ATOM      7  C   UNL     1      -1.291  15.134  12.051  1.00  0.00     0.006 C 
BRANCH   7   8
ATOM      8  C   UNL     1      -1.100  13.682  11.581  1.00  0.00     0.053 C 
BRANCH   8   9
ATOM      9  C   UNL     1      -2.204  13.239  10.673  1.00  0.00     0.041 C 
ATOM     10  O   UNL     1      -2.956  14.089  10.127  1.00  0.00    -0.550 OA
ATOM     11  O   UNL     1      -2.381  11.888  10.398  1.00  0.00    -0.550 OA
ENDBRANCH   8   9
ENDBRANCH   7   8
ENDBRANCH   6   7
ENDBRANCH   5   6
ENDBRANCH   4   5
ENDBRANCH   3   4
ENDBRANCH   2   3
ENDBRANCH   1   2
BRANCH   1  12
ATOM     12  C   UNL     1      -5.134  19.266  13.958  1.00  0.00     0.000 C 
BRANCH  12  13
ATOM     13  C   UNL     1      -6.138  19.538  15.088  1.00  0.00    -0.000 C 
BRANCH  13  14
ATOM     14  C   UNL     1      -6.904  20.856  14.896  1.00  0.00    -0.000 C 
BRANCH  14  15
ATOM     15  C   UNL     1      -8.415  20.637  14.703  1.00  0.00    -0.000 C 
BRANCH  15  16
ATOM     16  C   UNL     1      -9.152  21.912  14.254  1.00  0.00    -0.000 C 
BRANCH  16  17
ATOM     17  C   UNL     1      -8.473  23.236  14.653  1.00  0.00    -0.000 C 
BRANCH  17  18
ATOM     18  C   UNL     1      -8.345  24.272  13.521  1.00  0.00    -0.000 C 
BRANCH  18  19
ATOM     19  C   UNL     1      -8.539  25.731  13.986  1.00  0.00    -0.003 C 
ATOM     20  C   UNL     1      -9.315  26.575  12.976  1.00  0.00     0.004 C 
ENDBRANCH  18  19
ENDBRANCH  17  18
ENDBRANCH  16  17
ENDBRANCH  15  16
ENDBRANCH  14  15
ENDBRANCH  13  14
ENDBRANCH  12  13
ENDBRANCH   1  12
TORSDOF 16
ENDMDL
MODEL 3
REMARK VINA RESULT:    -4.396      1.607      3.382
REMARK INTER + INTRA:          -9.150
REMARK INTER:                  -8.347
REMARK INTRA:                  -0.803
REMARK UNBOUND:                -0.643
REMARK SMILES CCCCCCCCCCCCCCCCCC(=O)[O-]
REMARK SMILES IDX 10 1 11 2 12 3 13 4 14 5 15 6 16 7 17 8 18 9 19 10 20 11
REMARK SMILES IDX 9 12 8 13 7 14 6 15 5 16 4 17 3 18 2 19 1 20
REMARK H PARENT
REMARK Flexibility Score: inf
ROOT
ATOM      1  C   UNL     1      -3.716  17.926  13.729  1.00  0.00     0.000 C 
ENDROOT
BRANCH   1   2
ATOM      2  C   UNL     1      -2.428  18.225  12.948  1.00  0.00     0.000 C 
BRANCH   2   3
ATOM      3  C   UNL     1      -1.563  16.973  12.730  1.00  0.00     0.000 C 
BRANCH   3   4
ATOM      4  C   UNL     1      -1.732  16.374  11.323  1.00  0.00     0.000 C 
BRANCH   4   5
ATOM      5  C   UNL     1      -2.089  14.872  11.367  1.00  0.00     0.000 C 
BRANCH   5   6
ATOM      6  C   UNL     1      -1.399  14.104  12.511  1.00  0.00     0.000 C 
BRANCH   6   7
ATOM      7  C   UNL     1      -2.176  12.880  13.030  1.00  0.00     0.006 C 
BRANCH   7   8
ATOM      8  C   UNL     1      -3.501  13.224  13.733  1.00  0.00     0.053 C 
BRANCH   8   9
ATOM      9  C   UNL     1      -4.512  12.130  13.586  1.00  0.00     0.041 C 
ATOM     10  O   UNL     1      -5.109  11.960  12.491  1.00  0.00    -0.550 OA
ATOM     11  O   UNL     1      -4.769  11.272  14.649  1.00  0.00    -0.550 OA
ENDBRANCH   8   9
ENDBRANCH   7   8
ENDBRANCH   6   7
ENDBRANCH   5   6
ENDBRANCH   4   5
ENDBRANCH   3   4
ENDBRANCH   2   3
ENDBRANCH   1   2
BRANCH   1  12
ATOM     12  C   UNL     1      -4.075  19.090  14.661  1.00  0.00     0.000 C 
BRANCH  12  13
ATOM     13  C   UNL     1      -5.587  19.132  14.932  1.00  0.00    -0.000 C 
BRANCH  13  14
ATOM     14  C   UNL     1      -6.309  20.203  14.099  1.00  0.00    -0.000 C 
BRANCH  14  15
ATOM     15  C   UNL     1      -7.198  21.118  14.960  1.00  0.00    -0.000 C 
BRANCH  15  16
ATOM     16  C   UNL     1      -8.653  21.180  14.459  1.00  0.00    -0.000 C 
BRANCH  16  17
ATOM     17  C   UNL     1      -9.216  22.601  14.262  1.00  0.00    -0.000 C 
BRANCH  17  18
ATOM     18  C   UNL     1      -8.191  23.653  13.800  1.00  0.00    -0.000 C 
BRANCH  18  19
ATOM     19  C   UNL     1      -8.482  25.077  14.318  1.00  0.00    -0.003 C 
ATOM     20  C   UNL     1      -8.896  26.038  13.204  1.00  0.00     0.004 C 
ENDBRANCH  18  19
ENDBRANCH  17  18
ENDBRANCH  16  17
ENDBRANCH  15  16
ENDBRANCH  14  15
ENDBRANCH  13  14
ENDBRANCH  12  13
ENDBRANCH   1  12
TORSDOF 16
ENDMDL
MODEL 4
REMARK VINA RESULT:    -4.125      1.936      4.479
REMARK INTER + INTRA:          -8.627
REMARK INTER:                  -7.817
REMARK INTRA:                  -0.810
REMARK UNBOUND:                -0.643
REMARK SMILES CCCCCCCCCCCCCCCCCC(=O)[O-]
REMARK SMILES IDX 10 1 11 2 12 3 13 4 14 5 15 6 16 7 17 8 18 9 19 10 20 11
REMARK SMILES IDX 9 12 8 13 7 14 6 15 5 16 4 17 3 18 2 19 1 20
REMARK H PARENT
REMARK Flexibility Score: inf
ROOT
ATOM      1  C   UNL     1      -2.512  17.896  12.506  1.00  0.00     0.000 C 
ENDROOT
BRANCH   1   2
ATOM      2  C   UNL     1      -1.280  16.999  12.700  1.00  0.00     0.000 C 
BRANCH   2   3
ATOM      3  C   UNL     1      -1.483  15.583  12.138  1.00  0.00     0.000 C 
BRANCH   3   4
ATOM      4  C   UNL     1      -1.470  14.503  13.234  1.00  0.00     0.000 C 
BRANCH   4   5
ATOM      5  C   UNL     1      -2.721  14.574  14.137  1.00  0.00     0.000 C 
BRANCH   5   6
ATOM      6  C   UNL     1      -3.605  13.313  14.072  1.00  0.00     0.000 C 
BRANCH   6   7
ATOM      7  C   UNL     1      -3.622  12.606  12.704  1.00  0.00     0.006 C 
BRANCH   7   8
ATOM      8  C   UNL     1      -4.963  11.937  12.355  1.00  0.00     0.053 C 
BRANCH   8   9
ATOM      9  C   UNL     1      -4.775  10.545  11.837  1.00  0.00     0.041 C 
ATOM     10  O   UNL     1      -5.774   9.807  11.626  1.00  0.00    -0.550 OA
ATOM     11  O   UNL     1      -3.499  10.073  11.552  1.00  0.00    -0.550 OA
ENDBRANCH   8   9
ENDBRANCH   7   8
ENDBRANCH   6   7
ENDBRANCH   5   6
ENDBRANCH   4   5
ENDBRANCH   3   4
ENDBRANCH   2   3
ENDBRANCH   1   2
BRANCH   1  12
ATOM     12  C   UNL     1      -3.106  18.310  13.858  1.00  0.00     0.000 C 
BRANCH  12  13
ATOM     13  C   UNL     1      -4.478  18.976  13.674  1.00  0.00    -0.000 C 
BRANCH  13  14
ATOM     14  C   UNL     1      -5.003  19.619  14.968  1.00  0.00    -0.000 C 
BRANCH  14  15
ATOM     15  C   UNL     1      -6.540  19.684  15.012  1.00  0.00    -0.000 C 
BRANCH  15  16
ATOM     16  C   UNL     1      -7.096  21.031  14.513  1.00  0.00    -0.000 C 
BRANCH  16  17
ATOM     17  C   UNL     1      -8.616  21.059  14.264  1.00  0.00    -0.000 C 
BRANCH  17  18
ATOM     18  C   UNL     1      -9.287  22.430  14.472  1.00  0.00    -0.000 C 
BRANCH  18  19
ATOM     19  C   UNL     1      -8.293  23.609  14.526  1.00  0.00    -0.003 C 
ATOM     20  C   UNL     1      -8.702  24.769  13.620  1.00  0.00     0.004 C 
ENDBRANCH  18  19
ENDBRANCH  17  18
ENDBRANCH  16  17
ENDBRANCH  15  16
ENDBRANCH  14  15
ENDBRANCH  13  14
ENDBRANCH  12  13
ENDBRANCH   1  12
TORSDOF 16
ENDMDL
MODEL 5
REMARK VINA RESULT:    -3.970      6.183     11.530
REMARK INTER + INTRA:          -8.327
REMARK INTER:                  -5.641
REMARK INTRA:                  -2.686
REMARK UNBOUND:                -0.643
REMARK SMILES CCCCCCCCCCCCCCCCCC(=O)[O-]
REMARK SMILES IDX 10 1 11 2 12 3 13 4 14 5 15 6 16 7 17 8 18 9 19 10 20 11
REMARK SMILES IDX 9 12 8 13 7 14 6 15 5 16 4 17 3 18 2 19 1 20
REMARK H PARENT
REMARK Flexibility Score: inf
ROOT
ATOM      1  C   UNL     1      -3.918  11.968  11.758  1.00  0.00     0.000 C 
ENDROOT
BRANCH   1   2
ATOM      2  C   UNL     1      -4.021  12.599  13.155  1.00  0.00     0.000 C 
BRANCH   2   3
ATOM      3  C   UNL     1      -2.812  13.486  13.496  1.00  0.00     0.000 C 
BRANCH   3   4
ATOM      4  C   UNL     1      -2.234  14.200  12.262  1.00  0.00     0.000 C 
BRANCH   4   5
ATOM      5  C   UNL     1      -0.812  14.745  12.516  1.00  0.00     0.000 C 
BRANCH   5   6
ATOM      6  C   UNL     1      -0.720  16.282  12.473  1.00  0.00     0.000 C 
BRANCH   6   7
ATOM      7  C   UNL     1      -2.004  16.994  12.010  1.00  0.00     0.006 C 
BRANCH   7   8
ATOM      8  C   UNL     1      -2.361  18.249  12.825  1.00  0.00     0.053 C 
BRANCH   8   9
ATOM      9  C   UNL     1      -3.595  18.048  13.648  1.00  0.00     0.041 C 
ATOM     10  O   UNL     1      -3.691  17.054  14.415  1.00  0.00    -0.550 OA
ATOM     11  O   UNL     1      -4.626  18.979  13.598  1.00  0.00    -0.550 OA
ENDBRANCH   8   9
ENDBRANCH   7   8
ENDBRANCH   6   7
ENDBRANCH   5   6
ENDBRANCH   4   5
ENDBRANCH   3   4
ENDBRANCH   2   3
ENDBRANCH   1   2
BRANCH   1  12
ATOM     12  C   UNL     1      -4.514  10.555  11.749  1.00  0.00     0.000 C 
BRANCH  12  13
ATOM     13  C   UNL     1      -3.731   9.622  12.685  1.00  0.00    -0.000 C 
BRANCH  13  14
ATOM     14  C   UNL     1      -2.287   9.386  12.215  1.00  0.00    -0.000 C 
BRANCH  14  15
ATOM     15  C   UNL     1      -1.248   9.979  13.183  1.00  0.00    -0.000 C 
BRANCH  15  16
ATOM     16  C   UNL     1      -0.292  10.973  12.499  1.00  0.00    -0.000 C 
BRANCH  16  17
ATOM     17  C   UNL     1      -0.073  10.739  10.993  1.00  0.00    -0.000 C 
BRANCH  17  18
ATOM     18  C   UNL     1      -0.483  11.912  10.082  1.00  0.00    -0.000 C 
BRANCH  18  19
ATOM     19  C   UNL     1      -1.533  11.535   9.016  1.00  0.00    -0.003 C 
ATOM     20  C   UNL     1      -1.352  10.114   8.484  1.00  0.00     0.004 C 
ENDBRANCH  18  19
ENDBRANCH  17  18
ENDBRANCH  16  17
ENDBRANCH  15  16
ENDBRANCH  14  15
ENDBRANCH  13  14
ENDBRANCH  12  13
ENDBRANCH   1  12
TORSDOF 16
ENDMDL
MODEL 6
REMARK VINA RESULT:    -3.840     18.668     20.584
REMARK INTER + INTRA:          -8.076
REMARK INTER:                  -6.302
REMARK INTRA:                  -1.774
REMARK UNBOUND:                -0.643
REMARK SMILES CCCCCCCCCCCCCCCCCC(=O)[O-]
REMARK SMILES IDX 10 1 11 2 12 3 13 4 14 5 15 6 16 7 17 8 18 9 19 10 20 11
REMARK SMILES IDX 9 12 8 13 7 14 6 15 5 16 4 17 3 18 2 19 1 20
REMARK H PARENT
REMARK Flexibility Score: inf
ROOT
ATOM      1  C   UNL     1     -18.618  14.242  -0.222  1.00  0.00     0.000 C 
ENDROOT
BRANCH   1   2
ATOM      2  C   UNL     1     -19.112  14.184   1.231  1.00  0.00     0.000 C 
BRANCH   2   3
ATOM      3  C   UNL     1     -19.655  12.799   1.619  1.00  0.00     0.000 C 
BRANCH   3   4
ATOM      4  C   UNL     1     -19.180  11.688   0.666  1.00  0.00     0.000 C 
BRANCH   4   5
ATOM      5  C   UNL     1     -18.473  10.538   1.416  1.00  0.00     0.000 C 
BRANCH   5   6
ATOM      6  C   UNL     1     -18.570  10.647   2.950  1.00  0.00     0.000 C 
BRANCH   6   7
ATOM      7  C   UNL     1     -17.250  10.393   3.702  1.00  0.00     0.006 C 
BRANCH   7   8
ATOM      8  C   UNL     1     -16.659  11.640   4.381  1.00  0.00     0.053 C 
BRANCH   8   9
ATOM      9  C   UNL     1     -15.480  11.303   5.240  1.00  0.00     0.041 C 
ATOM     10  O   UNL     1     -14.511  10.656   4.761  1.00  0.00    -0.550 OA
ATOM     11  O   UNL     1     -15.432  11.735   6.560  1.00  0.00    -0.550 OA
ENDBRANCH   8   9
ENDBRANCH   7   8
ENDBRANCH   6   7
ENDBRANCH   5   6
ENDBRANCH   4   5
ENDBRANCH   3   4
ENDBRANCH   2   3
ENDBRANCH   1   2
BRANCH   1  12
ATOM     12  C   UNL     1     -19.001  15.573  -0.879  1.00  0.00     0.000 C 
BRANCH  12  13
ATOM     13  C   UNL     1     -19.706  15.341  -2.224  1.00  0.00    -0.000 C 
BRANCH  13  14
ATOM     14  C   UNL     1     -19.617  13.880  -2.695  1.00  0.00    -0.000 C 
BRANCH  14  15
ATOM     15  C   UNL     1     -18.748  13.721  -3.955  1.00  0.00    -0.000 C 
BRANCH  15  16
ATOM     16  C   UNL     1     -17.517  12.824  -3.723  1.00  0.00    -0.000 C 
BRANCH  16  17
ATOM     17  C   UNL     1     -17.707  11.711  -2.675  1.00  0.00    -0.000 C 
BRANCH  17  18
ATOM     18  C   UNL     1     -16.403  11.117  -2.110  1.00  0.00    -0.000 C 
BRANCH  18  19
ATOM     19  C   UNL     1     -15.142  11.504  -2.911  1.00  0.00    -0.003 C 
ATOM     20  C   UNL     1     -13.943  10.611  -2.594  1.00  0.00     0.004 C 
ENDBRANCH  18  19
ENDBRANCH  17  18
ENDBRANCH  16  17
ENDBRANCH  15  16
ENDBRANCH  14  15
ENDBRANCH  13  14
ENDBRANCH  12  13
ENDBRANCH   1  12
TORSDOF 16
ENDMDL
MODEL 7
REMARK VINA RESULT:    -3.799      2.963      6.815
REMARK INTER + INTRA:          -7.995
REMARK INTER:                  -7.027
REMARK INTRA:                  -0.968
REMARK UNBOUND:                -0.643
REMARK SMILES CCCCCCCCCCCCCCCCCC(=O)[O-]
REMARK SMILES IDX 10 1 11 2 12 3 13 4 14 5 15 6 16 7 17 8 18 9 19 10 20 11
REMARK SMILES IDX 9 12 8 13 7 14 6 15 5 16 4 17 3 18 2 19 1 20
REMARK H PARENT
REMARK Flexibility Score: inf
ROOT
ATOM      1  C   UNL     1      -1.993  15.670  11.400  1.00  0.00     0.000 C 
ENDROOT
BRANCH   1   2
ATOM      2  C   UNL     1      -1.830  14.145  11.489  1.00  0.00     0.000 C 
BRANCH   2   3
ATOM      3  C   UNL     1      -2.792  13.390  10.558  1.00  0.00     0.000 C 
BRANCH   3   4
ATOM      4  C   UNL     1      -2.113  12.217   9.830  1.00  0.00     0.000 C 
BRANCH   4   5
ATOM      5  C   UNL     1      -1.616  11.131  10.809  1.00  0.00     0.000 C 
BRANCH   5   6
ATOM      6  C   UNL     1      -2.437   9.828  10.758  1.00  0.00     0.000 C 
BRANCH   6   7
ATOM      7  C   UNL     1      -3.241   9.520  12.034  1.00  0.00     0.006 C 
BRANCH   7   8
ATOM      8  C   UNL     1      -4.632  10.175  12.078  1.00  0.00     0.053 C 
BRANCH   8   9
ATOM      9  C   UNL     1      -4.828  10.990  13.319  1.00  0.00     0.041 C 
ATOM     10  O   UNL     1      -4.524  12.212  13.330  1.00  0.00    -0.550 OA
ATOM     11  O   UNL     1      -5.380  10.409  14.454  1.00  0.00    -0.550 OA
ENDBRANCH   8   9
ENDBRANCH   7   8
ENDBRANCH   6   7
ENDBRANCH   5   6
ENDBRANCH   4   5
ENDBRANCH   3   4
ENDBRANCH   2   3
ENDBRANCH   1   2
BRANCH   1  12
ATOM     12  C   UNL     1      -2.102  16.293  12.796  1.00  0.00     0.000 C 
BRANCH  12  13
ATOM     13  C   UNL     1      -1.450  17.684  12.831  1.00  0.00    -0.000 C 
BRANCH  13  14
ATOM     14  C   UNL     1      -2.279  18.708  13.621  1.00  0.00    -0.000 C 
BRANCH  14  15
ATOM     15  C   UNL     1      -3.789  18.415  13.563  1.00  0.00    -0.000 C 
BRANCH  15  16
ATOM     16  C   UNL     1      -4.426  18.279  14.957  1.00  0.00    -0.000 C 
BRANCH  16  17
ATOM     17  C   UNL     1      -5.874  18.793  15.068  1.00  0.00    -0.000 C 
BRANCH  17  18
ATOM     18  C   UNL     1      -6.155  20.118  14.335  1.00  0.00    -0.000 C 
BRANCH  18  19
ATOM     19  C   UNL     1      -7.393  20.873  14.864  1.00  0.00    -0.003 C 
ATOM     20  C   UNL     1      -7.198  22.388  14.881  1.00  0.00     0.004 C 
ENDBRANCH  18  19
ENDBRANCH  17  18
ENDBRANCH  16  17
ENDBRANCH  15  16
ENDBRANCH  14  15
ENDBRANCH  13  14
ENDBRANCH  12  13
ENDBRANCH   1  12
TORSDOF 16
ENDMDL
MODEL 8
REMARK VINA RESULT:    -3.704     17.723     19.853
REMARK INTER + INTRA:          -7.812
REMARK INTER:                  -6.286
REMARK INTRA:                  -1.525
REMARK UNBOUND:                -0.643
REMARK SMILES CCCCCCCCCCCCCCCCCC(=O)[O-]
REMARK SMILES IDX 10 1 11 2 12 3 13 4 14 5 15 6 16 7 17 8 18 9 19 10 20 11
REMARK SMILES IDX 9 12 8 13 7 14 6 15 5 16 4 17 3 18 2 19 1 20
REMARK H PARENT
REMARK Flexibility Score: inf
ROOT
ATOM      1  C   UNL     1     -18.939  13.877   1.258  1.00  0.00     0.000 C 
ENDROOT
BRANCH   1   2
ATOM      2  C   UNL     1     -18.819  14.280  -0.219  1.00  0.00     0.000 C 
BRANCH   2   3
ATOM      3  C   UNL     1     -19.250  13.158  -1.177  1.00  0.00     0.000 C 
BRANCH   3   4
ATOM      4  C   UNL     1     -18.231  12.914  -2.303  1.00  0.00     0.000 C 
BRANCH   4   5
ATOM      5  C   UNL     1     -17.085  11.979  -1.860  1.00  0.00     0.000 C 
BRANCH   5   6
ATOM      6  C   UNL     1     -17.570  10.643  -1.265  1.00  0.00     0.000 C 
BRANCH   6   7
ATOM      7  C   UNL     1     -16.465   9.593  -1.046  1.00  0.00     0.006 C 
BRANCH   7   8
ATOM      8  C   UNL     1     -15.498   9.436  -2.231  1.00  0.00     0.053 C 
BRANCH   8   9
ATOM      9  C   UNL     1     -14.071   9.625  -1.819  1.00  0.00     0.041 C 
ATOM     10  O   UNL     1     -13.603   8.982  -0.842  1.00  0.00    -0.550 OA
ATOM     11  O   UNL     1     -13.246  10.484  -2.535  1.00  0.00    -0.550 OA
ENDBRANCH   8   9
ENDBRANCH   7   8
ENDBRANCH   6   7
ENDBRANCH   5   6
ENDBRANCH   4   5
ENDBRANCH   3   4
ENDBRANCH   2   3
ENDBRANCH   1   2
BRANCH   1  12
ATOM     12  C   UNL     1     -19.821  12.632   1.418  1.00  0.00     0.000 C 
BRANCH  12  13
ATOM     13  C   UNL     1     -19.408  11.821   2.655  1.00  0.00    -0.000 C 
BRANCH  13  14
ATOM     14  C   UNL     1     -18.220  10.885   2.381  1.00  0.00    -0.000 C 
BRANCH  14  15
ATOM     15  C   UNL     1     -17.491  10.465   3.670  1.00  0.00    -0.000 C 
BRANCH  15  16
ATOM     16  C   UNL     1     -16.699  11.619   4.312  1.00  0.00    -0.000 C 
BRANCH  16  17
ATOM     17  C   UNL     1     -15.463  11.190   5.126  1.00  0.00    -0.000 C 
BRANCH  17  18
ATOM     18  C   UNL     1     -14.467  10.286   4.375  1.00  0.00    -0.000 C 
BRANCH  18  19
ATOM     19  C   UNL     1     -13.007  10.437   4.851  1.00  0.00    -0.003 C 
ATOM     20  C   UNL     1     -12.870  10.360   6.371  1.00  0.00     0.004 C 
ENDBRANCH  18  19
ENDBRANCH  17  18
ENDBRANCH  16  17
ENDBRANCH  15  16
ENDBRANCH  14  15
ENDBRANCH  13  14
ENDBRANCH  12  13
ENDBRANCH   1  12
TORSDOF 16
ENDMDL
MODEL 9
REMARK VINA RESULT:    -3.649     18.577     20.591
REMARK INTER + INTRA:          -7.705
REMARK INTER:                  -5.974
REMARK INTRA:                  -1.732
REMARK UNBOUND:                -0.643
REMARK SMILES CCCCCCCCCCCCCCCCCC(=O)[O-]
REMARK SMILES IDX 10 1 11 2 12 3 13 4 14 5 15 6 16 7 17 8 18 9 19 10 20 11
REMARK SMILES IDX 9 12 8 13 7 14 6 15 5 16 4 17 3 18 2 19 1 20
REMARK H PARENT
REMARK Flexibility Score: inf
ROOT
ATOM      1  C   UNL     1     -19.231  14.132   1.249  1.00  0.00     0.000 C 
ENDROOT
BRANCH   1   2
ATOM      2  C   UNL     1     -18.510  14.149  -0.107  1.00  0.00     0.000 C 
BRANCH   2   3
ATOM      3  C   UNL     1     -19.029  15.253  -1.041  1.00  0.00     0.000 C 
BRANCH   3   4
ATOM      4  C   UNL     1     -19.562  14.700  -2.374  1.00  0.00     0.000 C 
BRANCH   4   5
ATOM      5  C   UNL     1     -19.034  13.279  -2.670  1.00  0.00     0.000 C 
BRANCH   5   6
ATOM      6  C   UNL     1     -18.048  13.218  -3.852  1.00  0.00     0.000 C 
BRANCH   6   7
ATOM      7  C   UNL     1     -16.848  12.275  -3.646  1.00  0.00     0.006 C 
BRANCH   7   8
ATOM      8  C   UNL     1     -16.655  11.805  -2.194  1.00  0.00     0.053 C 
BRANCH   8   9
ATOM      9  C   UNL     1     -16.662  10.312  -2.083  1.00  0.00     0.041 C 
ATOM     10  O   UNL     1     -15.936   9.737  -1.230  1.00  0.00    -0.550 OA
ATOM     11  O   UNL     1     -17.497   9.557  -2.897  1.00  0.00    -0.550 OA
ENDBRANCH   8   9
ENDBRANCH   7   8
ENDBRANCH   6   7
ENDBRANCH   5   6
ENDBRANCH   4   5
ENDBRANCH   3   4
ENDBRANCH   2   3
ENDBRANCH   1   2
BRANCH   1  12
ATOM     12  C   UNL     1     -19.669  12.710   1.621  1.00  0.00     0.000 C 
BRANCH  12  13
ATOM     13  C   UNL     1     -19.067  11.679   0.655  1.00  0.00    -0.000 C 
BRANCH  13  14
ATOM     14  C   UNL     1     -18.255  10.593   1.379  1.00  0.00    -0.000 C 
BRANCH  14  15
ATOM     15  C   UNL     1     -18.330  10.723   2.910  1.00  0.00    -0.000 C 
BRANCH  15  16
ATOM     16  C   UNL     1     -16.990  10.415   3.603  1.00  0.00    -0.000 C 
BRANCH  16  17
ATOM     17  C   UNL     1     -16.436  11.547   4.489  1.00  0.00    -0.000 C 
BRANCH  17  18
ATOM     18  C   UNL     1     -15.271  11.144   5.413  1.00  0.00    -0.000 C 
BRANCH  18  19
ATOM     19  C   UNL     1     -14.119  10.422   4.683  1.00  0.00    -0.003 C 
ATOM     20  C   UNL     1     -12.794  10.508   5.441  1.00  0.00     0.004 C 
ENDBRANCH  18  19
ENDBRANCH  17  18
ENDBRANCH  16  17
ENDBRANCH  15  16
ENDBRANCH  14  15
ENDBRANCH  13  14
ENDBRANCH  12  13
ENDBRANCH   1  12
TORSDOF 16
ENDMDL
