MODEL 1
REMARK VINA RESULT:    -4.494      0.000      0.000
REMARK INTER + INTRA:          -4.494
REMARK INTER:                  -4.494
REMARK INTRA:                   0.000
REMARK UNBOUND:                 0.000
REMARK SMILES CC1=CC[C@@H]2[C@@H](C1)C2(C)C
REMARK SMILES IDX 1 1 2 2 3 3 4 4 5 5 6 6 7 7 8 8 9 9 10 10
REMARK H PARENT
REMARK Flexibility Score: inf
ROOT
ATOM      1  C   UNL     1      -0.283  -0.452  15.378  1.00  0.00     0.039 C 
ATOM      2  C   UNL     1       1.031  -1.050  15.793  1.00  0.00    -0.077 C 
ATOM      3  C   UNL     1       2.129  -0.878  15.001  1.00  0.00    -0.028 C 
ATOM      4  C   UNL     1       3.486  -1.483  15.357  1.00  0.00     0.031 C 
ATOM      5  C   UNL     1       3.240  -2.673  16.291  1.00  0.00     0.003 C 
ATOM      6  C   UNL     1       2.565  -1.959  17.522  1.00  0.00     0.003 C 
ATOM      7  C   UNL     1       1.102  -1.900  17.070  1.00  0.00     0.034 C 
ATOM      8  C   UNL     1       3.606  -3.040  17.712  1.00  0.00    -0.029 C 
ATOM      9  C   UNL     1       3.082  -4.378  18.241  1.00  0.00     0.012 C 
ATOM     10  C   UNL     1       4.996  -2.592  18.174  1.00  0.00     0.012 C 
ENDROOT
TORSDOF 0
ENDMDL
MODEL 2
REMARK VINA RESULT:    -4.444      1.271      3.621
REMARK INTER + INTRA:          -4.444
REMARK INTER:                  -4.444
REMARK INTRA:                   0.000
REMARK UNBOUND:                 0.000
REMARK SMILES CC1=CC[C@@H]2[C@@H](C1)C2(C)C
REMARK SMILES IDX 1 1 2 2 3 3 4 4 5 5 6 6 7 7 8 8 9 9 10 10
REMARK H PARENT
REMARK Flexibility Score: inf
ROOT
ATOM      1  C   UNL     1       0.725  -4.882  19.065  1.00  0.00     0.039 C 
ATOM      2  C   UNL     1       1.750  -4.076  18.321  1.00  0.00    -0.077 C 
ATOM      3  C   UNL     1       3.048  -4.083  18.745  1.00  0.00    -0.028 C 
ATOM      4  C   UNL     1       4.132  -3.264  18.046  1.00  0.00     0.031 C 
ATOM      5  C   UNL     1       3.446  -2.116  17.298  1.00  0.00     0.003 C 
ATOM      6  C   UNL     1       2.547  -2.911  16.277  1.00  0.00     0.003 C 
ATOM      7  C   UNL     1       1.311  -3.209  17.133  1.00  0.00     0.034 C 
ATOM      8  C   UNL     1       3.312  -1.675  15.857  1.00  0.00    -0.029 C 
ATOM      9  C   UNL     1       2.462  -0.431  15.587  1.00  0.00     0.012 C 
ATOM     10  C   UNL     1       4.551  -1.889  14.983  1.00  0.00     0.012 C 
ENDROOT
TORSDOF 0
ENDMDL
MODEL 3
REMARK VINA RESULT:    -4.426      1.175      4.204
REMARK INTER + INTRA:          -4.426
REMARK INTER:                  -4.426
REMARK INTRA:                   0.000
REMARK UNBOUND:                 0.000
REMARK SMILES CC1=CC[C@@H]2[C@@H](C1)C2(C)C
REMARK SMILES IDX 1 1 2 2 3 3 4 4 5 5 6 6 7 7 8 8 9 9 10 10
REMARK H PARENT
REMARK Flexibility Score: inf
ROOT
ATOM      1  C   UNL     1       4.252  -4.786  19.774  1.00  0.00     0.039 C 
ATOM      2  C   UNL     1       3.603  -3.991  18.677  1.00  0.00    -0.077 C 
ATOM      3  C   UNL     1       2.281  -4.185  18.397  1.00  0.00    -0.028 C 
ATOM      4  C   UNL     1       1.571  -3.427  17.278  1.00  0.00     0.031 C 
ATOM      5  C   UNL     1       2.633  -2.963  16.276  1.00  0.00     0.003 C 
ATOM      6  C   UNL     1       3.508  -2.013  17.178  1.00  0.00     0.003 C 
ATOM      7  C   UNL     1       4.452  -3.019  17.847  1.00  0.00     0.034 C 
ATOM      8  C   UNL     1       3.143  -1.636  15.759  1.00  0.00    -0.029 C 
ATOM      9  C   UNL     1       4.291  -1.679  14.747  1.00  0.00     0.012 C 
ATOM     10  C   UNL     1       2.084  -0.545  15.583  1.00  0.00     0.012 C 
ENDROOT
TORSDOF 0
ENDMDL
MODEL 4
REMARK VINA RESULT:    -4.367      1.536      4.118
REMARK INTER + INTRA:          -4.367
REMARK INTER:                  -4.367
REMARK INTRA:                   0.000
REMARK UNBOUND:                 0.000
REMARK SMILES CC1=CC[C@@H]2[C@@H](C1)C2(C)C
REMARK SMILES IDX 1 1 2 2 3 3 4 4 5 5 6 6 7 7 8 8 9 9 10 10
REMARK H PARENT
REMARK Flexibility Score: inf
ROOT
ATOM      1  C   UNL     1       6.716  -2.264  15.579  1.00  0.00     0.039 C 
ATOM      2  C   UNL     1       5.259  -2.238  15.940  1.00  0.00    -0.077 C 
ATOM      3  C   UNL     1       4.879  -2.511  17.223  1.00  0.00    -0.028 C 
ATOM      4  C   UNL     1       3.411  -2.525  17.646  1.00  0.00     0.031 C 
ATOM      5  C   UNL     1       2.563  -2.775  16.395  1.00  0.00     0.003 C 
ATOM      6  C   UNL     1       2.920  -1.509  15.527  1.00  0.00     0.003 C 
ATOM      7  C   UNL     1       4.215  -1.968  14.848  1.00  0.00     0.034 C 
ATOM      8  C   UNL     1       1.500  -2.020  15.627  1.00  0.00    -0.029 C 
ATOM      9  C   UNL     1       0.948  -2.689  14.365  1.00  0.00     0.012 C 
ATOM     10  C   UNL     1       0.526  -1.201  16.478  1.00  0.00     0.012 C 
ENDROOT
TORSDOF 0
ENDMDL
MODEL 5
REMARK VINA RESULT:    -4.330      1.222      4.231
REMARK INTER + INTRA:          -4.330
REMARK INTER:                  -4.330
REMARK INTRA:                   0.000
REMARK UNBOUND:                 0.000
REMARK SMILES CC1=CC[C@@H]2[C@@H](C1)C2(C)C
REMARK SMILES IDX 1 1 2 2 3 3 4 4 5 5 6 6 7 7 8 8 9 9 10 10
REMARK H PARENT
REMARK Flexibility Score: inf
ROOT
ATOM      1  C   UNL     1       6.495  -2.618  17.893  1.00  0.00     0.039 C 
ATOM      2  C   UNL     1       5.031  -2.488  17.584  1.00  0.00    -0.077 C 
ATOM      3  C   UNL     1       4.116  -2.631  18.587  1.00  0.00    -0.028 C 
ATOM      4  C   UNL     1       2.614  -2.535  18.332  1.00  0.00     0.031 C 
ATOM      5  C   UNL     1       2.367  -2.848  16.852  1.00  0.00     0.003 C 
ATOM      6  C   UNL     1       3.165  -1.680  16.158  1.00  0.00     0.003 C 
ATOM      7  C   UNL     1       4.584  -2.259  16.134  1.00  0.00     0.034 C 
ATOM      8  C   UNL     1       1.803  -2.109  15.658  1.00  0.00    -0.029 C 
ATOM      9  C   UNL     1       1.793  -2.854  14.321  1.00  0.00     0.012 C 
ATOM     10  C   UNL     1       0.629  -1.172  15.956  1.00  0.00     0.012 C 
ENDROOT
TORSDOF 0
ENDMDL
MODEL 6
REMARK VINA RESULT:    -4.297      0.971      3.994
REMARK INTER + INTRA:          -4.297
REMARK INTER:                  -4.297
REMARK INTRA:                   0.000
REMARK UNBOUND:                 0.000
REMARK SMILES CC1=CC[C@@H]2[C@@H](C1)C2(C)C
REMARK SMILES IDX 1 1 2 2 3 3 4 4 5 5 6 6 7 7 8 8 9 9 10 10
REMARK H PARENT
REMARK Flexibility Score: inf
ROOT
ATOM      1  C   UNL     1       4.481  -2.933  18.284  1.00  0.00     0.039 C 
ATOM      2  C   UNL     1       3.613  -2.451  17.157  1.00  0.00    -0.077 C 
ATOM      3  C   UNL     1       4.180  -2.163  15.948  1.00  0.00    -0.028 C 
ATOM      4  C   UNL     1       3.356  -1.645  14.771  1.00  0.00     0.031 C 
ATOM      5  C   UNL     1       2.085  -1.000  15.334  1.00  0.00     0.003 C 
ATOM      6  C   UNL     1       1.405  -2.233  16.041  1.00  0.00     0.003 C 
ATOM      7  C   UNL     1       2.115  -2.229  17.400  1.00  0.00     0.034 C 
ATOM      8  C   UNL     1       0.596  -1.246  15.229  1.00  0.00    -0.029 C 
ATOM      9  C   UNL     1      -0.320  -0.321  16.035  1.00  0.00     0.012 C 
ATOM     10  C   UNL     1       0.099  -1.717  13.860  1.00  0.00     0.012 C 
ENDROOT
TORSDOF 0
ENDMDL
MODEL 7
REMARK VINA RESULT:    -4.269      0.804      2.164
REMARK INTER + INTRA:          -4.269
REMARK INTER:                  -4.269
REMARK INTRA:                   0.000
REMARK UNBOUND:                 0.000
REMARK SMILES CC1=CC[C@@H]2[C@@H](C1)C2(C)C
REMARK SMILES IDX 1 1 2 2 3 3 4 4 5 5 6 6 7 7 8 8 9 9 10 10
REMARK H PARENT
REMARK Flexibility Score: inf
ROOT
ATOM      1  C   UNL     1       1.417  -0.724  14.061  1.00  0.00     0.039 C 
ATOM      2  C   UNL     1       1.807  -1.422  15.332  1.00  0.00    -0.077 C 
ATOM      3  C   UNL     1       0.889  -1.559  16.333  1.00  0.00    -0.028 C 
ATOM      4  C   UNL     1       1.232  -2.235  17.659  1.00  0.00     0.031 C 
ATOM      5  C   UNL     1       2.751  -2.154  17.849  1.00  0.00     0.003 C 
ATOM      6  C   UNL     1       3.258  -2.982  16.609  1.00  0.00     0.003 C 
ATOM      7  C   UNL     1       3.250  -1.913  15.511  1.00  0.00     0.034 C 
ATOM      8  C   UNL     1       3.891  -3.141  17.973  1.00  0.00    -0.029 C 
ATOM      9  C   UNL     1       5.300  -2.559  18.121  1.00  0.00     0.012 C 
ATOM     10  C   UNL     1       3.572  -4.426  18.741  1.00  0.00     0.012 C 
ENDROOT
TORSDOF 0
ENDMDL
MODEL 8
REMARK VINA RESULT:    -4.234      1.510      4.630
REMARK INTER + INTRA:          -4.234
REMARK INTER:                  -4.234
REMARK INTRA:                   0.000
REMARK UNBOUND:                 0.000
REMARK SMILES CC1=CC[C@@H]2[C@@H](C1)C2(C)C
REMARK SMILES IDX 1 1 2 2 3 3 4 4 5 5 6 6 7 7 8 8 9 9 10 10
REMARK H PARENT
REMARK Flexibility Score: inf
ROOT
ATOM      1  C   UNL     1       4.980  -5.243  20.962  1.00  0.00     0.039 C 
ATOM      2  C   UNL     1       4.612  -4.339  19.820  1.00  0.00    -0.077 C 
ATOM      3  C   UNL     1       5.527  -3.440  19.353  1.00  0.00    -0.028 C 
ATOM      4  C   UNL     1       5.205  -2.477  18.212  1.00  0.00     0.031 C 
ATOM      5  C   UNL     1       3.683  -2.310  18.152  1.00  0.00     0.003 C 
ATOM      6  C   UNL     1       3.228  -3.785  17.834  1.00  0.00     0.003 C 
ATOM      7  C   UNL     1       3.193  -4.398  19.239  1.00  0.00     0.034 C 
ATOM      8  C   UNL     1       2.591  -2.598  17.146  1.00  0.00    -0.029 C 
ATOM      9  C   UNL     1       1.155  -2.279  17.569  1.00  0.00     0.012 C 
ATOM     10  C   UNL     1       2.965  -2.364  15.679  1.00  0.00     0.012 C 
ENDROOT
TORSDOF 0
ENDMDL
MODEL 9
REMARK VINA RESULT:    -4.201      1.483      2.417
REMARK INTER + INTRA:          -4.201
REMARK INTER:                  -4.201
REMARK INTRA:                   0.000
REMARK UNBOUND:                 0.000
REMARK SMILES CC1=CC[C@@H]2[C@@H](C1)C2(C)C
REMARK SMILES IDX 1 1 2 2 3 3 4 4 5 5 6 6 7 7 8 8 9 9 10 10
REMARK H PARENT
REMARK Flexibility Score: inf
ROOT
ATOM      1  C   UNL     1       1.996  -0.741  15.304  1.00  0.00     0.039 C 
ATOM      2  C   UNL     1       2.305  -1.678  16.437  1.00  0.00    -0.077 C 
ATOM      3  C   UNL     1       3.585  -2.119  16.615  1.00  0.00    -0.028 C 
ATOM      4  C   UNL     1       3.957  -3.092  17.732  1.00  0.00     0.031 C 
ATOM      5  C   UNL     1       2.689  -3.853  18.135  1.00  0.00     0.003 C 
ATOM      6  C   UNL     1       1.778  -2.676  18.649  1.00  0.00     0.003 C 
ATOM      7  C   UNL     1       1.165  -2.175  17.337  1.00  0.00     0.034 C 
ATOM      8  C   UNL     1       1.851  -3.995  19.386  1.00  0.00    -0.029 C 
ATOM      9  C   UNL     1       0.603  -4.877  19.290  1.00  0.00     0.012 C 
ATOM     10  C   UNL     1       2.629  -4.011  20.705  1.00  0.00     0.012 C 
ENDROOT
TORSDOF 0
ENDMDL
