MODEL 1
REMARK VINA RESULT:    -6.462      0.000      0.000
REMARK INTER + INTRA:          -8.347
REMARK INTER:                  -7.973
REMARK INTRA:                  -0.374
REMARK UNBOUND:                -0.374
REMARK SMILES Oc1cc(O)c2cc(O)c(-c3cc(O)c(O)c(O)c3)[o+]c2c1.[Cl-]
REMARK SMILES IDX 10 1 20 2 21 3 22 4 2 5 3 6 4 7 6 8 7 9 8 10 11 11 12 12
REMARK SMILES IDX 13 13 19 14 15 15 17 16 14 17 16 19 18 21 9 23 1 25 5 27
REMARK H PARENT 14 18 16 20 18 22 9 24 1 26 5 28
REMARK Flexibility Score: inf
ROOT
ATOM      1  C   UNL     1      23.117 -19.935 -10.833  1.00  0.00     0.402 A 
ATOM      2  O   UNL     1      22.413 -18.991 -11.454  1.00  0.00    -0.202 OA
ATOM      3  C   UNL     1      22.455 -17.707 -11.114  1.00  0.00     0.368 A 
ATOM      4  C   UNL     1      21.677 -16.791 -11.825  1.00  0.00     0.162 A 
ATOM      5  C   UNL     1      21.698 -15.437 -11.488  1.00  0.00     0.128 A 
ATOM      6  C   UNL     1      22.501 -14.994 -10.431  1.00  0.00     0.093 A 
ATOM      7  C   UNL     1      23.290 -15.893  -9.703  1.00  0.00     0.136 A 
ATOM      8  C   UNL     1      23.274 -17.270 -10.043  1.00  0.00     0.125 A 
ATOM      9  C   UNL     1      24.040 -18.241  -9.378  1.00  0.00     0.078 A 
ATOM     10  C   UNL     1      23.975 -19.580  -9.776  1.00  0.00     0.223 A 
ENDROOT
BRANCH   1  11
ATOM     11  C   UNL     1      22.978 -21.333 -11.299  1.00  0.00     0.091 A 
ATOM     12  C   UNL     1      21.942 -22.161 -10.834  1.00  0.00     0.068 A 
ATOM     13  C   UNL     1      21.814 -23.475 -11.304  1.00  0.00     0.162 A 
ATOM     14  C   UNL     1      23.864 -21.828 -12.269  1.00  0.00     0.068 A 
ATOM     15  C   UNL     1      22.720 -23.970 -12.258  1.00  0.00     0.200 A 
ATOM     16  C   UNL     1      23.745 -23.139 -12.742  1.00  0.00     0.162 A 
BRANCH  13  17
ATOM     17  O   UNL     1      20.787 -24.289 -10.830  1.00  0.00    -0.504 OA
ATOM     18  H   UNL     1      20.428 -25.064 -11.376  1.00  0.00     0.293 HD
ENDBRANCH  13  17
BRANCH  15  19
ATOM     19  O   UNL     1      22.610 -25.278 -12.734  1.00  0.00    -0.502 OA
ATOM     20  H   UNL     1      22.207 -25.490 -13.639  1.00  0.00     0.293 HD
ENDBRANCH  15  19
BRANCH  16  21
ATOM     21  O   UNL     1      24.655 -23.597 -13.695  1.00  0.00    -0.504 OA
ATOM     22  H   UNL     1      24.361 -23.914 -14.611  1.00  0.00     0.293 HD
ENDBRANCH  16  21
ENDBRANCH   1  11
BRANCH  10  23
ATOM     23  O   UNL     1      24.774 -20.536  -9.148  1.00  0.00    -0.500 OA
ATOM     24  H   UNL     1      24.878 -21.473  -9.523  1.00  0.00     0.294 HD
ENDBRANCH  10  23
BRANCH   5  25
ATOM     25  O   UNL     1      20.917 -14.537 -12.209  1.00  0.00    -0.507 OA
ATOM     26  H   UNL     1      20.378 -13.814 -11.748  1.00  0.00     0.293 HD
ENDBRANCH   5  25
BRANCH   7  27
ATOM     27  O   UNL     1      24.062 -15.374  -8.659  1.00  0.00    -0.507 OA
ATOM     28  H   UNL     1      24.042 -15.716  -7.710  1.00  0.00     0.293 HD
ENDBRANCH   7  27
TORSDOF 7
ENDMDL
MODEL 2
REMARK VINA RESULT:    -6.375      1.433      7.190
REMARK INTER + INTRA:          -8.240
REMARK INTER:                  -7.864
REMARK INTRA:                  -0.376
REMARK UNBOUND:                -0.374
REMARK SMILES Oc1cc(O)c2cc(O)c(-c3cc(O)c(O)c(O)c3)[o+]c2c1.[Cl-]
REMARK SMILES IDX 10 1 20 2 21 3 22 4 2 5 3 6 4 7 6 8 7 9 8 10 11 11 12 12
REMARK SMILES IDX 13 13 19 14 15 15 17 16 14 17 16 19 18 21 9 23 1 25 5 27
REMARK H PARENT 14 18 16 20 18 22 9 24 1 26 5 28
REMARK Flexibility Score: inf
ROOT
ATOM      1  C   UNL     1      23.102 -20.543 -11.091  1.00  0.00     0.402 A 
ATOM      2  O   UNL     1      22.192 -21.455 -10.759  1.00  0.00    -0.202 OA
ATOM      3  C   UNL     1      22.192 -22.695 -11.238  1.00  0.00     0.368 A 
ATOM      4  C   UNL     1      21.191 -23.580 -10.831  1.00  0.00     0.162 A 
ATOM      5  C   UNL     1      21.164 -24.887 -11.321  1.00  0.00     0.128 A 
ATOM      6  C   UNL     1      22.144 -25.313 -12.224  1.00  0.00     0.093 A 
ATOM      7  C   UNL     1      23.157 -24.444 -12.648  1.00  0.00     0.136 A 
ATOM      8  C   UNL     1      23.190 -23.116 -12.151  1.00  0.00     0.125 A 
ATOM      9  C   UNL     1      24.175 -22.180 -12.509  1.00  0.00     0.078 A 
ATOM     10  C   UNL     1      24.143 -20.889 -11.973  1.00  0.00     0.223 A 
ENDROOT
BRANCH   1  11
ATOM     11  C   UNL     1      22.990 -19.192 -10.497  1.00  0.00     0.091 A 
ATOM     12  C   UNL     1      23.672 -18.851  -9.317  1.00  0.00     0.068 A 
ATOM     13  C   UNL     1      23.570 -17.559  -8.782  1.00  0.00     0.162 A 
ATOM     14  C   UNL     1      22.232 -18.210 -11.155  1.00  0.00     0.068 A 
ATOM     15  C   UNL     1      22.790 -16.590  -9.435  1.00  0.00     0.200 A 
ATOM     16  C   UNL     1      22.124 -16.919 -10.627  1.00  0.00     0.162 A 
BRANCH  13  17
ATOM     17  O   UNL     1      24.246 -17.235  -7.606  1.00  0.00    -0.504 OA
ATOM     18  H   UNL     1      24.816 -17.915  -7.116  1.00  0.00     0.293 HD
ENDBRANCH  13  17
BRANCH  15  19
ATOM     19  O   UNL     1      22.674 -15.300  -8.914  1.00  0.00    -0.502 OA
ATOM     20  H   UNL     1      23.281 -14.543  -9.208  1.00  0.00     0.293 HD
ENDBRANCH  15  19
BRANCH  16  21
ATOM     21  O   UNL     1      21.349 -15.977 -11.304  1.00  0.00    -0.504 OA
ATOM     22  H   UNL     1      20.799 -16.218 -12.119  1.00  0.00     0.293 HD
ENDBRANCH  16  21
ENDBRANCH   1  11
BRANCH  10  23
ATOM     23  O   UNL     1      25.149 -19.976 -12.289  1.00  0.00    -0.500 OA
ATOM     24  H   UNL     1      26.111 -20.268 -12.423  1.00  0.00     0.294 HD
ENDBRANCH  10  23
BRANCH   5  25
ATOM     25  O   UNL     1      20.159 -25.756 -10.903  1.00  0.00    -0.507 OA
ATOM     26  H   UNL     1      20.082 -26.052  -9.937  1.00  0.00     0.293 HD
ENDBRANCH   5  25
BRANCH   7  27
ATOM     27  O   UNL     1      24.097 -24.944 -13.555  1.00  0.00    -0.507 OA
ATOM     28  H   UNL     1      23.949 -25.751 -14.143  1.00  0.00     0.293 HD
ENDBRANCH   7  27
TORSDOF 7
ENDMDL
MODEL 3
REMARK VINA RESULT:    -6.326      1.482      3.429
REMARK INTER + INTRA:          -8.179
REMARK INTER:                  -7.796
REMARK INTRA:                  -0.383
REMARK UNBOUND:                -0.374
REMARK SMILES Oc1cc(O)c2cc(O)c(-c3cc(O)c(O)c(O)c3)[o+]c2c1.[Cl-]
REMARK SMILES IDX 10 1 20 2 21 3 22 4 2 5 3 6 4 7 6 8 7 9 8 10 11 11 12 12
REMARK SMILES IDX 13 13 19 14 15 15 17 16 14 17 16 19 18 21 9 23 1 25 5 27
REMARK H PARENT 14 18 16 20 18 22 9 24 1 26 5 28
REMARK Flexibility Score: inf
ROOT
ATOM      1  C   UNL     1      22.155 -21.098 -11.538  1.00  0.00     0.402 A 
ATOM      2  O   UNL     1      22.820 -20.602 -10.498  1.00  0.00    -0.202 OA
ATOM      3  C   UNL     1      22.802 -19.315 -10.166  1.00  0.00     0.368 A 
ATOM      4  C   UNL     1      23.536 -18.889  -9.057  1.00  0.00     0.162 A 
ATOM      5  C   UNL     1      23.539 -17.543  -8.688  1.00  0.00     0.128 A 
ATOM      6  C   UNL     1      22.804 -16.615  -9.433  1.00  0.00     0.093 A 
ATOM      7  C   UNL     1      22.061 -17.016 -10.549  1.00  0.00     0.136 A 
ATOM      8  C   UNL     1      22.053 -18.384 -10.927  1.00  0.00     0.125 A 
ATOM      9  C   UNL     1      21.327 -18.880 -12.023  1.00  0.00     0.078 A 
ATOM     10  C   UNL     1      21.365 -20.244 -12.330  1.00  0.00     0.223 A 
ENDROOT
BRANCH   1  11
ATOM     11  C   UNL     1      22.262 -22.549 -11.811  1.00  0.00     0.091 A 
ATOM     12  C   UNL     1      23.277 -23.067 -12.632  1.00  0.00     0.068 A 
ATOM     13  C   UNL     1      23.374 -24.447 -12.860  1.00  0.00     0.162 A 
ATOM     14  C   UNL     1      21.366 -23.435 -11.192  1.00  0.00     0.068 A 
ATOM     15  C   UNL     1      22.459 -25.324 -12.255  1.00  0.00     0.200 A 
ATOM     16  C   UNL     1      21.455 -24.813 -11.415  1.00  0.00     0.162 A 
BRANCH  13  17
ATOM     17  O   UNL     1      24.382 -24.949 -13.683  1.00  0.00    -0.504 OA
ATOM     18  H   UNL     1      24.459 -25.940 -13.884  1.00  0.00     0.293 HD
ENDBRANCH  13  17
BRANCH  15  19
ATOM     19  O   UNL     1      22.538 -26.701 -12.475  1.00  0.00    -0.502 OA
ATOM     20  H   UNL     1      23.382 -27.144 -12.819  1.00  0.00     0.293 HD
ENDBRANCH  15  19
BRANCH  16  21
ATOM     21  O   UNL     1      20.536 -25.658 -10.793  1.00  0.00    -0.504 OA
ATOM     22  H   UNL     1      20.028 -25.382  -9.961  1.00  0.00     0.293 HD
ENDBRANCH  16  21
ENDBRANCH   1  11
BRANCH  10  23
ATOM     23  O   UNL     1      20.605 -20.744 -13.387  1.00  0.00    -0.500 OA
ATOM     24  H   UNL     1      21.035 -21.194 -14.187  1.00  0.00     0.294 HD
ENDBRANCH  10  23
BRANCH   5  25
ATOM     25  O   UNL     1      24.276 -17.137  -7.577  1.00  0.00    -0.507 OA
ATOM     26  H   UNL     1      23.826 -16.888  -6.705  1.00  0.00     0.293 HD
ENDBRANCH   5  25
BRANCH   7  27
ATOM     27  O   UNL     1      21.356 -16.028 -11.244  1.00  0.00    -0.507 OA
ATOM     28  H   UNL     1      21.771 -15.396 -11.912  1.00  0.00     0.293 HD
ENDBRANCH   7  27
TORSDOF 7
ENDMDL
MODEL 4
REMARK VINA RESULT:    -6.292      2.017      7.683
REMARK INTER + INTRA:          -8.138
REMARK INTER:                  -7.852
REMARK INTRA:                  -0.285
REMARK UNBOUND:                -0.374
REMARK SMILES Oc1cc(O)c2cc(O)c(-c3cc(O)c(O)c(O)c3)[o+]c2c1.[Cl-]
REMARK SMILES IDX 10 1 20 2 21 3 22 4 2 5 3 6 4 7 6 8 7 9 8 10 11 11 12 12
REMARK SMILES IDX 13 13 19 14 15 15 17 16 14 17 16 19 18 21 9 23 1 25 5 27
REMARK H PARENT 14 18 16 20 18 22 9 24 1 26 5 28
REMARK Flexibility Score: inf
ROOT
ATOM      1  C   UNL     1      23.394 -22.225 -12.009  1.00  0.00     0.402 A 
ATOM      2  O   UNL     1      24.374 -22.723 -12.759  1.00  0.00    -0.202 OA
ATOM      3  C   UNL     1      24.360 -23.956 -13.254  1.00  0.00     0.368 A 
ATOM      4  C   UNL     1      25.438 -24.389 -14.029  1.00  0.00     0.162 A 
ATOM      5  C   UNL     1      25.452 -25.680 -14.559  1.00  0.00     0.128 A 
ATOM      6  C   UNL     1      24.381 -26.546 -14.312  1.00  0.00     0.093 A 
ATOM      7  C   UNL     1      23.289 -26.136 -13.538  1.00  0.00     0.136 A 
ATOM      8  C   UNL     1      23.269 -24.823 -12.999  1.00  0.00     0.125 A 
ATOM      9  C   UNL     1      22.212 -24.321 -12.223  1.00  0.00     0.078 A 
ATOM     10  C   UNL     1      22.262 -23.014 -11.731  1.00  0.00     0.223 A 
ENDROOT
BRANCH   1  11
ATOM     11  C   UNL     1      23.531 -20.839 -11.507  1.00  0.00     0.091 A 
ATOM     12  C   UNL     1      23.695 -20.568 -10.138  1.00  0.00     0.068 A 
ATOM     13  C   UNL     1      23.845 -19.250  -9.686  1.00  0.00     0.162 A 
ATOM     14  C   UNL     1      23.555 -19.774 -12.421  1.00  0.00     0.068 A 
ATOM     15  C   UNL     1      23.844 -18.188 -10.606  1.00  0.00     0.200 A 
ATOM     16  C   UNL     1      23.702 -18.455 -11.978  1.00  0.00     0.162 A 
BRANCH  13  17
ATOM     17  O   UNL     1      24.000 -18.993  -8.324  1.00  0.00    -0.504 OA
ATOM     18  H   UNL     1      23.621 -18.156  -7.894  1.00  0.00     0.293 HD
ENDBRANCH  13  17
BRANCH  15  19
ATOM     19  O   UNL     1      23.988 -16.869 -10.172  1.00  0.00    -0.502 OA
ATOM     20  H   UNL     1      24.338 -16.137 -10.778  1.00  0.00     0.293 HD
ENDBRANCH  15  19
BRANCH  16  21
ATOM     21  O   UNL     1      23.706 -17.424 -12.917  1.00  0.00    -0.504 OA
ATOM     22  H   UNL     1      24.557 -17.104 -13.362  1.00  0.00     0.293 HD
ENDBRANCH  16  21
ENDBRANCH   1  11
BRANCH  10  23
ATOM     23  O   UNL     1      21.190 -22.498 -11.003  1.00  0.00    -0.500 OA
ATOM     24  H   UNL     1      21.096 -22.659 -10.006  1.00  0.00     0.294 HD
ENDBRANCH  10  23
BRANCH   5  25
ATOM     25  O   UNL     1      26.535 -26.095 -15.331  1.00  0.00    -0.507 OA
ATOM     26  H   UNL     1      27.365 -25.523 -15.430  1.00  0.00     0.293 HD
ENDBRANCH   5  25
BRANCH   7  27
ATOM     27  O   UNL     1      22.260 -27.061 -13.334  1.00  0.00    -0.507 OA
ATOM     28  H   UNL     1      22.308 -28.034 -13.596  1.00  0.00     0.293 HD
ENDBRANCH   7  27
TORSDOF 7
ENDMDL
MODEL 5
REMARK VINA RESULT:    -6.291      1.616      7.301
REMARK INTER + INTRA:          -8.136
REMARK INTER:                  -7.870
REMARK INTRA:                  -0.266
REMARK UNBOUND:                -0.374
REMARK SMILES Oc1cc(O)c2cc(O)c(-c3cc(O)c(O)c(O)c3)[o+]c2c1.[Cl-]
REMARK SMILES IDX 10 1 20 2 21 3 22 4 2 5 3 6 4 7 6 8 7 9 8 10 11 11 12 12
REMARK SMILES IDX 13 13 19 14 15 15 17 16 14 17 16 19 18 21 9 23 1 25 5 27
REMARK H PARENT 14 18 16 20 18 22 9 24 1 26 5 28
REMARK Flexibility Score: inf
ROOT
ATOM      1  C   UNL     1      22.622 -19.712 -11.378  1.00  0.00     0.402 A 
ATOM      2  O   UNL     1      23.567 -20.586 -11.713  1.00  0.00    -0.202 OA
ATOM      3  C   UNL     1      23.308 -21.755 -12.291  1.00  0.00     0.368 A 
ATOM      4  C   UNL     1      24.370 -22.608 -12.601  1.00  0.00     0.162 A 
ATOM      5  C   UNL     1      24.128 -23.843 -13.205  1.00  0.00     0.128 A 
ATOM      6  C   UNL     1      22.816 -24.229 -13.501  1.00  0.00     0.093 A 
ATOM      7  C   UNL     1      21.735 -23.392 -13.199  1.00  0.00     0.136 A 
ATOM      8  C   UNL     1      21.976 -22.135 -12.587  1.00  0.00     0.125 A 
ATOM      9  C   UNL     1      20.957 -21.225 -12.260  1.00  0.00     0.078 A 
ATOM     10  C   UNL     1      21.274 -20.001 -11.662  1.00  0.00     0.223 A 
ENDROOT
BRANCH   1  11
ATOM     11  C   UNL     1      23.036 -18.446 -10.730  1.00  0.00     0.091 A 
ATOM     12  C   UNL     1      22.926 -17.213 -11.394  1.00  0.00     0.068 A 
ATOM     13  C   UNL     1      23.302 -16.024 -10.755  1.00  0.00     0.162 A 
ATOM     14  C   UNL     1      23.494 -18.469  -9.404  1.00  0.00     0.068 A 
ATOM     15  C   UNL     1      23.782 -16.058  -9.435  1.00  0.00     0.200 A 
ATOM     16  C   UNL     1      23.873 -17.287  -8.759  1.00  0.00     0.162 A 
BRANCH  13  17
ATOM     17  O   UNL     1      23.196 -14.807 -11.427  1.00  0.00    -0.504 OA
ATOM     18  H   UNL     1      22.695 -14.726 -12.305  1.00  0.00     0.293 HD
ENDBRANCH  13  17
BRANCH  15  19
ATOM     19  O   UNL     1      24.166 -14.884  -8.785  1.00  0.00    -0.502 OA
ATOM     20  H   UNL     1      25.114 -14.731  -8.463  1.00  0.00     0.293 HD
ENDBRANCH  15  19
BRANCH  16  21
ATOM     21  O   UNL     1      24.337 -17.354  -7.445  1.00  0.00    -0.504 OA
ATOM     22  H   UNL     1      25.106 -17.956  -7.176  1.00  0.00     0.293 HD
ENDBRANCH  16  21
ENDBRANCH   1  11
BRANCH  10  23
ATOM     23  O   UNL     1      20.267 -19.077 -11.384  1.00  0.00    -0.500 OA
ATOM     24  H   UNL     1      20.166 -18.222 -11.920  1.00  0.00     0.294 HD
ENDBRANCH  10  23
BRANCH   5  25
ATOM     25  O   UNL     1      25.199 -24.681 -13.509  1.00  0.00    -0.507 OA
ATOM     26  H   UNL     1      25.183 -25.288 -14.319  1.00  0.00     0.293 HD
ENDBRANCH   5  25
BRANCH   7  27
ATOM     27  O   UNL     1      20.454 -23.851 -13.521  1.00  0.00    -0.507 OA
ATOM     28  H   UNL     1      20.232 -24.809 -13.748  1.00  0.00     0.293 HD
ENDBRANCH   7  27
TORSDOF 7
ENDMDL
MODEL 6
REMARK VINA RESULT:    -6.265      1.991      7.789
REMARK INTER + INTRA:          -8.104
REMARK INTER:                  -7.853
REMARK INTRA:                  -0.251
REMARK UNBOUND:                -0.374
REMARK SMILES Oc1cc(O)c2cc(O)c(-c3cc(O)c(O)c(O)c3)[o+]c2c1.[Cl-]
REMARK SMILES IDX 10 1 20 2 21 3 22 4 2 5 3 6 4 7 6 8 7 9 8 10 11 11 12 12
REMARK SMILES IDX 13 13 19 14 15 15 17 16 14 17 16 19 18 21 9 23 1 25 5 27
REMARK H PARENT 14 18 16 20 18 22 9 24 1 26 5 28
REMARK Flexibility Score: inf
ROOT
ATOM      1  C   UNL     1      23.432 -22.159 -12.013  1.00  0.00     0.402 A 
ATOM      2  O   UNL     1      24.402 -22.690 -12.753  1.00  0.00    -0.202 OA
ATOM      3  C   UNL     1      24.362 -23.932 -13.226  1.00  0.00     0.368 A 
ATOM      4  C   UNL     1      25.431 -24.401 -13.992  1.00  0.00     0.162 A 
ATOM      5  C   UNL     1      25.419 -25.702 -14.498  1.00  0.00     0.128 A 
ATOM      6  C   UNL     1      24.331 -26.541 -14.236  1.00  0.00     0.093 A 
ATOM      7  C   UNL     1      23.248 -26.095 -13.470  1.00  0.00     0.136 A 
ATOM      8  C   UNL     1      23.255 -24.772 -12.955  1.00  0.00     0.125 A 
ATOM      9  C   UNL     1      22.208 -24.235 -12.189  1.00  0.00     0.078 A 
ATOM     10  C   UNL     1      22.285 -22.919 -11.720  1.00  0.00     0.223 A 
ENDROOT
BRANCH   1  11
ATOM     11  C   UNL     1      23.597 -20.767 -11.537  1.00  0.00     0.091 A 
ATOM     12  C   UNL     1      23.572 -19.681 -12.428  1.00  0.00     0.068 A 
ATOM     13  C   UNL     1      23.706 -18.368 -11.955  1.00  0.00     0.162 A 
ATOM     14  C   UNL     1      23.724 -20.518 -10.161  1.00  0.00     0.068 A 
ATOM     15  C   UNL     1      23.857 -18.130 -10.578  1.00  0.00     0.200 A 
ATOM     16  C   UNL     1      23.861 -19.212  -9.681  1.00  0.00     0.162 A 
BRANCH  13  17
ATOM     17  O   UNL     1      23.687 -17.298 -12.849  1.00  0.00    -0.504 OA
ATOM     18  H   UNL     1      23.010 -17.248 -13.602  1.00  0.00     0.293 HD
ENDBRANCH  13  17
BRANCH  15  19
ATOM     19  O   UNL     1      23.997 -16.830 -10.091  1.00  0.00    -0.502 OA
ATOM     20  H   UNL     1      23.282 -16.385  -9.527  1.00  0.00     0.293 HD
ENDBRANCH  15  19
BRANCH  16  21
ATOM     21  O   UNL     1      24.000 -19.009  -8.308  1.00  0.00    -0.504 OA
ATOM     22  H   UNL     1      23.883 -19.759  -7.638  1.00  0.00     0.293 HD
ENDBRANCH  16  21
ENDBRANCH   1  11
BRANCH  10  23
ATOM     23  O   UNL     1      21.223 -22.369 -11.002  1.00  0.00    -0.500 OA
ATOM     24  H   UNL     1      20.406 -22.917 -10.756  1.00  0.00     0.294 HD
ENDBRANCH  10  23
BRANCH   5  25
ATOM     25  O   UNL     1      26.494 -26.152 -15.262  1.00  0.00    -0.507 OA
ATOM     26  H   UNL     1      27.206 -26.756 -14.871  1.00  0.00     0.293 HD
ENDBRANCH   5  25
BRANCH   7  27
ATOM     27  O   UNL     1      22.200 -26.994 -13.248  1.00  0.00    -0.507 OA
ATOM     28  H   UNL     1      21.605 -27.366 -13.974  1.00  0.00     0.293 HD
ENDBRANCH   7  27
TORSDOF 7
ENDMDL
MODEL 7
REMARK VINA RESULT:    -6.254      1.530      7.227
REMARK INTER + INTRA:          -8.090
REMARK INTER:                  -7.721
REMARK INTRA:                  -0.369
REMARK UNBOUND:                -0.374
REMARK SMILES Oc1cc(O)c2cc(O)c(-c3cc(O)c(O)c(O)c3)[o+]c2c1.[Cl-]
REMARK SMILES IDX 10 1 20 2 21 3 22 4 2 5 3 6 4 7 6 8 7 9 8 10 11 11 12 12
REMARK SMILES IDX 13 13 19 14 15 15 17 16 14 17 16 19 18 21 9 23 1 25 5 27
REMARK H PARENT 14 18 16 20 18 22 9 24 1 26 5 28
REMARK Flexibility Score: inf
ROOT
ATOM      1  C   UNL     1      22.998 -20.819 -11.262  1.00  0.00     0.402 A 
ATOM      2  O   UNL     1      22.074 -21.722 -10.945  1.00  0.00    -0.202 OA
ATOM      3  C   UNL     1      22.097 -22.976 -11.386  1.00  0.00     0.368 A 
ATOM      4  C   UNL     1      21.079 -23.850 -11.000  1.00  0.00     0.162 A 
ATOM      5  C   UNL     1      21.076 -25.171 -11.451  1.00  0.00     0.128 A 
ATOM      6  C   UNL     1      22.096 -25.622 -12.296  1.00  0.00     0.093 A 
ATOM      7  C   UNL     1      23.127 -24.764 -12.697  1.00  0.00     0.136 A 
ATOM      8  C   UNL     1      23.136 -23.421 -12.239  1.00  0.00     0.125 A 
ATOM      9  C   UNL     1      24.135 -22.494 -12.579  1.00  0.00     0.078 A 
ATOM     10  C   UNL     1      24.078 -21.188 -12.084  1.00  0.00     0.223 A 
ENDROOT
BRANCH   1  11
ATOM     11  C   UNL     1      22.857 -19.450 -10.714  1.00  0.00     0.091 A 
ATOM     12  C   UNL     1      22.038 -18.493 -11.336  1.00  0.00     0.068 A 
ATOM     13  C   UNL     1      21.900 -17.210 -10.789  1.00  0.00     0.162 A 
ATOM     14  C   UNL     1      23.509 -19.116  -9.517  1.00  0.00     0.068 A 
ATOM     15  C   UNL     1      22.575 -16.876  -9.603  1.00  0.00     0.200 A 
ATOM     16  C   UNL     1      23.378 -17.837  -8.965  1.00  0.00     0.162 A 
BRANCH  13  17
ATOM     17  O   UNL     1      21.090 -16.266 -11.419  1.00  0.00    -0.504 OA
ATOM     18  H   UNL     1      20.078 -16.323 -11.380  1.00  0.00     0.293 HD
ENDBRANCH  13  17
BRANCH  15  19
ATOM     19  O   UNL     1      22.453 -15.602  -9.047  1.00  0.00    -0.502 OA
ATOM     20  H   UNL     1      21.839 -15.412  -8.264  1.00  0.00     0.293 HD
ENDBRANCH  15  19
BRANCH  16  21
ATOM     21  O   UNL     1      24.055 -17.541  -7.782  1.00  0.00    -0.504 OA
ATOM     22  H   UNL     1      23.618 -17.027  -7.026  1.00  0.00     0.293 HD
ENDBRANCH  16  21
ENDBRANCH   1  11
BRANCH  10  23
ATOM     23  O   UNL     1      25.097 -20.282 -12.381  1.00  0.00    -0.500 OA
ATOM     24  H   UNL     1      25.746 -19.959 -11.671  1.00  0.00     0.294 HD
ENDBRANCH  10  23
BRANCH   5  25
ATOM     25  O   UNL     1      20.053 -26.030 -11.054  1.00  0.00    -0.507 OA
ATOM     26  H   UNL     1      19.097 -25.892 -11.357  1.00  0.00     0.293 HD
ENDBRANCH   5  25
BRANCH   7  27
ATOM     27  O   UNL     1      24.108 -25.288 -13.545  1.00  0.00    -0.507 OA
ATOM     28  H   UNL     1      23.923 -25.683 -14.456  1.00  0.00     0.293 HD
ENDBRANCH   7  27
TORSDOF 7
ENDMDL
MODEL 8
REMARK VINA RESULT:    -6.074      9.416     11.635
REMARK INTER + INTRA:          -7.868
REMARK INTER:                  -7.488
REMARK INTRA:                  -0.379
REMARK UNBOUND:                -0.374
REMARK SMILES Oc1cc(O)c2cc(O)c(-c3cc(O)c(O)c(O)c3)[o+]c2c1.[Cl-]
REMARK SMILES IDX 10 1 20 2 21 3 22 4 2 5 3 6 4 7 6 8 7 9 8 10 11 11 12 12
REMARK SMILES IDX 13 13 19 14 15 15 17 16 14 17 16 19 18 21 9 23 1 25 5 27
REMARK H PARENT 14 18 16 20 18 22 9 24 1 26 5 28
REMARK Flexibility Score: inf
ROOT
ATOM      1  C   UNL     1      22.835 -29.956 -12.157  1.00  0.00     0.402 A 
ATOM      2  O   UNL     1      22.340 -29.434 -11.038  1.00  0.00    -0.202 OA
ATOM      3  C   UNL     1      21.421 -30.041 -10.293  1.00  0.00     0.368 A 
ATOM      4  C   UNL     1      20.961 -29.411  -9.135  1.00  0.00     0.162 A 
ATOM      5  C   UNL     1      19.994 -30.023  -8.336  1.00  0.00     0.128 A 
ATOM      6  C   UNL     1      19.481 -31.273  -8.698  1.00  0.00     0.093 A 
ATOM      7  C   UNL     1      19.925 -31.925  -9.854  1.00  0.00     0.136 A 
ATOM      8  C   UNL     1      20.911 -31.308 -10.668  1.00  0.00     0.125 A 
ATOM      9  C   UNL     1      21.425 -31.892 -11.838  1.00  0.00     0.078 A 
ATOM     10  C   UNL     1      22.399 -31.224 -12.586  1.00  0.00     0.223 A 
ENDROOT
BRANCH   1  11
ATOM     11  C   UNL     1      23.849 -29.178 -12.905  1.00  0.00     0.091 A 
ATOM     12  C   UNL     1      25.221 -29.314 -12.636  1.00  0.00     0.068 A 
ATOM     13  C   UNL     1      26.167 -28.586 -13.371  1.00  0.00     0.162 A 
ATOM     14  C   UNL     1      23.438 -28.328 -13.943  1.00  0.00     0.068 A 
ATOM     15  C   UNL     1      25.745 -27.718 -14.392  1.00  0.00     0.200 A 
ATOM     16  C   UNL     1      24.375 -27.595 -14.680  1.00  0.00     0.162 A 
BRANCH  13  17
ATOM     17  O   UNL     1      27.526 -28.724 -13.090  1.00  0.00    -0.504 OA
ATOM     18  H   UNL     1      28.219 -28.767 -13.829  1.00  0.00     0.293 HD
ENDBRANCH  13  17
BRANCH  15  19
ATOM     19  O   UNL     1      26.673 -26.982 -15.130  1.00  0.00    -0.502 OA
ATOM     20  H   UNL     1      26.719 -27.031 -16.141  1.00  0.00     0.293 HD
ENDBRANCH  15  19
BRANCH  16  21
ATOM     21  O   UNL     1      23.924 -26.749 -15.693  1.00  0.00    -0.504 OA
ATOM     22  H   UNL     1      23.229 -27.042 -16.369  1.00  0.00     0.293 HD
ENDBRANCH  16  21
ENDBRANCH   1  11
BRANCH  10  23
ATOM     23  O   UNL     1      22.946 -31.826 -13.719  1.00  0.00    -0.500 OA
ATOM     24  H   UNL     1      23.714 -31.403 -14.228  1.00  0.00     0.294 HD
ENDBRANCH  10  23
BRANCH   5  25
ATOM     25  O   UNL     1      19.549 -29.380  -7.183  1.00  0.00    -0.507 OA
ATOM     26  H   UNL     1      19.158 -29.897  -6.405  1.00  0.00     0.293 HD
ENDBRANCH   5  25
BRANCH   7  27
ATOM     27  O   UNL     1      19.362 -33.170 -10.149  1.00  0.00    -0.507 OA
ATOM     28  H   UNL     1      19.104 -33.858  -9.457  1.00  0.00     0.293 HD
ENDBRANCH   7  27
TORSDOF 7
ENDMDL
MODEL 9
REMARK VINA RESULT:    -6.057      1.736      3.262
REMARK INTER + INTRA:          -7.847
REMARK INTER:                  -7.509
REMARK INTRA:                  -0.338
REMARK UNBOUND:                -0.374
REMARK SMILES Oc1cc(O)c2cc(O)c(-c3cc(O)c(O)c(O)c3)[o+]c2c1.[Cl-]
REMARK SMILES IDX 10 1 20 2 21 3 22 4 2 5 3 6 4 7 6 8 7 9 8 10 11 11 12 12
REMARK SMILES IDX 13 13 19 14 15 15 17 16 14 17 16 19 18 21 9 23 1 25 5 27
REMARK H PARENT 14 18 16 20 18 22 9 24 1 26 5 28
REMARK Flexibility Score: inf
ROOT
ATOM      1  C   UNL     1      22.653 -21.616 -12.033  1.00  0.00     0.402 A 
ATOM      2  O   UNL     1      23.231 -21.080 -10.961  1.00  0.00    -0.202 OA
ATOM      3  C   UNL     1      22.992 -19.840 -10.546  1.00  0.00     0.368 A 
ATOM      4  C   UNL     1      23.651 -19.366  -9.410  1.00  0.00     0.162 A 
ATOM      5  C   UNL     1      23.423 -18.066  -8.954  1.00  0.00     0.128 A 
ATOM      6  C   UNL     1      22.531 -17.234  -9.639  1.00  0.00     0.093 A 
ATOM      7  C   UNL     1      21.860 -17.685 -10.781  1.00  0.00     0.136 A 
ATOM      8  C   UNL     1      22.086 -19.006 -11.247  1.00  0.00     0.125 A 
ATOM      9  C   UNL     1      21.448 -19.549 -12.374  1.00  0.00     0.078 A 
ATOM     10  C   UNL     1      21.720 -20.863 -12.770  1.00  0.00     0.223 A 
ENDROOT
BRANCH   1  11
ATOM     11  C   UNL     1      23.008 -23.006 -12.400  1.00  0.00     0.091 A 
ATOM     12  C   UNL     1      22.155 -24.082 -12.103  1.00  0.00     0.068 A 
ATOM     13  C   UNL     1      22.499 -25.388 -12.478  1.00  0.00     0.162 A 
ATOM     14  C   UNL     1      24.194 -23.251 -13.109  1.00  0.00     0.068 A 
ATOM     15  C   UNL     1      23.699 -25.627 -13.167  1.00  0.00     0.200 A 
ATOM     16  C   UNL     1      24.545 -24.551 -13.486  1.00  0.00     0.162 A 
BRANCH  13  17
ATOM     17  O   UNL     1      21.647 -26.449 -12.172  1.00  0.00    -0.504 OA
ATOM     18  H   UNL     1      20.639 -26.344 -12.190  1.00  0.00     0.293 HD
ENDBRANCH  13  17
BRANCH  15  19
ATOM     19  O   UNL     1      24.059 -26.922 -13.545  1.00  0.00    -0.502 OA
ATOM     20  H   UNL     1      24.275 -27.641 -12.865  1.00  0.00     0.293 HD
ENDBRANCH  15  19
BRANCH  16  21
ATOM     21  O   UNL     1      25.740 -24.754 -14.177  1.00  0.00    -0.504 OA
ATOM     22  H   UNL     1      26.337 -25.552 -13.998  1.00  0.00     0.293 HD
ENDBRANCH  16  21
ENDBRANCH   1  11
BRANCH  10  23
ATOM     23  O   UNL     1      21.049 -21.418 -13.859  1.00  0.00    -0.500 OA
ATOM     24  H   UNL     1      21.261 -22.351 -14.196  1.00  0.00     0.294 HD
ENDBRANCH  10  23
BRANCH   5  25
ATOM     25  O   UNL     1      24.088 -17.611  -7.817  1.00  0.00    -0.507 OA
ATOM     26  H   UNL     1      24.570 -16.721  -7.806  1.00  0.00     0.293 HD
ENDBRANCH   5  25
BRANCH   7  27
ATOM     27  O   UNL     1      20.988 -16.792 -11.411  1.00  0.00    -0.507 OA
ATOM     28  H   UNL     1      21.279 -15.951 -11.887  1.00  0.00     0.293 HD
ENDBRANCH   7  27
TORSDOF 7
ENDMDL
