MODEL 1
REMARK VINA RESULT:    -4.225      0.000      0.000
REMARK INTER + INTRA:          -5.696
REMARK INTER:                  -5.460
REMARK INTRA:                  -0.235
REMARK UNBOUND:                -0.235
REMARK SMILES CCCCCCC(=O)[O-]
REMARK SMILES IDX 5 1 6 2 7 3 8 4 9 5 4 6 3 7 2 8 1 9
REMARK H PARENT
REMARK Flexibility Score: inf
ROOT
ATOM      1  C   UNL     1      63.092 -28.428  -1.892  1.00  0.00     0.006 C 
ENDROOT
BRANCH   1   2
ATOM      2  C   UNL     1      62.846 -28.887  -0.450  1.00  0.00     0.053 C 
BRANCH   2   3
ATOM      3  C   UNL     1      61.382 -29.079  -0.204  1.00  0.00     0.041 C 
ATOM      4  O   UNL     1      60.586 -29.188  -1.172  1.00  0.00    -0.550 OA
ATOM      5  O   UNL     1      60.905 -29.188   1.096  1.00  0.00    -0.550 OA
ENDBRANCH   2   3
ENDBRANCH   1   2
BRANCH   1   6
ATOM      6  C   UNL     1      63.671 -27.007  -1.971  1.00  0.00     0.000 C 
BRANCH   6   7
ATOM      7  C   UNL     1      62.905 -26.110  -2.954  1.00  0.00    -0.000 C 
BRANCH   7   8
ATOM      8  C   UNL     1      61.394 -26.187  -2.701  1.00  0.00    -0.003 C 
ATOM      9  C   UNL     1      60.646 -25.125  -3.501  1.00  0.00     0.004 C 
ENDBRANCH   7   8
ENDBRANCH   6   7
ENDBRANCH   1   6
TORSDOF 5
ENDMDL
MODEL 2
REMARK VINA RESULT:    -4.218      0.312      1.121
REMARK INTER + INTRA:          -5.687
REMARK INTER:                  -5.423
REMARK INTRA:                  -0.263
REMARK UNBOUND:                -0.235
REMARK SMILES CCCCCCC(=O)[O-]
REMARK SMILES IDX 5 1 6 2 7 3 8 4 9 5 4 6 3 7 2 8 1 9
REMARK H PARENT
REMARK Flexibility Score: inf
ROOT
ATOM      1  C   UNL     1      62.938 -28.349  -1.956  1.00  0.00     0.006 C 
ENDROOT
BRANCH   1   2
ATOM      2  C   UNL     1      62.775 -28.904  -0.536  1.00  0.00     0.053 C 
BRANCH   2   3
ATOM      3  C   UNL     1      61.326 -29.090  -0.210  1.00  0.00     0.041 C 
ATOM      4  O   UNL     1      60.949 -29.146   0.990  1.00  0.00    -0.550 OA
ATOM      5  O   UNL     1      60.386 -29.150  -1.231  1.00  0.00    -0.550 OA
ENDBRANCH   2   3
ENDBRANCH   1   2
BRANCH   1   6
ATOM      6  C   UNL     1      63.637 -26.982  -1.981  1.00  0.00     0.000 C 
BRANCH   6   7
ATOM      7  C   UNL     1      62.923 -25.969  -2.889  1.00  0.00    -0.000 C 
BRANCH   7   8
ATOM      8  C   UNL     1      61.401 -26.123  -2.790  1.00  0.00    -0.003 C 
ATOM      9  C   UNL     1      60.720 -25.730  -4.098  1.00  0.00     0.004 C 
ENDBRANCH   7   8
ENDBRANCH   6   7
ENDBRANCH   1   6
TORSDOF 5
ENDMDL
MODEL 3
REMARK VINA RESULT:    -4.217      2.214      4.003
REMARK INTER + INTRA:          -5.684
REMARK INTER:                  -5.372
REMARK INTRA:                  -0.313
REMARK UNBOUND:                -0.235
REMARK SMILES CCCCCCC(=O)[O-]
REMARK SMILES IDX 5 1 6 2 7 3 8 4 9 5 4 6 3 7 2 8 1 9
REMARK H PARENT
REMARK Flexibility Score: inf
ROOT
ATOM      1  C   UNL     1      63.243 -27.177  -2.798  1.00  0.00     0.006 C 
ENDROOT
BRANCH   1   2
ATOM      2  C   UNL     1      62.697 -25.746  -2.708  1.00  0.00     0.053 C 
BRANCH   2   3
ATOM      3  C   UNL     1      61.295 -25.687  -3.228  1.00  0.00     0.041 C 
ATOM      4  O   UNL     1      60.322 -25.715  -2.430  1.00  0.00    -0.550 OA
ATOM      5  O   UNL     1      61.064 -25.551  -4.591  1.00  0.00    -0.550 OA
ENDBRANCH   2   3
ENDBRANCH   1   2
BRANCH   1   6
ATOM      6  C   UNL     1      63.574 -27.772  -1.421  1.00  0.00     0.000 C 
BRANCH   6   7
ATOM      7  C   UNL     1      62.892 -29.127  -1.183  1.00  0.00    -0.000 C 
BRANCH   7   8
ATOM      8  C   UNL     1      61.626 -28.962  -0.334  1.00  0.00    -0.003 C 
ATOM      9  C   UNL     1      60.372 -28.994  -1.201  1.00  0.00     0.004 C 
ENDBRANCH   7   8
ENDBRANCH   6   7
ENDBRANCH   1   6
TORSDOF 5
ENDMDL
MODEL 4
REMARK VINA RESULT:    -4.144      3.104      4.608
REMARK INTER + INTRA:          -5.591
REMARK INTER:                  -5.321
REMARK INTRA:                  -0.270
REMARK UNBOUND:                -0.235
REMARK SMILES CCCCCCC(=O)[O-]
REMARK SMILES IDX 5 1 6 2 7 3 8 4 9 5 4 6 3 7 2 8 1 9
REMARK H PARENT
REMARK Flexibility Score: inf
ROOT
ATOM      1  C   UNL     1      62.540 -25.879  -2.744  1.00  0.00     0.006 C 
ENDROOT
BRANCH   1   2
ATOM      2  C   UNL     1      61.091 -26.161  -3.162  1.00  0.00     0.053 C 
BRANCH   2   3
ATOM      3  C   UNL     1      60.667 -25.223  -4.249  1.00  0.00     0.041 C 
ATOM      4  O   UNL     1      59.803 -24.337  -4.020  1.00  0.00    -0.550 OA
ATOM      5  O   UNL     1      61.265 -25.296  -5.501  1.00  0.00    -0.550 OA
ENDBRANCH   2   3
ENDBRANCH   1   2
BRANCH   1   6
ATOM      6  C   UNL     1      63.408 -27.146  -2.726  1.00  0.00     0.000 C 
BRANCH   6   7
ATOM      7  C   UNL     1      63.554 -27.743  -1.319  1.00  0.00    -0.000 C 
BRANCH   7   8
ATOM      8  C   UNL     1      62.839 -29.096  -1.222  1.00  0.00    -0.003 C 
ATOM      9  C   UNL     1      61.459 -28.948  -0.588  1.00  0.00     0.004 C 
ENDBRANCH   7   8
ENDBRANCH   6   7
ENDBRANCH   1   6
TORSDOF 5
ENDMDL
MODEL 5
REMARK VINA RESULT:    -4.110      1.293      1.763
REMARK INTER + INTRA:          -5.547
REMARK INTER:                  -5.347
REMARK INTRA:                  -0.200
REMARK UNBOUND:                -0.235
REMARK SMILES CCCCCCC(=O)[O-]
REMARK SMILES IDX 5 1 6 2 7 3 8 4 9 5 4 6 3 7 2 8 1 9
REMARK H PARENT
REMARK Flexibility Score: inf
ROOT
ATOM      1  C   UNL     1      63.422 -27.251  -2.193  1.00  0.00     0.006 C 
ENDROOT
BRANCH   1   2
ATOM      2  C   UNL     1      62.224 -28.152  -1.871  1.00  0.00     0.053 C 
BRANCH   2   3
ATOM      3  C   UNL     1      62.403 -28.803  -0.535  1.00  0.00     0.041 C 
ATOM      4  O   UNL     1      63.558 -28.997  -0.074  1.00  0.00    -0.550 OA
ATOM      5  O   UNL     1      61.291 -29.150   0.223  1.00  0.00    -0.550 OA
ENDBRANCH   2   3
ENDBRANCH   1   2
BRANCH   1   6
ATOM      6  C   UNL     1      63.022 -25.988  -2.970  1.00  0.00     0.000 C 
BRANCH   6   7
ATOM      7  C   UNL     1      61.500 -25.785  -3.024  1.00  0.00    -0.000 C 
BRANCH   7   8
ATOM      8  C   UNL     1      61.039 -25.473  -4.452  1.00  0.00    -0.003 C 
ATOM      9  C   UNL     1      59.574 -25.848  -4.654  1.00  0.00     0.004 C 
ENDBRANCH   7   8
ENDBRANCH   6   7
ENDBRANCH   1   6
TORSDOF 5
ENDMDL
MODEL 6
REMARK VINA RESULT:    -4.088      3.229      4.942
REMARK INTER + INTRA:          -5.518
REMARK INTER:                  -5.323
REMARK INTRA:                  -0.194
REMARK UNBOUND:                -0.235
REMARK SMILES CCCCCCC(=O)[O-]
REMARK SMILES IDX 5 1 6 2 7 3 8 4 9 5 4 6 3 7 2 8 1 9
REMARK H PARENT
REMARK Flexibility Score: inf
ROOT
ATOM      1  C   UNL     1      61.327 -26.274  -3.095  1.00  0.00     0.006 C 
ENDROOT
BRANCH   1   2
ATOM      2  C   UNL     1      60.402 -25.051  -3.114  1.00  0.00     0.053 C 
BRANCH   2   3
ATOM      3  C   UNL     1      60.074 -24.665  -4.523  1.00  0.00     0.041 C 
ATOM      4  O   UNL     1      60.270 -25.476  -5.464  1.00  0.00    -0.550 OA
ATOM      5  O   UNL     1      59.505 -23.426  -4.789  1.00  0.00    -0.550 OA
ENDBRANCH   2   3
ENDBRANCH   1   2
BRANCH   1   6
ATOM      6  C   UNL     1      62.788 -25.906  -2.793  1.00  0.00     0.000 C 
BRANCH   6   7
ATOM      7  C   UNL     1      63.588 -27.086  -2.220  1.00  0.00    -0.000 C 
BRANCH   7   8
ATOM      8  C   UNL     1      62.651 -28.206  -1.751  1.00  0.00    -0.003 C 
ATOM      9  C   UNL     1      63.198 -28.897  -0.505  1.00  0.00     0.004 C 
ENDBRANCH   7   8
ENDBRANCH   6   7
ENDBRANCH   1   6
TORSDOF 5
ENDMDL
MODEL 7
REMARK VINA RESULT:    -4.066      1.490      2.213
REMARK INTER + INTRA:          -5.489
REMARK INTER:                  -5.246
REMARK INTRA:                  -0.243
REMARK UNBOUND:                -0.235
REMARK SMILES CCCCCCC(=O)[O-]
REMARK SMILES IDX 5 1 6 2 7 3 8 4 9 5 4 6 3 7 2 8 1 9
REMARK H PARENT
REMARK Flexibility Score: inf
ROOT
ATOM      1  C   UNL     1      61.808 -28.950  -0.528  1.00  0.00     0.006 C 
ENDROOT
BRANCH   1   2
ATOM      2  C   UNL     1      60.531 -28.725  -1.348  1.00  0.00     0.053 C 
BRANCH   2   3
ATOM      3  C   UNL     1      59.321 -29.063  -0.535  1.00  0.00     0.041 C 
ATOM      4  O   UNL     1      58.456 -28.183  -0.291  1.00  0.00    -0.550 OA
ATOM      5  O   UNL     1      59.124 -30.364  -0.090  1.00  0.00    -0.550 OA
ENDBRANCH   2   3
ENDBRANCH   1   2
BRANCH   1   6
ATOM      6  C   UNL     1      63.082 -28.880  -1.384  1.00  0.00     0.000 C 
BRANCH   6   7
ATOM      7  C   UNL     1      63.635 -27.452  -1.504  1.00  0.00    -0.000 C 
BRANCH   7   8
ATOM      8  C   UNL     1      63.449 -26.910  -2.926  1.00  0.00    -0.003 C 
ATOM      9  C   UNL     1      62.469 -25.741  -2.948  1.00  0.00     0.004 C 
ENDBRANCH   7   8
ENDBRANCH   6   7
ENDBRANCH   1   6
TORSDOF 5
ENDMDL
MODEL 8
REMARK VINA RESULT:    -3.895      1.430      2.805
REMARK INTER + INTRA:          -5.269
REMARK INTER:                  -4.956
REMARK INTRA:                  -0.313
REMARK UNBOUND:                -0.235
REMARK SMILES CCCCCCC(=O)[O-]
REMARK SMILES IDX 5 1 6 2 7 3 8 4 9 5 4 6 3 7 2 8 1 9
REMARK H PARENT
REMARK Flexibility Score: inf
ROOT
ATOM      1  C   UNL     1      60.140 -26.545  -2.441  1.00  0.00     0.006 C 
ENDROOT
BRANCH   1   2
ATOM      2  C   UNL     1      59.906 -28.057  -2.547  1.00  0.00     0.053 C 
BRANCH   2   3
ATOM      3  C   UNL     1      59.820 -28.671  -1.185  1.00  0.00     0.041 C 
ATOM      4  O   UNL     1      60.736 -29.428  -0.773  1.00  0.00    -0.550 OA
ATOM      5  O   UNL     1      58.752 -28.364  -0.351  1.00  0.00    -0.550 OA
ENDBRANCH   2   3
ENDBRANCH   1   2
BRANCH   1   6
ATOM      6  C   UNL     1      61.175 -26.034  -3.454  1.00  0.00     0.000 C 
BRANCH   6   7
ATOM      7  C   UNL     1      62.515 -25.668  -2.798  1.00  0.00    -0.000 C 
BRANCH   7   8
ATOM      8  C   UNL     1      63.531 -26.805  -2.958  1.00  0.00    -0.003 C 
ATOM      9  C   UNL     1      63.629 -27.642  -1.686  1.00  0.00     0.004 C 
ENDBRANCH   7   8
ENDBRANCH   6   7
ENDBRANCH   1   6
TORSDOF 5
ENDMDL
MODEL 9
REMARK VINA RESULT:    -3.758      2.083      3.092
REMARK INTER + INTRA:          -5.092
REMARK INTER:                  -4.934
REMARK INTRA:                  -0.158
REMARK UNBOUND:                -0.235
REMARK SMILES CCCCCCC(=O)[O-]
REMARK SMILES IDX 5 1 6 2 7 3 8 4 9 5 4 6 3 7 2 8 1 9
REMARK H PARENT
REMARK Flexibility Score: inf
ROOT
ATOM      1  C   UNL     1      61.568 -26.456  -2.749  1.00  0.00     0.006 C 
ENDROOT
BRANCH   1   2
ATOM      2  C   UNL     1      61.419 -27.803  -2.031  1.00  0.00     0.053 C 
BRANCH   2   3
ATOM      3  C   UNL     1      62.745 -28.274  -1.520  1.00  0.00     0.041 C 
ATOM      4  O   UNL     1      62.856 -29.417  -1.007  1.00  0.00    -0.550 OA
ATOM      5  O   UNL     1      63.868 -27.468  -1.657  1.00  0.00    -0.550 OA
ENDBRANCH   2   3
ENDBRANCH   1   2
BRANCH   1   6
ATOM      6  C   UNL     1      60.232 -25.712  -2.896  1.00  0.00     0.000 C 
BRANCH   6   7
ATOM      7  C   UNL     1      59.776 -25.600  -4.358  1.00  0.00    -0.000 C 
BRANCH   7   8
ATOM      8  C   UNL     1      60.956 -25.255  -5.275  1.00  0.00    -0.003 C 
ATOM      9  C   UNL     1      60.548 -25.307  -6.744  1.00  0.00     0.004 C 
ENDBRANCH   7   8
ENDBRANCH   6   7
ENDBRANCH   1   6
TORSDOF 5
ENDMDL
