MODEL 1
REMARK VINA RESULT:    46.495      0.000      0.000
REMARK INTER + INTRA:          64.844
REMARK INTER:                  62.804
REMARK INTRA:                   2.040
REMARK UNBOUND:                 2.040
REMARK SMILES O=c1c(-c2ccc(O)cc2)coc2c([C@H]3O[C@H](CO)[C@H](O)[C@@H](O)[C@H]3O)c(O)ccc12
REMARK SMILES IDX 3 1 11 2 12 3 13 4 30 5 2 6 1 7 29 8 28 9 26 10 14 11 4 12
REMARK SMILES IDX 5 13 6 14 7 15 10 16 9 17 8 18 15 20 24 21 16 22 22 23 17 24
REMARK SMILES IDX 20 25 25 26 23 28 18 30 19 31 21 33 27 35
REMARK H PARENT 8 19 25 27 23 29 19 32 21 34 27 36
REMARK Flexibility Score: inf
ROOT
ATOM      1  C   UNL     1      15.868  48.859  58.851  1.00  0.00     0.065 A 
ATOM      2  C   UNL     1      15.910  49.015  60.242  1.00  0.00     0.208 A 
ATOM      3  O   UNL     1      15.696  50.200  60.801  1.00  0.00    -0.463 OA
ATOM      4  C   UNL     1      15.434  51.305  60.104  1.00  0.00     0.147 A 
ATOM      5  C   UNL     1      15.361  51.231  58.694  1.00  0.00     0.066 A 
ATOM      6  C   UNL     1      15.593  49.992  58.066  1.00  0.00     0.200 A 
ATOM      7  O   UNL     1      15.573  49.902  56.807  1.00  0.00    -0.288 OA
ATOM      8  C   UNL     1      15.058  52.378  57.956  1.00  0.00     0.020 A 
ATOM      9  C   UNL     1      14.800  53.577  58.608  1.00  0.00     0.047 A 
ATOM     10  C   UNL     1      14.862  53.672  60.005  1.00  0.00     0.125 A 
ATOM     11  C   UNL     1      15.237  52.539  60.786  1.00  0.00     0.069 A 
ENDROOT
BRANCH   1  12
ATOM     12  C   UNL     1      16.113  47.524  58.248  1.00  0.00    -0.011 A 
ATOM     13  C   UNL     1      15.048  46.625  58.061  1.00  0.00     0.013 A 
ATOM     14  C   UNL     1      15.274  45.371  57.487  1.00  0.00     0.047 A 
ATOM     15  C   UNL     1      16.561  45.001  57.086  1.00  0.00     0.115 A 
ATOM     16  C   UNL     1      17.404  47.149  57.836  1.00  0.00     0.013 A 
ATOM     17  C   UNL     1      17.627  45.894  57.261  1.00  0.00     0.047 A 
BRANCH  15  18
ATOM     18  O   UNL     1      16.771  43.748  56.513  1.00  0.00    -0.508 OA
ATOM     19  H   UNL     1      16.325  42.916  56.882  1.00  0.00     0.293 HD
ENDBRANCH  15  18
ENDBRANCH   1  12
BRANCH  11  20
ATOM     20  C   UNL     1      15.396  52.511  62.330  1.00  0.00     0.188 C 
ATOM     21  C   UNL     1      14.287  52.995  63.312  1.00  0.00     0.179 C 
ATOM     22  O   UNL     1      16.628  53.109  62.713  1.00  0.00    -0.362 OA
ATOM     23  C   UNL     1      14.200  54.537  63.401  1.00  0.00     0.177 C 
ATOM     24  C   UNL     1      16.581  54.523  62.583  1.00  0.00     0.176 C 
ATOM     25  C   UNL     1      15.609  55.125  63.620  1.00  0.00     0.177 C 
BRANCH  21  26
ATOM     26  O   UNL     1      13.048  52.387  63.072  1.00  0.00    -0.387 OA
ATOM     27  H   UNL     1      13.061  51.507  63.531  1.00  0.00     0.211 HD
ENDBRANCH  21  26
BRANCH  23  28
ATOM     28  O   UNL     1      13.634  55.077  62.237  1.00  0.00    -0.387 OA
ATOM     29  H   UNL     1      13.264  55.966  62.480  1.00  0.00     0.211 HD
ENDBRANCH  23  28
BRANCH  24  30
ATOM     30  C   UNL     1      17.996  55.084  62.759  1.00  0.00     0.191 C 
BRANCH  30  31
ATOM     31  O   UNL     1      18.919  54.031  62.780  1.00  0.00    -0.394 OA
ATOM     32  H   UNL     1      19.509  54.164  61.994  1.00  0.00     0.210 HD
ENDBRANCH  30  31
ENDBRANCH  24  30
BRANCH  25  33
ATOM     33  O   UNL     1      16.055  54.831  64.920  1.00  0.00    -0.388 OA
ATOM     34  H   UNL     1      15.373  55.189  65.546  1.00  0.00     0.211 HD
ENDBRANCH  25  33
ENDBRANCH  11  20
BRANCH  10  35
ATOM     35  O   UNL     1      14.532  54.893  60.577  1.00  0.00    -0.507 OA
ATOM     36  H   UNL     1      15.207  55.643  60.677  1.00  0.00     0.293 HD
ENDBRANCH  10  35
TORSDOF 9
ENDMDL
