MODEL 1
REMARK VINA RESULT:    -4.277      0.000      0.000
REMARK INTER + INTRA:          -4.277
REMARK INTER:                  -4.277
REMARK INTRA:                   0.000
REMARK UNBOUND:                 0.000
REMARK SMILES CC1=CC(=O)[C@@H]2C[C@H]1C2(C)C
REMARK SMILES IDX 1 1 2 2 3 3 4 4 5 5 6 6 7 7 8 8 9 9 10 10 11 11
REMARK H PARENT
REMARK Flexibility Score: inf
ROOT
ATOM      1  C   UNL     1     -29.971  23.319  33.372  1.00  0.00     0.040 C 
ATOM      2  C   UNL     1     -30.839  23.495  32.166  1.00  0.00    -0.066 C 
ATOM      3  C   UNL     1     -30.737  22.686  31.072  1.00  0.00     0.047 C 
ATOM      4  C   UNL     1     -31.675  22.983  29.942  1.00  0.00     0.159 C 
ATOM      5  O   UNL     1     -31.708  22.283  28.896  1.00  0.00    -0.295 OA
ATOM      6  C   UNL     1     -32.585  24.194  30.146  1.00  0.00     0.067 C 
ATOM      7  C   UNL     1     -31.643  25.286  30.697  1.00  0.00     0.021 C 
ATOM      8  C   UNL     1     -31.859  24.648  32.088  1.00  0.00     0.022 C 
ATOM      9  C   UNL     1     -33.219  24.103  31.564  1.00  0.00    -0.019 C 
ATOM     10  C   UNL     1     -34.375  25.115  31.759  1.00  0.00     0.012 C 
ATOM     11  C   UNL     1     -33.698  22.713  32.071  1.00  0.00     0.012 C 
ENDROOT
TORSDOF 0
ENDMDL
MODEL 2
REMARK VINA RESULT:    -4.034      6.943      8.908
REMARK INTER + INTRA:          -4.034
REMARK INTER:                  -4.034
REMARK INTRA:                   0.000
REMARK UNBOUND:                 0.000
REMARK SMILES CC1=CC(=O)[C@@H]2C[C@H]1C2(C)C
REMARK SMILES IDX 1 1 2 2 3 3 4 4 5 5 6 6 7 7 8 8 9 9 10 10 11 11
REMARK H PARENT
REMARK Flexibility Score: inf
ROOT
ATOM      1  C   UNL     1     -31.504  19.716  24.584  1.00  0.00     0.040 C 
ATOM      2  C   UNL     1     -30.227  20.491  24.500  1.00  0.00    -0.066 C 
ATOM      3  C   UNL     1     -29.847  21.374  25.468  1.00  0.00     0.047 C 
ATOM      4  C   UNL     1     -28.541  22.074  25.247  1.00  0.00     0.159 C 
ATOM      5  O   UNL     1     -28.061  22.879  26.087  1.00  0.00    -0.295 OA
ATOM      6  C   UNL     1     -27.834  21.743  23.933  1.00  0.00     0.067 C 
ATOM      7  C   UNL     1     -28.955  21.813  22.873  1.00  0.00     0.021 C 
ATOM      8  C   UNL     1     -29.303  20.362  23.272  1.00  0.00     0.022 C 
ATOM      9  C   UNL     1     -27.830  20.199  23.747  1.00  0.00    -0.019 C 
ATOM     10  C   UNL     1     -26.889  19.744  22.604  1.00  0.00     0.012 C 
ATOM     11  C   UNL     1     -27.553  19.306  24.990  1.00  0.00     0.012 C 
ENDROOT
TORSDOF 0
ENDMDL
MODEL 3
REMARK VINA RESULT:    -3.971      2.521      4.180
REMARK INTER + INTRA:          -3.971
REMARK INTER:                  -3.971
REMARK INTRA:                   0.000
REMARK UNBOUND:                 0.000
REMARK SMILES CC1=CC(=O)[C@@H]2C[C@H]1C2(C)C
REMARK SMILES IDX 1 1 2 2 3 3 4 4 5 5 6 6 7 7 8 8 9 9 10 10 11 11
REMARK H PARENT
REMARK Flexibility Score: inf
ROOT
ATOM      1  C   UNL     1     -34.591  25.797  30.366  1.00  0.00     0.040 C 
ATOM      2  C   UNL     1     -34.493  24.900  31.560  1.00  0.00    -0.066 C 
ATOM      3  C   UNL     1     -35.497  24.047  31.913  1.00  0.00     0.047 C 
ATOM      4  C   UNL     1     -35.254  23.209  33.130  1.00  0.00     0.159 C 
ATOM      5  O   UNL     1     -36.086  22.354  33.534  1.00  0.00    -0.295 OA
ATOM      6  C   UNL     1     -33.928  23.463  33.848  1.00  0.00     0.067 C 
ATOM      7  C   UNL     1     -33.827  25.002  33.917  1.00  0.00     0.021 C 
ATOM      8  C   UNL     1     -33.258  24.942  32.482  1.00  0.00     0.022 C 
ATOM      9  C   UNL     1     -32.790  23.491  32.788  1.00  0.00    -0.019 C 
ATOM     10  C   UNL     1     -31.382  23.449  33.434  1.00  0.00     0.012 C 
ATOM     11  C   UNL     1     -32.828  22.447  31.636  1.00  0.00     0.012 C 
ENDROOT
TORSDOF 0
ENDMDL
MODEL 4
REMARK VINA RESULT:    -3.965      7.437      9.070
REMARK INTER + INTRA:          -3.965
REMARK INTER:                  -3.965
REMARK INTRA:                   0.000
REMARK UNBOUND:                 0.000
REMARK SMILES CC1=CC(=O)[C@@H]2C[C@H]1C2(C)C
REMARK SMILES IDX 1 1 2 2 3 3 4 4 5 5 6 6 7 7 8 8 9 9 10 10 11 11
REMARK H PARENT
REMARK Flexibility Score: inf
ROOT
ATOM      1  C   UNL     1     -26.414  19.063  22.505  1.00  0.00     0.040 C 
ATOM      2  C   UNL     1     -27.675  19.716  22.978  1.00  0.00    -0.066 C 
ATOM      3  C   UNL     1     -28.891  19.108  22.876  1.00  0.00     0.047 C 
ATOM      4  C   UNL     1     -30.063  19.883  23.395  1.00  0.00     0.159 C 
ATOM      5  O   UNL     1     -31.231  19.414  23.396  1.00  0.00    -0.295 OA
ATOM      6  C   UNL     1     -29.742  21.282  23.921  1.00  0.00     0.067 C 
ATOM      7  C   UNL     1     -28.811  21.885  22.848  1.00  0.00     0.021 C 
ATOM      8  C   UNL     1     -27.656  21.145  23.559  1.00  0.00     0.022 C 
ATOM      9  C   UNL     1     -28.506  21.186  24.861  1.00  0.00    -0.019 C 
ATOM     10  C   UNL     1     -28.280  22.486  25.672  1.00  0.00     0.012 C 
ATOM     11  C   UNL     1     -28.414  19.980  25.838  1.00  0.00     0.012 C 
ENDROOT
TORSDOF 0
ENDMDL
MODEL 5
REMARK VINA RESULT:    -3.914      6.744      8.459
REMARK INTER + INTRA:          -3.914
REMARK INTER:                  -3.914
REMARK INTRA:                   0.000
REMARK UNBOUND:                 0.000
REMARK SMILES CC1=CC(=O)[C@@H]2C[C@H]1C2(C)C
REMARK SMILES IDX 1 1 2 2 3 3 4 4 5 5 6 6 7 7 8 8 9 9 10 10 11 11
REMARK H PARENT
REMARK Flexibility Score: inf
ROOT
ATOM      1  C   UNL     1     -30.445  20.021  22.250  1.00  0.00     0.040 C 
ATOM      2  C   UNL     1     -30.911  19.670  23.628  1.00  0.00    -0.066 C 
ATOM      3  C   UNL     1     -30.610  20.437  24.714  1.00  0.00     0.047 C 
ATOM      4  C   UNL     1     -31.149  19.960  26.029  1.00  0.00     0.159 C 
ATOM      5  O   UNL     1     -30.976  20.602  27.098  1.00  0.00    -0.295 OA
ATOM      6  C   UNL     1     -31.921  18.641  25.982  1.00  0.00     0.067 C 
ATOM      7  C   UNL     1     -31.040  17.720  25.109  1.00  0.00     0.021 C 
ATOM      8  C   UNL     1     -31.715  18.380  23.886  1.00  0.00     0.022 C 
ATOM      9  C   UNL     1     -32.931  18.702  24.801  1.00  0.00    -0.019 C 
ATOM     10  C   UNL     1     -33.959  17.543  24.845  1.00  0.00     0.012 C 
ATOM     11  C   UNL     1     -33.704  20.029  24.557  1.00  0.00     0.012 C 
ENDROOT
TORSDOF 0
ENDMDL
MODEL 6
REMARK VINA RESULT:    -3.895      1.749      2.972
REMARK INTER + INTRA:          -3.895
REMARK INTER:                  -3.895
REMARK INTRA:                   0.000
REMARK UNBOUND:                 0.000
REMARK SMILES CC1=CC(=O)[C@@H]2C[C@H]1C2(C)C
REMARK SMILES IDX 1 1 2 2 3 3 4 4 5 5 6 6 7 7 8 8 9 9 10 10 11 11
REMARK H PARENT
REMARK Flexibility Score: inf
ROOT
ATOM      1  C   UNL     1     -29.607  23.428  33.763  1.00  0.00     0.040 C 
ATOM      2  C   UNL     1     -30.700  23.114  32.791  1.00  0.00    -0.066 C 
ATOM      3  C   UNL     1     -32.017  23.128  33.147  1.00  0.00     0.047 C 
ATOM      4  C   UNL     1     -32.998  22.796  32.064  1.00  0.00     0.159 C 
ATOM      5  O   UNL     1     -34.241  22.816  32.257  1.00  0.00    -0.295 OA
ATOM      6  C   UNL     1     -32.384  22.431  30.713  1.00  0.00     0.067 C 
ATOM      7  C   UNL     1     -31.241  21.455  31.069  1.00  0.00     0.021 C 
ATOM      8  C   UNL     1     -30.375  22.705  31.340  1.00  0.00     0.022 C 
ATOM      9  C   UNL     1     -31.297  23.488  30.361  1.00  0.00    -0.019 C 
ATOM     10  C   UNL     1     -30.823  23.379  28.890  1.00  0.00     0.012 C 
ATOM     11  C   UNL     1     -31.594  24.983  30.668  1.00  0.00     0.012 C 
ENDROOT
TORSDOF 0
ENDMDL
MODEL 7
REMARK VINA RESULT:    -3.869      8.098      9.537
REMARK INTER + INTRA:          -3.869
REMARK INTER:                  -3.869
REMARK INTRA:                   0.000
REMARK UNBOUND:                 0.000
REMARK SMILES CC1=CC(=O)[C@@H]2C[C@H]1C2(C)C
REMARK SMILES IDX 1 1 2 2 3 3 4 4 5 5 6 6 7 7 8 8 9 9 10 10 11 11
REMARK H PARENT
REMARK Flexibility Score: inf
ROOT
ATOM      1  C   UNL     1     -32.697  20.011  24.670  1.00  0.00     0.040 C 
ATOM      2  C   UNL     1     -32.695  18.516  24.593  1.00  0.00    -0.066 C 
ATOM      3  C   UNL     1     -31.652  17.817  24.062  1.00  0.00     0.047 C 
ATOM      4  C   UNL     1     -31.792  16.325  24.055  1.00  0.00     0.159 C 
ATOM      5  O   UNL     1     -30.881  15.567  23.631  1.00  0.00    -0.295 OA
ATOM      6  C   UNL     1     -33.116  15.789  24.598  1.00  0.00     0.067 C 
ATOM      7  C   UNL     1     -34.186  16.684  23.936  1.00  0.00     0.021 C 
ATOM      8  C   UNL     1     -33.913  17.698  25.069  1.00  0.00     0.022 C 
ATOM      9  C   UNL     1     -33.427  16.507  25.943  1.00  0.00    -0.019 C 
ATOM     10  C   UNL     1     -34.587  15.832  26.717  1.00  0.00     0.012 C 
ATOM     11  C   UNL     1     -32.257  16.753  26.937  1.00  0.00     0.012 C 
ENDROOT
TORSDOF 0
ENDMDL
MODEL 8
REMARK VINA RESULT:    -3.806      8.301      9.738
REMARK INTER + INTRA:          -3.806
REMARK INTER:                  -3.806
REMARK INTRA:                   0.000
REMARK UNBOUND:                 0.000
REMARK SMILES CC1=CC(=O)[C@@H]2C[C@H]1C2(C)C
REMARK SMILES IDX 1 1 2 2 3 3 4 4 5 5 6 6 7 7 8 8 9 9 10 10 11 11
REMARK H PARENT
REMARK Flexibility Score: inf
ROOT
ATOM      1  C   UNL     1     -34.641  15.602  27.105  1.00  0.00     0.040 C 
ATOM      2  C   UNL     1     -33.948  16.393  26.039  1.00  0.00    -0.066 C 
ATOM      3  C   UNL     1     -34.188  17.722  25.847  1.00  0.00     0.047 C 
ATOM      4  C   UNL     1     -33.417  18.379  24.744  1.00  0.00     0.159 C 
ATOM      5  O   UNL     1     -33.518  19.609  24.495  1.00  0.00    -0.295 OA
ATOM      6  C   UNL     1     -32.502  17.454  23.942  1.00  0.00     0.067 C 
ATOM      7  C   UNL     1     -33.373  16.211  23.663  1.00  0.00     0.021 C 
ATOM      8  C   UNL     1     -32.962  15.715  25.067  1.00  0.00     0.022 C 
ATOM      9  C   UNL     1     -31.680  16.587  24.938  1.00  0.00    -0.019 C 
ATOM     10  C   UNL     1     -30.520  15.831  24.243  1.00  0.00     0.012 C 
ATOM     11  C   UNL     1     -31.120  17.265  26.220  1.00  0.00     0.012 C 
ENDROOT
TORSDOF 0
ENDMDL
MODEL 9
REMARK VINA RESULT:    -3.787      7.488      9.100
REMARK INTER + INTRA:          -3.787
REMARK INTER:                  -3.787
REMARK INTRA:                   0.000
REMARK UNBOUND:                 0.000
REMARK SMILES CC1=CC(=O)[C@@H]2C[C@H]1C2(C)C
REMARK SMILES IDX 1 1 2 2 3 3 4 4 5 5 6 6 7 7 8 8 9 9 10 10 11 11
REMARK H PARENT
REMARK Flexibility Score: inf
ROOT
ATOM      1  C   UNL     1     -30.310  16.047  23.976  1.00  0.00     0.040 C 
ATOM      2  C   UNL     1     -31.526  16.544  24.694  1.00  0.00    -0.066 C 
ATOM      3  C   UNL     1     -31.896  16.063  25.915  1.00  0.00     0.047 C 
ATOM      4  C   UNL     1     -33.135  16.658  26.512  1.00  0.00     0.159 C 
ATOM      5  O   UNL     1     -33.556  16.329  27.652  1.00  0.00    -0.295 OA
ATOM      6  C   UNL     1     -33.851  17.690  25.641  1.00  0.00     0.067 C 
ATOM      7  C   UNL     1     -33.883  17.043  24.239  1.00  0.00     0.021 C 
ATOM      8  C   UNL     1     -32.452  17.594  24.048  1.00  0.00     0.022 C 
ATOM      9  C   UNL     1     -32.796  18.694  25.094  1.00  0.00    -0.019 C 
ATOM     10  C   UNL     1     -33.449  19.940  24.446  1.00  0.00     0.012 C 
ATOM     11  C   UNL     1     -31.670  19.176  26.051  1.00  0.00     0.012 C 
ENDROOT
TORSDOF 0
ENDMDL
