MODEL 1
REMARK VINA RESULT:    -2.846      0.000      0.000
REMARK INTER + INTRA:          -9.728
REMARK INTER:                  -6.175
REMARK INTRA:                  -3.554
REMARK UNBOUND:                -3.554
REMARK SMILES CCCCCCCCCCCCCCCCCCCCCC(=O)[O-]
REMARK SMILES IDX 12 1 11 2 10 3 9 4 8 5 7 6 6 7 5 8 4 9 3 10 2 11 1 12 13 13
REMARK SMILES IDX 14 14 15 15 16 16 17 17 18 18 19 19 20 20 21 21 22 22 23 23
REMARK SMILES IDX 24 24
REMARK H PARENT
REMARK Flexibility Score: inf
ROOT
ATOM      1  C   UNL     1       7.630 -19.662  20.090  1.00  0.00     0.000 C 
ENDROOT
BRANCH   1   2
ATOM      2  C   UNL     1       8.639 -19.884  21.224  1.00  0.00     0.000 C 
BRANCH   2   3
ATOM      3  C   UNL     1       8.706 -18.667  22.156  1.00  0.00     0.000 C 
BRANCH   3   4
ATOM      4  C   UNL     1      10.162 -18.241  22.395  1.00  0.00    -0.000 C 
BRANCH   4   5
ATOM      5  C   UNL     1      11.167 -19.113  21.629  1.00  0.00    -0.000 C 
BRANCH   5   6
ATOM      6  C   UNL     1      12.265 -18.285  20.937  1.00  0.00    -0.000 C 
BRANCH   6   7
ATOM      7  C   UNL     1      12.359 -16.856  21.495  1.00  0.00    -0.000 C 
BRANCH   7   8
ATOM      8  C   UNL     1      12.831 -15.841  20.440  1.00  0.00    -0.000 C 
BRANCH   8   9
ATOM      9  C   UNL     1      13.603 -14.659  21.051  1.00  0.00    -0.000 C 
BRANCH   9  10
ATOM     10  C   UNL     1      13.197 -13.270  20.518  1.00  0.00    -0.000 C 
BRANCH  10  11
ATOM     11  C   UNL     1      11.987 -13.267  19.566  1.00  0.00    -0.003 C 
ATOM     12  C   UNL     1      10.668 -12.971  20.278  1.00  0.00     0.004 C 
ENDBRANCH  10  11
ENDBRANCH   9  10
ENDBRANCH   8   9
ENDBRANCH   7   8
ENDBRANCH   6   7
ENDBRANCH   5   6
ENDBRANCH   4   5
ENDBRANCH   3   4
ENDBRANCH   2   3
ENDBRANCH   1   2
BRANCH   1  13
ATOM     13  C   UNL     1       8.273 -19.949  18.725  1.00  0.00     0.000 C 
BRANCH  13  14
ATOM     14  C   UNL     1       9.440 -19.003  18.404  1.00  0.00     0.000 C 
BRANCH  14  15
ATOM     15  C   UNL     1       8.975 -17.572  18.083  1.00  0.00     0.000 C 
BRANCH  15  16
ATOM     16  C   UNL     1       9.438 -16.550  19.133  1.00  0.00     0.000 C 
BRANCH  16  17
ATOM     17  C   UNL     1       8.266 -15.796  19.782  1.00  0.00     0.000 C 
BRANCH  17  18
ATOM     18  C   UNL     1       7.059 -15.658  18.840  1.00  0.00     0.000 C 
BRANCH  18  19
ATOM     19  C   UNL     1       5.799 -16.352  19.389  1.00  0.00     0.000 C 
BRANCH  19  20
ATOM     20  C   UNL     1       5.266 -17.443  18.448  1.00  0.00     0.006 C 
BRANCH  20  21
ATOM     21  C   UNL     1       3.752 -17.652  18.584  1.00  0.00     0.053 C 
BRANCH  21  22
ATOM     22  C   UNL     1       3.463 -18.952  19.268  1.00  0.00     0.041 C 
ATOM     23  O   UNL     1       2.607 -19.743  18.789  1.00  0.00    -0.550 OA
ATOM     24  O   UNL     1       4.115 -19.276  20.450  1.00  0.00    -0.550 OA
ENDBRANCH  21  22
ENDBRANCH  20  21
ENDBRANCH  19  20
ENDBRANCH  18  19
ENDBRANCH  17  18
ENDBRANCH  16  17
ENDBRANCH  15  16
ENDBRANCH  14  15
ENDBRANCH  13  14
ENDBRANCH   1  13
TORSDOF 20
ENDMDL
MODEL 2
REMARK VINA RESULT:    -2.800      3.176      7.257
REMARK INTER + INTRA:          -9.628
REMARK INTER:                  -5.567
REMARK INTRA:                  -4.061
REMARK UNBOUND:                -3.554
REMARK SMILES CCCCCCCCCCCCCCCCCCCCCC(=O)[O-]
REMARK SMILES IDX 12 1 11 2 10 3 9 4 8 5 7 6 6 7 5 8 4 9 3 10 2 11 1 12 13 13
REMARK SMILES IDX 14 14 15 15 16 16 17 17 18 18 19 19 20 20 21 21 22 22 23 23
REMARK SMILES IDX 24 24
REMARK H PARENT
REMARK Flexibility Score: inf
ROOT
ATOM      1  C   UNL     1       8.655 -16.331  21.163  1.00  0.00     0.000 C 
ENDROOT
BRANCH   1   2
ATOM      2  C   UNL     1       8.285 -16.028  19.706  1.00  0.00     0.000 C 
BRANCH   2   3
ATOM      3  C   UNL     1       9.310 -16.628  18.735  1.00  0.00     0.000 C 
BRANCH   3   4
ATOM      4  C   UNL     1       8.678 -17.747  17.896  1.00  0.00    -0.000 C 
BRANCH   4   5
ATOM      5  C   UNL     1       9.091 -19.148  18.370  1.00  0.00    -0.000 C 
BRANCH   5   6
ATOM      6  C   UNL     1       7.898 -19.980  18.873  1.00  0.00    -0.000 C 
BRANCH   6   7
ATOM      7  C   UNL     1       7.601 -19.735  20.362  1.00  0.00    -0.000 C 
BRANCH   7   8
ATOM      8  C   UNL     1       6.219 -19.100  20.590  1.00  0.00    -0.000 C 
BRANCH   8   9
ATOM      9  C   UNL     1       5.472 -18.806  19.276  1.00  0.00    -0.000 C 
BRANCH   9  10
ATOM     10  C   UNL     1       4.831 -17.407  19.191  1.00  0.00    -0.000 C 
BRANCH  10  11
ATOM     11  C   UNL     1       5.091 -16.651  17.876  1.00  0.00    -0.003 C 
ATOM     12  C   UNL     1       5.138 -15.135  18.058  1.00  0.00     0.004 C 
ENDBRANCH  10  11
ENDBRANCH   9  10
ENDBRANCH   8   9
ENDBRANCH   7   8
ENDBRANCH   6   7
ENDBRANCH   5   6
ENDBRANCH   4   5
ENDBRANCH   3   4
ENDBRANCH   2   3
ENDBRANCH   1   2
BRANCH   1  13
ATOM     13  C   UNL     1      10.138 -16.712  21.282  1.00  0.00     0.000 C 
BRANCH  13  14
ATOM     14  C   UNL     1      10.371 -17.924  22.197  1.00  0.00     0.000 C 
BRANCH  14  15
ATOM     15  C   UNL     1      11.051 -19.097  21.469  1.00  0.00     0.000 C 
BRANCH  15  16
ATOM     16  C   UNL     1      12.302 -18.663  20.688  1.00  0.00     0.000 C 
BRANCH  16  17
ATOM     17  C   UNL     1      13.570 -18.659  21.558  1.00  0.00     0.000 C 
BRANCH  17  18
ATOM     18  C   UNL     1      14.250 -17.281  21.604  1.00  0.00     0.000 C 
BRANCH  18  19
ATOM     19  C   UNL     1      13.803 -16.442  22.816  1.00  0.00     0.000 C 
BRANCH  19  20
ATOM     20  C   UNL     1      13.239 -15.072  22.411  1.00  0.00     0.006 C 
BRANCH  20  21
ATOM     21  C   UNL     1      13.880 -14.525  21.129  1.00  0.00     0.053 C 
BRANCH  21  22
ATOM     22  C   UNL     1      12.827 -14.175  20.125  1.00  0.00     0.041 C 
ATOM     23  O   UNL     1      12.468 -15.020  19.263  1.00  0.00    -0.550 OA
ATOM     24  O   UNL     1      12.264 -12.906  20.121  1.00  0.00    -0.550 OA
ENDBRANCH  21  22
ENDBRANCH  20  21
ENDBRANCH  19  20
ENDBRANCH  18  19
ENDBRANCH  17  18
ENDBRANCH  16  17
ENDBRANCH  15  16
ENDBRANCH  14  15
ENDBRANCH  13  14
ENDBRANCH   1  13
TORSDOF 20
ENDMDL
MODEL 3
REMARK VINA RESULT:    -2.799      4.063      7.456
REMARK INTER + INTRA:          -9.626
REMARK INTER:                  -5.544
REMARK INTRA:                  -4.082
REMARK UNBOUND:                -3.554
REMARK SMILES CCCCCCCCCCCCCCCCCCCCCC(=O)[O-]
REMARK SMILES IDX 12 1 11 2 10 3 9 4 8 5 7 6 6 7 5 8 4 9 3 10 2 11 1 12 13 13
REMARK SMILES IDX 14 14 15 15 16 16 17 17 18 18 19 19 20 20 21 21 22 22 23 23
REMARK SMILES IDX 24 24
REMARK H PARENT
REMARK Flexibility Score: inf
ROOT
ATOM      1  C   UNL     1       8.433 -15.526  20.628  1.00  0.00     0.000 C 
ENDROOT
BRANCH   1   2
ATOM      2  C   UNL     1       8.829 -15.585  19.147  1.00  0.00     0.000 C 
BRANCH   2   3
ATOM      3  C   UNL     1       7.715 -16.209  18.298  1.00  0.00     0.000 C 
BRANCH   3   4
ATOM      4  C   UNL     1       6.783 -17.070  19.164  1.00  0.00    -0.000 C 
BRANCH   4   5
ATOM      5  C   UNL     1       6.714 -18.529  18.689  1.00  0.00    -0.000 C 
BRANCH   5   6
ATOM      6  C   UNL     1       7.959 -18.954  17.891  1.00  0.00    -0.000 C 
BRANCH   6   7
ATOM      7  C   UNL     1       8.961 -19.745  18.748  1.00  0.00    -0.000 C 
BRANCH   7   8
ATOM      8  C   UNL     1      10.118 -18.869  19.260  1.00  0.00    -0.000 C 
BRANCH   8   9
ATOM      9  C   UNL     1      10.210 -18.838  20.796  1.00  0.00    -0.000 C 
BRANCH   9  10
ATOM     10  C   UNL     1       9.144 -19.678  21.529  1.00  0.00    -0.000 C 
BRANCH  10  11
ATOM     11  C   UNL     1       8.037 -18.863  22.222  1.00  0.00    -0.003 C 
ATOM     12  C   UNL     1       6.704 -19.606  22.291  1.00  0.00     0.004 C 
ENDBRANCH  10  11
ENDBRANCH   9  10
ENDBRANCH   8   9
ENDBRANCH   7   8
ENDBRANCH   6   7
ENDBRANCH   5   6
ENDBRANCH   4   5
ENDBRANCH   3   4
ENDBRANCH   2   3
ENDBRANCH   1   2
BRANCH   1  13
ATOM     13  C   UNL     1       8.770 -14.152  21.227  1.00  0.00     0.000 C 
BRANCH  13  14
ATOM     14  C   UNL     1       9.233 -13.137  20.171  1.00  0.00     0.000 C 
BRANCH  14  15
ATOM     15  C   UNL     1      10.349 -12.211  20.685  1.00  0.00     0.000 C 
BRANCH  15  16
ATOM     16  C   UNL     1      11.718 -12.908  20.740  1.00  0.00     0.000 C 
BRANCH  16  17
ATOM     17  C   UNL     1      12.142 -13.487  19.379  1.00  0.00     0.000 C 
BRANCH  17  18
ATOM     18  C   UNL     1      12.431 -14.996  19.445  1.00  0.00     0.000 C 
BRANCH  18  19
ATOM     19  C   UNL     1      12.197 -15.582  20.850  1.00  0.00     0.000 C 
BRANCH  19  20
ATOM     20  C   UNL     1      13.298 -16.565  21.272  1.00  0.00     0.006 C 
BRANCH  20  21
ATOM     21  C   UNL     1      14.709 -16.001  21.052  1.00  0.00     0.053 C 
BRANCH  21  22
ATOM     22  C   UNL     1      14.995 -14.911  22.037  1.00  0.00     0.041 C 
ATOM     23  O   UNL     1      15.107 -15.178  23.263  1.00  0.00    -0.550 OA
ATOM     24  O   UNL     1      15.109 -13.596  21.605  1.00  0.00    -0.550 OA
ENDBRANCH  21  22
ENDBRANCH  20  21
ENDBRANCH  19  20
ENDBRANCH  18  19
ENDBRANCH  17  18
ENDBRANCH  16  17
ENDBRANCH  15  16
ENDBRANCH  14  15
ENDBRANCH  13  14
ENDBRANCH   1  13
TORSDOF 20
ENDMDL
MODEL 4
REMARK VINA RESULT:    -2.795      4.290      7.656
REMARK INTER + INTRA:          -9.617
REMARK INTER:                  -6.503
REMARK INTRA:                  -3.114
REMARK UNBOUND:                -3.554
REMARK SMILES CCCCCCCCCCCCCCCCCCCCCC(=O)[O-]
REMARK SMILES IDX 12 1 11 2 10 3 9 4 8 5 7 6 6 7 5 8 4 9 3 10 2 11 1 12 13 13
REMARK SMILES IDX 14 14 15 15 16 16 17 17 18 18 19 19 20 20 21 21 22 22 23 23
REMARK SMILES IDX 24 24
REMARK H PARENT
REMARK Flexibility Score: inf
ROOT
ATOM      1  C   UNL     1       8.977 -15.927  19.361  1.00  0.00     0.000 C 
ENDROOT
BRANCH   1   2
ATOM      2  C   UNL     1       7.743 -15.618  18.505  1.00  0.00     0.000 C 
BRANCH   2   3
ATOM      3  C   UNL     1       6.813 -16.834  18.410  1.00  0.00     0.000 C 
BRANCH   3   4
ATOM      4  C   UNL     1       7.313 -17.977  19.307  1.00  0.00    -0.000 C 
BRANCH   4   5
ATOM      5  C   UNL     1       7.746 -19.213  18.505  1.00  0.00    -0.000 C 
BRANCH   5   6
ATOM      6  C   UNL     1       9.040 -19.847  19.044  1.00  0.00    -0.000 C 
BRANCH   6   7
ATOM      7  C   UNL     1      10.299 -19.255  18.389  1.00  0.00    -0.000 C 
BRANCH   7   8
ATOM      8  C   UNL     1      11.335 -18.784  19.424  1.00  0.00    -0.000 C 
BRANCH   8   9
ATOM      9  C   UNL     1      10.736 -18.606  20.830  1.00  0.00    -0.000 C 
BRANCH   9  10
ATOM     10  C   UNL     1      11.603 -19.154  21.981  1.00  0.00    -0.000 C 
BRANCH  10  11
ATOM     11  C   UNL     1      13.113 -19.211  21.689  1.00  0.00    -0.003 C 
ATOM     12  C   UNL     1      13.957 -18.554  22.780  1.00  0.00     0.004 C 
ENDBRANCH  10  11
ENDBRANCH   9  10
ENDBRANCH   8   9
ENDBRANCH   7   8
ENDBRANCH   6   7
ENDBRANCH   5   6
ENDBRANCH   4   5
ENDBRANCH   3   4
ENDBRANCH   2   3
ENDBRANCH   1   2
BRANCH   1  13
ATOM     13  C   UNL     1       9.239 -14.797  20.368  1.00  0.00     0.000 C 
BRANCH  13  14
ATOM     14  C   UNL     1      10.703 -14.735  20.828  1.00  0.00     0.000 C 
BRANCH  14  15
ATOM     15  C   UNL     1      11.699 -14.942  19.673  1.00  0.00     0.000 C 
BRANCH  15  16
ATOM     16  C   UNL     1      13.036 -15.535  20.145  1.00  0.00     0.000 C 
BRANCH  16  17
ATOM     17  C   UNL     1      13.360 -15.176  21.605  1.00  0.00     0.000 C 
BRANCH  17  18
ATOM     18  C   UNL     1      14.484 -14.133  21.720  1.00  0.00     0.000 C 
BRANCH  18  19
ATOM     19  C   UNL     1      13.962 -12.746  22.138  1.00  0.00     0.000 C 
BRANCH  19  20
ATOM     20  C   UNL     1      14.226 -11.669  21.075  1.00  0.00     0.006 C 
BRANCH  20  21
ATOM     21  C   UNL     1      12.957 -11.274  20.308  1.00  0.00     0.053 C 
BRANCH  21  22
ATOM     22  C   UNL     1      13.038  -9.847  19.864  1.00  0.00     0.041 C 
ATOM     23  O   UNL     1      13.682  -9.006  20.547  1.00  0.00    -0.550 OA
ATOM     24  O   UNL     1      12.377  -9.438  18.713  1.00  0.00    -0.550 OA
ENDBRANCH  21  22
ENDBRANCH  20  21
ENDBRANCH  19  20
ENDBRANCH  18  19
ENDBRANCH  17  18
ENDBRANCH  16  17
ENDBRANCH  15  16
ENDBRANCH  14  15
ENDBRANCH  13  14
ENDBRANCH   1  13
TORSDOF 20
ENDMDL
MODEL 5
REMARK VINA RESULT:    -2.750      1.297      4.798
REMARK INTER + INTRA:          -9.520
REMARK INTER:                  -5.933
REMARK INTRA:                  -3.587
REMARK UNBOUND:                -3.554
REMARK SMILES CCCCCCCCCCCCCCCCCCCCCC(=O)[O-]
REMARK SMILES IDX 12 1 11 2 10 3 9 4 8 5 7 6 6 7 5 8 4 9 3 10 2 11 1 12 13 13
REMARK SMILES IDX 14 14 15 15 16 16 17 17 18 18 19 19 20 20 21 21 22 22 23 23
REMARK SMILES IDX 24 24
REMARK H PARENT
REMARK Flexibility Score: inf
ROOT
ATOM      1  C   UNL     1      11.876 -13.734  19.855  1.00  0.00     0.000 C 
ENDROOT
BRANCH   1   2
ATOM      2  C   UNL     1      12.392 -15.110  19.417  1.00  0.00     0.000 C 
BRANCH   2   3
ATOM      3  C   UNL     1      13.199 -15.783  20.534  1.00  0.00     0.000 C 
BRANCH   3   4
ATOM      4  C   UNL     1      12.628 -17.171  20.862  1.00  0.00    -0.000 C 
BRANCH   4   5
ATOM      5  C   UNL     1      11.464 -17.565  19.940  1.00  0.00    -0.000 C 
BRANCH   5   6
ATOM      6  C   UNL     1      11.622 -18.980  19.355  1.00  0.00    -0.000 C 
BRANCH   6   7
ATOM      7  C   UNL     1      10.609 -19.266  18.235  1.00  0.00    -0.000 C 
BRANCH   7   8
ATOM      8  C   UNL     1       9.423 -18.287  18.250  1.00  0.00    -0.000 C 
BRANCH   8   9
ATOM      9  C   UNL     1       8.059 -19.001  18.276  1.00  0.00    -0.000 C 
BRANCH   9  10
ATOM     10  C   UNL     1       8.000 -20.259  19.166  1.00  0.00    -0.000 C 
BRANCH  10  11
ATOM     11  C   UNL     1       7.539 -20.011  20.613  1.00  0.00    -0.003 C 
ATOM     12  C   UNL     1       8.699 -19.749  21.572  1.00  0.00     0.004 C 
ENDBRANCH  10  11
ENDBRANCH   9  10
ENDBRANCH   8   9
ENDBRANCH   7   8
ENDBRANCH   6   7
ENDBRANCH   5   6
ENDBRANCH   4   5
ENDBRANCH   3   4
ENDBRANCH   2   3
ENDBRANCH   1   2
BRANCH   1  13
ATOM     13  C   UNL     1      10.703 -13.878  20.835  1.00  0.00     0.000 C 
BRANCH  13  14
ATOM     14  C   UNL     1       9.333 -13.740  20.151  1.00  0.00     0.000 C 
BRANCH  14  15
ATOM     15  C   UNL     1       8.643 -15.097  19.925  1.00  0.00     0.000 C 
BRANCH  15  16
ATOM     16  C   UNL     1       8.598 -15.957  21.198  1.00  0.00     0.000 C 
BRANCH  16  17
ATOM     17  C   UNL     1       7.168 -16.375  21.581  1.00  0.00     0.000 C 
BRANCH  17  18
ATOM     18  C   UNL     1       6.108 -15.776  20.642  1.00  0.00     0.000 C 
BRANCH  18  19
ATOM     19  C   UNL     1       5.563 -16.804  19.634  1.00  0.00     0.000 C 
BRANCH  19  20
ATOM     20  C   UNL     1       4.430 -17.662  20.218  1.00  0.00     0.006 C 
BRANCH  20  21
ATOM     21  C   UNL     1       4.079 -18.862  19.328  1.00  0.00     0.053 C 
BRANCH  21  22
ATOM     22  C   UNL     1       2.633 -19.215  19.473  1.00  0.00     0.041 C 
ATOM     23  O   UNL     1       1.782 -18.747  18.669  1.00  0.00    -0.550 OA
ATOM     24  O   UNL     1       2.218 -20.037  20.513  1.00  0.00    -0.550 OA
ENDBRANCH  21  22
ENDBRANCH  20  21
ENDBRANCH  19  20
ENDBRANCH  18  19
ENDBRANCH  17  18
ENDBRANCH  16  17
ENDBRANCH  15  16
ENDBRANCH  14  15
ENDBRANCH  13  14
ENDBRANCH   1  13
TORSDOF 20
ENDMDL
MODEL 6
REMARK VINA RESULT:    -2.746      3.198      6.480
REMARK INTER + INTRA:          -9.512
REMARK INTER:                  -5.415
REMARK INTRA:                  -4.097
REMARK UNBOUND:                -3.554
REMARK SMILES CCCCCCCCCCCCCCCCCCCCCC(=O)[O-]
REMARK SMILES IDX 12 1 11 2 10 3 9 4 8 5 7 6 6 7 5 8 4 9 3 10 2 11 1 12 13 13
REMARK SMILES IDX 14 14 15 15 16 16 17 17 18 18 19 19 20 20 21 21 22 22 23 23
REMARK SMILES IDX 24 24
REMARK H PARENT
REMARK Flexibility Score: inf
ROOT
ATOM      1  C   UNL     1      12.481 -19.289  21.607  1.00  0.00     0.000 C 
ENDROOT
BRANCH   1   2
ATOM      2  C   UNL     1      11.301 -18.993  20.675  1.00  0.00     0.000 C 
BRANCH   2   3
ATOM      3  C   UNL     1      11.739 -18.991  19.205  1.00  0.00     0.000 C 
BRANCH   3   4
ATOM      4  C   UNL     1      10.559 -19.326  18.281  1.00  0.00    -0.000 C 
BRANCH   4   5
ATOM      5  C   UNL     1       9.275 -19.655  19.057  1.00  0.00    -0.000 C 
BRANCH   5   6
ATOM      6  C   UNL     1       7.999 -19.311  18.268  1.00  0.00    -0.000 C 
BRANCH   6   7
ATOM      7  C   UNL     1       7.370 -17.984  18.724  1.00  0.00    -0.000 C 
BRANCH   7   8
ATOM      8  C   UNL     1       6.184 -18.193  19.680  1.00  0.00    -0.000 C 
BRANCH   8   9
ATOM      9  C   UNL     1       6.581 -18.067  21.162  1.00  0.00    -0.000 C 
BRANCH   9  10
ATOM     10  C   UNL     1       6.766 -19.407  21.902  1.00  0.00    -0.000 C 
BRANCH  10  11
ATOM     11  C   UNL     1       8.121 -19.576  22.614  1.00  0.00    -0.003 C 
ATOM     12  C   UNL     1       8.718 -20.971  22.437  1.00  0.00     0.004 C 
ENDBRANCH  10  11
ENDBRANCH   9  10
ENDBRANCH   8   9
ENDBRANCH   7   8
ENDBRANCH   6   7
ENDBRANCH   5   6
ENDBRANCH   4   5
ENDBRANCH   3   4
ENDBRANCH   2   3
ENDBRANCH   1   2
BRANCH   1  13
ATOM     13  C   UNL     1      12.909 -18.024  22.365  1.00  0.00     0.000 C 
BRANCH  13  14
ATOM     14  C   UNL     1      14.397 -17.691  22.180  1.00  0.00     0.000 C 
BRANCH  14  15
ATOM     15  C   UNL     1      14.631 -16.547  21.177  1.00  0.00     0.000 C 
BRANCH  15  16
ATOM     16  C   UNL     1      13.466 -15.546  21.142  1.00  0.00     0.000 C 
BRANCH  16  17
ATOM     17  C   UNL     1      12.755 -15.510  19.778  1.00  0.00     0.000 C 
BRANCH  17  18
ATOM     18  C   UNL     1      11.431 -14.731  19.824  1.00  0.00     0.000 C 
BRANCH  18  19
ATOM     19  C   UNL     1      10.200 -15.655  19.770  1.00  0.00     0.000 C 
BRANCH  19  20
ATOM     20  C   UNL     1       9.247 -15.440  20.956  1.00  0.00     0.006 C 
BRANCH  20  21
ATOM     21  C   UNL     1       9.681 -16.215  22.208  1.00  0.00     0.053 C 
BRANCH  21  22
ATOM     22  C   UNL     1      10.176 -15.273  23.261  1.00  0.00     0.041 C 
ATOM     23  O   UNL     1      10.565 -15.716  24.375  1.00  0.00    -0.550 OA
ATOM     24  O   UNL     1      10.178 -13.905  23.025  1.00  0.00    -0.550 OA
ENDBRANCH  21  22
ENDBRANCH  20  21
ENDBRANCH  19  20
ENDBRANCH  18  19
ENDBRANCH  17  18
ENDBRANCH  16  17
ENDBRANCH  15  16
ENDBRANCH  14  15
ENDBRANCH  13  14
ENDBRANCH   1  13
TORSDOF 20
ENDMDL
MODEL 7
REMARK VINA RESULT:    -2.738      3.001      6.179
REMARK INTER + INTRA:          -9.494
REMARK INTER:                  -5.132
REMARK INTRA:                  -4.362
REMARK UNBOUND:                -3.554
REMARK SMILES CCCCCCCCCCCCCCCCCCCCCC(=O)[O-]
REMARK SMILES IDX 12 1 11 2 10 3 9 4 8 5 7 6 6 7 5 8 4 9 3 10 2 11 1 12 13 13
REMARK SMILES IDX 14 14 15 15 16 16 17 17 18 18 19 19 20 20 21 21 22 22 23 23
REMARK SMILES IDX 24 24
REMARK H PARENT
REMARK Flexibility Score: inf
ROOT
ATOM      1  C   UNL     1       8.002 -19.888  19.202  1.00  0.00     0.000 C 
ENDROOT
BRANCH   1   2
ATOM      2  C   UNL     1       7.533 -18.884  18.143  1.00  0.00     0.000 C 
BRANCH   2   3
ATOM      3  C   UNL     1       6.314 -18.090  18.630  1.00  0.00     0.000 C 
BRANCH   3   4
ATOM      4  C   UNL     1       6.617 -16.584  18.653  1.00  0.00    -0.000 C 
BRANCH   4   5
ATOM      5  C   UNL     1       8.059 -16.263  18.235  1.00  0.00    -0.000 C 
BRANCH   5   6
ATOM      6  C   UNL     1       8.850 -15.538  19.338  1.00  0.00    -0.000 C 
BRANCH   6   7
ATOM      7  C   UNL     1       8.108 -15.537  20.685  1.00  0.00    -0.000 C 
BRANCH   7   8
ATOM      8  C   UNL     1       9.027 -15.901  21.864  1.00  0.00    -0.000 C 
BRANCH   8   9
ATOM      9  C   UNL     1       8.475 -17.055  22.718  1.00  0.00    -0.000 C 
BRANCH   9  10
ATOM     10  C   UNL     1       7.126 -17.631  22.241  1.00  0.00    -0.000 C 
BRANCH  10  11
ATOM     11  C   UNL     1       6.554 -18.760  23.116  1.00  0.00    -0.003 C 
ATOM     12  C   UNL     1       6.050 -19.950  22.300  1.00  0.00     0.004 C 
ENDBRANCH  10  11
ENDBRANCH   9  10
ENDBRANCH   8   9
ENDBRANCH   7   8
ENDBRANCH   6   7
ENDBRANCH   5   6
ENDBRANCH   4   5
ENDBRANCH   3   4
ENDBRANCH   2   3
ENDBRANCH   1   2
BRANCH   1  13
ATOM     13  C   UNL     1       9.337 -19.445  19.820  1.00  0.00     0.000 C 
BRANCH  13  14
ATOM     14  C   UNL     1      10.413 -19.146  18.765  1.00  0.00     0.000 C 
BRANCH  14  15
ATOM     15  C   UNL     1      11.797 -18.883  19.385  1.00  0.00     0.000 C 
BRANCH  15  16
ATOM     16  C   UNL     1      11.819 -17.626  20.268  1.00  0.00     0.000 C 
BRANCH  16  17
ATOM     17  C   UNL     1      12.172 -17.937  21.733  1.00  0.00     0.000 C 
BRANCH  17  18
ATOM     18  C   UNL     1      12.964 -19.246  21.883  1.00  0.00     0.000 C 
BRANCH  18  19
ATOM     19  C   UNL     1      12.217 -20.295  22.727  1.00  0.00     0.000 C 
BRANCH  19  20
ATOM     20  C   UNL     1      10.789 -19.857  23.087  1.00  0.00     0.006 C 
BRANCH  20  21
ATOM     21  C   UNL     1      10.614 -19.592  24.588  1.00  0.00     0.053 C 
BRANCH  21  22
ATOM     22  C   UNL     1       9.540 -20.467  25.153  1.00  0.00     0.041 C 
ATOM     23  O   UNL     1       8.789 -21.125  24.383  1.00  0.00    -0.550 OA
ATOM     24  O   UNL     1       9.346 -20.533  26.526  1.00  0.00    -0.550 OA
ENDBRANCH  21  22
ENDBRANCH  20  21
ENDBRANCH  19  20
ENDBRANCH  18  19
ENDBRANCH  17  18
ENDBRANCH  16  17
ENDBRANCH  15  16
ENDBRANCH  14  15
ENDBRANCH  13  14
ENDBRANCH   1  13
TORSDOF 20
ENDMDL
MODEL 8
REMARK VINA RESULT:    -2.731      2.581      4.482
REMARK INTER + INTRA:          -9.477
REMARK INTER:                  -5.289
REMARK INTRA:                  -4.189
REMARK UNBOUND:                -3.554
REMARK SMILES CCCCCCCCCCCCCCCCCCCCCC(=O)[O-]
REMARK SMILES IDX 12 1 11 2 10 3 9 4 8 5 7 6 6 7 5 8 4 9 3 10 2 11 1 12 13 13
REMARK SMILES IDX 14 14 15 15 16 16 17 17 18 18 19 19 20 20 21 21 22 22 23 23
REMARK SMILES IDX 24 24
REMARK H PARENT
REMARK Flexibility Score: inf
ROOT
ATOM      1  C   UNL     1       6.571 -18.550  20.009  1.00  0.00     0.000 C 
ENDROOT
BRANCH   1   2
ATOM      2  C   UNL     1       7.908 -19.301  20.007  1.00  0.00     0.000 C 
BRANCH   2   3
ATOM      3  C   UNL     1       8.362 -19.625  18.579  1.00  0.00     0.000 C 
BRANCH   3   4
ATOM      4  C   UNL     1       9.787 -19.110  18.328  1.00  0.00    -0.000 C 
BRANCH   4   5
ATOM      5  C   UNL     1      10.406 -18.453  19.570  1.00  0.00    -0.000 C 
BRANCH   5   6
ATOM      6  C   UNL     1      11.880 -18.845  19.777  1.00  0.00    -0.000 C 
BRANCH   6   7
ATOM      7  C   UNL     1      12.187 -19.215  21.237  1.00  0.00    -0.000 C 
BRANCH   7   8
ATOM      8  C   UNL     1      13.406 -18.459  21.792  1.00  0.00    -0.000 C 
BRANCH   8   9
ATOM      9  C   UNL     1      13.619 -17.092  21.118  1.00  0.00    -0.000 C 
BRANCH   9  10
ATOM     10  C   UNL     1      13.003 -15.893  21.868  1.00  0.00    -0.000 C 
BRANCH  10  11
ATOM     11  C   UNL     1      12.547 -14.729  20.971  1.00  0.00    -0.003 C 
ATOM     12  C   UNL     1      12.475 -15.108  19.493  1.00  0.00     0.004 C 
ENDBRANCH  10  11
ENDBRANCH   9  10
ENDBRANCH   8   9
ENDBRANCH   7   8
ENDBRANCH   6   7
ENDBRANCH   5   6
ENDBRANCH   4   5
ENDBRANCH   3   4
ENDBRANCH   2   3
ENDBRANCH   1   2
BRANCH   1  13
ATOM     13  C   UNL     1       6.191 -18.110  18.588  1.00  0.00     0.000 C 
BRANCH  13  14
ATOM     14  C   UNL     1       6.049 -16.586  18.453  1.00  0.00     0.000 C 
BRANCH  14  15
ATOM     15  C   UNL     1       7.401 -15.878  18.252  1.00  0.00     0.000 C 
BRANCH  15  16
ATOM     16  C   UNL     1       7.736 -14.909  19.396  1.00  0.00     0.000 C 
BRANCH  16  17
ATOM     17  C   UNL     1       8.888 -15.416  20.282  1.00  0.00     0.000 C 
BRANCH  17  18
ATOM     18  C   UNL     1       8.417 -15.813  21.691  1.00  0.00     0.000 C 
BRANCH  18  19
ATOM     19  C   UNL     1       9.545 -16.433  22.537  1.00  0.00     0.000 C 
BRANCH  19  20
ATOM     20  C   UNL     1       9.180 -17.822  23.082  1.00  0.00     0.006 C 
BRANCH  20  21
ATOM     21  C   UNL     1      10.132 -18.290  24.191  1.00  0.00     0.053 C 
BRANCH  21  22
ATOM     22  C   UNL     1      10.113 -19.782  24.302  1.00  0.00     0.041 C 
ATOM     23  O   UNL     1      10.577 -20.347  25.328  1.00  0.00    -0.550 OA
ATOM     24  O   UNL     1       9.612 -20.551  23.260  1.00  0.00    -0.550 OA
ENDBRANCH  21  22
ENDBRANCH  20  21
ENDBRANCH  19  20
ENDBRANCH  18  19
ENDBRANCH  17  18
ENDBRANCH  16  17
ENDBRANCH  15  16
ENDBRANCH  14  15
ENDBRANCH  13  14
ENDBRANCH   1  13
TORSDOF 20
ENDMDL
MODEL 9
REMARK VINA RESULT:    -2.724      3.405      6.601
REMARK INTER + INTRA:          -9.462
REMARK INTER:                  -5.460
REMARK INTRA:                  -4.002
REMARK UNBOUND:                -3.554
REMARK SMILES CCCCCCCCCCCCCCCCCCCCCC(=O)[O-]
REMARK SMILES IDX 12 1 11 2 10 3 9 4 8 5 7 6 6 7 5 8 4 9 3 10 2 11 1 12 13 13
REMARK SMILES IDX 14 14 15 15 16 16 17 17 18 18 19 19 20 20 21 21 22 22 23 23
REMARK SMILES IDX 24 24
REMARK H PARENT
REMARK Flexibility Score: inf
ROOT
ATOM      1  C   UNL     1       7.640 -20.114  22.769  1.00  0.00     0.000 C 
ENDROOT
BRANCH   1   2
ATOM      2  C   UNL     1       6.493 -19.942  21.766  1.00  0.00     0.000 C 
BRANCH   2   3
ATOM      3  C   UNL     1       6.756 -18.768  20.815  1.00  0.00     0.000 C 
BRANCH   3   4
ATOM      4  C   UNL     1       6.550 -19.190  19.353  1.00  0.00    -0.000 C 
BRANCH   4   5
ATOM      5  C   UNL     1       7.839 -19.102  18.524  1.00  0.00    -0.000 C 
BRANCH   5   6
ATOM      6  C   UNL     1       9.081 -19.568  19.305  1.00  0.00    -0.000 C 
BRANCH   6   7
ATOM      7  C   UNL     1      10.218 -18.534  19.266  1.00  0.00    -0.000 C 
BRANCH   7   8
ATOM      8  C   UNL     1       9.703 -17.099  19.062  1.00  0.00    -0.000 C 
BRANCH   8   9
ATOM      9  C   UNL     1       9.510 -16.340  20.387  1.00  0.00    -0.000 C 
BRANCH   9  10
ATOM     10  C   UNL     1       8.270 -15.425  20.438  1.00  0.00    -0.000 C 
BRANCH  10  11
ATOM     11  C   UNL     1       7.658 -15.081  19.068  1.00  0.00    -0.003 C 
ATOM     12  C   UNL     1       6.205 -15.533  18.933  1.00  0.00     0.004 C 
ENDBRANCH  10  11
ENDBRANCH   9  10
ENDBRANCH   8   9
ENDBRANCH   7   8
ENDBRANCH   6   7
ENDBRANCH   5   6
ENDBRANCH   4   5
ENDBRANCH   3   4
ENDBRANCH   2   3
ENDBRANCH   1   2
BRANCH   1  13
ATOM     13  C   UNL     1       8.380 -18.785  22.984  1.00  0.00     0.000 C 
BRANCH  13  14
ATOM     14  C   UNL     1       9.908 -18.944  22.967  1.00  0.00     0.000 C 
BRANCH  14  15
ATOM     15  C   UNL     1      10.355 -20.409  23.123  1.00  0.00     0.000 C 
BRANCH  15  16
ATOM     16  C   UNL     1      11.881 -20.573  23.034  1.00  0.00     0.000 C 
BRANCH  16  17
ATOM     17  C   UNL     1      12.515 -19.648  21.981  1.00  0.00     0.000 C 
BRANCH  17  18
ATOM     18  C   UNL     1      13.913 -19.158  22.393  1.00  0.00     0.000 C 
BRANCH  18  19
ATOM     19  C   UNL     1      14.249 -17.773  21.811  1.00  0.00     0.000 C 
BRANCH  19  20
ATOM     20  C   UNL     1      12.999 -17.003  21.358  1.00  0.00     0.006 C 
BRANCH  20  21
ATOM     21  C   UNL     1      13.335 -15.825  20.433  1.00  0.00     0.053 C 
BRANCH  21  22
ATOM     22  C   UNL     1      13.095 -14.524  21.133  1.00  0.00     0.041 C 
ATOM     23  O   UNL     1      12.087 -14.381  21.876  1.00  0.00    -0.550 OA
ATOM     24  O   UNL     1      13.965 -13.460  20.941  1.00  0.00    -0.550 OA
ENDBRANCH  21  22
ENDBRANCH  20  21
ENDBRANCH  19  20
ENDBRANCH  18  19
ENDBRANCH  17  18
ENDBRANCH  16  17
ENDBRANCH  15  16
ENDBRANCH  14  15
ENDBRANCH  13  14
ENDBRANCH   1  13
TORSDOF 20
ENDMDL
