MODEL 1
REMARK VINA RESULT:     0.000      0.000      0.000
REMARK INTER + INTRA:          -0.669
REMARK INTER:                   0.000
REMARK INTRA:                  -0.669
REMARK UNBOUND:                -0.669
REMARK SMILES CCCCCCCCO
REMARK SMILES IDX 5 1 4 2 3 3 2 4 1 5 6 6 7 7 8 8 9 9
REMARK H PARENT 9 10
REMARK Flexibility Score: inf
ROOT
ATOM      1  C   UNL     1       2.551  15.050 -47.685  1.00  0.00     0.000 C 
ENDROOT
BRANCH   1   2
ATOM      2  C   UNL     1       2.522  15.537 -49.141  1.00  0.00    -0.000 C 
BRANCH   2   3
ATOM      3  C   UNL     1       3.190  14.549 -50.111  1.00  0.00    -0.000 C 
BRANCH   3   4
ATOM      4  C   UNL     1       4.126  15.243 -51.110  1.00  0.00    -0.003 C 
ATOM      5  C   UNL     1       4.137  16.755 -50.894  1.00  0.00     0.004 C 
ENDBRANCH   3   4
ENDBRANCH   2   3
ENDBRANCH   1   2
BRANCH   1   6
ATOM      6  C   UNL     1       3.997  14.902 -47.185  1.00  0.00     0.002 C 
BRANCH   6   7
ATOM      7  C   UNL     1       4.748  16.241 -47.143  1.00  0.00     0.028 C 
BRANCH   7   8
ATOM      8  C   UNL     1       6.139  16.162 -47.784  1.00  0.00     0.156 C 
BRANCH   8   9
ATOM      9  O   UNL     1       6.334  14.898 -48.358  1.00  0.00    -0.396 OA
ATOM     10  H   UNL     1       7.305  14.702 -48.291  1.00  0.00     0.210 HD
ENDBRANCH   8   9
ENDBRANCH   7   8
ENDBRANCH   6   7
ENDBRANCH   1   6
TORSDOF 7
ENDMDL
MODEL 2
REMARK VINA RESULT:     0.000      6.533      7.670
REMARK INTER + INTRA:          -0.669
REMARK INTER:                   0.000
REMARK INTRA:                  -0.669
REMARK UNBOUND:                -0.669
REMARK SMILES CCCCCCCCO
REMARK SMILES IDX 5 1 4 2 3 3 2 4 1 5 6 6 7 7 8 8 9 9
REMARK H PARENT 9 10
REMARK Flexibility Score: inf
ROOT
ATOM      1  C   UNL     1       9.020   8.849 -51.105  1.00  0.00     0.000 C 
ENDROOT
BRANCH   1   2
ATOM      2  C   UNL     1      10.183   9.821 -50.857  1.00  0.00    -0.000 C 
BRANCH   2   3
ATOM      3  C   UNL     1      10.465  10.039 -49.361  1.00  0.00    -0.000 C 
BRANCH   3   4
ATOM      4  C   UNL     1      10.672  11.519 -49.008  1.00  0.00    -0.003 C 
ATOM      5  C   UNL     1      10.564  12.400 -50.249  1.00  0.00     0.004 C 
ENDBRANCH   3   4
ENDBRANCH   2   3
ENDBRANCH   1   2
BRANCH   1   6
ATOM      6  C   UNL     1       7.711   9.401 -50.521  1.00  0.00     0.002 C 
BRANCH   6   7
ATOM      7  C   UNL     1       7.260  10.702 -51.202  1.00  0.00     0.028 C 
BRANCH   7   8
ATOM      8  C   UNL     1       6.867  11.793 -50.197  1.00  0.00     0.156 C 
BRANCH   8   9
ATOM      9  O   UNL     1       7.132  11.362 -48.890  1.00  0.00    -0.396 OA
ATOM     10  H   UNL     1       7.764  10.601 -48.964  1.00  0.00     0.210 HD
ENDBRANCH   8   9
ENDBRANCH   7   8
ENDBRANCH   6   7
ENDBRANCH   1   6
TORSDOF 7
ENDMDL
MODEL 3
REMARK VINA RESULT:     0.000      5.003      6.310
REMARK INTER + INTRA:          -0.669
REMARK INTER:                   0.000
REMARK INTRA:                  -0.669
REMARK UNBOUND:                -0.669
REMARK SMILES CCCCCCCCO
REMARK SMILES IDX 5 1 4 2 3 3 2 4 1 5 6 6 7 7 8 8 9 9
REMARK H PARENT 9 10
REMARK Flexibility Score: inf
ROOT
ATOM      1  C   UNL     1       3.373   9.649 -45.253  1.00  0.00     0.000 C 
ENDROOT
BRANCH   1   2
ATOM      2  C   UNL     1       4.105  10.899 -45.764  1.00  0.00    -0.000 C 
BRANCH   2   3
ATOM      3  C   UNL     1       3.271  11.703 -46.775  1.00  0.00    -0.000 C 
BRANCH   3   4
ATOM      4  C   UNL     1       3.299  13.212 -46.496  1.00  0.00    -0.003 C 
ATOM      5  C   UNL     1       4.172  13.532 -45.285  1.00  0.00     0.004 C 
ENDBRANCH   3   4
ENDBRANCH   2   3
ENDBRANCH   1   2
BRANCH   1   6
ATOM      6  C   UNL     1       2.084  10.035 -44.510  1.00  0.00     0.002 C 
BRANCH   6   7
ATOM      7  C   UNL     1       2.356  10.848 -43.235  1.00  0.00     0.028 C 
BRANCH   7   8
ATOM      8  C   UNL     1       1.469  12.094 -43.126  1.00  0.00     0.156 C 
BRANCH   8   9
ATOM      9  O   UNL     1       0.701  12.243 -44.288  1.00  0.00    -0.396 OA
ATOM     10  H   UNL     1       0.422  13.195 -44.325  1.00  0.00     0.210 HD
ENDBRANCH   8   9
ENDBRANCH   7   8
ENDBRANCH   6   7
ENDBRANCH   1   6
TORSDOF 7
ENDMDL
MODEL 4
REMARK VINA RESULT:     0.000      7.601      8.633
REMARK INTER + INTRA:          -0.669
REMARK INTER:                   0.000
REMARK INTRA:                  -0.669
REMARK UNBOUND:                -0.669
REMARK SMILES CCCCCCCCO
REMARK SMILES IDX 5 1 4 2 3 3 2 4 1 5 6 6 7 7 8 8 9 9
REMARK H PARENT 9 10
REMARK Flexibility Score: inf
ROOT
ATOM      1  C   UNL     1       3.202  19.822 -54.541  1.00  0.00     0.000 C 
ENDROOT
BRANCH   1   2
ATOM      2  C   UNL     1       1.922  20.661 -54.412  1.00  0.00    -0.000 C 
BRANCH   2   3
ATOM      3  C   UNL     1       1.815  21.749 -55.492  1.00  0.00    -0.000 C 
BRANCH   3   4
ATOM      4  C   UNL     1       1.382  23.107 -54.922  1.00  0.00    -0.003 C 
ATOM      5  C   UNL     1       1.142  23.020 -53.417  1.00  0.00     0.004 C 
ENDBRANCH   3   4
ENDBRANCH   2   3
ENDBRANCH   1   2
BRANCH   1   6
ATOM      6  C   UNL     1       4.452  20.696 -54.353  1.00  0.00     0.002 C 
BRANCH   6   7
ATOM      7  C   UNL     1       4.540  21.309 -52.947  1.00  0.00     0.028 C 
BRANCH   7   8
ATOM      8  C   UNL     1       4.856  22.810 -52.972  1.00  0.00     0.156 C 
BRANCH   8   9
ATOM      9  O   UNL     1       4.867  23.277 -54.293  1.00  0.00    -0.396 OA
ATOM     10  H   UNL     1       4.259  22.687 -54.809  1.00  0.00     0.210 HD
ENDBRANCH   8   9
ENDBRANCH   7   8
ENDBRANCH   6   7
ENDBRANCH   1   6
TORSDOF 7
ENDMDL
MODEL 5
REMARK VINA RESULT:     0.000      6.140      8.009
REMARK INTER + INTRA:          -0.669
REMARK INTER:                   0.000
REMARK INTRA:                  -0.669
REMARK UNBOUND:                -0.669
REMARK SMILES CCCCCCCCO
REMARK SMILES IDX 5 1 4 2 3 3 2 4 1 5 6 6 7 7 8 8 9 9
REMARK H PARENT 9 10
REMARK Flexibility Score: inf
ROOT
ATOM      1  C   UNL     1       0.381  17.822 -42.803  1.00  0.00     0.000 C 
ENDROOT
BRANCH   1   2
ATOM      2  C   UNL     1       0.763  17.612 -41.330  1.00  0.00    -0.000 C 
BRANCH   2   3
ATOM      3  C   UNL     1       2.237  17.945 -41.046  1.00  0.00    -0.000 C 
BRANCH   3   4
ATOM      4  C   UNL     1       2.926  16.882 -40.178  1.00  0.00    -0.003 C 
ATOM      5  C   UNL     1       1.952  15.769 -39.795  1.00  0.00     0.004 C 
ENDBRANCH   3   4
ENDBRANCH   2   3
ENDBRANCH   1   2
BRANCH   1   6
ATOM      6  C   UNL     1       1.191  16.889 -43.717  1.00  0.00     0.002 C 
BRANCH   6   7
ATOM      7  C   UNL     1       0.891  15.404 -43.462  1.00  0.00     0.028 C 
BRANCH   7   8
ATOM      8  C   UNL     1       2.162  14.556 -43.334  1.00  0.00     0.156 C 
BRANCH   8   9
ATOM      9  O   UNL     1       3.296  15.378 -43.367  1.00  0.00    -0.396 OA
ATOM     10  H   UNL     1       3.247  15.963 -42.567  1.00  0.00     0.210 HD
ENDBRANCH   8   9
ENDBRANCH   7   8
ENDBRANCH   6   7
ENDBRANCH   1   6
TORSDOF 7
ENDMDL
MODEL 6
REMARK VINA RESULT:     0.000      3.628      5.238
REMARK INTER + INTRA:          -0.669
REMARK INTER:                   0.000
REMARK INTRA:                  -0.669
REMARK UNBOUND:                -0.669
REMARK SMILES CCCCCCCCO
REMARK SMILES IDX 5 1 4 2 3 3 2 4 1 5 6 6 7 7 8 8 9 9
REMARK H PARENT 9 10
REMARK Flexibility Score: inf
ROOT
ATOM      1  C   UNL     1       6.335  18.788 -49.776  1.00  0.00     0.000 C 
ENDROOT
BRANCH   1   2
ATOM      2  C   UNL     1       7.002  17.677 -48.951  1.00  0.00    -0.000 C 
BRANCH   2   3
ATOM      3  C   UNL     1       6.537  16.271 -49.365  1.00  0.00    -0.000 C 
BRANCH   3   4
ATOM      4  C   UNL     1       7.702  15.279 -49.499  1.00  0.00    -0.003 C 
ATOM      5  C   UNL     1       9.033  15.947 -49.164  1.00  0.00     0.004 C 
ENDBRANCH   3   4
ENDBRANCH   2   3
ENDBRANCH   1   2
BRANCH   1   6
ATOM      6  C   UNL     1       6.701  18.660 -51.263  1.00  0.00     0.002 C 
BRANCH   6   7
ATOM      7  C   UNL     1       8.203  18.854 -51.522  1.00  0.00     0.028 C 
BRANCH   7   8
ATOM      8  C   UNL     1       8.793  17.767 -52.429  1.00  0.00     0.156 C 
BRANCH   8   9
ATOM      9  O   UNL     1       7.827  16.791 -52.703  1.00  0.00    -0.396 OA
ATOM     10  H   UNL     1       6.958  17.264 -52.785  1.00  0.00     0.210 HD
ENDBRANCH   8   9
ENDBRANCH   7   8
ENDBRANCH   6   7
ENDBRANCH   1   6
TORSDOF 7
ENDMDL
MODEL 7
REMARK VINA RESULT:     0.000      3.486      4.936
REMARK INTER + INTRA:          -0.669
REMARK INTER:                   0.000
REMARK INTRA:                  -0.669
REMARK UNBOUND:                -0.669
REMARK SMILES CCCCCCCCO
REMARK SMILES IDX 5 1 4 2 3 3 2 4 1 5 6 6 7 7 8 8 9 9
REMARK H PARENT 9 10
REMARK Flexibility Score: inf
ROOT
ATOM      1  C   UNL     1       8.507  16.812 -45.779  1.00  0.00     0.000 C 
ENDROOT
BRANCH   1   2
ATOM      2  C   UNL     1       7.200  17.491 -45.343  1.00  0.00    -0.000 C 
BRANCH   2   3
ATOM      3  C   UNL     1       5.963  16.615 -45.598  1.00  0.00    -0.000 C 
BRANCH   3   4
ATOM      4  C   UNL     1       4.805  17.397 -46.234  1.00  0.00    -0.003 C 
ATOM      5  C   UNL     1       5.176  18.864 -46.433  1.00  0.00     0.004 C 
ENDBRANCH   3   4
ENDBRANCH   2   3
ENDBRANCH   1   2
BRANCH   1   6
ATOM      6  C   UNL     1       8.505  16.542 -47.292  1.00  0.00     0.002 C 
BRANCH   6   7
ATOM      7  C   UNL     1       8.460  17.832 -48.124  1.00  0.00     0.028 C 
BRANCH   7   8
ATOM      8  C   UNL     1       7.408  17.781 -49.240  1.00  0.00     0.156 C 
BRANCH   8   9
ATOM      9  O   UNL     1       6.663  16.599 -49.146  1.00  0.00    -0.396 OA
ATOM     10  H   UNL     1       6.099  16.682 -48.333  1.00  0.00     0.210 HD
ENDBRANCH   8   9
ENDBRANCH   7   8
ENDBRANCH   6   7
ENDBRANCH   1   6
TORSDOF 7
ENDMDL
MODEL 8
REMARK VINA RESULT:     0.000      6.761      8.138
REMARK INTER + INTRA:          -0.669
REMARK INTER:                   0.000
REMARK INTRA:                  -0.669
REMARK UNBOUND:                -0.669
REMARK SMILES CCCCCCCCO
REMARK SMILES IDX 5 1 4 2 3 3 2 4 1 5 6 6 7 7 8 8 9 9
REMARK H PARENT 9 10
REMARK Flexibility Score: inf
ROOT
ATOM      1  C   UNL     1       3.976  18.682 -41.334  1.00  0.00     0.000 C 
ENDROOT
BRANCH   1   2
ATOM      2  C   UNL     1       3.045  17.931 -42.298  1.00  0.00    -0.000 C 
BRANCH   2   3
ATOM      3  C   UNL     1       1.562  18.075 -41.921  1.00  0.00    -0.000 C 
BRANCH   3   4
ATOM      4  C   UNL     1       0.671  18.381 -43.134  1.00  0.00    -0.003 C 
ATOM      5  C   UNL     1       1.495  18.445 -44.418  1.00  0.00     0.004 C 
ENDBRANCH   3   4
ENDBRANCH   2   3
ENDBRANCH   1   2
BRANCH   1   6
ATOM      6  C   UNL     1       3.692  20.192 -41.364  1.00  0.00     0.002 C 
BRANCH   6   7
ATOM      7  C   UNL     1       3.988  20.824 -42.733  1.00  0.00     0.028 C 
BRANCH   7   8
ATOM      8  C   UNL     1       2.851  21.728 -43.227  1.00  0.00     0.156 C 
BRANCH   8   9
ATOM      9  O   UNL     1       1.764  21.661 -42.346  1.00  0.00    -0.396 OA
ATOM     10  H   UNL     1       1.151  22.401 -42.593  1.00  0.00     0.210 HD
ENDBRANCH   8   9
ENDBRANCH   7   8
ENDBRANCH   6   7
ENDBRANCH   1   6
TORSDOF 7
ENDMDL
MODEL 9
REMARK VINA RESULT:     0.000      8.939     10.541
REMARK INTER + INTRA:          -0.668
REMARK INTER:                   0.000
REMARK INTRA:                  -0.668
REMARK UNBOUND:                -0.669
REMARK SMILES CCCCCCCCO
REMARK SMILES IDX 5 1 4 2 3 3 2 4 1 5 6 6 7 7 8 8 9 9
REMARK H PARENT 9 10
REMARK Flexibility Score: inf
ROOT
ATOM      1  C   UNL     1       2.005  18.048 -41.014  1.00  0.00     0.000 C 
ENDROOT
BRANCH   1   2
ATOM      2  C   UNL     1       1.761  17.371 -39.658  1.00  0.00    -0.000 C 
BRANCH   2   3
ATOM      3  C   UNL     1       0.931  16.082 -39.779  1.00  0.00    -0.000 C 
BRANCH   3   4
ATOM      4  C   UNL     1      -0.178  15.992 -38.720  1.00  0.00    -0.003 C 
ATOM      5  C   UNL     1      -0.160  17.209 -37.800  1.00  0.00     0.004 C 
ENDBRANCH   3   4
ENDBRANCH   2   3
ENDBRANCH   1   2
BRANCH   1   6
ATOM      6  C   UNL     1       0.678  18.477 -41.659  1.00  0.00     0.002 C 
BRANCH   6   7
ATOM      7  C   UNL     1      -0.061  19.545 -40.839  1.00  0.00     0.028 C 
BRANCH   7   8
ATOM      8  C   UNL     1      -1.546  19.219 -40.641  1.00  0.00     0.156 C 
BRANCH   8   9
ATOM      9  O   UNL     1      -1.836  17.952 -41.166  1.00  0.00    -0.396 OA
ATOM     10  H   UNL     1      -2.334  17.460 -40.462  1.00  0.00     0.210 HD
ENDBRANCH   8   9
ENDBRANCH   7   8
ENDBRANCH   6   7
ENDBRANCH   1   6
TORSDOF 7
ENDMDL
