MODEL 1
REMARK VINA RESULT:    -2.910      0.000      0.000
REMARK INTER + INTRA:          -3.438
REMARK INTER:                  -3.421
REMARK INTRA:                  -0.017
REMARK UNBOUND:                -0.017
REMARK SMILES CCCCC(=O)[O-]
REMARK SMILES IDX 4 1 5 2 6 3 7 4 3 5 2 6 1 7
REMARK H PARENT
REMARK Flexibility Score: inf
ROOT
ATOM      1  C   UNL     1      22.833   3.153  25.995  1.00  0.00     0.053 C 
ENDROOT
BRANCH   1   2
ATOM      2  C   UNL     1      24.001   3.946  26.496  1.00  0.00     0.041 C 
ATOM      3  O   UNL     1      23.814   5.012  27.138  1.00  0.00    -0.550 OA
ATOM      4  O   UNL     1      25.296   3.488  26.283  1.00  0.00    -0.550 OA
ENDBRANCH   1   2
BRANCH   1   5
ATOM      5  C   UNL     1      22.866   2.983  24.468  1.00  0.00     0.006 C 
BRANCH   5   6
ATOM      6  C   UNL     1      21.544   2.473  23.862  1.00  0.00    -0.003 C 
ATOM      7  C   UNL     1      21.154   1.086  24.370  1.00  0.00     0.004 C 
ENDBRANCH   5   6
ENDBRANCH   1   5
TORSDOF 3
ENDMDL
MODEL 2
REMARK VINA RESULT:    -2.906      3.244      3.661
REMARK INTER + INTRA:          -3.433
REMARK INTER:                  -3.331
REMARK INTRA:                  -0.102
REMARK UNBOUND:                -0.017
REMARK SMILES CCCCC(=O)[O-]
REMARK SMILES IDX 4 1 5 2 6 3 7 4 3 5 2 6 1 7
REMARK H PARENT
REMARK Flexibility Score: inf
ROOT
ATOM      1  C   UNL     1      21.608   3.771  24.298  1.00  0.00     0.053 C 
ENDROOT
BRANCH   1   2
ATOM      2  C   UNL     1      20.375   4.622  24.310  1.00  0.00     0.041 C 
ATOM      3  O   UNL     1      20.440   5.835  23.980  1.00  0.00    -0.550 OA
ATOM      4  O   UNL     1      19.148   4.066  24.653  1.00  0.00    -0.550 OA
ENDBRANCH   1   2
BRANCH   1   5
ATOM      5  C   UNL     1      21.400   2.467  23.510  1.00  0.00     0.006 C 
BRANCH   5   6
ATOM      6  C   UNL     1      21.364   1.201  24.386  1.00  0.00    -0.003 C 
ATOM      7  C   UNL     1      21.636   1.490  25.861  1.00  0.00     0.004 C 
ENDBRANCH   5   6
ENDBRANCH   1   5
TORSDOF 3
ENDMDL
MODEL 3
REMARK VINA RESULT:    -2.886      0.084      1.226
REMARK INTER + INTRA:          -3.409
REMARK INTER:                  -3.390
REMARK INTRA:                  -0.019
REMARK UNBOUND:                -0.017
REMARK SMILES CCCCC(=O)[O-]
REMARK SMILES IDX 4 1 5 2 6 3 7 4 3 5 2 6 1 7
REMARK H PARENT
REMARK Flexibility Score: inf
ROOT
ATOM      1  C   UNL     1      22.822   3.098  25.957  1.00  0.00     0.053 C 
ENDROOT
BRANCH   1   2
ATOM      2  C   UNL     1      24.000   3.847  26.501  1.00  0.00     0.041 C 
ATOM      3  O   UNL     1      25.169   3.433  26.284  1.00  0.00    -0.550 OA
ATOM      4  O   UNL     1      23.808   5.021  27.219  1.00  0.00    -0.550 OA
ENDBRANCH   1   2
BRANCH   1   5
ATOM      5  C   UNL     1      22.851   3.015  24.423  1.00  0.00     0.006 C 
BRANCH   5   6
ATOM      6  C   UNL     1      21.561   2.454  23.798  1.00  0.00    -0.003 C 
ATOM      7  C   UNL     1      21.182   1.080  24.348  1.00  0.00     0.004 C 
ENDBRANCH   5   6
ENDBRANCH   1   5
TORSDOF 3
ENDMDL
MODEL 4
REMARK VINA RESULT:    -2.867      2.885      3.577
REMARK INTER + INTRA:          -3.386
REMARK INTER:                  -3.286
REMARK INTRA:                  -0.101
REMARK UNBOUND:                -0.017
REMARK SMILES CCCCC(=O)[O-]
REMARK SMILES IDX 4 1 5 2 6 3 7 4 3 5 2 6 1 7
REMARK H PARENT
REMARK Flexibility Score: inf
ROOT
ATOM      1  C   UNL     1      20.030   1.738  25.493  1.00  0.00     0.053 C 
ENDROOT
BRANCH   1   2
ATOM      2  C   UNL     1      20.538   1.519  26.885  1.00  0.00     0.041 C 
ATOM      3  O   UNL     1      19.761   1.106  27.786  1.00  0.00    -0.550 OA
ATOM      4  O   UNL     1      21.878   1.739  27.180  1.00  0.00    -0.550 OA
ENDBRANCH   1   2
BRANCH   1   5
ATOM      5  C   UNL     1      21.018   1.226  24.433  1.00  0.00     0.006 C 
BRANCH   5   6
ATOM      6  C   UNL     1      21.739   2.341  23.653  1.00  0.00    -0.003 C 
ATOM      7  C   UNL     1      21.157   3.727  23.923  1.00  0.00     0.004 C 
ENDBRANCH   5   6
ENDBRANCH   1   5
TORSDOF 3
ENDMDL
MODEL 5
REMARK VINA RESULT:    -2.845      3.325      4.043
REMARK INTER + INTRA:          -3.361
REMARK INTER:                  -3.298
REMARK INTRA:                  -0.063
REMARK UNBOUND:                -0.017
REMARK SMILES CCCCC(=O)[O-]
REMARK SMILES IDX 4 1 5 2 6 3 7 4 3 5 2 6 1 7
REMARK H PARENT
REMARK Flexibility Score: inf
ROOT
ATOM      1  C   UNL     1      21.396   3.074  23.595  1.00  0.00     0.053 C 
ENDROOT
BRANCH   1   2
ATOM      2  C   UNL     1      21.412   1.844  24.450  1.00  0.00     0.041 C 
ATOM      3  O   UNL     1      20.928   0.765  24.019  1.00  0.00    -0.550 OA
ATOM      4  O   UNL     1      21.993   1.881  25.712  1.00  0.00    -0.550 OA
ENDBRANCH   1   2
BRANCH   1   5
ATOM      5  C   UNL     1      20.922   4.311  24.374  1.00  0.00     0.006 C 
BRANCH   5   6
ATOM      6  C   UNL     1      19.395   4.391  24.561  1.00  0.00    -0.003 C 
ATOM      7  C   UNL     1      18.806   5.716  24.082  1.00  0.00     0.004 C 
ENDBRANCH   5   6
ENDBRANCH   1   5
TORSDOF 3
ENDMDL
MODEL 6
REMARK VINA RESULT:    -2.822      3.467      4.156
REMARK INTER + INTRA:          -3.334
REMARK INTER:                  -3.227
REMARK INTRA:                  -0.108
REMARK UNBOUND:                -0.017
REMARK SMILES CCCCC(=O)[O-]
REMARK SMILES IDX 4 1 5 2 6 3 7 4 3 5 2 6 1 7
REMARK H PARENT
REMARK Flexibility Score: inf
ROOT
ATOM      1  C   UNL     1      20.825   4.541  24.055  1.00  0.00     0.053 C 
ENDROOT
BRANCH   1   2
ATOM      2  C   UNL     1      19.396   4.562  24.503  1.00  0.00     0.041 C 
ATOM      3  O   UNL     1      18.954   3.655  25.255  1.00  0.00    -0.550 OA
ATOM      4  O   UNL     1      18.561   5.604  24.117  1.00  0.00    -0.550 OA
ENDBRANCH   1   2
BRANCH   1   5
ATOM      5  C   UNL     1      21.637   3.451  24.772  1.00  0.00     0.006 C 
BRANCH   5   6
ATOM      6  C   UNL     1      21.940   2.216  23.903  1.00  0.00    -0.003 C 
ATOM      7  C   UNL     1      21.090   1.003  24.276  1.00  0.00     0.004 C 
ENDBRANCH   5   6
ENDBRANCH   1   5
TORSDOF 3
ENDMDL
MODEL 7
REMARK VINA RESULT:    -2.806      2.307      3.149
REMARK INTER + INTRA:          -3.315
REMARK INTER:                  -3.190
REMARK INTRA:                  -0.125
REMARK UNBOUND:                -0.017
REMARK SMILES CCCCC(=O)[O-]
REMARK SMILES IDX 4 1 5 2 6 3 7 4 3 5 2 6 1 7
REMARK H PARENT
REMARK Flexibility Score: inf
ROOT
ATOM      1  C   UNL     1      21.622   2.243  23.663  1.00  0.00     0.053 C 
ENDROOT
BRANCH   1   2
ATOM      2  C   UNL     1      21.804   3.564  24.345  1.00  0.00     0.041 C 
ATOM      3  O   UNL     1      22.700   3.709  25.218  1.00  0.00    -0.550 OA
ATOM      4  O   UNL     1      21.005   4.646  23.993  1.00  0.00    -0.550 OA
ENDBRANCH   1   2
BRANCH   1   5
ATOM      5  C   UNL     1      21.104   1.164  24.627  1.00  0.00     0.006 C 
BRANCH   5   6
ATOM      6  C   UNL     1      19.902   1.607  25.482  1.00  0.00    -0.003 C 
ATOM      7  C   UNL     1      20.186   1.548  26.981  1.00  0.00     0.004 C 
ENDBRANCH   5   6
ENDBRANCH   1   5
TORSDOF 3
ENDMDL
MODEL 8
REMARK VINA RESULT:    -2.736      1.397      1.479
REMARK INTER + INTRA:          -3.232
REMARK INTER:                  -3.137
REMARK INTRA:                  -0.095
REMARK UNBOUND:                -0.017
REMARK SMILES CCCCC(=O)[O-]
REMARK SMILES IDX 4 1 5 2 6 3 7 4 3 5 2 6 1 7
REMARK H PARENT
REMARK Flexibility Score: inf
ROOT
ATOM      1  C   UNL     1      21.753   3.797  25.795  1.00  0.00     0.053 C 
ENDROOT
BRANCH   1   2
ATOM      2  C   UNL     1      22.941   3.195  26.479  1.00  0.00     0.041 C 
ATOM      3  O   UNL     1      22.791   2.249  27.296  1.00  0.00    -0.550 OA
ATOM      4  O   UNL     1      24.220   3.658  26.190  1.00  0.00    -0.550 OA
ENDBRANCH   1   2
BRANCH   1   5
ATOM      5  C   UNL     1      21.761   3.525  24.282  1.00  0.00     0.006 C 
BRANCH   5   6
ATOM      6  C   UNL     1      22.119   2.075  23.905  1.00  0.00    -0.003 C 
ATOM      7  C   UNL     1      20.989   1.089  24.194  1.00  0.00     0.004 C 
ENDBRANCH   5   6
ENDBRANCH   1   5
TORSDOF 3
ENDMDL
MODEL 9
REMARK VINA RESULT:    -2.534      2.943      3.417
REMARK INTER + INTRA:          -2.995
REMARK INTER:                  -2.867
REMARK INTRA:                  -0.128
REMARK UNBOUND:                -0.017
REMARK SMILES CCCCC(=O)[O-]
REMARK SMILES IDX 4 1 5 2 6 3 7 4 3 5 2 6 1 7
REMARK H PARENT
REMARK Flexibility Score: inf
ROOT
ATOM      1  C   UNL     1      21.239   3.986  24.032  1.00  0.00     0.053 C 
ENDROOT
BRANCH   1   2
ATOM      2  C   UNL     1      21.965   2.737  24.425  1.00  0.00     0.041 C 
ATOM      3  O   UNL     1      22.974   2.799  25.176  1.00  0.00    -0.550 OA
ATOM      4  O   UNL     1      21.508   1.499  23.989  1.00  0.00    -0.550 OA
ENDBRANCH   1   2
BRANCH   1   5
ATOM      5  C   UNL     1      19.779   3.979  24.513  1.00  0.00     0.006 C 
BRANCH   5   6
ATOM      6  C   UNL     1      19.606   3.604  25.997  1.00  0.00    -0.003 C 
ATOM      7  C   UNL     1      18.628   2.450  26.208  1.00  0.00     0.004 C 
ENDBRANCH   5   6
ENDBRANCH   1   5
TORSDOF 3
ENDMDL
