MODEL 1
REMARK VINA RESULT:    -4.934      0.000      0.000
REMARK INTER + INTRA:          -7.713
REMARK INTER:                  -6.808
REMARK INTRA:                  -0.904
REMARK UNBOUND:                -0.904
REMARK SMILES OC[C@@H](O)[C@H](O)[C@@H](O)CO
REMARK SMILES IDX 5 1 7 2 9 3 10 4 8 6 3 8 2 9 1 10 4 12 6 14
REMARK H PARENT 10 5 8 7 1 11 4 13 6 15
REMARK Flexibility Score: inf
ROOT
ATOM      1  C   UNL     1     203.108 202.640 241.517  1.00  0.00     0.176 C 
ENDROOT
BRANCH   1   2
ATOM      2  C   UNL     1     203.999 202.709 242.788  1.00  0.00     0.171 C 
BRANCH   2   3
ATOM      3  C   UNL     1     203.956 204.115 243.406  1.00  0.00     0.190 C 
BRANCH   3   4
ATOM      4  O   UNL     1     204.671 205.011 242.601  1.00  0.00    -0.394 OA
ATOM      5  H   UNL     1     205.608 204.686 242.593  1.00  0.00     0.210 HD
ENDBRANCH   3   4
ENDBRANCH   2   3
BRANCH   2   6
ATOM      6  O   UNL     1     205.328 202.382 242.471  1.00  0.00    -0.388 OA
ATOM      7  H   UNL     1     205.385 201.391 242.435  1.00  0.00     0.211 HD
ENDBRANCH   2   6
ENDBRANCH   1   2
BRANCH   1   8
ATOM      8  C   UNL     1     203.875 202.682 240.162  1.00  0.00     0.171 C 
BRANCH   8   9
ATOM      9  C   UNL     1     203.075 202.188 238.942  1.00  0.00     0.190 C 
BRANCH   9  10
ATOM     10  O   UNL     1     201.964 203.019 238.746  1.00  0.00    -0.394 OA
ATOM     11  H   UNL     1     201.368 202.873 239.527  1.00  0.00     0.210 HD
ENDBRANCH   9  10
ENDBRANCH   8   9
BRANCH   8  12
ATOM     12  O   UNL     1     204.399 203.966 239.928  1.00  0.00    -0.388 OA
ATOM     13  H   UNL     1     203.673 204.529 239.554  1.00  0.00     0.211 HD
ENDBRANCH   8  12
ENDBRANCH   1   8
BRANCH   1  14
ATOM     14  O   UNL     1     202.092 203.614 241.552  1.00  0.00    -0.388 OA
ATOM     15  H   UNL     1     201.731 203.650 242.475  1.00  0.00     0.211 HD
ENDBRANCH   1  14
TORSDOF 9
ENDMDL
MODEL 2
REMARK VINA RESULT:    -4.918      1.551      2.233
REMARK INTER + INTRA:          -7.691
REMARK INTER:                  -6.992
REMARK INTRA:                  -0.699
REMARK UNBOUND:                -0.904
REMARK SMILES OC[C@@H](O)[C@H](O)[C@@H](O)CO
REMARK SMILES IDX 5 1 7 2 9 3 10 4 8 6 3 8 2 9 1 10 4 12 6 14
REMARK H PARENT 10 5 8 7 1 11 4 13 6 15
REMARK Flexibility Score: inf
ROOT
ATOM      1  C   UNL     1     203.586 203.241 241.820  1.00  0.00     0.176 C 
ENDROOT
BRANCH   1   2
ATOM      2  C   UNL     1     204.135 202.143 242.772  1.00  0.00     0.171 C 
BRANCH   2   3
ATOM      3  C   UNL     1     204.406 202.722 244.170  1.00  0.00     0.190 C 
BRANCH   3   4
ATOM      4  O   UNL     1     205.176 201.822 244.917  1.00  0.00    -0.394 OA
ATOM      5  H   UNL     1     205.813 202.373 245.441  1.00  0.00     0.210 HD
ENDBRANCH   3   4
ENDBRANCH   2   3
BRANCH   2   6
ATOM      6  O   UNL     1     205.324 201.600 242.257  1.00  0.00    -0.388 OA
ATOM      7  H   UNL     1     205.977 202.345 242.178  1.00  0.00     0.211 HD
ENDBRANCH   2   6
ENDBRANCH   1   2
BRANCH   1   8
ATOM      8  C   UNL     1     203.043 202.727 240.453  1.00  0.00     0.171 C 
BRANCH   8   9
ATOM      9  C   UNL     1     203.965 202.985 239.246  1.00  0.00     0.190 C 
BRANCH   9  10
ATOM     10  O   UNL     1     205.110 202.184 239.354  1.00  0.00    -0.394 OA
ATOM     11  H   UNL     1     204.838 201.382 239.871  1.00  0.00     0.210 HD
ENDBRANCH   9  10
ENDBRANCH   8   9
BRANCH   8  12
ATOM     12  O   UNL     1     202.700 201.366 240.536  1.00  0.00    -0.388 OA
ATOM     13  H   UNL     1     201.805 201.301 240.957  1.00  0.00     0.211 HD
ENDBRANCH   8  12
ENDBRANCH   1   8
BRANCH   1  14
ATOM     14  O   UNL     1     204.525 204.273 241.635  1.00  0.00    -0.388 OA
ATOM     15  H   UNL     1     204.321 204.995 242.283  1.00  0.00     0.211 HD
ENDBRANCH   1  14
TORSDOF 9
ENDMDL
MODEL 3
REMARK VINA RESULT:    -4.858      1.244      3.659
REMARK INTER + INTRA:          -7.608
REMARK INTER:                  -6.868
REMARK INTRA:                  -0.741
REMARK UNBOUND:                -0.904
REMARK SMILES OC[C@@H](O)[C@H](O)[C@@H](O)CO
REMARK SMILES IDX 5 1 7 2 9 3 10 4 8 6 3 8 2 9 1 10 4 12 6 14
REMARK H PARENT 10 5 8 7 1 11 4 13 6 15
REMARK Flexibility Score: inf
ROOT
ATOM      1  C   UNL     1     203.236 202.928 240.921  1.00  0.00     0.176 C 
ENDROOT
BRANCH   1   2
ATOM      2  C   UNL     1     204.073 203.206 239.642  1.00  0.00     0.171 C 
BRANCH   2   3
ATOM      3  C   UNL     1     203.156 203.434 238.431  1.00  0.00     0.190 C 
BRANCH   3   4
ATOM      4  O   UNL     1     201.860 202.990 238.724  1.00  0.00    -0.394 OA
ATOM      5  H   UNL     1     201.747 203.098 239.704  1.00  0.00     0.210 HD
ENDBRANCH   3   4
ENDBRANCH   2   3
BRANCH   2   6
ATOM      6  O   UNL     1     204.932 202.127 239.376  1.00  0.00    -0.388 OA
ATOM      7  H   UNL     1     204.383 201.299 239.411  1.00  0.00     0.211 HD
ENDBRANCH   2   6
ENDBRANCH   1   2
BRANCH   1   8
ATOM      8  C   UNL     1     203.859 203.446 242.251  1.00  0.00     0.171 C 
BRANCH   8   9
ATOM      9  C   UNL     1     204.603 202.383 243.081  1.00  0.00     0.190 C 
BRANCH   9  10
ATOM     10  O   UNL     1     205.450 201.645 242.242  1.00  0.00    -0.394 OA
ATOM     11  H   UNL     1     206.207 202.246 242.017  1.00  0.00     0.210 HD
ENDBRANCH   9  10
ENDBRANCH   8   9
BRANCH   8  12
ATOM     12  O   UNL     1     204.685 204.559 242.012  1.00  0.00    -0.388 OA
ATOM     13  H   UNL     1     204.646 204.766 241.043  1.00  0.00     0.211 HD
ENDBRANCH   8  12
ENDBRANCH   1   8
BRANCH   1  14
ATOM     14  O   UNL     1     202.893 201.566 241.020  1.00  0.00    -0.388 OA
ATOM     15  H   UNL     1     202.216 201.367 240.323  1.00  0.00     0.211 HD
ENDBRANCH   1  14
TORSDOF 9
ENDMDL
MODEL 4
REMARK VINA RESULT:    -4.851      1.621      2.790
REMARK INTER + INTRA:          -7.599
REMARK INTER:                  -6.729
REMARK INTRA:                  -0.870
REMARK UNBOUND:                -0.904
REMARK SMILES OC[C@@H](O)[C@H](O)[C@@H](O)CO
REMARK SMILES IDX 5 1 7 2 9 3 10 4 8 6 3 8 2 9 1 10 4 12 6 14
REMARK H PARENT 10 5 8 7 1 11 4 13 6 15
REMARK Flexibility Score: inf
ROOT
ATOM      1  C   UNL     1     203.870 203.094 241.386  1.00  0.00     0.176 C 
ENDROOT
BRANCH   1   2
ATOM      2  C   UNL     1     202.904 203.317 242.582  1.00  0.00     0.171 C 
BRANCH   2   3
ATOM      3  C   UNL     1     202.725 202.019 243.386  1.00  0.00     0.190 C 
BRANCH   3   4
ATOM      4  O   UNL     1     202.074 201.059 242.601  1.00  0.00    -0.394 OA
ATOM      5  H   UNL     1     202.730 200.329 242.458  1.00  0.00     0.210 HD
ENDBRANCH   3   4
ENDBRANCH   2   3
BRANCH   2   6
ATOM      6  O   UNL     1     201.650 203.754 242.123  1.00  0.00    -0.388 OA
ATOM      7  H   UNL     1     201.571 203.471 241.174  1.00  0.00     0.211 HD
ENDBRANCH   2   6
ENDBRANCH   1   2
BRANCH   1   8
ATOM      8  C   UNL     1     203.186 202.964 239.993  1.00  0.00     0.171 C 
BRANCH   8   9
ATOM      9  C   UNL     1     204.069 203.354 238.793  1.00  0.00     0.190 C 
BRANCH   9  10
ATOM     10  O   UNL     1     205.213 202.545 238.772  1.00  0.00    -0.394 OA
ATOM     11  H   UNL     1     205.044 201.845 238.089  1.00  0.00     0.210 HD
ENDBRANCH   9  10
ENDBRANCH   8   9
BRANCH   8  12
ATOM     12  O   UNL     1     202.654 201.673 239.820  1.00  0.00    -0.388 OA
ATOM     13  H   UNL     1     201.774 201.641 240.276  1.00  0.00     0.211 HD
ENDBRANCH   8  12
ENDBRANCH   1   8
BRANCH   1  14
ATOM     14  O   UNL     1     204.739 202.013 241.626  1.00  0.00    -0.388 OA
ATOM     15  H   UNL     1     204.217 201.288 242.056  1.00  0.00     0.211 HD
ENDBRANCH   1  14
TORSDOF 9
ENDMDL
MODEL 5
REMARK VINA RESULT:    -4.760      1.468      3.622
REMARK INTER + INTRA:          -7.473
REMARK INTER:                  -6.534
REMARK INTRA:                  -0.939
REMARK UNBOUND:                -0.904
REMARK SMILES OC[C@@H](O)[C@H](O)[C@@H](O)CO
REMARK SMILES IDX 5 1 7 2 9 3 10 4 8 6 3 8 2 9 1 10 4 12 6 14
REMARK H PARENT 10 5 8 7 1 11 4 13 6 15
REMARK Flexibility Score: inf
ROOT
ATOM      1  C   UNL     1     203.984 202.821 241.176  1.00  0.00     0.176 C 
ENDROOT
BRANCH   1   2
ATOM      2  C   UNL     1     203.316 202.736 239.776  1.00  0.00     0.171 C 
BRANCH   2   3
ATOM      3  C   UNL     1     204.234 203.332 238.698  1.00  0.00     0.190 C 
BRANCH   3   4
ATOM      4  O   UNL     1     203.939 204.690 238.518  1.00  0.00    -0.394 OA
ATOM      5  H   UNL     1     204.650 205.192 238.994  1.00  0.00     0.210 HD
ENDBRANCH   3   4
ENDBRANCH   2   3
BRANCH   2   6
ATOM      6  O   UNL     1     202.092 203.427 239.776  1.00  0.00    -0.388 OA
ATOM      7  H   UNL     1     201.507 202.987 240.447  1.00  0.00     0.211 HD
ENDBRANCH   2   6
ENDBRANCH   1   2
BRANCH   1   8
ATOM      8  C   UNL     1     203.219 202.100 242.324  1.00  0.00     0.171 C 
BRANCH   8   9
ATOM      9  C   UNL     1     202.462 203.031 243.290  1.00  0.00     0.190 C 
BRANCH   9  10
ATOM     10  O   UNL     1     201.512 203.772 242.574  1.00  0.00    -0.394 OA
ATOM     11  H   UNL     1     201.144 204.439 243.211  1.00  0.00     0.210 HD
ENDBRANCH   9  10
ENDBRANCH   8   9
BRANCH   8  12
ATOM     12  O   UNL     1     202.359 201.115 241.806  1.00  0.00    -0.388 OA
ATOM     13  H   UNL     1     201.982 201.455 240.954  1.00  0.00     0.211 HD
ENDBRANCH   8  12
ENDBRANCH   1   8
BRANCH   1  14
ATOM     14  O   UNL     1     204.276 204.154 241.522  1.00  0.00    -0.388 OA
ATOM     15  H   UNL     1     205.135 204.164 242.016  1.00  0.00     0.211 HD
ENDBRANCH   1  14
TORSDOF 9
ENDMDL
MODEL 6
REMARK VINA RESULT:    -4.743      1.094      3.991
REMARK INTER + INTRA:          -7.450
REMARK INTER:                  -6.544
REMARK INTRA:                  -0.905
REMARK UNBOUND:                -0.904
REMARK SMILES OC[C@@H](O)[C@H](O)[C@@H](O)CO
REMARK SMILES IDX 5 1 7 2 9 3 10 4 8 6 3 8 2 9 1 10 4 12 6 14
REMARK H PARENT 10 5 8 7 1 11 4 13 6 15
REMARK Flexibility Score: inf
ROOT
ATOM      1  C   UNL     1     203.877 202.178 242.355  1.00  0.00     0.176 C 
ENDROOT
BRANCH   1   2
ATOM      2  C   UNL     1     202.997 202.426 241.099  1.00  0.00     0.171 C 
BRANCH   2   3
ATOM      3  C   UNL     1     203.872 202.724 239.872  1.00  0.00     0.190 C 
BRANCH   3   4
ATOM      4  O   UNL     1     204.407 204.014 239.970  1.00  0.00    -0.394 OA
ATOM      5  H   UNL     1     204.218 204.457 239.102  1.00  0.00     0.210 HD
ENDBRANCH   3   4
ENDBRANCH   2   3
BRANCH   2   6
ATOM      6  O   UNL     1     202.125 203.507 241.319  1.00  0.00    -0.388 OA
ATOM      7  H   UNL     1     201.880 203.494 242.282  1.00  0.00     0.211 HD
ENDBRANCH   2   6
ENDBRANCH   1   2
BRANCH   1   8
ATOM      8  C   UNL     1     203.863 203.319 243.415  1.00  0.00     0.171 C 
BRANCH   8   9
ATOM      9  C   UNL     1     204.230 202.885 244.847  1.00  0.00     0.190 C 
BRANCH   9  10
ATOM     10  O   UNL     1     205.172 201.849 244.793  1.00  0.00    -0.394 OA
ATOM     11  H   UNL     1     205.919 202.183 244.232  1.00  0.00     0.210 HD
ENDBRANCH   9  10
ENDBRANCH   8   9
BRANCH   8  12
ATOM     12  O   UNL     1     204.669 204.393 242.998  1.00  0.00    -0.388 OA
ATOM     13  H   UNL     1     204.919 204.918 243.802  1.00  0.00     0.211 HD
ENDBRANCH   8  12
ENDBRANCH   1   8
BRANCH   1  14
ATOM     14  O   UNL     1     205.195 201.838 241.995  1.00  0.00    -0.388 OA
ATOM     15  H   UNL     1     205.739 202.667 241.999  1.00  0.00     0.211 HD
ENDBRANCH   1  14
TORSDOF 9
ENDMDL
MODEL 7
REMARK VINA RESULT:    -4.712      1.766      2.594
REMARK INTER + INTRA:          -7.407
REMARK INTER:                  -6.588
REMARK INTRA:                  -0.819
REMARK UNBOUND:                -0.904
REMARK SMILES OC[C@@H](O)[C@H](O)[C@@H](O)CO
REMARK SMILES IDX 5 1 7 2 9 3 10 4 8 6 3 8 2 9 1 10 4 12 6 14
REMARK H PARENT 10 5 8 7 1 11 4 13 6 15
REMARK Flexibility Score: inf
ROOT
ATOM      1  C   UNL     1     204.070 202.600 242.613  1.00  0.00     0.176 C 
ENDROOT
BRANCH   1   2
ATOM      2  C   UNL     1     203.015 202.014 243.592  1.00  0.00     0.171 C 
BRANCH   2   3
ATOM      3  C   UNL     1     203.637 201.763 244.974  1.00  0.00     0.190 C 
BRANCH   3   4
ATOM      4  O   UNL     1     205.016 202.003 244.927  1.00  0.00    -0.394 OA
ATOM      5  H   UNL     1     205.402 201.282 244.365  1.00  0.00     0.210 HD
ENDBRANCH   3   4
ENDBRANCH   2   3
BRANCH   2   6
ATOM      6  O   UNL     1     202.499 200.807 243.089  1.00  0.00    -0.388 OA
ATOM      7  H   UNL     1     201.531 200.952 242.916  1.00  0.00     0.211 HD
ENDBRANCH   2   6
ENDBRANCH   1   2
BRANCH   1   8
ATOM      8  C   UNL     1     203.489 203.310 241.354  1.00  0.00     0.171 C 
BRANCH   8   9
ATOM      9  C   UNL     1     203.629 202.525 240.037  1.00  0.00     0.190 C 
BRANCH   9  10
ATOM     10  O   UNL     1     202.800 201.395 240.077  1.00  0.00    -0.394 OA
ATOM     11  H   UNL     1     202.175 201.484 239.311  1.00  0.00     0.210 HD
ENDBRANCH   9  10
ENDBRANCH   8   9
BRANCH   8  12
ATOM     12  O   UNL     1     202.151 203.686 241.570  1.00  0.00    -0.388 OA
ATOM     13  H   UNL     1     201.725 202.990 242.133  1.00  0.00     0.211 HD
ENDBRANCH   8  12
ENDBRANCH   1   8
BRANCH   1  14
ATOM     14  O   UNL     1     205.024 201.630 242.250  1.00  0.00    -0.388 OA
ATOM     15  H   UNL     1     204.581 200.743 242.263  1.00  0.00     0.211 HD
ENDBRANCH   1  14
TORSDOF 9
ENDMDL
MODEL 8
REMARK VINA RESULT:    -4.695      1.194      3.821
REMARK INTER + INTRA:          -7.384
REMARK INTER:                  -6.503
REMARK INTRA:                  -0.881
REMARK UNBOUND:                -0.904
REMARK SMILES OC[C@@H](O)[C@H](O)[C@@H](O)CO
REMARK SMILES IDX 5 1 7 2 9 3 10 4 8 6 3 8 2 9 1 10 4 12 6 14
REMARK H PARENT 10 5 8 7 1 11 4 13 6 15
REMARK Flexibility Score: inf
ROOT
ATOM      1  C   UNL     1     203.371 202.350 241.599  1.00  0.00     0.176 C 
ENDROOT
BRANCH   1   2
ATOM      2  C   UNL     1     203.324 203.109 240.243  1.00  0.00     0.171 C 
BRANCH   2   3
ATOM      3  C   UNL     1     203.696 202.172 239.083  1.00  0.00     0.190 C 
BRANCH   3   4
ATOM      4  O   UNL     1     205.088 202.038 239.006  1.00  0.00    -0.394 OA
ATOM      5  H   UNL     1     205.457 202.552 239.771  1.00  0.00     0.210 HD
ENDBRANCH   3   4
ENDBRANCH   2   3
BRANCH   2   6
ATOM      6  O   UNL     1     204.212 204.198 240.262  1.00  0.00    -0.388 OA
ATOM      7  H   UNL     1     204.345 204.452 241.213  1.00  0.00     0.211 HD
ENDBRANCH   2   6
ENDBRANCH   1   2
BRANCH   1   8
ATOM      8  C   UNL     1     202.728 203.099 242.803  1.00  0.00     0.171 C 
BRANCH   8   9
ATOM      9  C   UNL     1     203.727 203.777 243.760  1.00  0.00     0.190 C 
BRANCH   9  10
ATOM     10  O   UNL     1     204.511 204.692 243.044  1.00  0.00    -0.394 OA
ATOM     11  H   UNL     1     204.196 204.649 242.104  1.00  0.00     0.210 HD
ENDBRANCH   9  10
ENDBRANCH   8   9
BRANCH   8  12
ATOM     12  O   UNL     1     201.762 204.020 242.358  1.00  0.00    -0.388 OA
ATOM     13  H   UNL     1     200.913 203.826 242.830  1.00  0.00     0.211 HD
ENDBRANCH   8  12
ENDBRANCH   1   8
BRANCH   1  14
ATOM     14  O   UNL     1     204.679 201.931 241.904  1.00  0.00    -0.388 OA
ATOM     15  H   UNL     1     204.904 201.168 241.313  1.00  0.00     0.211 HD
ENDBRANCH   1  14
TORSDOF 9
ENDMDL
MODEL 9
REMARK VINA RESULT:    -4.602      1.434      2.119
REMARK INTER + INTRA:          -7.255
REMARK INTER:                  -6.368
REMARK INTRA:                  -0.887
REMARK UNBOUND:                -0.904
REMARK SMILES OC[C@@H](O)[C@H](O)[C@@H](O)CO
REMARK SMILES IDX 5 1 7 2 9 3 10 4 8 6 3 8 2 9 1 10 4 12 6 14
REMARK H PARENT 10 5 8 7 1 11 4 13 6 15
REMARK Flexibility Score: inf
ROOT
ATOM      1  C   UNL     1     202.942 202.597 240.022  1.00  0.00     0.176 C 
ENDROOT
BRANCH   1   2
ATOM      2  C   UNL     1     203.612 202.902 241.390  1.00  0.00     0.171 C 
BRANCH   2   3
ATOM      3  C   UNL     1     202.568 202.907 242.517  1.00  0.00     0.190 C 
BRANCH   3   4
ATOM      4  O   UNL     1     201.708 204.002 242.366  1.00  0.00    -0.394 OA
ATOM      5  H   UNL     1     202.136 204.597 241.697  1.00  0.00     0.210 HD
ENDBRANCH   3   4
ENDBRANCH   2   3
BRANCH   2   6
ATOM      6  O   UNL     1     204.257 204.150 241.351  1.00  0.00    -0.388 OA
ATOM      7  H   UNL     1     205.112 204.023 240.861  1.00  0.00     0.211 HD
ENDBRANCH   2   6
ENDBRANCH   1   2
BRANCH   1   8
ATOM      8  C   UNL     1     203.925 202.367 238.836  1.00  0.00     0.171 C 
BRANCH   8   9
ATOM      9  C   UNL     1     203.941 203.484 237.775  1.00  0.00     0.190 C 
BRANCH   9  10
ATOM     10  O   UNL     1     204.041 204.729 238.410  1.00  0.00    -0.394 OA
ATOM     11  H   UNL     1     203.161 204.892 238.839  1.00  0.00     0.210 HD
ENDBRANCH   9  10
ENDBRANCH   8   9
BRANCH   8  12
ATOM     12  O   UNL     1     205.225 202.113 239.310  1.00  0.00    -0.388 OA
ATOM     13  H   UNL     1     205.705 201.586 238.620  1.00  0.00     0.211 HD
ENDBRANCH   8  12
ENDBRANCH   1   8
BRANCH   1  14
ATOM     14  O   UNL     1     201.977 203.569 239.698  1.00  0.00    -0.388 OA
ATOM     15  H   UNL     1     202.120 204.353 240.287  1.00  0.00     0.211 HD
ENDBRANCH   1  14
TORSDOF 9
ENDMDL
