MODEL 1
REMARK VINA RESULT:    -2.214      0.000      0.000
REMARK INTER + INTRA:          -2.214
REMARK INTER:                  -2.214
REMARK INTRA:                   0.000
REMARK UNBOUND:                 0.000
REMARK SMILES O=C1CCCCC1
REMARK SMILES IDX 5 1 4 2 3 3 2 4 1 5 7 6 6 7
REMARK H PARENT
REMARK Flexibility Score: inf
ROOT
ATOM      1  C   UNL     1     129.555 114.419 120.830  1.00  0.00     0.001 C 
ATOM      2  C   UNL     1     129.934 112.981 120.445  1.00  0.00     0.008 C 
ATOM      3  C   UNL     1     129.876 112.773 118.927  1.00  0.00     0.075 C 
ATOM      4  C   UNL     1     128.561 113.258 118.381  1.00  0.00     0.132 C 
ATOM      5  O   UNL     1     127.958 112.599 117.548  1.00  0.00    -0.300 OA
ATOM      6  C   UNL     1     128.045 114.607 118.800  1.00  0.00     0.075 C 
ATOM      7  C   UNL     1     128.148 114.769 120.322  1.00  0.00     0.008 C 
ENDROOT
TORSDOF 0
ENDMDL
MODEL 2
REMARK VINA RESULT:    -2.208     15.170     15.791
REMARK INTER + INTRA:          -2.208
REMARK INTER:                  -2.208
REMARK INTRA:                   0.000
REMARK UNBOUND:                 0.000
REMARK SMILES O=C1CCCCC1
REMARK SMILES IDX 5 1 4 2 3 3 2 4 1 5 7 6 6 7
REMARK H PARENT
REMARK Flexibility Score: inf
ROOT
ATOM      1  C   UNL     1     124.811 129.777 120.731  1.00  0.00     0.001 C 
ATOM      2  C   UNL     1     126.255 130.091 120.308  1.00  0.00     0.008 C 
ATOM      3  C   UNL     1     126.440 129.939 118.793  1.00  0.00     0.075 C 
ATOM      4  C   UNL     1     125.911 128.609 118.331  1.00  0.00     0.132 C 
ATOM      5  O   UNL     1     126.542 127.939 117.528  1.00  0.00    -0.300 OA
ATOM      6  C   UNL     1     124.553 128.157 118.795  1.00  0.00     0.075 C 
ATOM      7  C   UNL     1     124.414 128.353 120.310  1.00  0.00     0.008 C 
ENDROOT
TORSDOF 0
ENDMDL
MODEL 3
REMARK VINA RESULT:    -2.189     15.577     16.215
REMARK INTER + INTRA:          -2.189
REMARK INTER:                  -2.189
REMARK INTRA:                   0.000
REMARK UNBOUND:                 0.000
REMARK SMILES O=C1CCCCC1
REMARK SMILES IDX 5 1 4 2 3 3 2 4 1 5 7 6 6 7
REMARK H PARENT
REMARK Flexibility Score: inf
ROOT
ATOM      1  C   UNL     1     125.655 128.370 118.269  1.00  0.00     0.001 C 
ATOM      2  C   UNL     1     126.062 129.791 118.692  1.00  0.00     0.008 C 
ATOM      3  C   UNL     1     126.054 129.944 120.218  1.00  0.00     0.075 C 
ATOM      4  C   UNL     1     124.751 129.453 120.787  1.00  0.00     0.132 C 
ATOM      5  O   UNL     1     124.181 130.088 121.661  1.00  0.00    -0.300 OA
ATOM      6  C   UNL     1     124.206 128.125 120.337  1.00  0.00     0.075 C 
ATOM      7  C   UNL     1     124.261 128.017 118.808  1.00  0.00     0.008 C 
ENDROOT
TORSDOF 0
ENDMDL
MODEL 4
REMARK VINA RESULT:    -2.176      1.934      2.729
REMARK INTER + INTRA:          -2.176
REMARK INTER:                  -2.176
REMARK INTRA:                   0.000
REMARK UNBOUND:                 0.000
REMARK SMILES O=C1CCCCC1
REMARK SMILES IDX 5 1 4 2 3 3 2 4 1 5 7 6 6 7
REMARK H PARENT
REMARK Flexibility Score: inf
ROOT
ATOM      1  C   UNL     1     128.260 113.338 118.250  1.00  0.00     0.001 C 
ATOM      2  C   UNL     1     129.686 112.914 118.635  1.00  0.00     0.008 C 
ATOM      3  C   UNL     1     129.893 112.963 120.154  1.00  0.00     0.075 C 
ATOM      4  C   UNL     1     129.448 114.291 120.702  1.00  0.00     0.132 C 
ATOM      5  O   UNL     1     130.125 114.872 121.536  1.00  0.00    -0.300 OA
ATOM      6  C   UNL     1     128.116 114.849 120.282  1.00  0.00     0.075 C 
ATOM      7  C   UNL     1     127.953 114.754 118.759  1.00  0.00     0.008 C 
ENDROOT
TORSDOF 0
ENDMDL
MODEL 5
REMARK VINA RESULT:    -2.162      8.624      9.632
REMARK INTER + INTRA:          -2.162
REMARK INTER:                  -2.162
REMARK INTRA:                   0.000
REMARK UNBOUND:                 0.000
REMARK SMILES O=C1CCCCC1
REMARK SMILES IDX 5 1 4 2 3 3 2 4 1 5 7 6 6 7
REMARK H PARENT
REMARK Flexibility Score: inf
ROOT
ATOM      1  C   UNL     1     119.269 113.966 115.985  1.00  0.00     0.001 C 
ATOM      2  C   UNL     1     119.480 113.338 117.372  1.00  0.00     0.008 C 
ATOM      3  C   UNL     1     120.748 112.475 117.409  1.00  0.00     0.075 C 
ATOM      4  C   UNL     1     120.757 111.508 116.257  1.00  0.00     0.132 C 
ATOM      5  O   UNL     1     121.094 110.347 116.430  1.00  0.00    -0.300 OA
ATOM      6  C   UNL     1     120.438 112.008 114.875  1.00  0.00     0.075 C 
ATOM      7  C   UNL     1     119.177 112.882 114.901  1.00  0.00     0.008 C 
ENDROOT
TORSDOF 0
ENDMDL
MODEL 6
REMARK VINA RESULT:    -2.160     15.820     16.995
REMARK INTER + INTRA:          -2.160
REMARK INTER:                  -2.160
REMARK INTRA:                   0.000
REMARK UNBOUND:                 0.000
REMARK SMILES O=C1CCCCC1
REMARK SMILES IDX 5 1 4 2 3 3 2 4 1 5 7 6 6 7
REMARK H PARENT
REMARK Flexibility Score: inf
ROOT
ATOM      1  C   UNL     1     119.781 125.198 115.885  1.00  0.00     0.001 C 
ATOM      2  C   UNL     1     119.510 125.723 117.304  1.00  0.00     0.008 C 
ATOM      3  C   UNL     1     118.199 126.516 117.365  1.00  0.00     0.075 C 
ATOM      4  C   UNL     1     118.164 127.556 116.279  1.00  0.00     0.132 C 
ATOM      5  O   UNL     1     117.763 128.685 116.517  1.00  0.00    -0.300 OA
ATOM      6  C   UNL     1     118.536 127.164 114.875  1.00  0.00     0.075 C 
ATOM      7  C   UNL     1     119.839 126.354 114.875  1.00  0.00     0.008 C 
ENDROOT
TORSDOF 0
ENDMDL
MODEL 7
REMARK VINA RESULT:    -2.152      7.403      8.143
REMARK INTER + INTRA:          -2.152
REMARK INTER:                  -2.152
REMARK INTRA:                   0.000
REMARK UNBOUND:                 0.000
REMARK SMILES O=C1CCCCC1
REMARK SMILES IDX 5 1 4 2 3 3 2 4 1 5 7 6 6 7
REMARK H PARENT
REMARK Flexibility Score: inf
ROOT
ATOM      1  C   UNL     1     125.150 119.250 115.926  1.00  0.00     0.001 C 
ATOM      2  C   UNL     1     125.716 119.507 117.332  1.00  0.00     0.008 C 
ATOM      3  C   UNL     1     126.470 120.841 117.397  1.00  0.00     0.075 C 
ATOM      4  C   UNL     1     127.468 120.935 116.276  1.00  0.00     0.132 C 
ATOM      5  O   UNL     1     128.592 121.366 116.484  1.00  0.00    -0.300 OA
ATOM      6  C   UNL     1     127.039 120.581 114.878  1.00  0.00     0.075 C 
ATOM      7  C   UNL     1     126.271 119.253 114.875  1.00  0.00     0.008 C 
ENDROOT
TORSDOF 0
ENDMDL
MODEL 8
REMARK VINA RESULT:    -2.123      1.213      2.291
REMARK INTER + INTRA:          -2.123
REMARK INTER:                  -2.123
REMARK INTRA:                   0.000
REMARK UNBOUND:                 0.000
REMARK SMILES O=C1CCCCC1
REMARK SMILES IDX 5 1 4 2 3 3 2 4 1 5 7 6 6 7
REMARK H PARENT
REMARK Flexibility Score: inf
ROOT
ATOM      1  C   UNL     1     130.095 112.772 120.178  1.00  0.00     0.001 C 
ATOM      2  C   UNL     1     129.858 114.141 120.836  1.00  0.00     0.008 C 
ATOM      3  C   UNL     1     128.441 114.658 120.558  1.00  0.00     0.075 C 
ATOM      4  C   UNL     1     128.139 114.592 119.086  1.00  0.00     0.132 C 
ATOM      5  O   UNL     1     127.574 115.521 118.530  1.00  0.00    -0.300 OA
ATOM      6  C   UNL     1     128.454 113.332 118.327  1.00  0.00     0.075 C 
ATOM      7  C   UNL     1     129.870 112.847 118.660  1.00  0.00     0.008 C 
ENDROOT
TORSDOF 0
ENDMDL
MODEL 9
REMARK VINA RESULT:    -2.118     15.094     15.762
REMARK INTER + INTRA:          -2.118
REMARK INTER:                  -2.118
REMARK INTRA:                   0.000
REMARK UNBOUND:                 0.000
REMARK SMILES O=C1CCCCC1
REMARK SMILES IDX 5 1 4 2 3 3 2 4 1 5 7 6 6 7
REMARK H PARENT
REMARK Flexibility Score: inf
ROOT
ATOM      1  C   UNL     1     126.174 129.998 120.148  1.00  0.00     0.001 C 
ATOM      2  C   UNL     1     124.837 129.706 120.847  1.00  0.00     0.008 C 
ATOM      3  C   UNL     1     124.356 128.278 120.561  1.00  0.00     0.075 C 
ATOM      4  C   UNL     1     124.381 128.003 119.082  1.00  0.00     0.132 C 
ATOM      5  O   UNL     1     123.452 127.418 118.547  1.00  0.00    -0.300 OA
ATOM      6  C   UNL     1     125.604 128.372 118.287  1.00  0.00     0.075 C 
ATOM      7  C   UNL     1     126.054 129.798 118.630  1.00  0.00     0.008 C 
ENDROOT
TORSDOF 0
ENDMDL
