MODEL 1
REMARK VINA RESULT:    -5.108      0.000      0.000
REMARK INTER + INTRA:          -6.175
REMARK INTER:                  -5.854
REMARK INTRA:                  -0.321
REMARK UNBOUND:                -0.321
REMARK SMILES O=C1C[C@H](c2ccc(O)cc2)Oc2cc(O)cc(O)c21
REMARK SMILES IDX 3 1 4 2 12 3 13 4 14 5 15 6 17 7 18 8 20 9 2 10 1 11 5 12
REMARK SMILES IDX 6 13 11 14 7 15 10 16 8 17 9 18 19 20 16 22
REMARK H PARENT 9 19 19 21 16 23
REMARK Flexibility Score: inf
ROOT
ATOM      1  C   UNL     1     -56.593  18.055 -20.013  1.00  0.00     0.131 C 
ATOM      2  C   UNL     1     -56.966  19.046 -18.894  1.00  0.00     0.211 C 
ATOM      3  O   UNL     1     -58.337  18.910 -18.496  1.00  0.00    -0.484 OA
ATOM      4  C   UNL     1     -59.039  17.695 -18.512  1.00  0.00     0.138 A 
ATOM      5  C   UNL     1     -60.307  17.633 -17.926  1.00  0.00     0.093 A 
ATOM      6  C   UNL     1     -61.016  16.425 -17.903  1.00  0.00     0.123 A 
ATOM      7  C   UNL     1     -60.454  15.279 -18.474  1.00  0.00     0.093 A 
ATOM      8  C   UNL     1     -59.191  15.332 -19.082  1.00  0.00     0.133 A 
ATOM      9  C   UNL     1     -58.476  16.550 -19.107  1.00  0.00     0.102 A 
ATOM     10  C   UNL     1     -57.148  16.685 -19.746  1.00  0.00     0.174 C 
ATOM     11  O   UNL     1     -56.500  15.673 -20.125  1.00  0.00    -0.294 OA
ENDROOT
BRANCH   2  12
ATOM     12  C   UNL     1     -56.033  18.920 -17.701  1.00  0.00    -0.007 A 
ATOM     13  C   UNL     1     -56.282  19.679 -16.541  1.00  0.00     0.011 A 
ATOM     14  C   UNL     1     -54.885  18.105 -17.747  1.00  0.00     0.011 A 
ATOM     15  C   UNL     1     -55.416  19.607 -15.445  1.00  0.00     0.046 A 
ATOM     16  C   UNL     1     -54.019  18.039 -16.650  1.00  0.00     0.046 A 
ATOM     17  C   UNL     1     -54.282  18.786 -15.498  1.00  0.00     0.115 A 
BRANCH  17  18
ATOM     18  O   UNL     1     -53.408  18.712 -14.415  1.00  0.00    -0.508 OA
ATOM     19  H   UNL     1     -53.329  17.870 -13.854  1.00  0.00     0.293 HD
ENDBRANCH  17  18
ENDBRANCH   2  12
BRANCH   8  20
ATOM     20  O   UNL     1     -58.657  14.182 -19.665  1.00  0.00    -0.507 OA
ATOM     21  H   UNL     1     -58.707  14.016 -20.664  1.00  0.00     0.293 HD
ENDBRANCH   8  20
BRANCH   6  22
ATOM     22  O   UNL     1     -62.280  16.355 -17.321  1.00  0.00    -0.508 OA
ATOM     23  H   UNL     1     -62.480  15.711 -16.566  1.00  0.00     0.293 HD
ENDBRANCH   6  22
TORSDOF 4
ENDMDL
MODEL 2
REMARK VINA RESULT:    -4.790      8.810     10.801
REMARK INTER + INTRA:          -5.811
REMARK INTER:                  -5.482
REMARK INTRA:                  -0.329
REMARK UNBOUND:                -0.321
REMARK SMILES O=C1C[C@H](c2ccc(O)cc2)Oc2cc(O)cc(O)c21
REMARK SMILES IDX 3 1 4 2 12 3 13 4 14 5 15 6 17 7 18 8 20 9 2 10 1 11 5 12
REMARK SMILES IDX 6 13 11 14 7 15 10 16 8 17 9 18 19 20 16 22
REMARK H PARENT 9 19 19 21 16 23
REMARK Flexibility Score: inf
ROOT
ATOM      1  C   UNL     1     -53.972  25.990 -12.379  1.00  0.00     0.131 C 
ATOM      2  C   UNL     1     -53.559  25.003 -13.488  1.00  0.00     0.211 C 
ATOM      3  O   UNL     1     -54.632  24.757 -14.408  1.00  0.00    -0.484 OA
ATOM      4  C   UNL     1     -55.601  25.710 -14.752  1.00  0.00     0.138 A 
ATOM      5  C   UNL     1     -56.486  25.435 -15.799  1.00  0.00     0.093 A 
ATOM      6  C   UNL     1     -57.445  26.382 -16.181  1.00  0.00     0.123 A 
ATOM      7  C   UNL     1     -57.518  27.605 -15.509  1.00  0.00     0.093 A 
ATOM      8  C   UNL     1     -56.649  27.887 -14.444  1.00  0.00     0.133 A 
ATOM      9  C   UNL     1     -55.683  26.932 -14.057  1.00  0.00     0.102 A 
ATOM     10  C   UNL     1     -54.745  27.152 -12.933  1.00  0.00     0.174 C 
ATOM     11  O   UNL     1     -54.629  28.284 -12.393  1.00  0.00    -0.294 OA
ENDROOT
BRANCH   2  12
ATOM     12  C   UNL     1     -52.308  25.467 -14.213  1.00  0.00    -0.007 A 
ATOM     13  C   UNL     1     -51.850  24.751 -15.337  1.00  0.00     0.011 A 
ATOM     14  C   UNL     1     -51.555  26.566 -13.754  1.00  0.00     0.011 A 
ATOM     15  C   UNL     1     -50.680  25.139 -15.998  1.00  0.00     0.046 A 
ATOM     16  C   UNL     1     -50.384  26.947 -14.416  1.00  0.00     0.046 A 
ATOM     17  C   UNL     1     -49.944  26.238 -15.538  1.00  0.00     0.115 A 
BRANCH  17  18
ATOM     18  O   UNL     1     -48.773  26.629 -16.184  1.00  0.00    -0.508 OA
ATOM     19  H   UNL     1     -47.861  26.321 -15.862  1.00  0.00     0.293 HD
ENDBRANCH  17  18
ENDBRANCH   2  12
BRANCH   8  20
ATOM     20  O   UNL     1     -56.753  29.106 -13.772  1.00  0.00    -0.507 OA
ATOM     21  H   UNL     1     -57.174  29.921 -14.204  1.00  0.00     0.293 HD
ENDBRANCH   8  20
BRANCH   6  22
ATOM     22  O   UNL     1     -58.331  26.115 -17.223  1.00  0.00    -0.508 OA
ATOM     23  H   UNL     1     -59.323  25.999 -17.057  1.00  0.00     0.293 HD
ENDBRANCH   6  22
TORSDOF 4
ENDMDL
MODEL 3
REMARK VINA RESULT:    -4.739      8.154      9.867
REMARK INTER + INTRA:          -5.753
REMARK INTER:                  -5.317
REMARK INTRA:                  -0.436
REMARK UNBOUND:                -0.321
REMARK SMILES O=C1C[C@H](c2ccc(O)cc2)Oc2cc(O)cc(O)c21
REMARK SMILES IDX 3 1 4 2 12 3 13 4 14 5 15 6 17 7 18 8 20 9 2 10 1 11 5 12
REMARK SMILES IDX 6 13 11 14 7 15 10 16 8 17 9 18 19 20 16 22
REMARK H PARENT 9 19 19 21 16 23
REMARK Flexibility Score: inf
ROOT
ATOM      1  C   UNL     1     -56.860  23.928 -13.421  1.00  0.00     0.131 C 
ATOM      2  C   UNL     1     -55.867  23.918 -14.600  1.00  0.00     0.211 C 
ATOM      3  O   UNL     1     -56.384  24.623 -15.737  1.00  0.00    -0.484 OA
ATOM      4  C   UNL     1     -57.234  25.735 -15.647  1.00  0.00     0.138 A 
ATOM      5  C   UNL     1     -57.526  26.465 -16.804  1.00  0.00     0.093 A 
ATOM      6  C   UNL     1     -58.349  27.596 -16.737  1.00  0.00     0.123 A 
ATOM      7  C   UNL     1     -58.884  27.993 -15.508  1.00  0.00     0.093 A 
ATOM      8  C   UNL     1     -58.616  27.259 -14.343  1.00  0.00     0.133 A 
ATOM      9  C   UNL     1     -57.787  26.117 -14.410  1.00  0.00     0.102 A 
ATOM     10  C   UNL     1     -57.475  25.284 -13.227  1.00  0.00     0.174 C 
ATOM     11  O   UNL     1     -57.771  25.667 -12.063  1.00  0.00    -0.294 OA
ENDROOT
BRANCH   2  12
ATOM     12  C   UNL     1     -54.507  24.457 -14.190  1.00  0.00    -0.007 A 
ATOM     13  C   UNL     1     -53.617  24.919 -15.179  1.00  0.00     0.011 A 
ATOM     14  C   UNL     1     -54.087  24.452 -12.846  1.00  0.00     0.011 A 
ATOM     15  C   UNL     1     -52.346  25.386 -14.829  1.00  0.00     0.046 A 
ATOM     16  C   UNL     1     -52.813  24.915 -12.500  1.00  0.00     0.046 A 
ATOM     17  C   UNL     1     -51.941  25.384 -13.488  1.00  0.00     0.115 A 
BRANCH  17  18
ATOM     18  O   UNL     1     -50.674  25.839 -13.127  1.00  0.00    -0.508 OA
ATOM     19  H   UNL     1     -50.504  26.814 -12.904  1.00  0.00     0.293 HD
ENDBRANCH  17  18
ENDBRANCH   2  12
BRANCH   8  20
ATOM     20  O   UNL     1     -59.178  27.659 -13.129  1.00  0.00    -0.507 OA
ATOM     21  H   UNL     1     -59.428  28.625 -12.949  1.00  0.00     0.293 HD
ENDBRANCH   8  20
BRANCH   6  22
ATOM     22  O   UNL     1     -58.644  28.329 -17.885  1.00  0.00    -0.508 OA
ATOM     23  H   UNL     1     -59.402  28.063 -18.502  1.00  0.00     0.293 HD
ENDBRANCH   6  22
TORSDOF 4
ENDMDL
MODEL 4
REMARK VINA RESULT:    -4.570      9.138     11.646
REMARK INTER + INTRA:          -5.558
REMARK INTER:                  -5.097
REMARK INTRA:                  -0.461
REMARK UNBOUND:                -0.321
REMARK SMILES O=C1C[C@H](c2ccc(O)cc2)Oc2cc(O)cc(O)c21
REMARK SMILES IDX 3 1 4 2 12 3 13 4 14 5 15 6 17 7 18 8 20 9 2 10 1 11 5 12
REMARK SMILES IDX 6 13 11 14 7 15 10 16 8 17 9 18 19 20 16 22
REMARK H PARENT 9 19 19 21 16 23
REMARK Flexibility Score: inf
ROOT
ATOM      1  C   UNL     1     -57.074  26.928 -11.722  1.00  0.00     0.131 C 
ATOM      2  C   UNL     1     -58.173  28.008 -11.750  1.00  0.00     0.211 C 
ATOM      3  O   UNL     1     -58.329  28.575 -13.059  1.00  0.00    -0.484 OA
ATOM      4  C   UNL     1     -58.124  27.862 -14.249  1.00  0.00     0.138 A 
ATOM      5  C   UNL     1     -58.488  28.449 -15.466  1.00  0.00     0.093 A 
ATOM      6  C   UNL     1     -58.320  27.747 -16.666  1.00  0.00     0.123 A 
ATOM      7  C   UNL     1     -57.783  26.457 -16.647  1.00  0.00     0.093 A 
ATOM      8  C   UNL     1     -57.397  25.863 -15.435  1.00  0.00     0.133 A 
ATOM      9  C   UNL     1     -57.564  26.571 -14.225  1.00  0.00     0.102 A 
ATOM     10  C   UNL     1     -57.162  26.017 -12.912  1.00  0.00     0.174 C 
ATOM     11  O   UNL     1     -56.836  24.806 -12.788  1.00  0.00    -0.294 OA
ENDROOT
BRANCH   2  12
ATOM     12  C   UNL     1     -59.494  27.474 -11.222  1.00  0.00    -0.007 A 
ATOM     13  C   UNL     1     -59.492  26.511 -10.193  1.00  0.00     0.011 A 
ATOM     14  C   UNL     1     -60.725  27.874 -11.776  1.00  0.00     0.011 A 
ATOM     15  C   UNL     1     -60.694  25.979  -9.716  1.00  0.00     0.046 A 
ATOM     16  C   UNL     1     -61.925  27.336 -11.300  1.00  0.00     0.046 A 
ATOM     17  C   UNL     1     -61.914  26.390 -10.269  1.00  0.00     0.115 A 
BRANCH  17  18
ATOM     18  O   UNL     1     -63.118  25.861  -9.808  1.00  0.00    -0.508 OA
ATOM     19  H   UNL     1     -63.648  25.192 -10.357  1.00  0.00     0.293 HD
ENDBRANCH  17  18
ENDBRANCH   2  12
BRANCH   8  20
ATOM     20  O   UNL     1     -56.842  24.582 -15.440  1.00  0.00    -0.507 OA
ATOM     21  H   UNL     1     -55.991  24.370 -15.949  1.00  0.00     0.293 HD
ENDBRANCH   8  20
BRANCH   6  22
ATOM     22  O   UNL     1     -58.679  28.325 -17.882  1.00  0.00    -0.508 OA
ATOM     23  H   UNL     1     -58.496  29.302 -18.079  1.00  0.00     0.293 HD
ENDBRANCH   6  22
TORSDOF 4
ENDMDL
MODEL 5
REMARK VINA RESULT:    -4.552     15.094     17.493
REMARK INTER + INTRA:          -5.538
REMARK INTER:                  -5.083
REMARK INTRA:                  -0.456
REMARK UNBOUND:                -0.321
REMARK SMILES O=C1C[C@H](c2ccc(O)cc2)Oc2cc(O)cc(O)c21
REMARK SMILES IDX 3 1 4 2 12 3 13 4 14 5 15 6 17 7 18 8 20 9 2 10 1 11 5 12
REMARK SMILES IDX 6 13 11 14 7 15 10 16 8 17 9 18 19 20 16 22
REMARK H PARENT 9 19 19 21 16 23
REMARK Flexibility Score: inf
ROOT
ATOM      1  C   UNL     1     -51.339  14.112  -1.484  1.00  0.00     0.131 C 
ATOM      2  C   UNL     1     -52.415  14.518  -0.459  1.00  0.00     0.211 C 
ATOM      3  O   UNL     1     -52.662  15.931  -0.476  1.00  0.00    -0.484 OA
ATOM      4  C   UNL     1     -52.564  16.727  -1.627  1.00  0.00     0.138 A 
ATOM      5  C   UNL     1     -53.010  18.052  -1.578  1.00  0.00     0.093 A 
ATOM      6  C   UNL     1     -52.950  18.860  -2.721  1.00  0.00     0.123 A 
ATOM      7  C   UNL     1     -52.439  18.339  -3.913  1.00  0.00     0.093 A 
ATOM      8  C   UNL     1     -51.971  17.017  -3.971  1.00  0.00     0.133 A 
ATOM      9  C   UNL     1     -52.029  16.203  -2.819  1.00  0.00     0.102 A 
ATOM     10  C   UNL     1     -51.537  14.807  -2.800  1.00  0.00     0.174 C 
ATOM     11  O   UNL     1     -51.226  14.211  -3.866  1.00  0.00    -0.294 OA
ENDROOT
BRANCH   2  12
ATOM     12  C   UNL     1     -53.701  13.733  -0.659  1.00  0.00    -0.007 A 
ATOM     13  C   UNL     1     -54.922  14.276  -0.213  1.00  0.00     0.011 A 
ATOM     14  C   UNL     1     -53.697  12.444  -1.227  1.00  0.00     0.011 A 
ATOM     15  C   UNL     1     -56.113  13.556  -0.353  1.00  0.00     0.046 A 
ATOM     16  C   UNL     1     -54.889  11.726  -1.361  1.00  0.00     0.046 A 
ATOM     17  C   UNL     1     -56.099  12.278  -0.928  1.00  0.00     0.115 A 
BRANCH  17  18
ATOM     18  O   UNL     1     -57.277  11.548  -1.065  1.00  0.00    -0.508 OA
ATOM     19  H   UNL     1     -57.312  10.694  -1.612  1.00  0.00     0.293 HD
ENDBRANCH  17  18
ENDBRANCH   2  12
BRANCH   8  20
ATOM     20  O   UNL     1     -51.443  16.523  -5.166  1.00  0.00    -0.507 OA
ATOM     21  H   UNL     1     -51.995  16.478  -6.015  1.00  0.00     0.293 HD
ENDBRANCH   8  20
BRANCH   6  22
ATOM     22  O   UNL     1     -53.392  20.181  -2.680  1.00  0.00    -0.508 OA
ATOM     23  H   UNL     1     -53.560  20.709  -3.528  1.00  0.00     0.293 HD
ENDBRANCH   6  22
TORSDOF 4
ENDMDL
MODEL 6
REMARK VINA RESULT:    -4.482      2.025      2.705
REMARK INTER + INTRA:          -5.458
REMARK INTER:                  -5.060
REMARK INTRA:                  -0.398
REMARK UNBOUND:                -0.321
REMARK SMILES O=C1C[C@H](c2ccc(O)cc2)Oc2cc(O)cc(O)c21
REMARK SMILES IDX 3 1 4 2 12 3 13 4 14 5 15 6 17 7 18 8 20 9 2 10 1 11 5 12
REMARK SMILES IDX 6 13 11 14 7 15 10 16 8 17 9 18 19 20 16 22
REMARK H PARENT 9 19 19 21 16 23
REMARK Flexibility Score: inf
ROOT
ATOM      1  C   UNL     1     -55.106  17.259 -18.861  1.00  0.00     0.131 C 
ATOM      2  C   UNL     1     -54.729  18.195 -17.697  1.00  0.00     0.211 C 
ATOM      3  O   UNL     1     -55.834  19.017 -17.294  1.00  0.00    -0.484 OA
ATOM      4  C   UNL     1     -57.174  18.609 -17.357  1.00  0.00     0.138 A 
ATOM      5  C   UNL     1     -58.158  19.407 -16.763  1.00  0.00     0.093 A 
ATOM      6  C   UNL     1     -59.500  19.008 -16.787  1.00  0.00     0.123 A 
ATOM      7  C   UNL     1     -59.858  17.809 -17.411  1.00  0.00     0.093 A 
ATOM      8  C   UNL     1     -58.884  17.009 -18.027  1.00  0.00     0.133 A 
ATOM      9  C   UNL     1     -57.530  17.411 -18.005  1.00  0.00     0.102 A 
ATOM     10  C   UNL     1     -56.452  16.628 -18.649  1.00  0.00     0.174 C 
ATOM     11  O   UNL     1     -56.660  15.461 -19.077  1.00  0.00    -0.294 OA
ENDROOT
BRANCH   2  12
ATOM     12  C   UNL     1     -54.161  17.422 -16.519  1.00  0.00    -0.007 A 
ATOM     13  C   UNL     1     -54.677  17.645 -15.228  1.00  0.00     0.011 A 
ATOM     14  C   UNL     1     -53.085  16.526 -16.675  1.00  0.00     0.011 A 
ATOM     15  C   UNL     1     -54.145  16.972 -14.123  1.00  0.00     0.046 A 
ATOM     16  C   UNL     1     -52.553  15.859 -15.568  1.00  0.00     0.046 A 
ATOM     17  C   UNL     1     -53.080  16.077 -14.291  1.00  0.00     0.115 A 
BRANCH  17  18
ATOM     18  O   UNL     1     -52.537  15.406 -13.198  1.00  0.00    -0.508 OA
ATOM     19  H   UNL     1     -53.126  14.972 -12.495  1.00  0.00     0.293 HD
ENDBRANCH  17  18
ENDBRANCH   2  12
BRANCH   8  20
ATOM     20  O   UNL     1     -59.264  15.826 -18.664  1.00  0.00    -0.507 OA
ATOM     21  H   UNL     1     -59.893  15.161 -18.226  1.00  0.00     0.293 HD
ENDBRANCH   8  20
BRANCH   6  22
ATOM     22  O   UNL     1     -60.486  19.798 -16.197  1.00  0.00    -0.508 OA
ATOM     23  H   UNL     1     -60.767  19.661 -15.234  1.00  0.00     0.293 HD
ENDBRANCH   6  22
TORSDOF 4
ENDMDL
MODEL 7
REMARK VINA RESULT:    -4.481     14.384     17.196
REMARK INTER + INTRA:          -5.457
REMARK INTER:                  -5.034
REMARK INTRA:                  -0.423
REMARK UNBOUND:                -0.321
REMARK SMILES O=C1C[C@H](c2ccc(O)cc2)Oc2cc(O)cc(O)c21
REMARK SMILES IDX 3 1 4 2 12 3 13 4 14 5 15 6 17 7 18 8 20 9 2 10 1 11 5 12
REMARK SMILES IDX 6 13 11 14 7 15 10 16 8 17 9 18 19 20 16 22
REMARK H PARENT 9 19 19 21 16 23
REMARK Flexibility Score: inf
ROOT
ATOM      1  C   UNL     1     -53.695  16.458   0.091  1.00  0.00     0.131 C 
ATOM      2  C   UNL     1     -52.458  16.310  -0.816  1.00  0.00     0.211 C 
ATOM      3  O   UNL     1     -52.151  14.933  -1.077  1.00  0.00    -0.484 OA
ATOM      4  C   UNL     1     -53.116  13.921  -1.170  1.00  0.00     0.138 A 
ATOM      5  C   UNL     1     -52.733  12.652  -1.616  1.00  0.00     0.093 A 
ATOM      6  C   UNL     1     -53.684  11.631  -1.745  1.00  0.00     0.123 A 
ATOM      7  C   UNL     1     -55.020  11.883  -1.422  1.00  0.00     0.093 A 
ATOM      8  C   UNL     1     -55.415  13.146  -0.955  1.00  0.00     0.133 A 
ATOM      9  C   UNL     1     -54.457  14.175  -0.823  1.00  0.00     0.102 A 
ATOM     10  C   UNL     1     -54.797  15.525  -0.320  1.00  0.00     0.174 C 
ATOM     11  O   UNL     1     -55.996  15.884  -0.173  1.00  0.00    -0.294 OA
ENDROOT
BRANCH   2  12
ATOM     12  C   UNL     1     -52.616  17.093  -2.109  1.00  0.00    -0.007 A 
ATOM     13  C   UNL     1     -52.258  16.492  -3.332  1.00  0.00     0.011 A 
ATOM     14  C   UNL     1     -53.056  18.431  -2.112  1.00  0.00     0.011 A 
ATOM     15  C   UNL     1     -52.360  17.206  -4.531  1.00  0.00     0.046 A 
ATOM     16  C   UNL     1     -53.152  19.142  -3.312  1.00  0.00     0.046 A 
ATOM     17  C   UNL     1     -52.807  18.534  -4.523  1.00  0.00     0.115 A 
BRANCH  17  18
ATOM     18  O   UNL     1     -52.905  19.258  -5.709  1.00  0.00    -0.508 OA
ATOM     19  H   UNL     1     -52.501  20.184  -5.801  1.00  0.00     0.293 HD
ENDBRANCH  17  18
ENDBRANCH   2  12
BRANCH   8  20
ATOM     20  O   UNL     1     -56.751  13.370  -0.616  1.00  0.00    -0.507 OA
ATOM     21  H   UNL     1     -57.356  12.619  -0.301  1.00  0.00     0.293 HD
ENDBRANCH   8  20
BRANCH   6  22
ATOM     22  O   UNL     1     -53.309  10.365  -2.189  1.00  0.00    -0.508 OA
ATOM     23  H   UNL     1     -53.774   9.919  -2.971  1.00  0.00     0.293 HD
ENDBRANCH   6  22
TORSDOF 4
ENDMDL
MODEL 8
REMARK VINA RESULT:    -4.444     11.737     15.442
REMARK INTER + INTRA:          -5.414
REMARK INTER:                  -4.966
REMARK INTRA:                  -0.448
REMARK UNBOUND:                -0.321
REMARK SMILES O=C1C[C@H](c2ccc(O)cc2)Oc2cc(O)cc(O)c21
REMARK SMILES IDX 3 1 4 2 12 3 13 4 14 5 15 6 17 7 18 8 20 9 2 10 1 11 5 12
REMARK SMILES IDX 6 13 11 14 7 15 10 16 8 17 9 18 19 20 16 22
REMARK H PARENT 9 19 19 21 16 23
REMARK Flexibility Score: inf
ROOT
ATOM      1  C   UNL     1     -53.547  18.608  -3.577  1.00  0.00     0.131 C 
ATOM      2  C   UNL     1     -53.031  18.037  -4.912  1.00  0.00     0.211 C 
ATOM      3  O   UNL     1     -52.067  16.994  -4.708  1.00  0.00    -0.484 OA
ATOM      4  C   UNL     1     -52.091  16.110  -3.619  1.00  0.00     0.138 A 
ATOM      5  C   UNL     1     -51.225  15.011  -3.614  1.00  0.00     0.093 A 
ATOM      6  C   UNL     1     -51.249  14.098  -2.552  1.00  0.00     0.123 A 
ATOM      7  C   UNL     1     -52.140  14.289  -1.492  1.00  0.00     0.093 A 
ATOM      8  C   UNL     1     -53.002  15.396  -1.476  1.00  0.00     0.133 A 
ATOM      9  C   UNL     1     -52.977  16.319  -2.545  1.00  0.00     0.102 A 
ATOM     10  C   UNL     1     -53.843  17.519  -2.587  1.00  0.00     0.174 C 
ATOM     11  O   UNL     1     -54.787  17.671  -1.767  1.00  0.00    -0.294 OA
ENDROOT
BRANCH   2  12
ATOM     12  C   UNL     1     -54.172  17.566  -5.797  1.00  0.00    -0.007 A 
ATOM     13  C   UNL     1     -54.027  16.381  -6.545  1.00  0.00     0.011 A 
ATOM     14  C   UNL     1     -55.355  18.318  -5.938  1.00  0.00     0.011 A 
ATOM     15  C   UNL     1     -55.050  15.947  -7.395  1.00  0.00     0.046 A 
ATOM     16  C   UNL     1     -56.373  17.883  -6.792  1.00  0.00     0.046 A 
ATOM     17  C   UNL     1     -56.225  16.698  -7.521  1.00  0.00     0.115 A 
BRANCH  17  18
ATOM     18  O   UNL     1     -57.248  16.281  -8.370  1.00  0.00    -0.508 OA
ATOM     19  H   UNL     1     -57.056  15.954  -9.312  1.00  0.00     0.293 HD
ENDBRANCH  17  18
ENDBRANCH   2  12
BRANCH   8  20
ATOM     20  O   UNL     1     -53.870  15.581  -0.397  1.00  0.00    -0.507 OA
ATOM     21  H   UNL     1     -54.772  15.120  -0.352  1.00  0.00     0.293 HD
ENDBRANCH   8  20
BRANCH   6  22
ATOM     22  O   UNL     1     -50.389  13.002  -2.539  1.00  0.00    -0.508 OA
ATOM     23  H   UNL     1     -49.388  13.113  -2.651  1.00  0.00     0.293 HD
ENDBRANCH   6  22
TORSDOF 4
ENDMDL
