MODEL 1
REMARK VINA RESULT:    -3.621      0.000      0.000
REMARK INTER + INTRA:          -3.621
REMARK INTER:                  -3.621
REMARK INTRA:                   0.000
REMARK UNBOUND:                 0.000
REMARK SMILES CC1(C)[C@@H]2CC[C@@]1(C)C(=O)C2
REMARK SMILES IDX 1 1 2 2 4 3 5 4 6 5 7 6 9 7 10 8 11 9 8 10 3 11
REMARK H PARENT
REMARK Flexibility Score: inf
ROOT
ATOM      1  C   UNL     1      -6.567  -6.711   6.294  1.00  0.00     0.012 C 
ATOM      2  C   UNL     1      -5.095  -6.416   6.711  1.00  0.00    -0.020 C 
ATOM      3  C   UNL     1      -4.301  -7.674   7.138  1.00  0.00     0.003 C 
ATOM      4  C   UNL     1      -5.058  -8.136   8.415  1.00  0.00     0.005 C 
ATOM      5  C   UNL     1      -5.475  -6.798   9.075  1.00  0.00     0.015 C 
ATOM      6  C   UNL     1      -4.916  -5.744   8.089  1.00  0.00     0.032 C 
ATOM      7  C   UNL     1      -3.418  -5.826   8.246  1.00  0.00     0.139 C 
ATOM      8  O   UNL     1      -2.716  -5.034   8.857  1.00  0.00    -0.299 OA
ATOM      9  C   UNL     1      -2.940  -7.099   7.620  1.00  0.00     0.080 C 
ATOM     10  C   UNL     1      -5.509  -4.339   8.247  1.00  0.00     0.020 C 
ATOM     11  C   UNL     1      -4.446  -5.643   5.520  1.00  0.00     0.012 C 
ENDROOT
TORSDOF 0
ENDMDL
MODEL 2
REMARK VINA RESULT:    -3.548      1.008      2.798
REMARK INTER + INTRA:          -3.548
REMARK INTER:                  -3.548
REMARK INTRA:                   0.000
REMARK UNBOUND:                 0.000
REMARK SMILES CC1(C)[C@@H]2CC[C@@]1(C)C(=O)C2
REMARK SMILES IDX 1 1 2 2 4 3 5 4 6 5 7 6 9 7 10 8 11 9 8 10 3 11
REMARK H PARENT
REMARK Flexibility Score: inf
ROOT
ATOM      1  C   UNL     1      -5.821  -8.332   6.996  1.00  0.00     0.012 C 
ATOM      2  C   UNL     1      -5.389  -7.085   7.824  1.00  0.00    -0.020 C 
ATOM      3  C   UNL     1      -5.768  -5.735   7.168  1.00  0.00     0.003 C 
ATOM      4  C   UNL     1      -4.920  -5.740   5.865  1.00  0.00     0.005 C 
ATOM      5  C   UNL     1      -3.610  -6.442   6.305  1.00  0.00     0.015 C 
ATOM      6  C   UNL     1      -3.880  -6.759   7.796  1.00  0.00     0.032 C 
ATOM      7  C   UNL     1      -3.872  -5.416   8.483  1.00  0.00     0.139 C 
ATOM      8  O   UNL     1      -2.964  -4.961   9.162  1.00  0.00    -0.299 OA
ATOM      9  C   UNL     1      -5.121  -4.679   8.107  1.00  0.00     0.080 C 
ATOM     10  C   UNL     1      -2.943  -7.805   8.410  1.00  0.00     0.020 C 
ATOM     11  C   UNL     1      -5.988  -7.274   9.253  1.00  0.00     0.012 C 
ENDROOT
TORSDOF 0
ENDMDL
MODEL 3
REMARK VINA RESULT:    -3.466     19.720     21.638
REMARK INTER + INTRA:          -3.466
REMARK INTER:                  -3.466
REMARK INTRA:                   0.000
REMARK UNBOUND:                 0.000
REMARK SMILES CC1(C)[C@@H]2CC[C@@]1(C)C(=O)C2
REMARK SMILES IDX 1 1 2 2 4 3 5 4 6 5 7 6 9 7 10 8 11 9 8 10 3 11
REMARK H PARENT
REMARK Flexibility Score: inf
ROOT
ATOM      1  C   UNL     1       2.411   5.500  -8.584  1.00  0.00     0.012 C 
ATOM      2  C   UNL     1       2.148   6.471  -7.394  1.00  0.00    -0.020 C 
ATOM      3  C   UNL     1       0.934   7.407  -7.607  1.00  0.00     0.003 C 
ATOM      4  C   UNL     1       1.380   8.273  -8.818  1.00  0.00     0.005 C 
ATOM      5  C   UNL     1       2.900   8.449  -8.578  1.00  0.00     0.015 C 
ATOM      6  C   UNL     1       3.132   7.654  -7.271  1.00  0.00     0.032 C 
ATOM      7  C   UNL     1       2.454   8.470  -6.198  1.00  0.00     0.139 C 
ATOM      8  O   UNL     1       3.011   9.189  -5.383  1.00  0.00    -0.299 OA
ATOM      9  C   UNL     1       0.971   8.339  -6.364  1.00  0.00     0.080 C 
ATOM     10  C   UNL     1       4.596   7.299  -6.986  1.00  0.00     0.020 C 
ATOM     11  C   UNL     1       2.035   5.582  -6.115  1.00  0.00     0.012 C 
ENDROOT
TORSDOF 0
ENDMDL
MODEL 4
REMARK VINA RESULT:    -3.452     20.218     21.853
REMARK INTER + INTRA:          -3.452
REMARK INTER:                  -3.452
REMARK INTRA:                   0.000
REMARK UNBOUND:                 0.000
REMARK SMILES CC1(C)[C@@H]2CC[C@@]1(C)C(=O)C2
REMARK SMILES IDX 1 1 2 2 4 3 5 4 6 5 7 6 9 7 10 8 11 9 8 10 3 11
REMARK H PARENT
REMARK Flexibility Score: inf
ROOT
ATOM      1  C   UNL     1       3.995   7.729  -8.334  1.00  0.00     0.012 C 
ATOM      2  C   UNL     1       3.067   8.108  -7.140  1.00  0.00    -0.020 C 
ATOM      3  C   UNL     1       2.340   6.900  -6.504  1.00  0.00     0.003 C 
ATOM      4  C   UNL     1       1.424   6.407  -7.660  1.00  0.00     0.005 C 
ATOM      5  C   UNL     1       1.005   7.725  -8.358  1.00  0.00     0.015 C 
ATOM      6  C   UNL     1       1.741   8.800  -7.523  1.00  0.00     0.032 C 
ATOM      7  C   UNL     1       1.034   8.803  -6.190  1.00  0.00     0.139 C 
ATOM      8  O   UNL     1       0.227   9.637  -5.807  1.00  0.00    -0.299 OA
ATOM      9  C   UNL     1       1.401   7.553  -5.451  1.00  0.00     0.080 C 
ATOM     10  C   UNL     1       1.855  10.171  -8.198  1.00  0.00     0.020 C 
ATOM     11  C   UNL     1       3.951   8.907  -6.131  1.00  0.00     0.012 C 
ENDROOT
TORSDOF 0
ENDMDL
MODEL 5
REMARK VINA RESULT:    -3.440      1.638      2.659
REMARK INTER + INTRA:          -3.440
REMARK INTER:                  -3.440
REMARK INTRA:                   0.000
REMARK UNBOUND:                 0.000
REMARK SMILES CC1(C)[C@@H]2CC[C@@]1(C)C(=O)C2
REMARK SMILES IDX 1 1 2 2 4 3 5 4 6 5 7 6 9 7 10 8 11 9 8 10 3 11
REMARK H PARENT
REMARK Flexibility Score: inf
ROOT
ATOM      1  C   UNL     1      -4.165  -8.420   8.891  1.00  0.00     0.012 C 
ATOM      2  C   UNL     1      -4.674  -7.490   7.749  1.00  0.00    -0.020 C 
ATOM      3  C   UNL     1      -3.548  -6.941   6.839  1.00  0.00     0.003 C 
ATOM      4  C   UNL     1      -2.721  -6.059   7.816  1.00  0.00     0.005 C 
ATOM      5  C   UNL     1      -3.806  -5.455   8.743  1.00  0.00     0.015 C 
ATOM      6  C   UNL     1      -5.110  -6.076   8.188  1.00  0.00     0.032 C 
ATOM      7  C   UNL     1      -5.309  -5.416   6.846  1.00  0.00     0.139 C 
ATOM      8  O   UNL     1      -6.104  -4.523   6.595  1.00  0.00    -0.299 OA
ATOM      9  C   UNL     1      -4.293  -5.962   5.890  1.00  0.00     0.080 C 
ATOM     10  C   UNL     1      -6.314  -5.994   9.134  1.00  0.00     0.020 C 
ATOM     11  C   UNL     1      -5.764  -8.297   6.976  1.00  0.00     0.012 C 
ENDROOT
TORSDOF 0
ENDMDL
MODEL 6
REMARK VINA RESULT:    -3.358     19.804     21.333
REMARK INTER + INTRA:          -3.358
REMARK INTER:                  -3.358
REMARK INTRA:                   0.000
REMARK UNBOUND:                 0.000
REMARK SMILES CC1(C)[C@@H]2CC[C@@]1(C)C(=O)C2
REMARK SMILES IDX 1 1 2 2 4 3 5 4 6 5 7 6 9 7 10 8 11 9 8 10 3 11
REMARK H PARENT
REMARK Flexibility Score: inf
ROOT
ATOM      1  C   UNL     1       3.746   8.424  -8.773  1.00  0.00     0.012 C 
ATOM      2  C   UNL     1       3.396   7.300  -7.752  1.00  0.00    -0.020 C 
ATOM      3  C   UNL     1       2.671   6.086  -8.381  1.00  0.00     0.003 C 
ATOM      4  C   UNL     1       1.329   6.704  -8.864  1.00  0.00     0.005 C 
ATOM      5  C   UNL     1       1.013   7.751  -7.766  1.00  0.00     0.015 C 
ATOM      6  C   UNL     1       2.217   7.607  -6.804  1.00  0.00     0.032 C 
ATOM      7  C   UNL     1       2.028   6.261  -6.149  1.00  0.00     0.139 C 
ATOM      8  O   UNL     1       1.617   6.065  -5.016  1.00  0.00    -0.299 OA
ATOM      9  C   UNL     1       2.327   5.194  -7.156  1.00  0.00     0.080 C 
ATOM     10  C   UNL     1       2.406   8.778  -5.833  1.00  0.00     0.020 C 
ATOM     11  C   UNL     1       4.730   6.927  -7.032  1.00  0.00     0.012 C 
ENDROOT
TORSDOF 0
ENDMDL
MODEL 7
REMARK VINA RESULT:    -3.292      1.949      3.112
REMARK INTER + INTRA:          -3.292
REMARK INTER:                  -3.292
REMARK INTRA:                   0.000
REMARK UNBOUND:                 0.000
REMARK SMILES CC1(C)[C@@H]2CC[C@@]1(C)C(=O)C2
REMARK SMILES IDX 1 1 2 2 4 3 5 4 6 5 7 6 9 7 10 8 11 9 8 10 3 11
REMARK H PARENT
REMARK Flexibility Score: inf
ROOT
ATOM      1  C   UNL     1      -4.356  -4.834   8.661  1.00  0.00     0.012 C 
ATOM      2  C   UNL     1      -5.091  -6.076   8.075  1.00  0.00    -0.020 C 
ATOM      3  C   UNL     1      -4.729  -7.407   8.777  1.00  0.00     0.003 C 
ATOM      4  C   UNL     1      -3.218  -7.567   8.445  1.00  0.00     0.005 C 
ATOM      5  C   UNL     1      -3.116  -6.994   7.009  1.00  0.00     0.015 C 
ATOM      6  C   UNL     1      -4.573  -6.571   6.707  1.00  0.00     0.032 C 
ATOM      7  C   UNL     1      -5.331  -7.868   6.575  1.00  0.00     0.139 C 
ATOM      8  O   UNL     1      -5.693  -8.386   5.529  1.00  0.00    -0.299 OA
ATOM      9  C   UNL     1      -5.477  -8.478   7.935  1.00  0.00     0.080 C 
ATOM     10  C   UNL     1      -4.730  -5.606   5.527  1.00  0.00     0.020 C 
ATOM     11  C   UNL     1      -6.617  -5.745   8.112  1.00  0.00     0.012 C 
ENDROOT
TORSDOF 0
ENDMDL
MODEL 8
REMARK VINA RESULT:    -3.282      1.138      1.203
REMARK INTER + INTRA:          -3.282
REMARK INTER:                  -3.282
REMARK INTRA:                   0.000
REMARK UNBOUND:                 0.000
REMARK SMILES CC1(C)[C@@H]2CC[C@@]1(C)C(=O)C2
REMARK SMILES IDX 1 1 2 2 4 3 5 4 6 5 7 6 9 7 10 8 11 9 8 10 3 11
REMARK H PARENT
REMARK Flexibility Score: inf
ROOT
ATOM      1  C   UNL     1      -6.959  -6.430   8.362  1.00  0.00     0.012 C 
ATOM      2  C   UNL     1      -5.529  -6.270   7.764  1.00  0.00    -0.020 C 
ATOM      3  C   UNL     1      -4.840  -7.613   7.422  1.00  0.00     0.003 C 
ATOM      4  C   UNL     1      -4.683  -8.280   8.817  1.00  0.00     0.005 C 
ATOM      5  C   UNL     1      -4.390  -7.076   9.747  1.00  0.00     0.015 C 
ATOM      6  C   UNL     1      -4.428  -5.876   8.771  1.00  0.00     0.032 C 
ATOM      7  C   UNL     1      -3.196  -6.037   7.914  1.00  0.00     0.139 C 
ATOM      8  O   UNL     1      -2.160  -5.400   8.020  1.00  0.00    -0.299 OA
ATOM      9  C   UNL     1      -3.413  -7.185   6.978  1.00  0.00     0.080 C 
ATOM     10  C   UNL     1      -4.574  -4.506   9.443  1.00  0.00     0.020 C 
ATOM     11  C   UNL     1      -5.668  -5.309   6.541  1.00  0.00     0.012 C 
ENDROOT
TORSDOF 0
ENDMDL
MODEL 9
REMARK VINA RESULT:    -3.278      1.340      2.447
REMARK INTER + INTRA:          -3.278
REMARK INTER:                  -3.278
REMARK INTRA:                   0.000
REMARK UNBOUND:                 0.000
REMARK SMILES CC1(C)[C@@H]2CC[C@@]1(C)C(=O)C2
REMARK SMILES IDX 1 1 2 2 4 3 5 4 6 5 7 6 9 7 10 8 11 9 8 10 3 11
REMARK H PARENT
REMARK Flexibility Score: inf
ROOT
ATOM      1  C   UNL     1      -7.143  -5.885   7.619  1.00  0.00     0.012 C 
ATOM      2  C   UNL     1      -5.590  -5.935   7.502  1.00  0.00    -0.020 C 
ATOM      3  C   UNL     1      -5.070  -5.881   6.045  1.00  0.00     0.003 C 
ATOM      4  C   UNL     1      -5.620  -7.202   5.439  1.00  0.00     0.005 C 
ATOM      5  C   UNL     1      -5.526  -8.195   6.625  1.00  0.00     0.015 C 
ATOM      6  C   UNL     1      -4.948  -7.315   7.759  1.00  0.00     0.032 C 
ATOM      7  C   UNL     1      -3.523  -7.041   7.344  1.00  0.00     0.139 C 
ATOM      8  O   UNL     1      -2.526  -7.579   7.802  1.00  0.00    -0.299 OA
ATOM      9  C   UNL     1      -3.536  -6.076   6.200  1.00  0.00     0.080 C 
ATOM     10  C   UNL     1      -5.112  -7.895   9.168  1.00  0.00     0.020 C 
ATOM     11  C   UNL     1      -5.042  -4.784   8.404  1.00  0.00     0.012 C 
ENDROOT
TORSDOF 0
ENDMDL
