MODEL 1
REMARK VINA RESULT:    -4.517      0.000      0.000
REMARK INTER + INTRA:          -5.229
REMARK INTER:                  -5.177
REMARK INTRA:                  -0.052
REMARK UNBOUND:                -0.052
REMARK SMILES O=C([O-])c1cc(O)c(O)c(O)c1
REMARK SMILES IDX 4 1 5 2 12 3 6 4 10 5 8 6 2 7 1 8 3 9 7 10 11 12 9 14
REMARK H PARENT 7 11 11 13 9 15
REMARK Flexibility Score: inf
ROOT
ATOM      1  C   UNL     1      29.886  -5.771 -31.398  1.00  0.00     0.005 A 
ATOM      2  C   UNL     1      29.902  -7.065 -31.946  1.00  0.00     0.060 A 
ATOM      3  C   UNL     1      28.825  -5.402 -30.552  1.00  0.00     0.060 A 
ATOM      4  C   UNL     1      28.878  -7.977 -31.654  1.00  0.00     0.162 A 
ATOM      5  C   UNL     1      27.799  -6.310 -30.257  1.00  0.00     0.162 A 
ATOM      6  C   UNL     1      27.824  -7.598 -30.807  1.00  0.00     0.200 A 
ENDROOT
BRANCH   1   7
ATOM      7  C   UNL     1      30.970  -4.814 -31.711  1.00  0.00     0.072 C 
ATOM      8  O   UNL     1      31.195  -3.832 -30.955  1.00  0.00    -0.545 OA
ATOM      9  O   UNL     1      31.755  -4.984 -32.845  1.00  0.00    -0.545 OA
ENDBRANCH   1   7
BRANCH   4  10
ATOM     10  O   UNL     1      28.905  -9.258 -32.203  1.00  0.00    -0.504 OA
ATOM     11  H   UNL     1      28.097  -9.869 -32.166  1.00  0.00     0.293 HD
ENDBRANCH   4  10
BRANCH   5  12
ATOM     12  O   UNL     1      26.751  -5.939 -29.417  1.00  0.00    -0.504 OA
ATOM     13  H   UNL     1      26.860  -5.211 -28.720  1.00  0.00     0.293 HD
ENDBRANCH   5  12
BRANCH   6  14
ATOM     14  O   UNL     1      26.793  -8.488 -30.501  1.00  0.00    -0.502 OA
ATOM     15  H   UNL     1      25.869  -8.171 -30.233  1.00  0.00     0.293 HD
ENDBRANCH   6  14
TORSDOF 4
ENDMDL
MODEL 2
REMARK VINA RESULT:    -4.482      0.100      2.423
REMARK INTER + INTRA:          -5.189
REMARK INTER:                  -5.137
REMARK INTRA:                  -0.051
REMARK UNBOUND:                -0.052
REMARK SMILES O=C([O-])c1cc(O)c(O)c(O)c1
REMARK SMILES IDX 4 1 5 2 12 3 6 4 10 5 8 6 2 7 1 8 3 9 7 10 11 12 9 14
REMARK H PARENT 7 11 11 13 9 15
REMARK Flexibility Score: inf
ROOT
ATOM      1  C   UNL     1      29.966  -5.797 -31.458  1.00  0.00     0.005 A 
ATOM      2  C   UNL     1      28.921  -5.398 -30.608  1.00  0.00     0.060 A 
ATOM      3  C   UNL     1      29.953  -7.098 -31.990  1.00  0.00     0.060 A 
ATOM      4  C   UNL     1      27.879  -6.282 -30.293  1.00  0.00     0.162 A 
ATOM      5  C   UNL     1      28.913  -7.986 -31.678  1.00  0.00     0.162 A 
ATOM      6  C   UNL     1      27.875  -7.580 -30.830  1.00  0.00     0.200 A 
ENDROOT
BRANCH   1   7
ATOM      7  C   UNL     1      31.062  -4.859 -31.786  1.00  0.00     0.072 C 
ATOM      8  O   UNL     1      31.325  -3.890 -31.027  1.00  0.00    -0.545 OA
ATOM      9  O   UNL     1      31.817  -5.035 -32.940  1.00  0.00    -0.545 OA
ENDBRANCH   1   7
BRANCH   4  10
ATOM     10  O   UNL     1      26.848  -5.875 -29.448  1.00  0.00    -0.504 OA
ATOM     11  H   UNL     1      26.943  -5.908 -28.439  1.00  0.00     0.293 HD
ENDBRANCH   4  10
BRANCH   5  12
ATOM     12  O   UNL     1      28.906  -9.275 -32.209  1.00  0.00    -0.504 OA
ATOM     13  H   UNL     1      29.640  -9.600 -32.827  1.00  0.00     0.293 HD
ENDBRANCH   5  12
BRANCH   6  14
ATOM     14  O   UNL     1      26.850  -8.477 -30.531  1.00  0.00    -0.502 OA
ATOM     15  H   UNL     1      25.907  -8.355 -30.884  1.00  0.00     0.293 HD
ENDBRANCH   6  14
TORSDOF 4
ENDMDL
MODEL 3
REMARK VINA RESULT:    -4.377      1.677      1.858
REMARK INTER + INTRA:          -5.069
REMARK INTER:                  -5.017
REMARK INTRA:                  -0.051
REMARK UNBOUND:                -0.052
REMARK SMILES O=C([O-])c1cc(O)c(O)c(O)c1
REMARK SMILES IDX 4 1 5 2 12 3 6 4 10 5 8 6 2 7 1 8 3 9 7 10 11 12 9 14
REMARK H PARENT 7 11 11 13 9 15
REMARK Flexibility Score: inf
ROOT
ATOM      1  C   UNL     1      31.089  -6.711 -31.011  1.00  0.00     0.005 A 
ATOM      2  C   UNL     1      30.656  -7.911 -31.601  1.00  0.00     0.060 A 
ATOM      3  C   UNL     1      30.129  -5.780 -30.576  1.00  0.00     0.060 A 
ATOM      4  C   UNL     1      29.289  -8.178 -31.755  1.00  0.00     0.162 A 
ATOM      5  C   UNL     1      28.761  -6.043 -30.728  1.00  0.00     0.162 A 
ATOM      6  C   UNL     1      28.338  -7.242 -31.317  1.00  0.00     0.200 A 
ENDROOT
BRANCH   1   7
ATOM      7  C   UNL     1      32.534  -6.435 -30.851  1.00  0.00     0.072 C 
ATOM      8  O   UNL     1      33.364  -7.381 -30.790  1.00  0.00    -0.545 OA
ATOM      9  O   UNL     1      32.996  -5.127 -30.766  1.00  0.00    -0.545 OA
ENDBRANCH   1   7
BRANCH   4  10
ATOM     10  O   UNL     1      28.871  -9.372 -32.342  1.00  0.00    -0.504 OA
ATOM     11  H   UNL     1      27.978  -9.448 -32.814  1.00  0.00     0.293 HD
ENDBRANCH   4  10
BRANCH   5  12
ATOM     12  O   UNL     1      27.814  -5.116 -30.295  1.00  0.00    -0.504 OA
ATOM     13  H   UNL     1      27.772  -4.811 -29.330  1.00  0.00     0.293 HD
ENDBRANCH   5  12
BRANCH   6  14
ATOM     14  O   UNL     1      26.972  -7.485 -31.459  1.00  0.00    -0.502 OA
ATOM     15  H   UNL     1      26.599  -8.030 -32.228  1.00  0.00     0.293 HD
ENDBRANCH   6  14
TORSDOF 4
ENDMDL
MODEL 4
REMARK VINA RESULT:    -4.365      1.673      2.998
REMARK INTER + INTRA:          -5.054
REMARK INTER:                  -5.003
REMARK INTRA:                  -0.051
REMARK UNBOUND:                -0.052
REMARK SMILES O=C([O-])c1cc(O)c(O)c(O)c1
REMARK SMILES IDX 4 1 5 2 12 3 6 4 10 5 8 6 2 7 1 8 3 9 7 10 11 12 9 14
REMARK H PARENT 7 11 11 13 9 15
REMARK Flexibility Score: inf
ROOT
ATOM      1  C   UNL     1      31.118  -6.694 -31.011  1.00  0.00     0.005 A 
ATOM      2  C   UNL     1      30.140  -5.777 -30.593  1.00  0.00     0.060 A 
ATOM      3  C   UNL     1      30.711  -7.908 -31.592  1.00  0.00     0.060 A 
ATOM      4  C   UNL     1      28.777  -6.065 -30.751  1.00  0.00     0.162 A 
ATOM      5  C   UNL     1      29.349  -8.200 -31.752  1.00  0.00     0.162 A 
ATOM      6  C   UNL     1      28.380  -7.280 -31.333  1.00  0.00     0.200 A 
ENDROOT
BRANCH   1   7
ATOM      7  C   UNL     1      32.555  -6.384 -30.841  1.00  0.00     0.072 C 
ATOM      8  O   UNL     1      33.407  -7.310 -30.774  1.00  0.00    -0.545 OA
ATOM      9  O   UNL     1      32.985  -5.065 -30.753  1.00  0.00    -0.545 OA
ENDBRANCH   1   7
BRANCH   4  10
ATOM     10  O   UNL     1      27.815  -5.147 -30.331  1.00  0.00    -0.504 OA
ATOM     11  H   UNL     1      27.027  -5.427 -29.759  1.00  0.00     0.293 HD
ENDBRANCH   4  10
BRANCH   5  12
ATOM     12  O   UNL     1      28.952  -9.406 -32.330  1.00  0.00    -0.504 OA
ATOM     13  H   UNL     1      28.073  -9.493 -32.826  1.00  0.00     0.293 HD
ENDBRANCH   5  12
BRANCH   6  14
ATOM     14  O   UNL     1      27.030  -7.589 -31.501  1.00  0.00    -0.502 OA
ATOM     15  H   UNL     1      26.525  -8.171 -30.843  1.00  0.00     0.293 HD
ENDBRANCH   6  14
TORSDOF 4
ENDMDL
MODEL 5
REMARK VINA RESULT:    -4.224      2.287      2.857
REMARK INTER + INTRA:          -4.893
REMARK INTER:                  -4.847
REMARK INTRA:                  -0.046
REMARK UNBOUND:                -0.052
REMARK SMILES O=C([O-])c1cc(O)c(O)c(O)c1
REMARK SMILES IDX 4 1 5 2 12 3 6 4 10 5 8 6 2 7 1 8 3 9 7 10 11 12 9 14
REMARK H PARENT 7 11 11 13 9 15
REMARK Flexibility Score: inf
ROOT
ATOM      1  C   UNL     1      31.057  -7.425 -31.224  1.00  0.00     0.005 A 
ATOM      2  C   UNL     1      31.148  -7.628 -29.837  1.00  0.00     0.060 A 
ATOM      3  C   UNL     1      29.789  -7.427 -31.832  1.00  0.00     0.060 A 
ATOM      4  C   UNL     1      29.994  -7.830 -29.067  1.00  0.00     0.162 A 
ATOM      5  C   UNL     1      28.632  -7.628 -31.066  1.00  0.00     0.162 A 
ATOM      6  C   UNL     1      28.732  -7.829 -29.683  1.00  0.00     0.200 A 
ENDROOT
BRANCH   1   7
ATOM      7  C   UNL     1      32.279  -7.213 -32.031  1.00  0.00     0.072 C 
ATOM      8  O   UNL     1      33.144  -8.122 -32.135  1.00  0.00    -0.545 OA
ATOM      9  O   UNL     1      32.489  -6.005 -32.686  1.00  0.00    -0.545 OA
ENDBRANCH   1   7
BRANCH   4  10
ATOM     10  O   UNL     1      30.098  -8.031 -27.691  1.00  0.00    -0.504 OA
ATOM     11  H   UNL     1      29.561  -7.478 -27.032  1.00  0.00     0.293 HD
ENDBRANCH   4  10
BRANCH   5  12
ATOM     12  O   UNL     1      27.377  -7.628 -31.673  1.00  0.00    -0.504 OA
ATOM     13  H   UNL     1      27.185  -7.070 -32.496  1.00  0.00     0.293 HD
ENDBRANCH   5  12
BRANCH   6  14
ATOM     14  O   UNL     1      27.569  -8.027 -28.938  1.00  0.00    -0.502 OA
ATOM     15  H   UNL     1      26.755  -8.490 -29.324  1.00  0.00     0.293 HD
ENDBRANCH   6  14
TORSDOF 4
ENDMDL
MODEL 6
REMARK VINA RESULT:    -4.163      1.441      2.081
REMARK INTER + INTRA:          -4.823
REMARK INTER:                  -4.775
REMARK INTRA:                  -0.048
REMARK UNBOUND:                -0.052
REMARK SMILES O=C([O-])c1cc(O)c(O)c(O)c1
REMARK SMILES IDX 4 1 5 2 12 3 6 4 10 5 8 6 2 7 1 8 3 9 7 10 11 12 9 14
REMARK H PARENT 7 11 11 13 9 15
REMARK Flexibility Score: inf
ROOT
ATOM      1  C   UNL     1      30.027  -5.420 -30.613  1.00  0.00     0.005 A 
ATOM      2  C   UNL     1      31.033  -6.317 -31.008  1.00  0.00     0.060 A 
ATOM      3  C   UNL     1      28.681  -5.803 -30.744  1.00  0.00     0.060 A 
ATOM      4  C   UNL     1      30.702  -7.578 -31.526  1.00  0.00     0.162 A 
ATOM      5  C   UNL     1      28.345  -7.063 -31.260  1.00  0.00     0.162 A 
ATOM      6  C   UNL     1      29.354  -7.952 -31.652  1.00  0.00     0.200 A 
ENDROOT
BRANCH   1   7
ATOM      7  C   UNL     1      30.383  -4.091 -30.068  1.00  0.00     0.072 C 
ATOM      8  O   UNL     1      29.892  -3.693 -28.978  1.00  0.00    -0.545 OA
ATOM      9  O   UNL     1      31.265  -3.262 -30.752  1.00  0.00    -0.545 OA
ENDBRANCH   1   7
BRANCH   4  10
ATOM     10  O   UNL     1      31.709  -8.460 -31.915  1.00  0.00    -0.504 OA
ATOM     11  H   UNL     1      32.675  -8.316 -31.645  1.00  0.00     0.293 HD
ENDBRANCH   4  10
BRANCH   5  12
ATOM     12  O   UNL     1      27.008  -7.437 -31.387  1.00  0.00    -0.504 OA
ATOM     13  H   UNL     1      26.255  -6.775 -31.248  1.00  0.00     0.293 HD
ENDBRANCH   5  12
BRANCH   6  14
ATOM     14  O   UNL     1      29.000  -9.200 -32.163  1.00  0.00    -0.502 OA
ATOM     15  H   UNL     1      29.267  -9.496 -33.095  1.00  0.00     0.293 HD
ENDBRANCH   6  14
TORSDOF 4
ENDMDL
MODEL 7
REMARK VINA RESULT:    -4.159      1.654      3.309
REMARK INTER + INTRA:          -4.819
REMARK INTER:                  -4.774
REMARK INTRA:                  -0.045
REMARK UNBOUND:                -0.052
REMARK SMILES O=C([O-])c1cc(O)c(O)c(O)c1
REMARK SMILES IDX 4 1 5 2 12 3 6 4 10 5 8 6 2 7 1 8 3 9 7 10 11 12 9 14
REMARK H PARENT 7 11 11 13 9 15
REMARK Flexibility Score: inf
ROOT
ATOM      1  C   UNL     1      27.862  -5.466 -29.583  1.00  0.00     0.005 A 
ATOM      2  C   UNL     1      28.944  -5.443 -30.479  1.00  0.00     0.060 A 
ATOM      3  C   UNL     1      27.065  -6.622 -29.505  1.00  0.00     0.060 A 
ATOM      4  C   UNL     1      29.227  -6.555 -31.285  1.00  0.00     0.162 A 
ATOM      5  C   UNL     1      27.345  -7.736 -30.308  1.00  0.00     0.162 A 
ATOM      6  C   UNL     1      28.425  -7.705 -31.199  1.00  0.00     0.200 A 
ENDROOT
BRANCH   1   7
ATOM      7  C   UNL     1      27.569  -4.290 -28.734  1.00  0.00     0.072 C 
ATOM      8  O   UNL     1      27.800  -4.318 -27.497  1.00  0.00    -0.545 OA
ATOM      9  O   UNL     1      27.033  -3.135 -29.293  1.00  0.00    -0.545 OA
ENDBRANCH   1   7
BRANCH   4  10
ATOM     10  O   UNL     1      30.303  -6.521 -32.171  1.00  0.00    -0.504 OA
ATOM     11  H   UNL     1      30.422  -5.762 -32.833  1.00  0.00     0.293 HD
ENDBRANCH   4  10
BRANCH   5  12
ATOM     12  O   UNL     1      26.551  -8.879 -30.226  1.00  0.00    -0.504 OA
ATOM     13  H   UNL     1      26.892  -9.786 -30.524  1.00  0.00     0.293 HD
ENDBRANCH   5  12
BRANCH   6  14
ATOM     14  O   UNL     1      28.687  -8.824 -31.991  1.00  0.00    -0.502 OA
ATOM     15  H   UNL     1      28.149  -9.679 -31.910  1.00  0.00     0.293 HD
ENDBRANCH   6  14
TORSDOF 4
ENDMDL
MODEL 8
REMARK VINA RESULT:    -4.158      1.528      2.908
REMARK INTER + INTRA:          -4.817
REMARK INTER:                  -4.764
REMARK INTRA:                  -0.053
REMARK UNBOUND:                -0.052
REMARK SMILES O=C([O-])c1cc(O)c(O)c(O)c1
REMARK SMILES IDX 4 1 5 2 12 3 6 4 10 5 8 6 2 7 1 8 3 9 7 10 11 12 9 14
REMARK H PARENT 7 11 11 13 9 15
REMARK Flexibility Score: inf
ROOT
ATOM      1  C   UNL     1      29.920  -5.412 -30.399  1.00  0.00     0.005 A 
ATOM      2  C   UNL     1      28.578  -5.803 -30.539  1.00  0.00     0.060 A 
ATOM      3  C   UNL     1      30.933  -6.273 -30.858  1.00  0.00     0.060 A 
ATOM      4  C   UNL     1      28.250  -7.033 -31.127  1.00  0.00     0.162 A 
ATOM      5  C   UNL     1      30.610  -7.503 -31.448  1.00  0.00     0.162 A 
ATOM      6  C   UNL     1      29.269  -7.885 -31.583  1.00  0.00     0.200 A 
ENDROOT
BRANCH   1   7
ATOM      7  C   UNL     1      30.260  -4.113 -29.777  1.00  0.00     0.072 C 
ATOM      8  O   UNL     1      29.352  -3.344 -29.363  1.00  0.00    -0.545 OA
ATOM      9  O   UNL     1      31.587  -3.722 -29.642  1.00  0.00    -0.545 OA
ENDBRANCH   1   7
BRANCH   4  10
ATOM     10  O   UNL     1      26.914  -7.410 -31.260  1.00  0.00    -0.504 OA
ATOM     11  H   UNL     1      26.158  -6.768 -31.053  1.00  0.00     0.293 HD
ENDBRANCH   4  10
BRANCH   5  12
ATOM     12  O   UNL     1      31.618  -8.352 -31.902  1.00  0.00    -0.504 OA
ATOM     13  H   UNL     1      32.115  -8.971 -31.272  1.00  0.00     0.293 HD
ENDBRANCH   5  12
BRANCH   6  14
ATOM     14  O   UNL     1      28.967  -9.114 -32.172  1.00  0.00    -0.502 OA
ATOM     15  H   UNL     1      28.972  -9.979 -31.645  1.00  0.00     0.293 HD
ENDBRANCH   6  14
TORSDOF 4
ENDMDL
MODEL 9
REMARK VINA RESULT:    -4.135      1.632      3.516
REMARK INTER + INTRA:          -4.791
REMARK INTER:                  -4.739
REMARK INTRA:                  -0.053
REMARK UNBOUND:                -0.052
REMARK SMILES O=C([O-])c1cc(O)c(O)c(O)c1
REMARK SMILES IDX 4 1 5 2 12 3 6 4 10 5 8 6 2 7 1 8 3 9 7 10 11 12 9 14
REMARK H PARENT 7 11 11 13 9 15
REMARK Flexibility Score: inf
ROOT
ATOM      1  C   UNL     1      27.833  -5.429 -29.616  1.00  0.00     0.005 A 
ATOM      2  C   UNL     1      27.030  -6.579 -29.530  1.00  0.00     0.060 A 
ATOM      3  C   UNL     1      28.930  -5.428 -30.495  1.00  0.00     0.060 A 
ATOM      4  C   UNL     1      27.316  -7.710 -30.308  1.00  0.00     0.162 A 
ATOM      5  C   UNL     1      29.220  -6.556 -31.276  1.00  0.00     0.162 A 
ATOM      6  C   UNL     1      28.414  -7.697 -31.184  1.00  0.00     0.200 A 
ENDROOT
BRANCH   1   7
ATOM      7  C   UNL     1      27.526  -4.239 -28.792  1.00  0.00     0.072 C 
ATOM      8  O   UNL     1      26.578  -4.261 -27.963  1.00  0.00    -0.545 OA
ATOM      9  O   UNL     1      28.281  -3.079 -28.921  1.00  0.00    -0.545 OA
ENDBRANCH   1   7
BRANCH   4  10
ATOM     10  O   UNL     1      26.512  -8.845 -30.214  1.00  0.00    -0.504 OA
ATOM     11  H   UNL     1      25.942  -9.025 -29.396  1.00  0.00     0.293 HD
ENDBRANCH   4  10
BRANCH   5  12
ATOM     12  O   UNL     1      30.309  -6.548 -32.146  1.00  0.00    -0.504 OA
ATOM     13  H   UNL     1      30.849  -7.385 -32.329  1.00  0.00     0.293 HD
ENDBRANCH   5  12
BRANCH   6  14
ATOM     14  O   UNL     1      28.719  -8.810 -31.969  1.00  0.00    -0.502 OA
ATOM     15  H   UNL     1      29.516  -9.405 -31.774  1.00  0.00     0.293 HD
ENDBRANCH   6  14
TORSDOF 4
ENDMDL
