MODEL 1
REMARK VINA RESULT:    -3.914      0.000      0.000
REMARK INTER + INTRA:         -10.015
REMARK INTER:                  -8.491
REMARK INTRA:                  -1.524
REMARK UNBOUND:                -1.524
REMARK SMILES CCCCCCCCCCCCCCCCCCCCCC(=O)[O-]
REMARK SMILES IDX 12 1 11 2 10 3 9 4 8 5 7 6 6 7 5 8 4 9 3 10 2 11 1 12 13 13
REMARK SMILES IDX 14 14 15 15 16 16 17 17 18 18 19 19 20 20 21 21 22 22 23 23
REMARK SMILES IDX 24 24
REMARK H PARENT
REMARK Flexibility Score: inf
ROOT
ATOM      1  C   UNL     1      -8.678   5.746  -3.135  1.00  0.00     0.000 C 
ENDROOT
BRANCH   1   2
ATOM      2  C   UNL     1      -8.440   7.190  -3.617  1.00  0.00     0.000 C 
BRANCH   2   3
ATOM      3  C   UNL     1      -7.069   7.355  -4.291  1.00  0.00     0.000 C 
BRANCH   3   4
ATOM      4  C   UNL     1      -7.122   8.432  -5.387  1.00  0.00    -0.000 C 
BRANCH   4   5
ATOM      5  C   UNL     1      -5.724   8.910  -5.826  1.00  0.00    -0.000 C 
BRANCH   5   6
ATOM      6  C   UNL     1      -4.689   9.039  -4.688  1.00  0.00    -0.000 C 
BRANCH   6   7
ATOM      7  C   UNL     1      -4.147  10.462  -4.452  1.00  0.00    -0.000 C 
BRANCH   7   8
ATOM      8  C   UNL     1      -5.002  11.591  -5.054  1.00  0.00    -0.000 C 
BRANCH   8   9
ATOM      9  C   UNL     1      -5.338  12.690  -4.035  1.00  0.00    -0.000 C 
BRANCH   9  10
ATOM     10  C   UNL     1      -4.605  12.453  -2.706  1.00  0.00    -0.000 C 
BRANCH  10  11
ATOM     11  C   UNL     1      -5.250  13.204  -1.532  1.00  0.00    -0.003 C 
ATOM     12  C   UNL     1      -4.552  12.934  -0.198  1.00  0.00     0.004 C 
ENDBRANCH  10  11
ENDBRANCH   9  10
ENDBRANCH   8   9
ENDBRANCH   7   8
ENDBRANCH   6   7
ENDBRANCH   5   6
ENDBRANCH   4   5
ENDBRANCH   3   4
ENDBRANCH   2   3
ENDBRANCH   1   2
BRANCH   1  13
ATOM     13  C   UNL     1      -8.550   4.694  -4.253  1.00  0.00     0.000 C 
BRANCH  13  14
ATOM     14  C   UNL     1      -8.175   3.304  -3.707  1.00  0.00     0.000 C 
BRANCH  14  15
ATOM     15  C   UNL     1      -8.028   3.299  -2.169  1.00  0.00     0.000 C 
BRANCH  15  16
ATOM     16  C   UNL     1      -6.690   2.718  -1.678  1.00  0.00     0.000 C 
BRANCH  16  17
ATOM     17  C   UNL     1      -6.363   1.353  -2.298  1.00  0.00     0.000 C 
BRANCH  17  18
ATOM     18  C   UNL     1      -6.546   0.224  -1.276  1.00  0.00     0.000 C 
BRANCH  18  19
ATOM     19  C   UNL     1      -5.314   0.094  -0.373  1.00  0.00     0.000 C 
BRANCH  19  20
ATOM     20  C   UNL     1      -5.723  -0.028   1.100  1.00  0.00     0.006 C 
BRANCH  20  21
ATOM     21  C   UNL     1      -5.045   1.051   1.951  1.00  0.00     0.053 C 
BRANCH  21  22
ATOM     22  C   UNL     1      -5.886   2.287   1.998  1.00  0.00     0.041 C 
ATOM     23  O   UNL     1      -5.353   3.409   2.209  1.00  0.00    -0.550 OA
ATOM     24  O   UNL     1      -7.258   2.206   1.787  1.00  0.00    -0.550 OA
ENDBRANCH  21  22
ENDBRANCH  20  21
ENDBRANCH  19  20
ENDBRANCH  18  19
ENDBRANCH  17  18
ENDBRANCH  16  17
ENDBRANCH  15  16
ENDBRANCH  14  15
ENDBRANCH  13  14
ENDBRANCH   1  13
TORSDOF 20
ENDMDL
MODEL 2
REMARK VINA RESULT:    -3.856      7.094      9.997
REMARK INTER + INTRA:          -9.889
REMARK INTER:                  -6.997
REMARK INTRA:                  -2.892
REMARK UNBOUND:                -1.524
REMARK SMILES CCCCCCCCCCCCCCCCCCCCCC(=O)[O-]
REMARK SMILES IDX 12 1 11 2 10 3 9 4 8 5 7 6 6 7 5 8 4 9 3 10 2 11 1 12 13 13
REMARK SMILES IDX 14 14 15 15 16 16 17 17 18 18 19 19 20 20 21 21 22 22 23 23
REMARK SMILES IDX 24 24
REMARK H PARENT
REMARK Flexibility Score: inf
ROOT
ATOM      1  C   UNL     1      -2.110  10.227  -7.557  1.00  0.00     0.000 C 
ENDROOT
BRANCH   1   2
ATOM      2  C   UNL     1      -1.636   8.789  -7.270  1.00  0.00     0.000 C 
BRANCH   2   3
ATOM      3  C   UNL     1      -2.811   7.812  -7.115  1.00  0.00     0.000 C 
BRANCH   3   4
ATOM      4  C   UNL     1      -3.314   7.783  -5.662  1.00  0.00    -0.000 C 
BRANCH   4   5
ATOM      5  C   UNL     1      -4.822   8.077  -5.544  1.00  0.00    -0.000 C 
BRANCH   5   6
ATOM      6  C   UNL     1      -5.182   9.346  -4.744  1.00  0.00    -0.000 C 
BRANCH   6   7
ATOM      7  C   UNL     1      -5.203  10.654  -5.561  1.00  0.00    -0.000 C 
BRANCH   7   8
ATOM      8  C   UNL     1      -4.527  11.856  -4.879  1.00  0.00    -0.000 C 
BRANCH   8   9
ATOM      9  C   UNL     1      -3.920  11.501  -3.514  1.00  0.00    -0.000 C 
BRANCH   9  10
ATOM     10  C   UNL     1      -4.071  12.666  -2.523  1.00  0.00    -0.000 C 
BRANCH  10  11
ATOM     11  C   UNL     1      -3.831  12.240  -1.067  1.00  0.00    -0.003 C 
ATOM     12  C   UNL     1      -4.702  13.007  -0.071  1.00  0.00     0.004 C 
ENDBRANCH  10  11
ENDBRANCH   9  10
ENDBRANCH   8   9
ENDBRANCH   7   8
ENDBRANCH   6   7
ENDBRANCH   5   6
ENDBRANCH   4   5
ENDBRANCH   3   4
ENDBRANCH   2   3
ENDBRANCH   1   2
BRANCH   1  13
ATOM     13  C   UNL     1      -1.376  11.296  -6.726  1.00  0.00     0.000 C 
BRANCH  13  14
ATOM     14  C   UNL     1      -0.791  10.722  -5.422  1.00  0.00     0.000 C 
BRANCH  14  15
ATOM     15  C   UNL     1       0.751  10.661  -5.448  1.00  0.00     0.000 C 
BRANCH  15  16
ATOM     16  C   UNL     1       1.381  11.433  -6.621  1.00  0.00     0.000 C 
BRANCH  16  17
ATOM     17  C   UNL     1       2.330  10.575  -7.467  1.00  0.00     0.000 C 
BRANCH  17  18
ATOM     18  C   UNL     1       2.078   9.080  -7.235  1.00  0.00     0.000 C 
BRANCH  18  19
ATOM     19  C   UNL     1       3.381   8.349  -6.891  1.00  0.00     0.000 C 
BRANCH  19  20
ATOM     20  C   UNL     1       3.448   8.020  -5.394  1.00  0.00     0.006 C 
BRANCH  20  21
ATOM     21  C   UNL     1       4.807   8.412  -4.805  1.00  0.00     0.053 C 
BRANCH  21  22
ATOM     22  C   UNL     1       5.125   9.840  -5.122  1.00  0.00     0.041 C 
ATOM     23  O   UNL     1       4.470  10.770  -4.580  1.00  0.00    -0.550 OA
ATOM     24  O   UNL     1       6.160  10.145  -5.999  1.00  0.00    -0.550 OA
ENDBRANCH  21  22
ENDBRANCH  20  21
ENDBRANCH  19  20
ENDBRANCH  18  19
ENDBRANCH  17  18
ENDBRANCH  16  17
ENDBRANCH  15  16
ENDBRANCH  14  15
ENDBRANCH  13  14
ENDBRANCH   1  13
TORSDOF 20
ENDMDL
MODEL 3
REMARK VINA RESULT:    -3.820     12.236     15.294
REMARK INTER + INTRA:          -9.810
REMARK INTER:                  -6.012
REMARK INTRA:                  -3.798
REMARK UNBOUND:                -1.524
REMARK SMILES CCCCCCCCCCCCCCCCCCCCCC(=O)[O-]
REMARK SMILES IDX 12 1 11 2 10 3 9 4 8 5 7 6 6 7 5 8 4 9 3 10 2 11 1 12 13 13
REMARK SMILES IDX 14 14 15 15 16 16 17 17 18 18 19 19 20 20 21 21 22 22 23 23
REMARK SMILES IDX 24 24
REMARK H PARENT
REMARK Flexibility Score: inf
ROOT
ATOM      1  C   UNL     1       6.175  10.678  -1.886  1.00  0.00     0.000 C 
ENDROOT
BRANCH   1   2
ATOM      2  C   UNL     1       7.595  11.173  -2.219  1.00  0.00     0.000 C 
BRANCH   2   3
ATOM      3  C   UNL     1       8.664  10.113  -1.911  1.00  0.00     0.000 C 
BRANCH   3   4
ATOM      4  C   UNL     1       8.017   8.746  -1.630  1.00  0.00    -0.000 C 
BRANCH   4   5
ATOM      5  C   UNL     1       8.870   7.565  -2.133  1.00  0.00    -0.000 C 
BRANCH   5   6
ATOM      6  C   UNL     1       9.213   7.599  -3.637  1.00  0.00    -0.000 C 
BRANCH   6   7
ATOM      7  C   UNL     1       8.001   7.558  -4.588  1.00  0.00    -0.000 C 
BRANCH   7   8
ATOM      8  C   UNL     1       7.695   8.882  -5.309  1.00  0.00    -0.000 C 
BRANCH   8   9
ATOM      9  C   UNL     1       6.194   9.204  -5.349  1.00  0.00    -0.000 C 
BRANCH   9  10
ATOM     10  C   UNL     1       5.377   8.118  -4.631  1.00  0.00    -0.000 C 
BRANCH  10  11
ATOM     11  C   UNL     1       3.901   8.109  -5.056  1.00  0.00    -0.003 C 
ATOM     12  C   UNL     1       3.717   7.960  -6.567  1.00  0.00     0.004 C 
ENDBRANCH  10  11
ENDBRANCH   9  10
ENDBRANCH   8   9
ENDBRANCH   7   8
ENDBRANCH   6   7
ENDBRANCH   5   6
ENDBRANCH   4   5
ENDBRANCH   3   4
ENDBRANCH   2   3
ENDBRANCH   1   2
BRANCH   1  13
ATOM     13  C   UNL     1       5.293  11.744  -1.208  1.00  0.00     0.000 C 
BRANCH  13  14
ATOM     14  C   UNL     1       6.088  13.011  -0.840  1.00  0.00     0.000 C 
BRANCH  14  15
ATOM     15  C   UNL     1       6.207  13.204   0.687  1.00  0.00     0.000 C 
BRANCH  15  16
ATOM     16  C   UNL     1       7.636  13.015   1.225  1.00  0.00     0.000 C 
BRANCH  16  17
ATOM     17  C   UNL     1       7.741  11.905   2.279  1.00  0.00     0.000 C 
BRANCH  17  18
ATOM     18  C   UNL     1       7.946  10.535   1.619  1.00  0.00     0.000 C 
BRANCH  18  19
ATOM     19  C   UNL     1       6.662   9.698   1.679  1.00  0.00     0.000 C 
BRANCH  19  20
ATOM     20  C   UNL     1       6.985   8.210   1.860  1.00  0.00     0.006 C 
BRANCH  20  21
ATOM     21  C   UNL     1       8.412   8.015   2.381  1.00  0.00     0.053 C 
BRANCH  21  22
ATOM     22  C   UNL     1       9.147   7.020   1.539  1.00  0.00     0.041 C 
ATOM     23  O   UNL     1      10.321   7.261   1.152  1.00  0.00    -0.550 OA
ATOM     24  O   UNL     1       8.544   5.814   1.200  1.00  0.00    -0.550 OA
ENDBRANCH  21  22
ENDBRANCH  20  21
ENDBRANCH  19  20
ENDBRANCH  18  19
ENDBRANCH  17  18
ENDBRANCH  16  17
ENDBRANCH  15  16
ENDBRANCH  14  15
ENDBRANCH  13  14
ENDBRANCH   1  13
TORSDOF 20
ENDMDL
MODEL 4
REMARK VINA RESULT:    -3.812      6.177      9.633
REMARK INTER + INTRA:          -9.793
REMARK INTER:                  -5.669
REMARK INTRA:                  -4.124
REMARK UNBOUND:                -1.524
REMARK SMILES CCCCCCCCCCCCCCCCCCCCCC(=O)[O-]
REMARK SMILES IDX 12 1 11 2 10 3 9 4 8 5 7 6 6 7 5 8 4 9 3 10 2 11 1 12 13 13
REMARK SMILES IDX 14 14 15 15 16 16 17 17 18 18 19 19 20 20 21 21 22 22 23 23
REMARK SMILES IDX 24 24
REMARK H PARENT
REMARK Flexibility Score: inf
ROOT
ATOM      1  C   UNL     1      -3.082   9.084  -5.430  1.00  0.00     0.000 C 
ENDROOT
BRANCH   1   2
ATOM      2  C   UNL     1      -3.390   7.604  -5.727  1.00  0.00     0.000 C 
BRANCH   2   3
ATOM      3  C   UNL     1      -2.794   7.147  -7.067  1.00  0.00     0.000 C 
BRANCH   3   4
ATOM      4  C   UNL     1      -1.993   8.281  -7.728  1.00  0.00    -0.000 C 
BRANCH   4   5
ATOM      5  C   UNL     1      -2.650   8.804  -9.020  1.00  0.00    -0.000 C 
BRANCH   5   6
ATOM      6  C   UNL     1      -3.100  10.279  -8.974  1.00  0.00    -0.000 C 
BRANCH   6   7
ATOM      7  C   UNL     1      -4.547  10.509  -8.494  1.00  0.00    -0.000 C 
BRANCH   7   8
ATOM      8  C   UNL     1      -5.455   9.269  -8.551  1.00  0.00    -0.000 C 
BRANCH   8   9
ATOM      9  C   UNL     1      -6.499   9.245  -7.424  1.00  0.00    -0.000 C 
BRANCH   9  10
ATOM     10  C   UNL     1      -6.793   7.805  -6.975  1.00  0.00    -0.000 C 
BRANCH  10  11
ATOM     11  C   UNL     1      -7.678   7.745  -5.721  1.00  0.00    -0.003 C 
ATOM     12  C   UNL     1      -6.880   7.494  -4.441  1.00  0.00     0.004 C 
ENDBRANCH  10  11
ENDBRANCH   9  10
ENDBRANCH   8   9
ENDBRANCH   7   8
ENDBRANCH   6   7
ENDBRANCH   5   6
ENDBRANCH   4   5
ENDBRANCH   3   4
ENDBRANCH   2   3
ENDBRANCH   1   2
BRANCH   1  13
ATOM     13  C   UNL     1      -3.943   9.679  -4.300  1.00  0.00     0.000 C 
BRANCH  13  14
ATOM     14  C   UNL     1      -4.767  10.892  -4.770  1.00  0.00     0.000 C 
BRANCH  14  15
ATOM     15  C   UNL     1      -4.620  12.102  -3.822  1.00  0.00     0.000 C 
BRANCH  15  16
ATOM     16  C   UNL     1      -3.491  13.068  -4.223  1.00  0.00     0.000 C 
BRANCH  16  17
ATOM     17  C   UNL     1      -2.130  12.681  -3.632  1.00  0.00     0.000 C 
BRANCH  17  18
ATOM     18  C   UNL     1      -1.016  12.811  -4.678  1.00  0.00     0.000 C 
BRANCH  18  19
ATOM     19  C   UNL     1      -1.469  12.257  -6.035  1.00  0.00     0.000 C 
BRANCH  19  20
ATOM     20  C   UNL     1      -0.335  11.481  -6.717  1.00  0.00     0.006 C 
BRANCH  20  21
ATOM     21  C   UNL     1       0.268  10.440  -5.768  1.00  0.00     0.053 C 
BRANCH  21  22
ATOM     22  C   UNL     1       1.562   9.921  -6.312  1.00  0.00     0.041 C 
ATOM     23  O   UNL     1       2.650  10.466  -5.987  1.00  0.00    -0.550 OA
ATOM     24  O   UNL     1       1.569   8.820  -7.161  1.00  0.00    -0.550 OA
ENDBRANCH  21  22
ENDBRANCH  20  21
ENDBRANCH  19  20
ENDBRANCH  18  19
ENDBRANCH  17  18
ENDBRANCH  16  17
ENDBRANCH  15  16
ENDBRANCH  14  15
ENDBRANCH  13  14
ENDBRANCH   1  13
TORSDOF 20
ENDMDL
MODEL 5
REMARK VINA RESULT:    -3.767      5.232      9.371
REMARK INTER + INTRA:          -9.696
REMARK INTER:                  -6.293
REMARK INTRA:                  -3.403
REMARK UNBOUND:                -1.524
REMARK SMILES CCCCCCCCCCCCCCCCCCCCCC(=O)[O-]
REMARK SMILES IDX 12 1 11 2 10 3 9 4 8 5 7 6 6 7 5 8 4 9 3 10 2 11 1 12 13 13
REMARK SMILES IDX 14 14 15 15 16 16 17 17 18 18 19 19 20 20 21 21 22 22 23 23
REMARK SMILES IDX 24 24
REMARK H PARENT
REMARK Flexibility Score: inf
ROOT
ATOM      1  C   UNL     1      -3.844  10.083  -4.212  1.00  0.00     0.000 C 
ENDROOT
BRANCH   1   2
ATOM      2  C   UNL     1      -2.518  10.266  -4.974  1.00  0.00     0.000 C 
BRANCH   2   3
ATOM      3  C   UNL     1      -2.312   9.183  -6.045  1.00  0.00     0.000 C 
BRANCH   3   4
ATOM      4  C   UNL     1      -3.410   8.110  -5.958  1.00  0.00    -0.000 C 
BRANCH   4   5
ATOM      5  C   UNL     1      -4.080   7.828  -7.317  1.00  0.00    -0.000 C 
BRANCH   5   6
ATOM      6  C   UNL     1      -4.208   9.050  -8.250  1.00  0.00    -0.000 C 
BRANCH   6   7
ATOM      7  C   UNL     1      -5.261  10.093  -7.824  1.00  0.00    -0.000 C 
BRANCH   7   8
ATOM      8  C   UNL     1      -6.646   9.516  -7.484  1.00  0.00    -0.000 C 
BRANCH   8   9
ATOM      9  C   UNL     1      -7.069   9.800  -6.035  1.00  0.00    -0.000 C 
BRANCH   9  10
ATOM     10  C   UNL     1      -7.747   8.572  -5.408  1.00  0.00    -0.000 C 
BRANCH  10  11
ATOM     11  C   UNL     1      -6.787   7.742  -4.543  1.00  0.00    -0.003 C 
ATOM     12  C   UNL     1      -7.495   6.630  -3.767  1.00  0.00     0.004 C 
ENDBRANCH  10  11
ENDBRANCH   9  10
ENDBRANCH   8   9
ENDBRANCH   7   8
ENDBRANCH   6   7
ENDBRANCH   5   6
ENDBRANCH   4   5
ENDBRANCH   3   4
ENDBRANCH   2   3
ENDBRANCH   1   2
BRANCH   1  13
ATOM     13  C   UNL     1      -4.575  11.408  -3.920  1.00  0.00     0.000 C 
BRANCH  13  14
ATOM     14  C   UNL     1      -4.606  12.340  -5.145  1.00  0.00     0.000 C 
BRANCH  14  15
ATOM     15  C   UNL     1      -5.245  13.709  -4.824  1.00  0.00     0.000 C 
BRANCH  15  16
ATOM     16  C   UNL     1      -4.333  14.640  -4.006  1.00  0.00     0.000 C 
BRANCH  16  17
ATOM     17  C   UNL     1      -2.841  14.420  -4.287  1.00  0.00     0.000 C 
BRANCH  17  18
ATOM     18  C   UNL     1      -2.082  14.075  -2.999  1.00  0.00     0.000 C 
BRANCH  18  19
ATOM     19  C   UNL     1      -2.937  14.373  -1.761  1.00  0.00     0.000 C 
BRANCH  19  20
ATOM     20  C   UNL     1      -3.041  13.139  -0.856  1.00  0.00     0.006 C 
BRANCH  20  21
ATOM     21  C   UNL     1      -4.505  12.749  -0.624  1.00  0.00     0.053 C 
BRANCH  21  22
ATOM     22  C   UNL     1      -5.158  13.704   0.325  1.00  0.00     0.041 C 
ATOM     23  O   UNL     1      -6.397  13.921   0.253  1.00  0.00    -0.550 OA
ATOM     24  O   UNL     1      -4.404  14.338   1.306  1.00  0.00    -0.550 OA
ENDBRANCH  21  22
ENDBRANCH  20  21
ENDBRANCH  19  20
ENDBRANCH  18  19
ENDBRANCH  17  18
ENDBRANCH  16  17
ENDBRANCH  15  16
ENDBRANCH  14  15
ENDBRANCH  13  14
ENDBRANCH   1  13
TORSDOF 20
ENDMDL
MODEL 6
REMARK VINA RESULT:    -3.762      6.369      8.669
REMARK INTER + INTRA:          -9.685
REMARK INTER:                  -6.528
REMARK INTRA:                  -3.157
REMARK UNBOUND:                -1.524
REMARK SMILES CCCCCCCCCCCCCCCCCCCCCC(=O)[O-]
REMARK SMILES IDX 12 1 11 2 10 3 9 4 8 5 7 6 6 7 5 8 4 9 3 10 2 11 1 12 13 13
REMARK SMILES IDX 14 14 15 15 16 16 17 17 18 18 19 19 20 20 21 21 22 22 23 23
REMARK SMILES IDX 24 24
REMARK H PARENT
REMARK Flexibility Score: inf
ROOT
ATOM      1  C   UNL     1      -3.211   9.011  -5.355  1.00  0.00     0.000 C 
ENDROOT
BRANCH   1   2
ATOM      2  C   UNL     1      -3.313   7.560  -5.863  1.00  0.00     0.000 C 
BRANCH   2   3
ATOM      3  C   UNL     1      -2.747   7.404  -7.282  1.00  0.00     0.000 C 
BRANCH   3   4
ATOM      4  C   UNL     1      -2.234   8.750  -7.821  1.00  0.00    -0.000 C 
BRANCH   4   5
ATOM      5  C   UNL     1      -0.702   8.784  -7.986  1.00  0.00    -0.000 C 
BRANCH   5   6
ATOM      6  C   UNL     1      -0.079  10.195  -8.018  1.00  0.00    -0.000 C 
BRANCH   6   7
ATOM      7  C   UNL     1       0.825  10.541  -6.817  1.00  0.00    -0.000 C 
BRANCH   7   8
ATOM      8  C   UNL     1       0.099  10.633  -5.464  1.00  0.00    -0.000 C 
BRANCH   8   9
ATOM      9  C   UNL     1      -0.266  12.075  -5.082  1.00  0.00    -0.000 C 
BRANCH   9  10
ATOM     10  C   UNL     1      -1.783  12.229  -4.897  1.00  0.00    -0.000 C 
BRANCH  10  11
ATOM     11  C   UNL     1      -2.421  13.135  -5.961  1.00  0.00    -0.003 C 
ATOM     12  C   UNL     1      -2.954  12.354  -7.164  1.00  0.00     0.004 C 
ENDBRANCH  10  11
ENDBRANCH   9  10
ENDBRANCH   8   9
ENDBRANCH   7   8
ENDBRANCH   6   7
ENDBRANCH   5   6
ENDBRANCH   4   5
ENDBRANCH   3   4
ENDBRANCH   2   3
ENDBRANCH   1   2
BRANCH   1  13
ATOM     13  C   UNL     1      -4.475   9.499  -4.622  1.00  0.00     0.000 C 
BRANCH  13  14
ATOM     14  C   UNL     1      -5.755   8.835  -5.162  1.00  0.00     0.000 C 
BRANCH  14  15
ATOM     15  C   UNL     1      -6.793   9.870  -5.647  1.00  0.00     0.000 C 
BRANCH  15  16
ATOM     16  C   UNL     1      -6.168  11.181  -6.155  1.00  0.00     0.000 C 
BRANCH  16  17
ATOM     17  C   UNL     1      -6.710  12.424  -5.438  1.00  0.00     0.000 C 
BRANCH  17  18
ATOM     18  C   UNL     1      -5.826  12.803  -4.244  1.00  0.00     0.000 C 
BRANCH  18  19
ATOM     19  C   UNL     1      -6.511  13.857  -3.365  1.00  0.00     0.000 C 
BRANCH  19  20
ATOM     20  C   UNL     1      -6.014  13.771  -1.916  1.00  0.00     0.006 C 
BRANCH  20  21
ATOM     21  C   UNL     1      -4.581  13.235  -1.856  1.00  0.00     0.053 C 
BRANCH  21  22
ATOM     22  C   UNL     1      -4.203  12.902  -0.447  1.00  0.00     0.041 C 
ATOM     23  O   UNL     1      -3.047  12.475  -0.185  1.00  0.00    -0.550 OA
ATOM     24  O   UNL     1      -5.120  13.086   0.582  1.00  0.00    -0.550 OA
ENDBRANCH  21  22
ENDBRANCH  20  21
ENDBRANCH  19  20
ENDBRANCH  18  19
ENDBRANCH  17  18
ENDBRANCH  16  17
ENDBRANCH  15  16
ENDBRANCH  14  15
ENDBRANCH  13  14
ENDBRANCH   1  13
TORSDOF 20
ENDMDL
MODEL 7
REMARK VINA RESULT:    -3.752      5.783     10.273
REMARK INTER + INTRA:          -9.662
REMARK INTER:                  -6.087
REMARK INTRA:                  -3.575
REMARK UNBOUND:                -1.524
REMARK SMILES CCCCCCCCCCCCCCCCCCCCCC(=O)[O-]
REMARK SMILES IDX 12 1 11 2 10 3 9 4 8 5 7 6 6 7 5 8 4 9 3 10 2 11 1 12 13 13
REMARK SMILES IDX 14 14 15 15 16 16 17 17 18 18 19 19 20 20 21 21 22 22 23 23
REMARK SMILES IDX 24 24
REMARK H PARENT
REMARK Flexibility Score: inf
ROOT
ATOM      1  C   UNL     1      -3.735  12.428  -0.491  1.00  0.00     0.000 C 
ENDROOT
BRANCH   1   2
ATOM      2  C   UNL     1      -2.966  13.305  -1.498  1.00  0.00     0.000 C 
BRANCH   2   3
ATOM      3  C   UNL     1      -2.820  12.622  -2.867  1.00  0.00     0.000 C 
BRANCH   3   4
ATOM      4  C   UNL     1      -3.914  11.560  -3.070  1.00  0.00    -0.000 C 
BRANCH   4   5
ATOM      5  C   UNL     1      -3.469  10.413  -3.999  1.00  0.00    -0.000 C 
BRANCH   5   6
ATOM      6  C   UNL     1      -4.617   9.578  -4.604  1.00  0.00    -0.000 C 
BRANCH   6   7
ATOM      7  C   UNL     1      -5.250  10.163  -5.882  1.00  0.00    -0.000 C 
BRANCH   7   8
ATOM      8  C   UNL     1      -6.786  10.241  -5.869  1.00  0.00    -0.000 C 
BRANCH   8   9
ATOM      9  C   UNL     1      -7.452   8.871  -6.066  1.00  0.00    -0.000 C 
BRANCH   9  10
ATOM     10  C   UNL     1      -8.726   8.749  -5.215  1.00  0.00    -0.000 C 
BRANCH  10  11
ATOM     11  C   UNL     1      -8.675   7.563  -4.240  1.00  0.00    -0.003 C 
ATOM     12  C   UNL     1      -7.274   6.965  -4.104  1.00  0.00     0.004 C 
ENDBRANCH  10  11
ENDBRANCH   9  10
ENDBRANCH   8   9
ENDBRANCH   7   8
ENDBRANCH   6   7
ENDBRANCH   5   6
ENDBRANCH   4   5
ENDBRANCH   3   4
ENDBRANCH   2   3
ENDBRANCH   1   2
BRANCH   1  13
ATOM     13  C   UNL     1      -4.952  13.133   0.137  1.00  0.00     0.000 C 
BRANCH  13  14
ATOM     14  C   UNL     1      -5.380  14.379  -0.660  1.00  0.00     0.000 C 
BRANCH  14  15
ATOM     15  C   UNL     1      -6.522  14.076  -1.654  1.00  0.00     0.000 C 
BRANCH  15  16
ATOM     16  C   UNL     1      -6.219  14.515  -3.097  1.00  0.00     0.000 C 
BRANCH  16  17
ATOM     17  C   UNL     1      -6.772  13.548  -4.151  1.00  0.00     0.000 C 
BRANCH  17  18
ATOM     18  C   UNL     1      -6.286  13.924  -5.556  1.00  0.00     0.000 C 
BRANCH  18  19
ATOM     19  C   UNL     1      -4.789  14.258  -5.549  1.00  0.00     0.000 C 
BRANCH  19  20
ATOM     20  C   UNL     1      -4.032  13.413  -6.580  1.00  0.00     0.006 C 
BRANCH  20  21
ATOM     21  C   UNL     1      -2.518  13.595  -6.437  1.00  0.00     0.053 C 
BRANCH  21  22
ATOM     22  C   UNL     1      -1.812  12.289  -6.625  1.00  0.00     0.041 C 
ATOM     23  O   UNL     1      -2.136  11.523  -7.571  1.00  0.00    -0.550 OA
ATOM     24  O   UNL     1      -0.779  11.926  -5.768  1.00  0.00    -0.550 OA
ENDBRANCH  21  22
ENDBRANCH  20  21
ENDBRANCH  19  20
ENDBRANCH  18  19
ENDBRANCH  17  18
ENDBRANCH  16  17
ENDBRANCH  15  16
ENDBRANCH  14  15
ENDBRANCH  13  14
ENDBRANCH   1  13
TORSDOF 20
ENDMDL
MODEL 8
REMARK VINA RESULT:    -3.712     13.561     15.744
REMARK INTER + INTRA:          -9.577
REMARK INTER:                  -5.219
REMARK INTRA:                  -4.358
REMARK UNBOUND:                -1.524
REMARK SMILES CCCCCCCCCCCCCCCCCCCCCC(=O)[O-]
REMARK SMILES IDX 12 1 11 2 10 3 9 4 8 5 7 6 6 7 5 8 4 9 3 10 2 11 1 12 13 13
REMARK SMILES IDX 14 14 15 15 16 16 17 17 18 18 19 19 20 20 21 21 22 22 23 23
REMARK SMILES IDX 24 24
REMARK H PARENT
REMARK Flexibility Score: inf
ROOT
ATOM      1  C   UNL     1       7.184   8.228   1.870  1.00  0.00     0.000 C 
ENDROOT
BRANCH   1   2
ATOM      2  C   UNL     1       7.859   8.742   3.156  1.00  0.00     0.000 C 
BRANCH   2   3
ATOM      3  C   UNL     1       7.764  10.270   3.288  1.00  0.00     0.000 C 
BRANCH   3   4
ATOM      4  C   UNL     1       9.088  10.940   2.886  1.00  0.00    -0.000 C 
BRANCH   4   5
ATOM      5  C   UNL     1       8.883  12.268   2.133  1.00  0.00    -0.000 C 
BRANCH   5   6
ATOM      6  C   UNL     1       7.419  12.596   1.770  1.00  0.00    -0.000 C 
BRANCH   6   7
ATOM      7  C   UNL     1       7.207  13.174   0.357  1.00  0.00    -0.000 C 
BRANCH   7   8
ATOM      8  C   UNL     1       5.740  13.237  -0.105  1.00  0.00    -0.000 C 
BRANCH   8   9
ATOM      9  C   UNL     1       5.574  13.943  -1.459  1.00  0.00    -0.000 C 
BRANCH   9  10
ATOM     10  C   UNL     1       6.104  13.068  -2.606  1.00  0.00    -0.000 C 
BRANCH  10  11
ATOM     11  C   UNL     1       5.260  11.802  -2.823  1.00  0.00    -0.003 C 
ATOM     12  C   UNL     1       5.931  10.794  -3.757  1.00  0.00     0.004 C 
ENDBRANCH  10  11
ENDBRANCH   9  10
ENDBRANCH   8   9
ENDBRANCH   7   8
ENDBRANCH   6   7
ENDBRANCH   5   6
ENDBRANCH   4   5
ENDBRANCH   3   4
ENDBRANCH   2   3
ENDBRANCH   1   2
BRANCH   1  13
ATOM     13  C   UNL     1       6.054   9.143   1.359  1.00  0.00     0.000 C 
BRANCH  13  14
ATOM     14  C   UNL     1       6.261   9.562  -0.108  1.00  0.00     0.000 C 
BRANCH  14  15
ATOM     15  C   UNL     1       7.597   9.044  -0.683  1.00  0.00     0.000 C 
BRANCH  15  16
ATOM     16  C   UNL     1       8.536  10.162  -1.167  1.00  0.00     0.000 C 
BRANCH  16  17
ATOM     17  C   UNL     1       9.948  10.062  -0.575  1.00  0.00     0.000 C 
BRANCH  17  18
ATOM     18  C   UNL     1      10.411   8.602  -0.494  1.00  0.00     0.000 C 
BRANCH  18  19
ATOM     19  C   UNL     1      10.806   8.229   0.940  1.00  0.00     0.000 C 
BRANCH  19  20
ATOM     20  C   UNL     1      10.529   6.746   1.218  1.00  0.00     0.006 C 
BRANCH  20  21
ATOM     21  C   UNL     1       9.677   6.128   0.105  1.00  0.00     0.053 C 
BRANCH  21  22
ATOM     22  C   UNL     1       9.671   4.636   0.216  1.00  0.00     0.041 C 
ATOM     23  O   UNL     1       9.421   4.083   1.320  1.00  0.00    -0.550 OA
ATOM     24  O   UNL     1       9.919   3.852  -0.906  1.00  0.00    -0.550 OA
ENDBRANCH  21  22
ENDBRANCH  20  21
ENDBRANCH  19  20
ENDBRANCH  18  19
ENDBRANCH  17  18
ENDBRANCH  16  17
ENDBRANCH  15  16
ENDBRANCH  14  15
ENDBRANCH  13  14
ENDBRANCH   1  13
TORSDOF 20
ENDMDL
MODEL 9
REMARK VINA RESULT:    -3.699      7.120      9.131
REMARK INTER + INTRA:          -9.549
REMARK INTER:                  -5.623
REMARK INTRA:                  -3.927
REMARK UNBOUND:                -1.524
REMARK SMILES CCCCCCCCCCCCCCCCCCCCCC(=O)[O-]
REMARK SMILES IDX 12 1 11 2 10 3 9 4 8 5 7 6 6 7 5 8 4 9 3 10 2 11 1 12 13 13
REMARK SMILES IDX 14 14 15 15 16 16 17 17 18 18 19 19 20 20 21 21 22 22 23 23
REMARK SMILES IDX 24 24
REMARK H PARENT
REMARK Flexibility Score: inf
ROOT
ATOM      1  C   UNL     1      -3.496   7.879  -5.445  1.00  0.00     0.000 C 
ENDROOT
BRANCH   1   2
ATOM      2  C   UNL     1      -3.864   9.372  -5.527  1.00  0.00     0.000 C 
BRANCH   2   3
ATOM      3  C   UNL     1      -5.264   9.655  -4.962  1.00  0.00     0.000 C 
BRANCH   3   4
ATOM      4  C   UNL     1      -5.841  10.954  -5.549  1.00  0.00    -0.000 C 
BRANCH   4   5
ATOM      5  C   UNL     1      -4.858  11.673  -6.493  1.00  0.00    -0.000 C 
BRANCH   5   6
ATOM      6  C   UNL     1      -4.476  13.108  -6.072  1.00  0.00    -0.000 C 
BRANCH   6   7
ATOM      7  C   UNL     1      -2.993  13.311  -5.705  1.00  0.00    -0.000 C 
BRANCH   7   8
ATOM      8  C   UNL     1      -2.713  13.467  -4.200  1.00  0.00    -0.000 C 
BRANCH   8   9
ATOM      9  C   UNL     1      -2.729  12.127  -3.450  1.00  0.00    -0.000 C 
BRANCH   9  10
ATOM     10  C   UNL     1      -3.875  12.081  -2.427  1.00  0.00    -0.000 C 
BRANCH  10  11
ATOM     11  C   UNL     1      -4.488  13.465  -2.164  1.00  0.00    -0.003 C 
ATOM     12  C   UNL     1      -5.923  13.587  -2.679  1.00  0.00     0.004 C 
ENDBRANCH  10  11
ENDBRANCH   9  10
ENDBRANCH   8   9
ENDBRANCH   7   8
ENDBRANCH   6   7
ENDBRANCH   5   6
ENDBRANCH   4   5
ENDBRANCH   3   4
ENDBRANCH   2   3
ENDBRANCH   1   2
BRANCH   1  13
ATOM     13  C   UNL     1      -3.125   7.259  -6.805  1.00  0.00     0.000 C 
BRANCH  13  14
ATOM     14  C   UNL     1      -3.548   8.150  -7.988  1.00  0.00     0.000 C 
BRANCH  14  15
ATOM     15  C   UNL     1      -2.336   8.674  -8.789  1.00  0.00     0.000 C 
BRANCH  15  16
ATOM     16  C   UNL     1      -2.376  10.190  -9.049  1.00  0.00     0.000 C 
BRANCH  16  17
ATOM     17  C   UNL     1      -1.526  10.993  -8.056  1.00  0.00     0.000 C 
BRANCH  17  18
ATOM     18  C   UNL     1      -0.509  10.093  -7.344  1.00  0.00     0.000 C 
BRANCH  18  19
ATOM     19  C   UNL     1      -0.547  10.313  -5.827  1.00  0.00     0.000 C 
BRANCH  19  20
ATOM     20  C   UNL     1       0.679  11.105  -5.356  1.00  0.00     0.006 C 
BRANCH  20  21
ATOM     21  C   UNL     1       1.956  10.267  -5.474  1.00  0.00     0.053 C 
BRANCH  21  22
ATOM     22  C   UNL     1       3.123  11.004  -4.897  1.00  0.00     0.041 C 
ATOM     23  O   UNL     1       4.293  10.738  -5.280  1.00  0.00    -0.550 OA
ATOM     24  O   UNL     1       2.918  12.003  -3.951  1.00  0.00    -0.550 OA
ENDBRANCH  21  22
ENDBRANCH  20  21
ENDBRANCH  19  20
ENDBRANCH  18  19
ENDBRANCH  17  18
ENDBRANCH  16  17
ENDBRANCH  15  16
ENDBRANCH  14  15
ENDBRANCH  13  14
ENDBRANCH   1  13
TORSDOF 20
ENDMDL
