MODEL 1
REMARK VINA RESULT:    -3.911      0.000      0.000
REMARK INTER + INTRA:          -4.854
REMARK INTER:                  -4.826
REMARK INTRA:                  -0.028
REMARK UNBOUND:                -0.028
REMARK SMILES CCCCCC=O
REMARK SMILES IDX 4 1 3 2 2 3 1 4 5 5 6 6 7 7
REMARK H PARENT
REMARK Flexibility Score: inf
ROOT
ATOM      1  C   UNL     1      26.873  46.558  -1.354  1.00  0.00     0.008 C 
ENDROOT
BRANCH   1   2
ATOM      2  C   UNL     1      28.223  46.654  -0.620  1.00  0.00     0.000 C 
BRANCH   2   3
ATOM      3  C   UNL     1      28.912  45.302  -0.359  1.00  0.00    -0.003 C 
ATOM      4  C   UNL     1      30.208  45.436   0.440  1.00  0.00     0.004 C 
ENDBRANCH   2   3
ENDBRANCH   1   2
BRANCH   1   5
ATOM      5  C   UNL     1      26.447  47.887  -1.995  1.00  0.00     0.072 C 
BRANCH   5   6
ATOM      6  C   UNL     1      25.150  47.733  -2.729  1.00  0.00     0.224 C 
ATOM      7  O   UNL     1      24.192  48.437  -2.450  1.00  0.00    -0.303 OA
ENDBRANCH   5   6
ENDBRANCH   1   5
TORSDOF 4
ENDMDL
MODEL 2
REMARK VINA RESULT:    -3.674      2.973      4.997
REMARK INTER + INTRA:          -4.562
REMARK INTER:                  -4.522
REMARK INTRA:                  -0.039
REMARK UNBOUND:                -0.028
REMARK SMILES CCCCCC=O
REMARK SMILES IDX 4 1 3 2 2 3 1 4 5 5 6 6 7 7
REMARK H PARENT
REMARK Flexibility Score: inf
ROOT
ATOM      1  C   UNL     1      27.714  47.050  -0.723  1.00  0.00     0.008 C 
ENDROOT
BRANCH   1   2
ATOM      2  C   UNL     1      27.001  47.361  -2.051  1.00  0.00     0.000 C 
BRANCH   2   3
ATOM      3  C   UNL     1      25.680  48.137  -1.907  1.00  0.00    -0.003 C 
ATOM      4  C   UNL     1      24.640  47.749  -2.958  1.00  0.00     0.004 C 
ENDBRANCH   2   3
ENDBRANCH   1   2
BRANCH   1   5
ATOM      5  C   UNL     1      28.293  45.629  -0.675  1.00  0.00     0.072 C 
BRANCH   5   6
ATOM      6  C   UNL     1      29.583  45.604   0.088  1.00  0.00     0.224 C 
ATOM      7  O   UNL     1      30.247  44.581   0.148  1.00  0.00    -0.303 OA
ENDBRANCH   5   6
ENDBRANCH   1   5
TORSDOF 4
ENDMDL
MODEL 3
REMARK VINA RESULT:    -3.643      0.634      1.220
REMARK INTER + INTRA:          -4.524
REMARK INTER:                  -4.495
REMARK INTRA:                  -0.028
REMARK UNBOUND:                -0.028
REMARK SMILES CCCCCC=O
REMARK SMILES IDX 4 1 3 2 2 3 1 4 5 5 6 6 7 7
REMARK H PARENT
REMARK Flexibility Score: inf
ROOT
ATOM      1  C   UNL     1      28.069  46.841  -0.922  1.00  0.00     0.008 C 
ENDROOT
BRANCH   1   2
ATOM      2  C   UNL     1      28.682  45.510  -0.451  1.00  0.00     0.000 C 
BRANCH   2   3
ATOM      3  C   UNL     1      29.859  45.653   0.530  1.00  0.00    -0.003 C 
ATOM      4  C   UNL     1      30.816  44.463   0.495  1.00  0.00     0.004 C 
ENDBRANCH   2   3
ENDBRANCH   1   2
BRANCH   1   5
ATOM      5  C   UNL     1      26.582  46.719  -1.280  1.00  0.00     0.072 C 
BRANCH   5   6
ATOM      6  C   UNL     1      26.151  47.850  -2.165  1.00  0.00     0.224 C 
ATOM      7  O   UNL     1      25.011  48.282  -2.107  1.00  0.00    -0.303 OA
ENDBRANCH   5   6
ENDBRANCH   1   5
TORSDOF 4
ENDMDL
MODEL 4
REMARK VINA RESULT:    -3.517     11.625     13.537
REMARK INTER + INTRA:          -4.368
REMARK INTER:                  -4.339
REMARK INTRA:                  -0.029
REMARK UNBOUND:                -0.028
REMARK SMILES CCCCCC=O
REMARK SMILES IDX 4 1 3 2 2 3 1 4 5 5 6 6 7 7
REMARK H PARENT
REMARK Flexibility Score: inf
ROOT
ATOM      1  C   UNL     1      25.869  56.821  -8.921  1.00  0.00     0.008 C 
ENDROOT
BRANCH   1   2
ATOM      2  C   UNL     1      25.917  58.303  -9.335  1.00  0.00     0.000 C 
BRANCH   2   3
ATOM      3  C   UNL     1      27.088  58.677 -10.261  1.00  0.00    -0.003 C 
ATOM      4  C   UNL     1      27.394  60.174 -10.263  1.00  0.00     0.004 C 
ENDBRANCH   2   3
ENDBRANCH   1   2
BRANCH   1   5
ATOM      5  C   UNL     1      24.443  56.253  -8.896  1.00  0.00     0.072 C 
BRANCH   5   6
ATOM      6  C   UNL     1      24.069  55.810  -7.514  1.00  0.00     0.224 C 
ATOM      7  O   UNL     1      23.011  55.236  -7.314  1.00  0.00    -0.303 OA
ENDBRANCH   5   6
ENDBRANCH   1   5
TORSDOF 4
ENDMDL
MODEL 5
REMARK VINA RESULT:    -3.476      3.161      5.157
REMARK INTER + INTRA:          -4.318
REMARK INTER:                  -4.278
REMARK INTRA:                  -0.040
REMARK UNBOUND:                -0.028
REMARK SMILES CCCCCC=O
REMARK SMILES IDX 4 1 3 2 2 3 1 4 5 5 6 6 7 7
REMARK H PARENT
REMARK Flexibility Score: inf
ROOT
ATOM      1  C   UNL     1      28.700  45.433  -0.475  1.00  0.00     0.008 C 
ENDROOT
BRANCH   1   2
ATOM      2  C   UNL     1      28.079  46.802  -0.808  1.00  0.00     0.000 C 
BRANCH   2   3
ATOM      3  C   UNL     1      26.605  46.752  -1.246  1.00  0.00    -0.003 C 
ATOM      4  C   UNL     1      26.210  47.917  -2.153  1.00  0.00     0.004 C 
ENDBRANCH   2   3
ENDBRANCH   1   2
BRANCH   1   5
ATOM      5  C   UNL     1      29.930  45.542   0.437  1.00  0.00     0.072 C 
BRANCH   5   6
ATOM      6  C   UNL     1      30.915  44.452   0.136  1.00  0.00     0.224 C 
ATOM      7  O   UNL     1      30.756  43.724  -0.830  1.00  0.00    -0.303 OA
ENDBRANCH   5   6
ENDBRANCH   1   5
TORSDOF 4
ENDMDL
MODEL 6
REMARK VINA RESULT:    -3.448     11.926     13.344
REMARK INTER + INTRA:          -4.282
REMARK INTER:                  -4.227
REMARK INTRA:                  -0.055
REMARK UNBOUND:                -0.028
REMARK SMILES CCCCCC=O
REMARK SMILES IDX 4 1 3 2 2 3 1 4 5 5 6 6 7 7
REMARK H PARENT
REMARK Flexibility Score: inf
ROOT
ATOM      1  C   UNL     1      25.873  56.930  -9.029  1.00  0.00     0.008 C 
ENDROOT
BRANCH   1   2
ATOM      2  C   UNL     1      24.653  56.007  -8.863  1.00  0.00     0.000 C 
BRANCH   2   3
ATOM      3  C   UNL     1      24.213  55.775  -7.407  1.00  0.00    -0.003 C 
ATOM      4  C   UNL     1      22.904  54.995  -7.294  1.00  0.00     0.004 C 
ENDBRANCH   2   3
ENDBRANCH   1   2
BRANCH   1   5
ATOM      5  C   UNL     1      25.493  58.417  -9.085  1.00  0.00     0.072 C 
BRANCH   5   6
ATOM      6  C   UNL     1      26.521  59.202  -9.841  1.00  0.00     0.224 C 
ATOM      7  O   UNL     1      27.387  58.631 -10.485  1.00  0.00    -0.303 OA
ENDBRANCH   5   6
ENDBRANCH   1   5
TORSDOF 4
ENDMDL
MODEL 7
REMARK VINA RESULT:    -3.410     12.619     14.356
REMARK INTER + INTRA:          -4.235
REMARK INTER:                  -4.205
REMARK INTRA:                  -0.031
REMARK UNBOUND:                -0.028
REMARK SMILES CCCCCC=O
REMARK SMILES IDX 4 1 3 2 2 3 1 4 5 5 6 6 7 7
REMARK H PARENT
REMARK Flexibility Score: inf
ROOT
ATOM      1  C   UNL     1      25.844  58.421  -9.329  1.00  0.00     0.008 C 
ENDROOT
BRANCH   1   2
ATOM      2  C   UNL     1      25.896  56.993  -8.759  1.00  0.00     0.000 C 
BRANCH   2   3
ATOM      3  C   UNL     1      24.599  56.183  -8.928  1.00  0.00    -0.003 C 
ATOM      4  C   UNL     1      24.025  55.686  -7.601  1.00  0.00     0.004 C 
ENDBRANCH   2   3
ENDBRANCH   1   2
BRANCH   1   5
ATOM      5  C   UNL     1      27.046  58.750 -10.226  1.00  0.00     0.072 C 
BRANCH   5   6
ATOM      6  C   UNL     1      27.351  60.217 -10.192  1.00  0.00     0.224 C 
ATOM      7  O   UNL     1      28.222  60.685 -10.908  1.00  0.00    -0.303 OA
ENDBRANCH   5   6
ENDBRANCH   1   5
TORSDOF 4
ENDMDL
MODEL 8
REMARK VINA RESULT:    -3.209      1.840      2.835
REMARK INTER + INTRA:          -3.988
REMARK INTER:                  -3.941
REMARK INTRA:                  -0.047
REMARK UNBOUND:                -0.028
REMARK SMILES CCCCCC=O
REMARK SMILES IDX 4 1 3 2 2 3 1 4 5 5 6 6 7 7
REMARK H PARENT
REMARK Flexibility Score: inf
ROOT
ATOM      1  C   UNL     1      29.251  45.810   0.118  1.00  0.00     0.008 C 
ENDROOT
BRANCH   1   2
ATOM      2  C   UNL     1      30.123  44.548  -0.004  1.00  0.00     0.000 C 
BRANCH   2   3
ATOM      3  C   UNL     1      31.378  44.543   0.887  1.00  0.00    -0.003 C 
ATOM      4  C   UNL     1      32.408  45.595   0.477  1.00  0.00     0.004 C 
ENDBRANCH   2   3
ENDBRANCH   1   2
BRANCH   1   5
ATOM      5  C   UNL     1      27.986  45.748  -0.750  1.00  0.00     0.072 C 
BRANCH   5   6
ATOM      6  C   UNL     1      27.531  47.125  -1.129  1.00  0.00     0.224 C 
ATOM      7  O   UNL     1      27.027  47.332  -2.221  1.00  0.00    -0.303 OA
ENDBRANCH   5   6
ENDBRANCH   1   5
TORSDOF 4
ENDMDL
MODEL 9
REMARK VINA RESULT:    -3.209      3.779      5.696
REMARK INTER + INTRA:          -3.987
REMARK INTER:                  -3.958
REMARK INTRA:                  -0.030
REMARK UNBOUND:                -0.028
REMARK SMILES CCCCCC=O
REMARK SMILES IDX 4 1 3 2 2 3 1 4 5 5 6 6 7 7
REMARK H PARENT
REMARK Flexibility Score: inf
ROOT
ATOM      1  C   UNL     1      29.517  45.719   0.287  1.00  0.00     0.008 C 
ENDROOT
BRANCH   1   2
ATOM      2  C   UNL     1      28.362  45.803  -0.728  1.00  0.00     0.000 C 
BRANCH   2   3
ATOM      3  C   UNL     1      27.575  47.125  -0.701  1.00  0.00    -0.003 C 
ATOM      4  C   UNL     1      26.808  47.391  -1.996  1.00  0.00     0.004 C 
ENDBRANCH   2   3
ENDBRANCH   1   2
BRANCH   1   5
ATOM      5  C   UNL     1      30.427  44.505   0.057  1.00  0.00     0.072 C 
BRANCH   5   6
ATOM      6  C   UNL     1      31.754  44.698   0.726  1.00  0.00     0.224 C 
ATOM      7  O   UNL     1      31.866  44.556   1.933  1.00  0.00    -0.303 OA
ENDBRANCH   5   6
ENDBRANCH   1   5
TORSDOF 4
ENDMDL
