MODEL 1
REMARK VINA RESULT:    -4.917      0.000      0.000
REMARK INTER + INTRA:          -4.917
REMARK INTER:                  -4.917
REMARK INTRA:                   0.000
REMARK UNBOUND:                 0.000
REMARK SMILES CC1=CC[C@]23C[C@H]1C(C)(C)[C@@H]2CC[C@@H]3C
REMARK SMILES IDX 15 1 14 2 13 3 12 4 11 5 5 6 4 7 3 8 2 9 7 10 6 11 8 12 9 13
REMARK SMILES IDX 10 14 1 15
REMARK H PARENT
REMARK Flexibility Score: inf
ROOT
ATOM      1  C   UNL     1      11.581  19.204  27.617  1.00  0.00     0.008 C 
ATOM      2  C   UNL     1      10.480  18.808  26.624  1.00  0.00    -0.007 C 
ATOM      3  C   UNL     1       9.042  19.070  27.171  1.00  0.00     0.004 C 
ATOM      4  C   UNL     1       8.159  19.451  25.952  1.00  0.00     0.005 C 
ATOM      5  C   UNL     1       9.084  19.149  24.789  1.00  0.00     0.002 C 
ATOM      6  C   UNL     1      10.473  19.549  25.270  1.00  0.00    -0.020 C 
ATOM      7  C   UNL     1      10.707  21.110  25.448  1.00  0.00     0.035 C 
ATOM      8  C   UNL     1      10.943  21.870  24.154  1.00  0.00    -0.027 C 
ATOM      9  C   UNL     1      10.894  21.246  22.962  1.00  0.00    -0.074 C 
ATOM     10  C   UNL     1      10.493  19.784  22.934  1.00  0.00     0.021 C 
ATOM     11  C   UNL     1      11.288  19.077  24.072  1.00  0.00     0.016 C 
ATOM     12  C   UNL     1       8.968  19.609  23.319  1.00  0.00    -0.025 C 
ATOM     13  C   UNL     1       8.350  18.498  22.437  1.00  0.00     0.012 C 
ATOM     14  C   UNL     1       8.075  20.870  23.171  1.00  0.00     0.012 C 
ATOM     15  C   UNL     1      11.191  22.001  21.696  1.00  0.00     0.039 C 
ENDROOT
TORSDOF 0
ENDMDL
MODEL 2
REMARK VINA RESULT:    -4.912      1.521      4.371
REMARK INTER + INTRA:          -4.912
REMARK INTER:                  -4.912
REMARK INTRA:                   0.000
REMARK UNBOUND:                 0.000
REMARK SMILES CC1=CC[C@]23C[C@H]1C(C)(C)[C@@H]2CC[C@@H]3C
REMARK SMILES IDX 15 1 14 2 13 3 12 4 11 5 5 6 4 7 3 8 2 9 7 10 6 11 8 12 9 13
REMARK SMILES IDX 10 14 1 15
REMARK H PARENT
REMARK Flexibility Score: inf
ROOT
ATOM      1  C   UNL     1       5.978  18.673  22.576  1.00  0.00     0.008 C 
ATOM      2  C   UNL     1       7.389  18.493  23.152  1.00  0.00    -0.007 C 
ATOM      3  C   UNL     1       8.514  18.732  22.097  1.00  0.00     0.004 C 
ATOM      4  C   UNL     1       9.722  19.344  22.857  1.00  0.00     0.005 C 
ATOM      5  C   UNL     1       9.293  19.188  24.303  1.00  0.00     0.002 C 
ATOM      6  C   UNL     1       7.790  19.440  24.302  1.00  0.00    -0.020 C 
ATOM      7  C   UNL     1       7.353  20.939  24.015  1.00  0.00     0.035 C 
ATOM      8  C   UNL     1       7.505  21.884  25.195  1.00  0.00    -0.027 C 
ATOM      9  C   UNL     1       8.027  21.462  26.362  1.00  0.00    -0.074 C 
ATOM     10  C   UNL     1       8.558  20.044  26.438  1.00  0.00     0.021 C 
ATOM     11  C   UNL     1       7.493  19.127  25.765  1.00  0.00     0.016 C 
ATOM     12  C   UNL     1       9.864  19.882  25.559  1.00  0.00    -0.025 C 
ATOM     13  C   UNL     1      10.859  18.956  26.300  1.00  0.00     0.012 C 
ATOM     14  C   UNL     1      10.621  21.191  25.209  1.00  0.00     0.012 C 
ATOM     15  C   UNL     1       8.113  22.394  27.539  1.00  0.00     0.039 C 
ENDROOT
TORSDOF 0
ENDMDL
MODEL 3
REMARK VINA RESULT:    -4.736      1.767      3.201
REMARK INTER + INTRA:          -4.736
REMARK INTER:                  -4.736
REMARK INTRA:                   0.000
REMARK UNBOUND:                 0.000
REMARK SMILES CC1=CC[C@]23C[C@H]1C(C)(C)[C@@H]2CC[C@@H]3C
REMARK SMILES IDX 15 1 14 2 13 3 12 4 11 5 5 6 4 7 3 8 2 9 7 10 6 11 8 12 9 13
REMARK SMILES IDX 10 14 1 15
REMARK H PARENT
REMARK Flexibility Score: inf
ROOT
ATOM      1  C   UNL     1      11.123  18.831  27.483  1.00  0.00     0.008 C 
ATOM      2  C   UNL     1      10.008  19.881  27.370  1.00  0.00    -0.007 C 
ATOM      3  C   UNL     1      10.551  21.343  27.317  1.00  0.00     0.004 C 
ATOM      4  C   UNL     1       9.580  22.151  26.414  1.00  0.00     0.005 C 
ATOM      5  C   UNL     1       8.443  21.167  26.218  1.00  0.00     0.002 C 
ATOM      6  C   UNL     1       9.111  19.802  26.117  1.00  0.00    -0.020 C 
ATOM      7  C   UNL     1       9.958  19.556  24.796  1.00  0.00     0.035 C 
ATOM      8  C   UNL     1       9.133  19.237  23.561  1.00  0.00    -0.027 C 
ATOM      9  C   UNL     1       7.788  19.228  23.606  1.00  0.00    -0.074 C 
ATOM     10  C   UNL     1       7.111  19.647  24.896  1.00  0.00     0.021 C 
ATOM     11  C   UNL     1       7.863  18.928  26.055  1.00  0.00     0.016 C 
ATOM     12  C   UNL     1       7.314  21.195  25.164  1.00  0.00    -0.025 C 
ATOM     13  C   UNL     1       6.011  21.778  25.762  1.00  0.00     0.012 C 
ATOM     14  C   UNL     1       7.688  22.060  23.931  1.00  0.00     0.012 C 
ATOM     15  C   UNL     1       6.988  18.850  22.390  1.00  0.00     0.039 C 
ENDROOT
TORSDOF 0
ENDMDL
MODEL 4
REMARK VINA RESULT:    -4.717     12.232     13.929
REMARK INTER + INTRA:          -4.717
REMARK INTER:                  -4.717
REMARK INTRA:                   0.000
REMARK UNBOUND:                 0.000
REMARK SMILES CC1=CC[C@]23C[C@H]1C(C)(C)[C@@H]2CC[C@@H]3C
REMARK SMILES IDX 15 1 14 2 13 3 12 4 11 5 5 6 4 7 3 8 2 9 7 10 6 11 8 12 9 13
REMARK SMILES IDX 10 14 1 15
REMARK H PARENT
REMARK Flexibility Score: inf
ROOT
ATOM      1  C   UNL     1      10.590  16.044  39.506  1.00  0.00     0.008 C 
ATOM      2  C   UNL     1      11.944  15.548  38.982  1.00  0.00    -0.007 C 
ATOM      3  C   UNL     1      11.822  14.285  38.074  1.00  0.00     0.004 C 
ATOM      4  C   UNL     1      12.947  14.386  37.008  1.00  0.00     0.005 C 
ATOM      5  C   UNL     1      13.764  15.553  37.526  1.00  0.00     0.002 C 
ATOM      6  C   UNL     1      12.745  16.529  38.100  1.00  0.00    -0.020 C 
ATOM      7  C   UNL     1      11.820  17.254  37.032  1.00  0.00     0.035 C 
ATOM      8  C   UNL     1      12.486  18.398  36.285  1.00  0.00    -0.027 C 
ATOM      9  C   UNL     1      13.778  18.709  36.498  1.00  0.00    -0.074 C 
ATOM     10  C   UNL     1      14.585  17.822  37.426  1.00  0.00     0.021 C 
ATOM     11  C   UNL     1      13.703  17.562  38.683  1.00  0.00     0.016 C 
ATOM     12  C   UNL     1      14.822  16.396  36.780  1.00  0.00    -0.025 C 
ATOM     13  C   UNL     1      16.254  15.918  37.123  1.00  0.00     0.012 C 
ATOM     14  C   UNL     1      14.660  16.306  35.239  1.00  0.00     0.012 C 
ATOM     15  C   UNL     1      14.404  19.882  35.797  1.00  0.00     0.039 C 
ENDROOT
TORSDOF 0
ENDMDL
MODEL 5
REMARK VINA RESULT:    -4.657      1.567      3.899
REMARK INTER + INTRA:          -4.657
REMARK INTER:                  -4.657
REMARK INTRA:                   0.000
REMARK UNBOUND:                 0.000
REMARK SMILES CC1=CC[C@]23C[C@H]1C(C)(C)[C@@H]2CC[C@@H]3C
REMARK SMILES IDX 15 1 14 2 13 3 12 4 11 5 5 6 4 7 3 8 2 9 7 10 6 11 8 12 9 13
REMARK SMILES IDX 10 14 1 15
REMARK H PARENT
REMARK Flexibility Score: inf
ROOT
ATOM      1  C   UNL     1       7.583  20.352  23.346  1.00  0.00     0.008 C 
ATOM      2  C   UNL     1       7.961  20.436  24.831  1.00  0.00    -0.007 C 
ATOM      3  C   UNL     1       7.391  19.253  25.673  1.00  0.00     0.004 C 
ATOM      4  C   UNL     1       8.424  18.959  26.795  1.00  0.00     0.005 C 
ATOM      5  C   UNL     1       9.375  20.132  26.659  1.00  0.00     0.002 C 
ATOM      6  C   UNL     1       9.468  20.398  25.162  1.00  0.00    -0.020 C 
ATOM      7  C   UNL     1      10.232  19.288  24.321  1.00  0.00     0.035 C 
ATOM      8  C   UNL     1      11.747  19.344  24.419  1.00  0.00    -0.027 C 
ATOM      9  C   UNL     1      12.359  20.243  25.212  1.00  0.00    -0.074 C 
ATOM     10  C   UNL     1      11.497  21.131  26.088  1.00  0.00     0.021 C 
ATOM     11  C   UNL     1      10.333  21.653  25.194  1.00  0.00     0.016 C 
ATOM     12  C   UNL     1      10.800  20.290  27.233  1.00  0.00    -0.025 C 
ATOM     13  C   UNL     1      10.784  21.128  28.535  1.00  0.00     0.012 C 
ATOM     14  C   UNL     1      11.449  18.921  27.570  1.00  0.00     0.012 C 
ATOM     15  C   UNL     1      13.860  20.326  25.250  1.00  0.00     0.039 C 
ENDROOT
TORSDOF 0
ENDMDL
MODEL 6
REMARK VINA RESULT:    -4.641      1.428      3.451
REMARK INTER + INTRA:          -4.641
REMARK INTER:                  -4.641
REMARK INTRA:                   0.000
REMARK UNBOUND:                 0.000
REMARK SMILES CC1=CC[C@]23C[C@H]1C(C)(C)[C@@H]2CC[C@@H]3C
REMARK SMILES IDX 15 1 14 2 13 3 12 4 11 5 5 6 4 7 3 8 2 9 7 10 6 11 8 12 9 13
REMARK SMILES IDX 10 14 1 15
REMARK H PARENT
REMARK Flexibility Score: inf
ROOT
ATOM      1  C   UNL     1      11.907  19.497  22.900  1.00  0.00     0.008 C 
ATOM      2  C   UNL     1      11.166  19.196  24.210  1.00  0.00    -0.007 C 
ATOM      3  C   UNL     1      11.815  19.885  25.451  1.00  0.00     0.004 C 
ATOM      4  C   UNL     1      10.660  20.234  26.428  1.00  0.00     0.005 C 
ATOM      5  C   UNL     1       9.486  19.514  25.795  1.00  0.00     0.002 C 
ATOM      6  C   UNL     1       9.695  19.656  24.292  1.00  0.00    -0.020 C 
ATOM      7  C   UNL     1       9.501  21.123  23.715  1.00  0.00     0.035 C 
ATOM      8  C   UNL     1       8.054  21.556  23.548  1.00  0.00    -0.027 C 
ATOM      9  C   UNL     1       7.041  20.754  23.924  1.00  0.00    -0.074 C 
ATOM     10  C   UNL     1       7.379  19.448  24.616  1.00  0.00     0.021 C 
ATOM     11  C   UNL     1       8.536  18.794  23.805  1.00  0.00     0.016 C 
ATOM     12  C   UNL     1       7.977  19.711  26.058  1.00  0.00    -0.025 C 
ATOM     13  C   UNL     1       7.439  18.635  27.031  1.00  0.00     0.012 C 
ATOM     14  C   UNL     1       7.670  21.098  26.684  1.00  0.00     0.012 C 
ATOM     15  C   UNL     1       5.615  21.172  23.695  1.00  0.00     0.039 C 
ENDROOT
TORSDOF 0
ENDMDL
MODEL 7
REMARK VINA RESULT:    -4.626      2.096      4.703
REMARK INTER + INTRA:          -4.626
REMARK INTER:                  -4.626
REMARK INTRA:                   0.000
REMARK UNBOUND:                 0.000
REMARK SMILES CC1=CC[C@]23C[C@H]1C(C)(C)[C@@H]2CC[C@@H]3C
REMARK SMILES IDX 15 1 14 2 13 3 12 4 11 5 5 6 4 7 3 8 2 9 7 10 6 11 8 12 9 13
REMARK SMILES IDX 10 14 1 15
REMARK H PARENT
REMARK Flexibility Score: inf
ROOT
ATOM      1  C   UNL     1       4.969  20.995  21.924  1.00  0.00     0.008 C 
ATOM      2  C   UNL     1       5.551  20.037  22.972  1.00  0.00    -0.007 C 
ATOM      3  C   UNL     1       6.348  18.853  22.340  1.00  0.00     0.004 C 
ATOM      4  C   UNL     1       7.499  18.508  23.325  1.00  0.00     0.005 C 
ATOM      5  C   UNL     1       7.135  19.344  24.536  1.00  0.00     0.002 C 
ATOM      6  C   UNL     1       6.563  20.638  23.970  1.00  0.00    -0.020 C 
ATOM      7  C   UNL     1       7.613  21.587  23.249  1.00  0.00     0.035 C 
ATOM      8  C   UNL     1       8.493  22.394  24.189  1.00  0.00    -0.027 C 
ATOM      9  C   UNL     1       8.401  22.249  25.524  1.00  0.00    -0.074 C 
ATOM     10  C   UNL     1       7.470  21.182  26.066  1.00  0.00     0.021 C 
ATOM     11  C   UNL     1       6.135  21.302  25.274  1.00  0.00     0.016 C 
ATOM     12  C   UNL     1       8.020  19.733  25.740  1.00  0.00    -0.025 C 
ATOM     13  C   UNL     1       7.748  18.807  26.950  1.00  0.00     0.012 C 
ATOM     14  C   UNL     1       9.533  19.633  25.410  1.00  0.00     0.012 C 
ATOM     15  C   UNL     1       9.235  23.099  26.441  1.00  0.00     0.039 C 
ENDROOT
TORSDOF 0
ENDMDL
MODEL 8
REMARK VINA RESULT:    -4.541      1.695      4.094
REMARK INTER + INTRA:          -4.541
REMARK INTER:                  -4.541
REMARK INTRA:                   0.000
REMARK UNBOUND:                 0.000
REMARK SMILES CC1=CC[C@]23C[C@H]1C(C)(C)[C@@H]2CC[C@@H]3C
REMARK SMILES IDX 15 1 14 2 13 3 12 4 11 5 5 6 4 7 3 8 2 9 7 10 6 11 8 12 9 13
REMARK SMILES IDX 10 14 1 15
REMARK H PARENT
REMARK Flexibility Score: inf
ROOT
ATOM      1  C   UNL     1      12.667  20.675  29.856  1.00  0.00     0.008 C 
ATOM      2  C   UNL     1      12.750  21.014  28.361  1.00  0.00    -0.007 C 
ATOM      3  C   UNL     1      13.947  20.317  27.643  1.00  0.00     0.004 C 
ATOM      4  C   UNL     1      13.489  20.017  26.190  1.00  0.00     0.005 C 
ATOM      5  C   UNL     1      12.174  20.768  26.116  1.00  0.00     0.002 C 
ATOM      6  C   UNL     1      11.542  20.603  27.492  1.00  0.00    -0.020 C 
ATOM      7  C   UNL     1      11.037  19.137  27.837  1.00  0.00     0.035 C 
ATOM      8  C   UNL     1       9.717  18.750  27.191  1.00  0.00    -0.027 C 
ATOM      9  C   UNL     1       9.081  19.589  26.353  1.00  0.00    -0.074 C 
ATOM     10  C   UNL     1       9.766  20.891  25.984  1.00  0.00     0.021 C 
ATOM     11  C   UNL     1      10.322  21.498  27.306  1.00  0.00     0.016 C 
ATOM     12  C   UNL     1      11.038  20.623  25.080  1.00  0.00    -0.025 C 
ATOM     13  C   UNL     1      11.129  21.728  23.999  1.00  0.00     0.012 C 
ATOM     14  C   UNL     1      11.083  19.255  24.350  1.00  0.00     0.012 C 
ATOM     15  C   UNL     1       7.745  19.216  25.771  1.00  0.00     0.039 C 
ENDROOT
TORSDOF 0
ENDMDL
MODEL 9
REMARK VINA RESULT:    -4.446      1.414      4.264
REMARK INTER + INTRA:          -4.446
REMARK INTER:                  -4.446
REMARK INTRA:                   0.000
REMARK UNBOUND:                 0.000
REMARK SMILES CC1=CC[C@]23C[C@H]1C(C)(C)[C@@H]2CC[C@@H]3C
REMARK SMILES IDX 15 1 14 2 13 3 12 4 11 5 5 6 4 7 3 8 2 9 7 10 6 11 8 12 9 13
REMARK SMILES IDX 10 14 1 15
REMARK H PARENT
REMARK Flexibility Score: inf
ROOT
ATOM      1  C   UNL     1       6.034  18.172  22.505  1.00  0.00     0.008 C 
ATOM      2  C   UNL     1       6.848  19.473  22.451  1.00  0.00    -0.007 C 
ATOM      3  C   UNL     1       5.963  20.752  22.578  1.00  0.00     0.004 C 
ATOM      4  C   UNL     1       6.813  21.814  23.327  1.00  0.00     0.005 C 
ATOM      5  C   UNL     1       8.179  21.158  23.358  1.00  0.00     0.002 C 
ATOM      6  C   UNL     1       7.903  19.673  23.559  1.00  0.00    -0.020 C 
ATOM      7  C   UNL     1       7.341  19.274  24.990  1.00  0.00     0.035 C 
ATOM      8  C   UNL     1       8.385  19.223  26.093  1.00  0.00    -0.027 C 
ATOM      9  C   UNL     1       9.668  19.553  25.852  1.00  0.00    -0.074 C 
ATOM     10  C   UNL     1      10.027  20.077  24.475  1.00  0.00     0.021 C 
ATOM     11  C   UNL     1       9.328  19.145  23.441  1.00  0.00     0.016 C 
ATOM     12  C   UNL     1       9.400  21.511  24.235  1.00  0.00    -0.025 C 
ATOM     13  C   UNL     1      10.413  22.380  23.452  1.00  0.00     0.012 C 
ATOM     14  C   UNL     1       8.995  22.302  25.507  1.00  0.00     0.012 C 
ATOM     15  C   UNL     1      10.700  19.437  26.938  1.00  0.00     0.039 C 
ENDROOT
TORSDOF 0
ENDMDL
