MODEL 1
REMARK VINA RESULT:    -4.576      0.000      0.000
REMARK INTER + INTRA:          -5.333
REMARK INTER:                  -5.245
REMARK INTRA:                  -0.088
REMARK UNBOUND:                -0.088
REMARK SMILES COc1cc(C(=O)[O-])ccc1O
REMARK SMILES IDX 5 1 9 2 4 3 10 4 3 5 11 6 6 7 7 8 8 9 2 10 1 11 12 12
REMARK H PARENT 12 13
REMARK Flexibility Score: inf
ROOT
ATOM      1  C   UNL     1      11.199   2.662  33.666  1.00  0.00     0.001 A 
ATOM      2  C   UNL     1      11.090   2.498  32.276  1.00  0.00     0.014 A 
ATOM      3  C   UNL     1      10.529   3.733  34.283  1.00  0.00     0.060 A 
ATOM      4  C   UNL     1      10.326   3.387  31.517  1.00  0.00     0.051 A 
ATOM      5  C   UNL     1       9.757   4.633  33.521  1.00  0.00     0.161 A 
ATOM      6  C   UNL     1       9.660   4.452  32.134  1.00  0.00     0.157 A 
ENDROOT
BRANCH   1   7
ATOM      7  C   UNL     1      12.008   1.721  34.473  1.00  0.00     0.072 C 
ATOM      8  O   UNL     1      12.938   2.145  35.210  1.00  0.00    -0.545 OA
ATOM      9  O   UNL     1      11.752   0.355  34.430  1.00  0.00    -0.545 OA
ENDBRANCH   1   7
BRANCH   5  10
ATOM     10  O   UNL     1       9.075   5.713  34.103  1.00  0.00    -0.493 OA
ATOM     11  C   UNL     1       9.654   6.986  34.368  1.00  0.00     0.278 C 
ENDBRANCH   5  10
BRANCH   6  12
ATOM     12  O   UNL     1       8.898   5.339  31.376  1.00  0.00    -0.504 OA
ATOM     13  H   UNL     1       8.514   6.187  31.778  1.00  0.00     0.293 HD
ENDBRANCH   6  12
TORSDOF 3
ENDMDL
MODEL 2
REMARK VINA RESULT:    -4.490      2.688      5.375
REMARK INTER + INTRA:          -5.234
REMARK INTER:                  -5.147
REMARK INTRA:                  -0.087
REMARK UNBOUND:                -0.088
REMARK SMILES COc1cc(C(=O)[O-])ccc1O
REMARK SMILES IDX 5 1 9 2 4 3 10 4 3 5 11 6 6 7 7 8 8 9 2 10 1 11 12 12
REMARK H PARENT 12 13
REMARK Flexibility Score: inf
ROOT
ATOM      1  C   UNL     1      10.135   7.645  31.985  1.00  0.00     0.001 A 
ATOM      2  C   UNL     1       9.211   8.562  32.513  1.00  0.00     0.014 A 
ATOM      3  C   UNL     1      10.211   6.355  32.539  1.00  0.00     0.060 A 
ATOM      4  C   UNL     1       8.382   8.197  33.575  1.00  0.00     0.051 A 
ATOM      5  C   UNL     1       9.376   5.982  33.611  1.00  0.00     0.161 A 
ATOM      6  C   UNL     1       8.461   6.912  34.124  1.00  0.00     0.157 A 
ENDROOT
BRANCH   1   7
ATOM      7  C   UNL     1      11.016   8.029  30.859  1.00  0.00     0.072 C 
ATOM      8  O   UNL     1      10.839   9.116  30.249  1.00  0.00    -0.545 OA
ATOM      9  O   UNL     1      12.054   7.192  30.459  1.00  0.00    -0.545 OA
ENDBRANCH   1   7
BRANCH   5  10
ATOM     10  O   UNL     1       9.425   4.704  34.189  1.00  0.00    -0.493 OA
ATOM     11  C   UNL     1      10.618   3.956  34.397  1.00  0.00     0.278 C 
ENDBRANCH   5  10
BRANCH   6  12
ATOM     12  O   UNL     1       7.631   6.548  35.184  1.00  0.00    -0.504 OA
ATOM     13  H   UNL     1       7.262   5.608  35.271  1.00  0.00     0.293 HD
ENDBRANCH   6  12
TORSDOF 3
ENDMDL
MODEL 3
REMARK VINA RESULT:    -4.451     11.023     13.153
REMARK INTER + INTRA:          -5.189
REMARK INTER:                  -5.112
REMARK INTRA:                  -0.077
REMARK UNBOUND:                -0.088
REMARK SMILES COc1cc(C(=O)[O-])ccc1O
REMARK SMILES IDX 5 1 9 2 4 3 10 4 3 5 11 6 6 7 7 8 8 9 2 10 1 11 12 12
REMARK H PARENT 12 13
REMARK Flexibility Score: inf
ROOT
ATOM      1  C   UNL     1      10.720   0.348  22.055  1.00  0.00     0.001 A 
ATOM      2  C   UNL     1      11.342   0.756  23.246  1.00  0.00     0.014 A 
ATOM      3  C   UNL     1      11.337  -0.636  21.263  1.00  0.00     0.060 A 
ATOM      4  C   UNL     1      12.560   0.194  23.636  1.00  0.00     0.051 A 
ATOM      5  C   UNL     1      12.566  -1.206  21.652  1.00  0.00     0.161 A 
ATOM      6  C   UNL     1      13.172  -0.785  22.844  1.00  0.00     0.157 A 
ENDROOT
BRANCH   1   7
ATOM      7  C   UNL     1       9.429   0.942  21.639  1.00  0.00     0.072 C 
ATOM      8  O   UNL     1       8.404   0.818  22.361  1.00  0.00    -0.545 OA
ATOM      9  O   UNL     1       9.330   1.647  20.444  1.00  0.00    -0.545 OA
ENDBRANCH   1   7
BRANCH   5  10
ATOM     10  O   UNL     1      13.211  -2.189  20.886  1.00  0.00    -0.493 OA
ATOM     11  C   UNL     1      12.582  -2.968  19.874  1.00  0.00     0.278 C 
ENDBRANCH   5  10
BRANCH   6  12
ATOM     12  O   UNL     1      14.387  -1.346  23.235  1.00  0.00    -0.504 OA
ATOM     13  H   UNL     1      15.264  -1.057  22.815  1.00  0.00     0.293 HD
ENDBRANCH   6  12
TORSDOF 3
ENDMDL
MODEL 4
REMARK VINA RESULT:    -4.431     11.588     13.548
REMARK INTER + INTRA:          -5.166
REMARK INTER:                  -5.075
REMARK INTRA:                  -0.091
REMARK UNBOUND:                -0.088
REMARK SMILES COc1cc(C(=O)[O-])ccc1O
REMARK SMILES IDX 5 1 9 2 4 3 10 4 3 5 11 6 6 7 7 8 8 9 2 10 1 11 12 12
REMARK H PARENT 12 13
REMARK Flexibility Score: inf
ROOT
ATOM      1  C   UNL     1      10.793  -0.070  20.863  1.00  0.00     0.001 A 
ATOM      2  C   UNL     1      11.122  -0.805  19.712  1.00  0.00     0.014 A 
ATOM      3  C   UNL     1      11.573  -0.227  22.022  1.00  0.00     0.060 A 
ATOM      4  C   UNL     1      12.209  -1.682  19.721  1.00  0.00     0.051 A 
ATOM      5  C   UNL     1      12.670  -1.111  22.035  1.00  0.00     0.161 A 
ATOM      6  C   UNL     1      12.983  -1.836  20.877  1.00  0.00     0.157 A 
ENDROOT
BRANCH   1   7
ATOM      7  C   UNL     1       9.641   0.861  20.857  1.00  0.00     0.072 C 
ATOM      8  O   UNL     1       9.449   1.636  19.883  1.00  0.00    -0.545 OA
ATOM      9  O   UNL     1       8.753   0.891  21.927  1.00  0.00    -0.545 OA
ENDBRANCH   1   7
BRANCH   5  10
ATOM     10  O   UNL     1      13.471  -1.294  23.174  1.00  0.00    -0.493 OA
ATOM     11  C   UNL     1      14.114  -0.243  23.887  1.00  0.00     0.278 C 
ENDBRANCH   5  10
BRANCH   6  12
ATOM     12  O   UNL     1      14.068  -2.711  20.885  1.00  0.00    -0.504 OA
ATOM     13  H   UNL     1      14.428  -3.102  21.748  1.00  0.00     0.293 HD
ENDBRANCH   6  12
TORSDOF 3
ENDMDL
MODEL 5
REMARK VINA RESULT:    -4.429      1.563      4.804
REMARK INTER + INTRA:          -5.164
REMARK INTER:                  -5.068
REMARK INTRA:                  -0.097
REMARK UNBOUND:                -0.088
REMARK SMILES COc1cc(C(=O)[O-])ccc1O
REMARK SMILES IDX 5 1 9 2 4 3 10 4 3 5 11 6 6 7 7 8 8 9 2 10 1 11 12 12
REMARK H PARENT 12 13
REMARK Flexibility Score: inf
ROOT
ATOM      1  C   UNL     1      10.423   4.310  32.580  1.00  0.00     0.001 A 
ATOM      2  C   UNL     1      11.201   4.624  33.706  1.00  0.00     0.014 A 
ATOM      3  C   UNL     1       9.958   2.994  32.415  1.00  0.00     0.060 A 
ATOM      4  C   UNL     1      11.508   3.640  34.649  1.00  0.00     0.051 A 
ATOM      5  C   UNL     1      10.265   1.998  33.364  1.00  0.00     0.161 A 
ATOM      6  C   UNL     1      11.043   2.330  34.481  1.00  0.00     0.157 A 
ENDROOT
BRANCH   1   7
ATOM      7  C   UNL     1      10.096   5.350  31.579  1.00  0.00     0.072 C 
ATOM      8  O   UNL     1       9.532   6.421  31.928  1.00  0.00    -0.545 OA
ATOM      9  O   UNL     1      10.407   5.160  30.236  1.00  0.00    -0.545 OA
ENDBRANCH   1   7
BRANCH   5  10
ATOM     10  O   UNL     1       9.818   0.674  33.231  1.00  0.00    -0.493 OA
ATOM     11  C   UNL     1      10.431  -0.307  32.402  1.00  0.00     0.278 C 
ENDBRANCH   5  10
BRANCH   6  12
ATOM     12  O   UNL     1      11.350   1.350  35.423  1.00  0.00    -0.504 OA
ATOM     13  H   UNL     1      10.661   1.023  36.092  1.00  0.00     0.293 HD
ENDBRANCH   6  12
TORSDOF 3
ENDMDL
MODEL 6
REMARK VINA RESULT:    -4.427      1.082      2.920
REMARK INTER + INTRA:          -5.161
REMARK INTER:                  -5.083
REMARK INTRA:                  -0.078
REMARK UNBOUND:                -0.088
REMARK SMILES COc1cc(C(=O)[O-])ccc1O
REMARK SMILES IDX 5 1 9 2 4 3 10 4 3 5 11 6 6 7 7 8 8 9 2 10 1 11 12 12
REMARK H PARENT 12 13
REMARK Flexibility Score: inf
ROOT
ATOM      1  C   UNL     1      11.189   2.625  33.611  1.00  0.00     0.001 A 
ATOM      2  C   UNL     1      10.450   3.618  34.275  1.00  0.00     0.014 A 
ATOM      3  C   UNL     1      11.165   2.580  32.206  1.00  0.00     0.060 A 
ATOM      4  C   UNL     1       9.702   4.547  33.548  1.00  0.00     0.051 A 
ATOM      5  C   UNL     1      10.411   3.515  31.469  1.00  0.00     0.161 A 
ATOM      6  C   UNL     1       9.681   4.498  32.150  1.00  0.00     0.157 A 
ENDROOT
BRANCH   1   7
ATOM      7  C   UNL     1      11.983   1.639  34.378  1.00  0.00     0.072 C 
ATOM      8  O   UNL     1      11.680   0.417  34.356  1.00  0.00    -0.545 OA
ATOM      9  O   UNL     1      13.075   2.050  35.135  1.00  0.00    -0.545 OA
ENDBRANCH   1   7
BRANCH   5  10
ATOM     10  O   UNL     1      10.364   3.500  30.066  1.00  0.00    -0.493 OA
ATOM     11  C   UNL     1      11.388   2.974  29.228  1.00  0.00     0.278 C 
ENDBRANCH   5  10
BRANCH   6  12
ATOM     12  O   UNL     1       8.934   5.426  31.426  1.00  0.00    -0.504 OA
ATOM     13  H   UNL     1       9.358   6.259  31.033  1.00  0.00     0.293 HD
ENDBRANCH   6  12
TORSDOF 3
ENDMDL
MODEL 7
REMARK VINA RESULT:    -4.405      2.610      4.115
REMARK INTER + INTRA:          -5.136
REMARK INTER:                  -5.040
REMARK INTRA:                  -0.097
REMARK UNBOUND:                -0.088
REMARK SMILES COc1cc(C(=O)[O-])ccc1O
REMARK SMILES IDX 5 1 9 2 4 3 10 4 3 5 11 6 6 7 7 8 8 9 2 10 1 11 12 12
REMARK H PARENT 12 13
REMARK Flexibility Score: inf
ROOT
ATOM      1  C   UNL     1       9.560   6.101  33.620  1.00  0.00     0.001 A 
ATOM      2  C   UNL     1      10.008   6.976  32.617  1.00  0.00     0.014 A 
ATOM      3  C   UNL     1       8.396   6.425  34.340  1.00  0.00     0.060 A 
ATOM      4  C   UNL     1       9.308   8.152  32.340  1.00  0.00     0.051 A 
ATOM      5  C   UNL     1       7.687   7.611  34.064  1.00  0.00     0.161 A 
ATOM      6  C   UNL     1       8.150   8.471  33.059  1.00  0.00     0.157 A 
ENDROOT
BRANCH   1   7
ATOM      7  C   UNL     1      10.300   4.854  33.916  1.00  0.00     0.072 C 
ATOM      8  O   UNL     1       9.840   3.736  33.561  1.00  0.00    -0.545 OA
ATOM      9  O   UNL     1      11.515   4.899  34.592  1.00  0.00    -0.545 OA
ENDBRANCH   1   7
BRANCH   5  10
ATOM     10  O   UNL     1       6.522   7.966  34.763  1.00  0.00    -0.493 OA
ATOM     11  C   UNL     1       6.502   8.493  36.085  1.00  0.00     0.278 C 
ENDBRANCH   5  10
BRANCH   6  12
ATOM     12  O   UNL     1       7.452   9.645  32.781  1.00  0.00    -0.504 OA
ATOM     13  H   UNL     1       6.550   9.629  32.318  1.00  0.00     0.293 HD
ENDBRANCH   6  12
TORSDOF 3
ENDMDL
MODEL 8
REMARK VINA RESULT:    -4.377      1.774      2.146
REMARK INTER + INTRA:          -5.105
REMARK INTER:                  -5.005
REMARK INTRA:                  -0.100
REMARK UNBOUND:                -0.088
REMARK SMILES COc1cc(C(=O)[O-])ccc1O
REMARK SMILES IDX 5 1 9 2 4 3 10 4 3 5 11 6 6 7 7 8 8 9 2 10 1 11 12 12
REMARK H PARENT 12 13
REMARK Flexibility Score: inf
ROOT
ATOM      1  C   UNL     1      10.490   3.397  32.640  1.00  0.00     0.001 A 
ATOM      2  C   UNL     1      10.873   3.151  31.311  1.00  0.00     0.014 A 
ATOM      3  C   UNL     1      10.195   4.714  33.034  1.00  0.00     0.060 A 
ATOM      4  C   UNL     1      10.959   4.201  30.394  1.00  0.00     0.051 A 
ATOM      5  C   UNL     1      10.280   5.776  32.112  1.00  0.00     0.161 A 
ATOM      6  C   UNL     1      10.664   5.511  30.791  1.00  0.00     0.157 A 
ENDROOT
BRANCH   1   7
ATOM      7  C   UNL     1      10.398   2.286  33.613  1.00  0.00     0.072 C 
ATOM      8  O   UNL     1      10.000   1.147  33.250  1.00  0.00    -0.545 OA
ATOM      9  O   UNL     1      10.750   2.484  34.945  1.00  0.00    -0.545 OA
ENDBRANCH   1   7
BRANCH   5  10
ATOM     10  O   UNL     1       9.993   7.103  32.471  1.00  0.00    -0.493 OA
ATOM     11  C   UNL     1       8.694   7.591  32.789  1.00  0.00     0.278 C 
ENDBRANCH   5  10
BRANCH   6  12
ATOM     12  O   UNL     1      10.750   6.558  29.875  1.00  0.00    -0.504 OA
ATOM     13  H   UNL     1      11.162   6.428  28.957  1.00  0.00     0.293 HD
ENDBRANCH   6  12
TORSDOF 3
ENDMDL
MODEL 9
REMARK VINA RESULT:    -4.336      2.852      5.927
REMARK INTER + INTRA:          -5.058
REMARK INTER:                  -4.961
REMARK INTRA:                  -0.096
REMARK UNBOUND:                -0.088
REMARK SMILES COc1cc(C(=O)[O-])ccc1O
REMARK SMILES IDX 5 1 9 2 4 3 10 4 3 5 11 6 6 7 7 8 8 9 2 10 1 11 12 12
REMARK H PARENT 12 13
REMARK Flexibility Score: inf
ROOT
ATOM      1  C   UNL     1       7.618   7.931  34.677  1.00  0.00     0.001 A 
ATOM      2  C   UNL     1       7.780   8.782  33.571  1.00  0.00     0.014 A 
ATOM      3  C   UNL     1       8.271   6.686  34.683  1.00  0.00     0.060 A 
ATOM      4  C   UNL     1       8.577   8.394  32.492  1.00  0.00     0.051 A 
ATOM      5  C   UNL     1       9.075   6.290  33.596  1.00  0.00     0.161 A 
ATOM      6  C   UNL     1       9.224   7.153  32.502  1.00  0.00     0.157 A 
ENDROOT
BRANCH   1   7
ATOM      7  C   UNL     1       6.775   8.340  35.823  1.00  0.00     0.072 C 
ATOM      8  O   UNL     1       5.519   8.347  35.723  1.00  0.00    -0.545 OA
ATOM      9  O   UNL     1       7.357   8.722  37.027  1.00  0.00    -0.545 OA
ENDBRANCH   1   7
BRANCH   5  10
ATOM     10  O   UNL     1       9.741   5.054  33.568  1.00  0.00    -0.493 OA
ATOM     11  C   UNL     1      10.942   4.766  34.276  1.00  0.00     0.278 C 
ENDBRANCH   5  10
BRANCH   6  12
ATOM     12  O   UNL     1      10.019   6.767  31.424  1.00  0.00    -0.504 OA
ATOM     13  H   UNL     1      11.006   6.564  31.538  1.00  0.00     0.293 HD
ENDBRANCH   6  12
TORSDOF 3
ENDMDL
