MODEL 1
REMARK VINA RESULT:    -6.350      0.000      0.000
REMARK INTER + INTRA:          -8.375
REMARK INTER:                  -7.835
REMARK INTRA:                  -0.540
REMARK UNBOUND:                -0.540
REMARK SMILES COc1ccc(-c2cc3cc(O)c(OC)cc3o2)c(O)c1
REMARK SMILES IDX 7 1 8 2 9 3 10 4 11 5 13 6 16 7 17 8 18 9 6 10 3 11 21 12
REMARK SMILES IDX 4 13 19 14 5 15 2 16 1 17 20 18 12 20 14 22 15 23
REMARK H PARENT 20 19 12 21
REMARK Flexibility Score: inf
ROOT
ATOM      1  C   UNL     1      40.918  52.327  34.216  1.00  0.00     0.139 A 
ATOM      2  C   UNL     1      42.305  52.237  34.368  1.00  0.00     0.060 A 
ATOM      3  C   UNL     1      42.626  53.257  35.231  1.00  0.00     0.025 A 
ATOM      4  C   UNL     1      43.852  53.658  35.751  1.00  0.00     0.062 A 
ATOM      5  C   UNL     1      43.867  54.760  36.631  1.00  0.00     0.158 A 
ATOM      6  C   UNL     1      42.662  55.429  36.967  1.00  0.00     0.164 A 
ATOM      7  C   UNL     1      41.434  54.985  36.413  1.00  0.00     0.098 A 
ATOM      8  C   UNL     1      41.463  53.895  35.550  1.00  0.00     0.138 A 
ATOM      9  O   UNL     1      40.450  53.332  34.939  1.00  0.00    -0.456 OA
ENDROOT
BRANCH   1  10
ATOM     10  C   UNL     1      40.060  51.447  33.378  1.00  0.00     0.059 A 
ATOM     11  C   UNL     1      38.447  49.773  31.767  1.00  0.00     0.122 A 
ATOM     12  C   UNL     1      37.862  50.598  32.742  1.00  0.00     0.093 A 
ATOM     13  C   UNL     1      39.834  49.790  31.605  1.00  0.00     0.047 A 
ATOM     14  C   UNL     1      38.657  51.431  33.545  1.00  0.00     0.130 A 
ATOM     15  C   UNL     1      40.633  50.616  32.397  1.00  0.00     0.020 A 
BRANCH  11  16
ATOM     16  O   UNL     1      37.690  48.924  30.945  1.00  0.00    -0.497 OA
ATOM     17  C   UNL     1      37.011  49.341  29.765  1.00  0.00     0.278 C 
ENDBRANCH  11  16
BRANCH  14  18
ATOM     18  O   UNL     1      38.049  52.236  34.508  1.00  0.00    -0.507 OA
ATOM     19  H   UNL     1      37.662  53.144  34.278  1.00  0.00     0.293 HD
ENDBRANCH  14  18
ENDBRANCH   1  10
BRANCH   5  20
ATOM     20  O   UNL     1      45.071  55.200  37.178  1.00  0.00    -0.504 OA
ATOM     21  H   UNL     1      45.649  54.590  37.745  1.00  0.00     0.293 HD
ENDBRANCH   5  20
BRANCH   6  22
ATOM     22  O   UNL     1      42.729  56.520  37.847  1.00  0.00    -0.493 OA
ATOM     23  C   UNL     1      42.764  57.883  37.437  1.00  0.00     0.278 C 
ENDBRANCH   6  22
TORSDOF 5
ENDMDL
MODEL 2
REMARK VINA RESULT:    -6.330      9.309     11.601
REMARK INTER + INTRA:          -8.350
REMARK INTER:                  -7.774
REMARK INTRA:                  -0.576
REMARK UNBOUND:                -0.540
REMARK SMILES COc1ccc(-c2cc3cc(O)c(OC)cc3o2)c(O)c1
REMARK SMILES IDX 7 1 8 2 9 3 10 4 11 5 13 6 16 7 17 8 18 9 6 10 3 11 21 12
REMARK SMILES IDX 4 13 19 14 5 15 2 16 1 17 20 18 12 20 14 22 15 23
REMARK H PARENT 20 19 12 21
REMARK Flexibility Score: inf
ROOT
ATOM      1  C   UNL     1      51.359  50.217  37.045  1.00  0.00     0.139 A 
ATOM      2  C   UNL     1      52.530  50.375  36.298  1.00  0.00     0.060 A 
ATOM      3  C   UNL     1      53.469  50.795  37.210  1.00  0.00     0.025 A 
ATOM      4  C   UNL     1      54.815  51.109  37.053  1.00  0.00     0.062 A 
ATOM      5  C   UNL     1      55.535  51.517  38.196  1.00  0.00     0.158 A 
ATOM      6  C   UNL     1      54.895  51.597  39.459  1.00  0.00     0.164 A 
ATOM      7  C   UNL     1      53.521  51.266  39.572  1.00  0.00     0.098 A 
ATOM      8  C   UNL     1      52.846  50.870  38.422  1.00  0.00     0.138 A 
ATOM      9  O   UNL     1      51.588  50.523  38.312  1.00  0.00    -0.456 OA
ENDROOT
BRANCH   1  10
ATOM     10  C   UNL     1      50.035  49.775  36.531  1.00  0.00     0.059 A 
ATOM     11  C   UNL     1      47.513  48.957  35.547  1.00  0.00     0.122 A 
ATOM     12  C   UNL     1      48.156  48.219  36.556  1.00  0.00     0.093 A 
ATOM     13  C   UNL     1      48.136  50.098  35.038  1.00  0.00     0.047 A 
ATOM     14  C   UNL     1      49.407  48.619  37.048  1.00  0.00     0.130 A 
ATOM     15  C   UNL     1      49.380  50.506  35.522  1.00  0.00     0.020 A 
BRANCH  11  16
ATOM     16  O   UNL     1      46.263  48.591  35.026  1.00  0.00    -0.497 OA
ATOM     17  C   UNL     1      45.266  47.877  35.749  1.00  0.00     0.278 C 
ENDBRANCH  11  16
BRANCH  14  18
ATOM     18  O   UNL     1      50.023  47.864  38.046  1.00  0.00    -0.507 OA
ATOM     19  H   UNL     1      51.006  47.621  38.001  1.00  0.00     0.293 HD
ENDBRANCH  14  18
ENDBRANCH   1  10
BRANCH   5  20
ATOM     20  O   UNL     1      56.886  51.842  38.089  1.00  0.00    -0.504 OA
ATOM     21  H   UNL     1      57.597  51.127  37.994  1.00  0.00     0.293 HD
ENDBRANCH   5  20
BRANCH   6  22
ATOM     22  O   UNL     1      55.654  52.007  40.566  1.00  0.00    -0.493 OA
ATOM     23  C   UNL     1      55.101  52.424  41.810  1.00  0.00     0.278 C 
ENDBRANCH   6  22
TORSDOF 5
ENDMDL
MODEL 3
REMARK VINA RESULT:    -6.155      2.190      3.971
REMARK INTER + INTRA:          -8.135
REMARK INTER:                  -7.574
REMARK INTRA:                  -0.561
REMARK UNBOUND:                -0.540
REMARK SMILES COc1ccc(-c2cc3cc(O)c(OC)cc3o2)c(O)c1
REMARK SMILES IDX 7 1 8 2 9 3 10 4 11 5 13 6 16 7 17 8 18 9 6 10 3 11 21 12
REMARK SMILES IDX 4 13 19 14 5 15 2 16 1 17 20 18 12 20 14 22 15 23
REMARK H PARENT 20 19 12 21
REMARK Flexibility Score: inf
ROOT
ATOM      1  C   UNL     1      43.033  54.648  36.408  1.00  0.00     0.139 A 
ATOM      2  C   UNL     1      44.391  54.976  36.368  1.00  0.00     0.060 A 
ATOM      3  C   UNL     1      44.529  55.990  37.285  1.00  0.00     0.025 A 
ATOM      4  C   UNL     1      45.650  56.714  37.681  1.00  0.00     0.062 A 
ATOM      5  C   UNL     1      45.478  57.712  38.664  1.00  0.00     0.158 A 
ATOM      6  C   UNL     1      44.198  57.958  39.223  1.00  0.00     0.164 A 
ATOM      7  C   UNL     1      43.083  57.195  38.789  1.00  0.00     0.098 A 
ATOM      8  C   UNL     1      43.295  56.221  37.819  1.00  0.00     0.138 A 
ATOM      9  O   UNL     1      42.410  55.415  37.288  1.00  0.00    -0.456 OA
ENDROOT
BRANCH   1  10
ATOM     10  C   UNL     1      42.352  53.602  35.600  1.00  0.00     0.059 A 
ATOM     11  C   UNL     1      41.075  51.597  34.067  1.00  0.00     0.122 A 
ATOM     12  C   UNL     1      40.744  52.950  33.884  1.00  0.00     0.093 A 
ATOM     13  C   UNL     1      42.041  51.256  35.016  1.00  0.00     0.047 A 
ATOM     14  C   UNL     1      41.373  53.950  34.641  1.00  0.00     0.130 A 
ATOM     15  C   UNL     1      42.674  52.243  35.773  1.00  0.00     0.020 A 
BRANCH  11  16
ATOM     16  O   UNL     1      40.469  50.566  33.333  1.00  0.00    -0.497 OA
ATOM     17  C   UNL     1      40.460  50.488  31.911  1.00  0.00     0.278 C 
ENDBRANCH  11  16
BRANCH  14  18
ATOM     18  O   UNL     1      41.020  55.284  34.440  1.00  0.00    -0.507 OA
ATOM     19  H   UNL     1      40.312  55.553  33.768  1.00  0.00     0.293 HD
ENDBRANCH  14  18
ENDBRANCH   1  10
BRANCH   5  20
ATOM     20  O   UNL     1      46.570  58.463  39.094  1.00  0.00    -0.504 OA
ATOM     21  H   UNL     1      47.041  58.262  39.968  1.00  0.00     0.293 HD
ENDBRANCH   5  20
BRANCH   6  22
ATOM     22  O   UNL     1      44.078  58.960  40.198  1.00  0.00    -0.493 OA
ATOM     23  C   UNL     1      44.015  58.715  41.599  1.00  0.00     0.278 C 
ENDBRANCH   6  22
TORSDOF 5
ENDMDL
MODEL 4
REMARK VINA RESULT:    -6.139      8.966     11.151
REMARK INTER + INTRA:          -8.115
REMARK INTER:                  -7.505
REMARK INTRA:                  -0.610
REMARK UNBOUND:                -0.540
REMARK SMILES COc1ccc(-c2cc3cc(O)c(OC)cc3o2)c(O)c1
REMARK SMILES IDX 7 1 8 2 9 3 10 4 11 5 13 6 16 7 17 8 18 9 6 10 3 11 21 12
REMARK SMILES IDX 4 13 19 14 5 15 2 16 1 17 20 18 12 20 14 22 15 23
REMARK H PARENT 20 19 12 21
REMARK Flexibility Score: inf
ROOT
ATOM      1  C   UNL     1      50.546  49.699  36.976  1.00  0.00     0.139 A 
ATOM      2  C   UNL     1      50.913  49.924  38.306  1.00  0.00     0.060 A 
ATOM      3  C   UNL     1      52.215  50.360  38.237  1.00  0.00     0.025 A 
ATOM      4  C   UNL     1      53.102  50.739  39.239  1.00  0.00     0.062 A 
ATOM      5  C   UNL     1      54.397  51.149  38.854  1.00  0.00     0.158 A 
ATOM      6  C   UNL     1      54.767  51.170  37.485  1.00  0.00     0.164 A 
ATOM      7  C   UNL     1      53.829  50.775  36.497  1.00  0.00     0.098 A 
ATOM      8  C   UNL     1      52.564  50.377  36.918  1.00  0.00     0.138 A 
ATOM      9  O   UNL     1      51.561  49.981  36.174  1.00  0.00    -0.456 OA
ENDROOT
BRANCH   1  10
ATOM     10  C   UNL     1      49.226  49.215  36.492  1.00  0.00     0.059 A 
ATOM     11  C   UNL     1      46.720  48.273  35.580  1.00  0.00     0.122 A 
ATOM     12  C   UNL     1      47.277  49.445  35.041  1.00  0.00     0.093 A 
ATOM     13  C   UNL     1      47.420  47.580  36.570  1.00  0.00     0.047 A 
ATOM     14  C   UNL     1      48.520  49.918  35.490  1.00  0.00     0.130 A 
ATOM     15  C   UNL     1      48.657  48.042  37.022  1.00  0.00     0.020 A 
BRANCH  11  16
ATOM     16  O   UNL     1      45.480  47.766  35.161  1.00  0.00    -0.497 OA
ATOM     17  C   UNL     1      45.127  46.387  35.178  1.00  0.00     0.278 C 
ENDBRANCH  11  16
BRANCH  14  18
ATOM     18  O   UNL     1      49.045  51.088  34.941  1.00  0.00    -0.507 OA
ATOM     19  H   UNL     1      48.491  51.695  34.348  1.00  0.00     0.293 HD
ENDBRANCH  14  18
ENDBRANCH   1  10
BRANCH   5  20
ATOM     20  O   UNL     1      55.322  51.538  39.821  1.00  0.00    -0.504 OA
ATOM     21  H   UNL     1      55.550  50.940  40.606  1.00  0.00     0.293 HD
ENDBRANCH   5  20
BRANCH   6  22
ATOM     22  O   UNL     1      56.065  51.586  37.152  1.00  0.00    -0.493 OA
ATOM     23  C   UNL     1      57.123  50.705  36.789  1.00  0.00     0.278 C 
ENDBRANCH   6  22
TORSDOF 5
ENDMDL
MODEL 5
REMARK VINA RESULT:    -6.014      9.092     12.651
REMARK INTER + INTRA:          -7.960
REMARK INTER:                  -7.362
REMARK INTRA:                  -0.598
REMARK UNBOUND:                -0.540
REMARK SMILES COc1ccc(-c2cc3cc(O)c(OC)cc3o2)c(O)c1
REMARK SMILES IDX 7 1 8 2 9 3 10 4 11 5 13 6 16 7 17 8 18 9 6 10 3 11 21 12
REMARK SMILES IDX 4 13 19 14 5 15 2 16 1 17 20 18 12 20 14 22 15 23
REMARK H PARENT 20 19 12 21
REMARK Flexibility Score: inf
ROOT
ATOM      1  C   UNL     1      46.128  44.504  33.505  1.00  0.00     0.139 A 
ATOM      2  C   UNL     1      45.874  43.391  34.313  1.00  0.00     0.060 A 
ATOM      3  C   UNL     1      45.601  42.375  33.428  1.00  0.00     0.025 A 
ATOM      4  C   UNL     1      45.280  41.039  33.645  1.00  0.00     0.062 A 
ATOM      5  C   UNL     1      45.051  40.224  32.517  1.00  0.00     0.158 A 
ATOM      6  C   UNL     1      45.150  40.761  31.208  1.00  0.00     0.164 A 
ATOM      7  C   UNL     1      45.481  42.129  31.034  1.00  0.00     0.098 A 
ATOM      8  C   UNL     1      45.698  42.900  32.172  1.00  0.00     0.138 A 
ATOM      9  O   UNL     1      46.013  44.170  32.230  1.00  0.00    -0.456 OA
ENDROOT
BRANCH   1  10
ATOM     10  C   UNL     1      46.477  45.873  33.969  1.00  0.00     0.059 A 
ATOM     11  C   UNL     1      47.119  48.479  34.860  1.00  0.00     0.122 A 
ATOM     12  C   UNL     1      47.897  47.855  33.870  1.00  0.00     0.093 A 
ATOM     13  C   UNL     1      46.026  47.796  35.397  1.00  0.00     0.047 A 
ATOM     14  C   UNL     1      47.584  46.561  33.424  1.00  0.00     0.130 A 
ATOM     15  C   UNL     1      45.706  46.510  34.959  1.00  0.00     0.020 A 
BRANCH  11  16
ATOM     16  O   UNL     1      47.398  49.770  35.335  1.00  0.00    -0.497 OA
ATOM     17  C   UNL     1      48.529  50.543  34.950  1.00  0.00     0.278 C 
ENDBRANCH  11  16
BRANCH  14  18
ATOM     18  O   UNL     1      48.378  45.965  32.444  1.00  0.00    -0.507 OA
ATOM     19  H   UNL     1      48.032  45.210  31.864  1.00  0.00     0.293 HD
ENDBRANCH  14  18
ENDBRANCH   1  10
BRANCH   5  20
ATOM     20  O   UNL     1      44.726  38.879  32.683  1.00  0.00    -0.504 OA
ATOM     21  H   UNL     1      44.077  38.410  32.063  1.00  0.00     0.293 HD
ENDBRANCH   5  20
BRANCH   6  22
ATOM     22  O   UNL     1      44.914  39.910  30.118  1.00  0.00    -0.493 OA
ATOM     23  C   UNL     1      44.837  40.341  28.763  1.00  0.00     0.278 C 
ENDBRANCH   6  22
TORSDOF 5
ENDMDL
MODEL 6
REMARK VINA RESULT:    -5.794      1.544      8.006
REMARK INTER + INTRA:          -7.689
REMARK INTER:                  -7.182
REMARK INTRA:                  -0.507
REMARK UNBOUND:                -0.540
REMARK SMILES COc1ccc(-c2cc3cc(O)c(OC)cc3o2)c(O)c1
REMARK SMILES IDX 7 1 8 2 9 3 10 4 11 5 13 6 16 7 17 8 18 9 6 10 3 11 21 12
REMARK SMILES IDX 4 13 19 14 5 15 2 16 1 17 20 18 12 20 14 22 15 23
REMARK H PARENT 20 19 12 21
REMARK Flexibility Score: inf
ROOT
ATOM      1  C   UNL     1      41.389  53.543  35.190  1.00  0.00     0.139 A 
ATOM      2  C   UNL     1      40.019  53.762  35.016  1.00  0.00     0.060 A 
ATOM      3  C   UNL     1      39.606  52.736  34.199  1.00  0.00     0.025 A 
ATOM      4  C   UNL     1      38.350  52.429  33.687  1.00  0.00     0.062 A 
ATOM      5  C   UNL     1      38.233  51.289  32.863  1.00  0.00     0.158 A 
ATOM      6  C   UNL     1      39.369  50.491  32.575  1.00  0.00     0.164 A 
ATOM      7  C   UNL     1      40.631  50.842  33.119  1.00  0.00     0.098 A 
ATOM      8  C   UNL     1      40.704  51.972  33.927  1.00  0.00     0.138 A 
ATOM      9  O   UNL     1      41.762  52.463  34.523  1.00  0.00    -0.456 OA
ENDROOT
BRANCH   1  10
ATOM     10  C   UNL     1      42.322  54.375  35.996  1.00  0.00     0.059 A 
ATOM     11  C   UNL     1      44.079  55.975  37.530  1.00  0.00     0.122 A 
ATOM     12  C   UNL     1      44.586  54.979  36.679  1.00  0.00     0.093 A 
ATOM     13  C   UNL     1      42.698  56.164  37.608  1.00  0.00     0.047 A 
ATOM     14  C   UNL     1      43.719  54.181  35.915  1.00  0.00     0.130 A 
ATOM     15  C   UNL     1      41.828  55.377  36.852  1.00  0.00     0.020 A 
BRANCH  11  16
ATOM     16  O   UNL     1      44.909  56.793  38.312  1.00  0.00    -0.497 OA
ATOM     17  C   UNL     1      45.345  58.094  37.933  1.00  0.00     0.278 C 
ENDBRANCH  11  16
BRANCH  14  18
ATOM     18  O   UNL     1      44.252  53.196  35.083  1.00  0.00    -0.507 OA
ATOM     19  H   UNL     1      44.559  53.403  34.140  1.00  0.00     0.293 HD
ENDBRANCH  14  18
ENDBRANCH   1  10
BRANCH   5  20
ATOM     20  O   UNL     1      36.996  50.941  32.326  1.00  0.00    -0.504 OA
ATOM     21  H   UNL     1      36.405  51.625  31.868  1.00  0.00     0.293 HD
ENDBRANCH   5  20
BRANCH   6  22
ATOM     22  O   UNL     1      39.202  49.368  31.751  1.00  0.00    -0.493 OA
ATOM     23  C   UNL     1      38.930  48.054  32.228  1.00  0.00     0.278 C 
ENDBRANCH   6  22
TORSDOF 5
ENDMDL
MODEL 7
REMARK VINA RESULT:    -5.723      8.551     12.363
REMARK INTER + INTRA:          -7.601
REMARK INTER:                  -7.092
REMARK INTRA:                  -0.508
REMARK UNBOUND:                -0.540
REMARK SMILES COc1ccc(-c2cc3cc(O)c(OC)cc3o2)c(O)c1
REMARK SMILES IDX 7 1 8 2 9 3 10 4 11 5 13 6 16 7 17 8 18 9 6 10 3 11 21 12
REMARK SMILES IDX 4 13 19 14 5 15 2 16 1 17 20 18 12 20 14 22 15 23
REMARK H PARENT 20 19 12 21
REMARK Flexibility Score: inf
ROOT
ATOM      1  C   UNL     1      49.426  48.537  35.659  1.00  0.00     0.139 A 
ATOM      2  C   UNL     1      48.177  48.930  36.149  1.00  0.00     0.060 A 
ATOM      3  C   UNL     1      47.295  48.016  35.624  1.00  0.00     0.025 A 
ATOM      4  C   UNL     1      45.916  47.896  35.763  1.00  0.00     0.062 A 
ATOM      5  C   UNL     1      45.275  46.833  35.092  1.00  0.00     0.158 A 
ATOM      6  C   UNL     1      46.025  45.923  34.305  1.00  0.00     0.164 A 
ATOM      7  C   UNL     1      47.429  46.083  34.192  1.00  0.00     0.098 A 
ATOM      8  C   UNL     1      48.023  47.144  34.869  1.00  0.00     0.138 A 
ATOM      9  O   UNL     1      49.293  47.464  34.897  1.00  0.00    -0.456 OA
ENDROOT
BRANCH   1  10
ATOM     10  C   UNL     1      50.730  49.197  35.931  1.00  0.00     0.059 A 
ATOM     11  C   UNL     1      53.199  50.473  36.455  1.00  0.00     0.122 A 
ATOM     12  C   UNL     1      53.131  49.403  35.547  1.00  0.00     0.093 A 
ATOM     13  C   UNL     1      52.033  50.898  37.094  1.00  0.00     0.047 A 
ATOM     14  C   UNL     1      51.909  48.765  35.283  1.00  0.00     0.130 A 
ATOM     15  C   UNL     1      50.812  50.271  36.837  1.00  0.00     0.020 A 
BRANCH  11  16
ATOM     16  O   UNL     1      54.400  51.138  36.749  1.00  0.00    -0.497 OA
ATOM     17  C   UNL     1      54.982  51.213  38.046  1.00  0.00     0.278 C 
ENDBRANCH  11  16
BRANCH  14  18
ATOM     18  O   UNL     1      51.874  47.702  34.381  1.00  0.00    -0.507 OA
ATOM     19  H   UNL     1      51.019  47.195  34.187  1.00  0.00     0.293 HD
ENDBRANCH  14  18
ENDBRANCH   1  10
BRANCH   5  20
ATOM     20  O   UNL     1      43.895  46.672  35.200  1.00  0.00    -0.504 OA
ATOM     21  H   UNL     1      43.251  47.253  34.677  1.00  0.00     0.293 HD
ENDBRANCH   5  20
BRANCH   6  22
ATOM     22  O   UNL     1      45.341  44.882  33.657  1.00  0.00    -0.493 OA
ATOM     23  C   UNL     1      45.626  43.499  33.839  1.00  0.00     0.278 C 
ENDBRANCH   6  22
TORSDOF 5
ENDMDL
MODEL 8
REMARK VINA RESULT:    -5.721      8.441      9.657
REMARK INTER + INTRA:          -7.599
REMARK INTER:                  -7.085
REMARK INTRA:                  -0.513
REMARK UNBOUND:                -0.540
REMARK SMILES COc1ccc(-c2cc3cc(O)c(OC)cc3o2)c(O)c1
REMARK SMILES IDX 7 1 8 2 9 3 10 4 11 5 13 6 16 7 17 8 18 9 6 10 3 11 21 12
REMARK SMILES IDX 4 13 19 14 5 15 2 16 1 17 20 18 12 20 14 22 15 23
REMARK H PARENT 20 19 12 21
REMARK Flexibility Score: inf
ROOT
ATOM      1  C   UNL     1      47.346  46.355  34.755  1.00  0.00     0.139 A 
ATOM      2  C   UNL     1      46.874  47.567  34.240  1.00  0.00     0.060 A 
ATOM      3  C   UNL     1      47.720  48.517  34.762  1.00  0.00     0.025 A 
ATOM      4  C   UNL     1      47.747  49.898  34.601  1.00  0.00     0.062 A 
ATOM      5  C   UNL     1      48.756  50.621  35.274  1.00  0.00     0.158 A 
ATOM      6  C   UNL     1      49.705  49.948  36.084  1.00  0.00     0.164 A 
ATOM      7  C   UNL     1      49.639  48.537  36.218  1.00  0.00     0.098 A 
ATOM      8  C   UNL     1      48.630  47.862  35.539  1.00  0.00     0.138 A 
ATOM      9  O   UNL     1      48.398  46.573  35.528  1.00  0.00    -0.456 OA
ENDROOT
BRANCH   1  10
ATOM     10  C   UNL     1      46.779  45.005  34.498  1.00  0.00     0.059 A 
ATOM     11  C   UNL     1      45.681  42.447  33.999  1.00  0.00     0.122 A 
ATOM     12  C   UNL     1      46.692  42.610  34.961  1.00  0.00     0.093 A 
ATOM     13  C   UNL     1      45.227  43.562  33.294  1.00  0.00     0.047 A 
ATOM     14  C   UNL     1      47.241  43.877  35.213  1.00  0.00     0.130 A 
ATOM     15  C   UNL     1      45.765  44.826  33.538  1.00  0.00     0.020 A 
BRANCH  11  16
ATOM     16  O   UNL     1      45.106  41.198  33.715  1.00  0.00    -0.497 OA
ATOM     17  C   UNL     1      45.233  40.517  32.472  1.00  0.00     0.278 C 
ENDBRANCH  11  16
BRANCH  14  18
ATOM     18  O   UNL     1      48.247  44.008  36.170  1.00  0.00    -0.507 OA
ATOM     19  H   UNL     1      48.236  44.752  36.858  1.00  0.00     0.293 HD
ENDBRANCH  14  18
ENDBRANCH   1  10
BRANCH   5  20
ATOM     20  O   UNL     1      48.824  52.007  35.144  1.00  0.00    -0.504 OA
ATOM     21  H   UNL     1      49.595  52.538  35.533  1.00  0.00     0.293 HD
ENDBRANCH   5  20
BRANCH   6  22
ATOM     22  O   UNL     1      50.689  50.710  36.732  1.00  0.00    -0.493 OA
ATOM     23  C   UNL     1      52.089  50.483  36.614  1.00  0.00     0.278 C 
ENDBRANCH   6  22
TORSDOF 5
ENDMDL
MODEL 9
REMARK VINA RESULT:    -5.691      9.439     13.893
REMARK INTER + INTRA:          -7.561
REMARK INTER:                  -6.996
REMARK INTRA:                  -0.565
REMARK UNBOUND:                -0.540
REMARK SMILES COc1ccc(-c2cc3cc(O)c(OC)cc3o2)c(O)c1
REMARK SMILES IDX 7 1 8 2 9 3 10 4 11 5 13 6 16 7 17 8 18 9 6 10 3 11 21 12
REMARK SMILES IDX 4 13 19 14 5 15 2 16 1 17 20 18 12 20 14 22 15 23
REMARK H PARENT 20 19 12 21
REMARK Flexibility Score: inf
ROOT
ATOM      1  C   UNL     1      51.850  50.590  38.478  1.00  0.00     0.139 A 
ATOM      2  C   UNL     1      51.376  51.253  37.341  1.00  0.00     0.060 A 
ATOM      3  C   UNL     1      50.432  50.404  36.814  1.00  0.00     0.025 A 
ATOM      4  C   UNL     1      49.625  50.527  35.688  1.00  0.00     0.062 A 
ATOM      5  C   UNL     1      48.735  49.472  35.396  1.00  0.00     0.158 A 
ATOM      6  C   UNL     1      48.675  48.329  36.233  1.00  0.00     0.164 A 
ATOM      7  C   UNL     1      49.516  48.247  37.372  1.00  0.00     0.098 A 
ATOM      8  C   UNL     1      50.380  49.308  37.625  1.00  0.00     0.138 A 
ATOM      9  O   UNL     1      51.230  49.429  38.614  1.00  0.00    -0.456 OA
ENDROOT
BRANCH   1  10
ATOM     10  C   UNL     1      52.892  51.082  39.418  1.00  0.00     0.059 A 
ATOM     11  C   UNL     1      54.891  52.007  41.192  1.00  0.00     0.122 A 
ATOM     12  C   UNL     1      53.571  51.835  41.638  1.00  0.00     0.093 A 
ATOM     13  C   UNL     1      55.203  51.715  39.863  1.00  0.00     0.047 A 
ATOM     14  C   UNL     1      52.573  51.376  40.763  1.00  0.00     0.130 A 
ATOM     15  C   UNL     1      54.220  51.258  38.984  1.00  0.00     0.020 A 
BRANCH  11  16
ATOM     16  O   UNL     1      55.918  52.464  42.033  1.00  0.00    -0.497 OA
ATOM     17  C   UNL     1      55.713  52.997  43.337  1.00  0.00     0.278 C 
ENDBRANCH  11  16
BRANCH  14  18
ATOM     18  O   UNL     1      51.270  51.220  41.233  1.00  0.00    -0.507 OA
ATOM     19  H   UNL     1      50.466  51.326  40.625  1.00  0.00     0.293 HD
ENDBRANCH  14  18
ENDBRANCH   1  10
BRANCH   5  20
ATOM     20  O   UNL     1      47.905  49.548  34.279  1.00  0.00    -0.504 OA
ATOM     21  H   UNL     1      46.929  49.283  34.325  1.00  0.00     0.293 HD
ENDBRANCH   5  20
BRANCH   6  22
ATOM     22  O   UNL     1      47.773  47.306  35.902  1.00  0.00    -0.493 OA
ATOM     23  C   UNL     1      46.501  47.125  36.517  1.00  0.00     0.278 C 
ENDBRANCH   6  22
TORSDOF 5
ENDMDL
