MODEL 1
REMARK VINA RESULT:    -3.265      0.000      0.000
REMARK INTER + INTRA:          -3.551
REMARK INTER:                  -3.551
REMARK INTRA:                   0.000
REMARK UNBOUND:                 0.000
REMARK SMILES [NH3+]CC(=O)[O-]
REMARK SMILES IDX 2 1 1 2 3 6 4 7 5 8
REMARK H PARENT 1 3 1 4 1 5
REMARK Flexibility Score: inf
ROOT
ATOM      1  C   UNL     1     -11.287  70.471   3.956  1.00  0.00     0.312 C 
ENDROOT
BRANCH   1   2
ATOM      2  N   UNL     1     -12.518  70.117   3.252  1.00  0.00    -0.353 N 
ATOM      3  H   UNL     1     -12.440  70.420   2.254  1.00  0.00     0.344 HD
ATOM      4  H   UNL     1     -12.663  69.082   3.281  1.00  0.00     0.344 HD
ATOM      5  H   UNL     1     -13.334  70.602   3.691  1.00  0.00     0.344 HD
ENDBRANCH   1   2
BRANCH   1   6
ATOM      6  C   UNL     1     -10.376  71.258   3.065  1.00  0.00     0.096 C 
ATOM      7  O   UNL     1      -9.875  70.725   2.042  1.00  0.00    -0.544 OA
ATOM      8  O   UNL     1     -10.038  72.565   3.397  1.00  0.00    -0.544 OA
ENDBRANCH   1   6
TORSDOF 2
ENDMDL
MODEL 2
REMARK VINA RESULT:    -3.039     12.481     12.853
REMARK INTER + INTRA:          -3.305
REMARK INTER:                  -3.305
REMARK INTRA:                   0.000
REMARK UNBOUND:                 0.000
REMARK SMILES [NH3+]CC(=O)[O-]
REMARK SMILES IDX 2 1 1 2 3 6 4 7 5 8
REMARK H PARENT 1 3 1 4 1 5
REMARK Flexibility Score: inf
ROOT
ATOM      1  C   UNL     1     -17.866  65.101  11.221  1.00  0.00     0.312 C 
ENDROOT
BRANCH   1   2
ATOM      2  N   UNL     1     -16.465  65.410  11.504  1.00  0.00    -0.353 N 
ATOM      3  H   UNL     1     -15.942  64.517  11.658  1.00  0.00     0.344 HD
ATOM      4  H   UNL     1     -16.039  65.917  10.695  1.00  0.00     0.344 HD
ATOM      5  H   UNL     1     -16.395  65.997  12.368  1.00  0.00     0.344 HD
ENDBRANCH   1   2
BRANCH   1   6
ATOM      6  C   UNL     1     -18.035  63.645  10.916  1.00  0.00     0.096 C 
ATOM      7  O   UNL     1     -17.843  62.783  11.813  1.00  0.00    -0.544 OA
ATOM      8  O   UNL     1     -18.352  63.237   9.626  1.00  0.00    -0.544 OA
ENDBRANCH   1   6
TORSDOF 2
ENDMDL
MODEL 3
REMARK VINA RESULT:    -2.990      2.228      2.697
REMARK INTER + INTRA:          -3.252
REMARK INTER:                  -3.252
REMARK INTRA:                   0.000
REMARK UNBOUND:                 0.000
REMARK SMILES [NH3+]CC(=O)[O-]
REMARK SMILES IDX 2 1 1 2 3 6 4 7 5 8
REMARK H PARENT 1 3 1 4 1 5
REMARK Flexibility Score: inf
ROOT
ATOM      1  C   UNL     1     -10.308  71.079   2.618  1.00  0.00     0.312 C 
ENDROOT
BRANCH   1   2
ATOM      2  N   UNL     1     -10.807  72.364   2.131  1.00  0.00    -0.353 N 
ATOM      3  H   UNL     1     -11.840  72.412   2.290  1.00  0.00     0.344 HD
ATOM      4  H   UNL     1     -10.347  73.146   2.649  1.00  0.00     0.344 HD
ATOM      5  H   UNL     1     -10.616  72.457   1.106  1.00  0.00     0.344 HD
ENDBRANCH   1   2
BRANCH   1   6
ATOM      6  C   UNL     1     -11.237  70.505   3.643  1.00  0.00     0.096 C 
ATOM      7  O   UNL     1     -10.985  70.637   4.869  1.00  0.00    -0.544 OA
ATOM      8  O   UNL     1     -12.351  69.778   3.242  1.00  0.00    -0.544 OA
ENDBRANCH   1   6
TORSDOF 2
ENDMDL
MODEL 4
REMARK VINA RESULT:    -2.940      9.783     10.083
REMARK INTER + INTRA:          -3.198
REMARK INTER:                  -3.198
REMARK INTRA:                   0.000
REMARK UNBOUND:                 0.000
REMARK SMILES [NH3+]CC(=O)[O-]
REMARK SMILES IDX 2 1 1 2 3 6 4 7 5 8
REMARK H PARENT 1 3 1 4 1 5
REMARK Flexibility Score: inf
ROOT
ATOM      1  C   UNL     1     -20.000  69.977  -0.410  1.00  0.00     0.312 C 
ENDROOT
BRANCH   1   2
ATOM      2  N   UNL     1     -18.838  70.554  -1.084  1.00  0.00    -0.353 N 
ATOM      3  H   UNL     1     -18.060  70.660  -0.394  1.00  0.00     0.344 HD
ATOM      4  H   UNL     1     -18.523  69.925  -1.857  1.00  0.00     0.344 HD
ATOM      5  H   UNL     1     -19.080  71.497  -1.470  1.00  0.00     0.344 HD
ENDBRANCH   1   2
BRANCH   1   6
ATOM      6  C   UNL     1     -19.828  68.500  -0.231  1.00  0.00     0.096 C 
ATOM      7  O   UNL     1     -19.535  68.029   0.898  1.00  0.00    -0.544 OA
ATOM      8  O   UNL     1     -19.938  67.650  -1.326  1.00  0.00    -0.544 OA
ENDBRANCH   1   6
TORSDOF 2
ENDMDL
MODEL 5
REMARK VINA RESULT:    -2.938     11.785     11.976
REMARK INTER + INTRA:          -3.196
REMARK INTER:                  -3.196
REMARK INTRA:                   0.000
REMARK UNBOUND:                 0.000
REMARK SMILES [NH3+]CC(=O)[O-]
REMARK SMILES IDX 2 1 1 2 3 6 4 7 5 8
REMARK H PARENT 1 3 1 4 1 5
REMARK Flexibility Score: inf
ROOT
ATOM      1  C   UNL     1     -22.275  69.362  -0.327  1.00  0.00     0.312 C 
ENDROOT
BRANCH   1   2
ATOM      2  N   UNL     1     -23.690  69.006  -0.420  1.00  0.00    -0.353 N 
ATOM      3  H   UNL     1     -24.218  69.809  -0.832  1.00  0.00     0.344 HD
ATOM      4  H   UNL     1     -23.809  68.170  -1.036  1.00  0.00     0.344 HD
ATOM      5  H   UNL     1     -24.071  68.802   0.533  1.00  0.00     0.344 HD
ENDBRANCH   1   2
BRANCH   1   6
ATOM      6  C   UNL     1     -22.008  70.147   0.920  1.00  0.00     0.096 C 
ATOM      7  O   UNL     1     -22.110  71.402   0.912  1.00  0.00    -0.544 OA
ATOM      8  O   UNL     1     -21.594  69.496   2.076  1.00  0.00    -0.544 OA
ENDBRANCH   1   6
TORSDOF 2
ENDMDL
MODEL 6
REMARK VINA RESULT:    -2.907     11.495     11.741
REMARK INTER + INTRA:          -3.162
REMARK INTER:                  -3.162
REMARK INTRA:                   0.000
REMARK UNBOUND:                 0.000
REMARK SMILES [NH3+]CC(=O)[O-]
REMARK SMILES IDX 2 1 1 2 3 6 4 7 5 8
REMARK H PARENT 1 3 1 4 1 5
REMARK Flexibility Score: inf
ROOT
ATOM      1  C   UNL     1     -21.656  71.437   0.361  1.00  0.00     0.312 C 
ENDROOT
BRANCH   1   2
ATOM      2  N   UNL     1     -21.910  72.443   1.390  1.00  0.00    -0.353 N 
ATOM      3  H   UNL     1     -22.255  71.967   2.255  1.00  0.00     0.344 HD
ATOM      4  H   UNL     1     -21.027  72.956   1.615  1.00  0.00     0.344 HD
ATOM      5  H   UNL     1     -22.638  73.118   1.060  1.00  0.00     0.344 HD
ENDBRANCH   1   2
BRANCH   1   6
ATOM      6  C   UNL     1     -22.080  70.080   0.831  1.00  0.00     0.096 C 
ATOM      7  O   UNL     1     -21.630  69.615   1.911  1.00  0.00    -0.544 OA
ATOM      8  O   UNL     1     -22.931  69.307   0.050  1.00  0.00    -0.544 OA
ENDBRANCH   1   6
TORSDOF 2
ENDMDL
MODEL 7
REMARK VINA RESULT:    -2.905     10.952     11.214
REMARK INTER + INTRA:          -3.159
REMARK INTER:                  -3.159
REMARK INTRA:                   0.000
REMARK UNBOUND:                 0.000
REMARK SMILES [NH3+]CC(=O)[O-]
REMARK SMILES IDX 2 1 1 2 3 6 4 7 5 8
REMARK H PARENT 1 3 1 4 1 5
REMARK Flexibility Score: inf
ROOT
ATOM      1  C   UNL     1     -19.507  68.615  -0.987  1.00  0.00     0.312 C 
ENDROOT
BRANCH   1   2
ATOM      2  N   UNL     1     -19.179  70.024  -1.193  1.00  0.00    -0.353 N 
ATOM      3  H   UNL     1     -19.978  70.613  -0.865  1.00  0.00     0.344 HD
ATOM      4  H   UNL     1     -18.325  70.277  -0.646  1.00  0.00     0.344 HD
ATOM      5  H   UNL     1     -19.015  70.209  -2.210  1.00  0.00     0.344 HD
ENDBRANCH   1   2
BRANCH   1   6
ATOM      6  C   UNL     1     -20.908  68.328  -1.434  1.00  0.00     0.096 C 
ATOM      7  O   UNL     1     -21.119  67.510  -2.367  1.00  0.00    -0.544 OA
ATOM      8  O   UNL     1     -21.975  69.004  -0.855  1.00  0.00    -0.544 OA
ENDBRANCH   1   6
TORSDOF 2
ENDMDL
MODEL 8
REMARK VINA RESULT:    -2.817     10.222     10.496
REMARK INTER + INTRA:          -3.064
REMARK INTER:                  -3.064
REMARK INTRA:                   0.000
REMARK UNBOUND:                 0.000
REMARK SMILES [NH3+]CC(=O)[O-]
REMARK SMILES IDX 2 1 1 2 3 6 4 7 5 8
REMARK H PARENT 1 3 1 4 1 5
REMARK Flexibility Score: inf
ROOT
ATOM      1  C   UNL     1     -20.740  68.143  -1.611  1.00  0.00     0.312 C 
ENDROOT
BRANCH   1   2
ATOM      2  N   UNL     1     -20.298  66.798  -1.974  1.00  0.00    -0.353 N 
ATOM      3  H   UNL     1     -21.133  66.219  -2.224  1.00  0.00     0.344 HD
ATOM      4  H   UNL     1     -19.657  66.842  -2.799  1.00  0.00     0.344 HD
ATOM      5  H   UNL     1     -19.805  66.352  -1.166  1.00  0.00     0.344 HD
ENDBRANCH   1   2
BRANCH   1   6
ATOM      6  C   UNL     1     -19.849  68.726  -0.558  1.00  0.00     0.096 C 
ATOM      7  O   UNL     1     -19.280  69.832  -0.752  1.00  0.00    -0.544 OA
ATOM      8  O   UNL     1     -19.605  68.022   0.615  1.00  0.00    -0.544 OA
ENDBRANCH   1   6
TORSDOF 2
ENDMDL
MODEL 9
REMARK VINA RESULT:    -2.808     10.332     10.581
REMARK INTER + INTRA:          -3.054
REMARK INTER:                  -3.054
REMARK INTRA:                   0.000
REMARK UNBOUND:                 0.000
REMARK SMILES [NH3+]CC(=O)[O-]
REMARK SMILES IDX 2 1 1 2 3 6 4 7 5 8
REMARK H PARENT 1 3 1 4 1 5
REMARK Flexibility Score: inf
ROOT
ATOM      1  C   UNL     1     -19.816  68.568   0.231  1.00  0.00     0.312 C 
ENDROOT
BRANCH   1   2
ATOM      2  N   UNL     1     -18.823  69.362  -0.491  1.00  0.00    -0.353 N 
ATOM      3  H   UNL     1     -19.302  70.165  -0.959  1.00  0.00     0.344 HD
ATOM      4  H   UNL     1     -18.109  69.734   0.176  1.00  0.00     0.344 HD
ATOM      5  H   UNL     1     -18.355  68.774  -1.219  1.00  0.00     0.344 HD
ENDBRANCH   1   2
BRANCH   1   6
ATOM      6  C   UNL     1     -21.017  69.398   0.564  1.00  0.00     0.096 C 
ATOM      7  O   UNL     1     -21.461  69.425   1.741  1.00  0.00    -0.544 OA
ATOM      8  O   UNL     1     -21.677  70.099  -0.438  1.00  0.00    -0.544 OA
ENDBRANCH   1   6
TORSDOF 2
ENDMDL
