MODEL 1
REMARK VINA RESULT:    -5.683      0.000      0.000
REMARK INTER + INTRA:          -6.355
REMARK INTER:                  -6.182
REMARK INTRA:                  -0.174
REMARK UNBOUND:                -0.174
REMARK SMILES O=C([O-])c1ccccc1O
REMARK SMILES IDX 4 1 9 2 5 3 8 4 6 5 7 6 2 7 1 8 3 9 10 10
REMARK H PARENT 10 11
REMARK Flexibility Score: inf
ROOT
ATOM      1  C   UNL     1      10.463  -8.131  10.060  1.00  0.00     0.039 A 
ATOM      2  C   UNL     1       9.136  -8.420  10.478  1.00  0.00     0.124 A 
ATOM      3  C   UNL     1      11.511  -8.956  10.507  1.00  0.00     0.014 A 
ATOM      4  C   UNL     1       8.891  -9.550  11.268  1.00  0.00     0.047 A 
ATOM      5  C   UNL     1      11.251 -10.068  11.312  1.00  0.00     0.001 A 
ATOM      6  C   UNL     1       9.941 -10.369  11.684  1.00  0.00     0.004 A 
ENDROOT
BRANCH   1   7
ATOM      7  C   UNL     1      10.790  -7.014   9.146  1.00  0.00     0.075 C 
ATOM      8  O   UNL     1      11.287  -7.231   8.011  1.00  0.00    -0.545 OA
ATOM      9  O   UNL     1      10.614  -5.699   9.564  1.00  0.00    -0.545 OA
ENDBRANCH   1   7
BRANCH   2  10
ATOM     10  O   UNL     1       8.050  -7.601  10.161  1.00  0.00    -0.507 OA
ATOM     11  H   UNL     1       7.682  -7.498   9.226  1.00  0.00     0.293 HD
ENDBRANCH   2  10
TORSDOF 2
ENDMDL
MODEL 2
REMARK VINA RESULT:    -5.089      1.743      3.595
REMARK INTER + INTRA:          -5.709
REMARK INTER:                  -5.462
REMARK INTRA:                  -0.247
REMARK UNBOUND:                -0.174
REMARK SMILES O=C([O-])c1ccccc1O
REMARK SMILES IDX 4 1 9 2 5 3 8 4 6 5 7 6 2 7 1 8 3 9 10 10
REMARK H PARENT 10 11
REMARK Flexibility Score: inf
ROOT
ATOM      1  C   UNL     1       9.080  -9.240  11.555  1.00  0.00     0.039 A 
ATOM      2  C   UNL     1       9.054  -8.308  10.484  1.00  0.00     0.124 A 
ATOM      3  C   UNL     1      10.235 -10.018  11.750  1.00  0.00     0.014 A 
ATOM      4  C   UNL     1      10.193  -8.137   9.687  1.00  0.00     0.047 A 
ATOM      5  C   UNL     1      11.356  -9.850  10.933  1.00  0.00     0.001 A 
ATOM      6  C   UNL     1      11.338  -8.904   9.909  1.00  0.00     0.004 A 
ENDROOT
BRANCH   1   7
ATOM      7  C   UNL     1       7.953  -9.407  12.500  1.00  0.00     0.075 C 
ATOM      8  O   UNL     1       6.761  -9.349  12.103  1.00  0.00    -0.545 OA
ATOM      9  O   UNL     1       8.204  -9.561  13.860  1.00  0.00    -0.545 OA
ENDBRANCH   1   7
BRANCH   2  10
ATOM     10  O   UNL     1       7.917  -7.564  10.159  1.00  0.00    -0.507 OA
ATOM     11  H   UNL     1       7.064  -7.973   9.803  1.00  0.00     0.293 HD
ENDBRANCH   2  10
TORSDOF 2
ENDMDL
MODEL 3
REMARK VINA RESULT:    -4.990     11.104     11.893
REMARK INTER + INTRA:          -5.602
REMARK INTER:                  -5.353
REMARK INTRA:                  -0.249
REMARK UNBOUND:                -0.174
REMARK SMILES O=C([O-])c1ccccc1O
REMARK SMILES IDX 4 1 9 2 5 3 8 4 6 5 7 6 2 7 1 8 3 9 10 10
REMARK H PARENT 10 11
REMARK Flexibility Score: inf
ROOT
ATOM      1  C   UNL     1      10.026  -7.144  21.396  1.00  0.00     0.039 A 
ATOM      2  C   UNL     1       9.301  -6.393  22.359  1.00  0.00     0.124 A 
ATOM      3  C   UNL     1      11.336  -6.746  21.070  1.00  0.00     0.014 A 
ATOM      4  C   UNL     1       9.921  -5.316  23.006  1.00  0.00     0.047 A 
ATOM      5  C   UNL     1      11.932  -5.657  21.711  1.00  0.00     0.001 A 
ATOM      6  C   UNL     1      11.228  -4.950  22.685  1.00  0.00     0.004 A 
ENDROOT
BRANCH   1   7
ATOM      7  C   UNL     1       9.476  -8.352  20.741  1.00  0.00     0.075 C 
ATOM      8  O   UNL     1      10.223  -9.312  20.422  1.00  0.00    -0.545 OA
ATOM      9  O   UNL     1       8.127  -8.407  20.407  1.00  0.00    -0.545 OA
ENDBRANCH   1   7
BRANCH   2  10
ATOM     10  O   UNL     1       7.966  -6.658  22.673  1.00  0.00    -0.507 OA
ATOM     11  H   UNL     1       7.184  -6.211  22.213  1.00  0.00     0.293 HD
ENDBRANCH   2  10
TORSDOF 2
ENDMDL
MODEL 4
REMARK VINA RESULT:    -4.984     11.103     12.076
REMARK INTER + INTRA:          -5.595
REMARK INTER:                  -5.342
REMARK INTRA:                  -0.253
REMARK UNBOUND:                -0.174
REMARK SMILES O=C([O-])c1ccccc1O
REMARK SMILES IDX 4 1 9 2 5 3 8 4 6 5 7 6 2 7 1 8 3 9 10 10
REMARK H PARENT 10 11
REMARK Flexibility Score: inf
ROOT
ATOM      1  C   UNL     1       9.267  -6.715  21.805  1.00  0.00     0.039 A 
ATOM      2  C   UNL     1      10.340  -7.033  20.930  1.00  0.00     0.124 A 
ATOM      3  C   UNL     1       9.481  -5.774  22.829  1.00  0.00     0.014 A 
ATOM      4  C   UNL     1      11.562  -6.362  21.062  1.00  0.00     0.047 A 
ATOM      5  C   UNL     1      10.714  -5.129  22.959  1.00  0.00     0.001 A 
ATOM      6  C   UNL     1      11.750  -5.416  22.071  1.00  0.00     0.004 A 
ENDROOT
BRANCH   1   7
ATOM      7  C   UNL     1       7.918  -7.307  21.668  1.00  0.00     0.075 C 
ATOM      8  O   UNL     1       7.255  -7.650  22.681  1.00  0.00    -0.545 OA
ATOM      9  O   UNL     1       7.394  -7.558  20.404  1.00  0.00    -0.545 OA
ENDBRANCH   1   7
BRANCH   2  10
ATOM     10  O   UNL     1      10.244  -8.022  19.949  1.00  0.00    -0.507 OA
ATOM     11  H   UNL     1       9.726  -7.908  19.089  1.00  0.00     0.293 HD
ENDBRANCH   2  10
TORSDOF 2
ENDMDL
MODEL 5
REMARK VINA RESULT:    -4.815     11.903     12.548
REMARK INTER + INTRA:          -5.411
REMARK INTER:                  -5.196
REMARK INTRA:                  -0.215
REMARK UNBOUND:                -0.174
REMARK SMILES O=C([O-])c1ccccc1O
REMARK SMILES IDX 4 1 9 2 5 3 8 4 6 5 7 6 2 7 1 8 3 9 10 10
REMARK H PARENT 10 11
REMARK Flexibility Score: inf
ROOT
ATOM      1  C   UNL     1      10.193  -4.691  22.263  1.00  0.00     0.039 A 
ATOM      2  C   UNL     1      10.776  -4.794  20.971  1.00  0.00     0.124 A 
ATOM      3  C   UNL     1       9.354  -5.727  22.713  1.00  0.00     0.014 A 
ATOM      4  C   UNL     1      10.558  -5.944  20.203  1.00  0.00     0.047 A 
ATOM      5  C   UNL     1       9.131  -6.859  21.924  1.00  0.00     0.001 A 
ATOM      6  C   UNL     1       9.740  -6.971  20.675  1.00  0.00     0.004 A 
ENDROOT
BRANCH   1   7
ATOM      7  C   UNL     1      10.455  -3.555  23.173  1.00  0.00     0.075 C 
ATOM      8  O   UNL     1       9.514  -2.837  23.600  1.00  0.00    -0.545 OA
ATOM      9  O   UNL     1      11.763  -3.223  23.511  1.00  0.00    -0.545 OA
ENDBRANCH   1   7
BRANCH   2  10
ATOM     10  O   UNL     1      11.543  -3.771  20.407  1.00  0.00    -0.507 OA
ATOM     11  H   UNL     1      11.318  -3.324  19.529  1.00  0.00     0.293 HD
ENDBRANCH   2  10
TORSDOF 2
ENDMDL
MODEL 6
REMARK VINA RESULT:    -4.809     10.521     11.271
REMARK INTER + INTRA:          -5.404
REMARK INTER:                  -5.160
REMARK INTRA:                  -0.244
REMARK UNBOUND:                -0.174
REMARK SMILES O=C([O-])c1ccccc1O
REMARK SMILES IDX 4 1 9 2 5 3 8 4 6 5 7 6 2 7 1 8 3 9 10 10
REMARK H PARENT 10 11
REMARK Flexibility Score: inf
ROOT
ATOM      1  C   UNL     1       9.378  -7.354  21.297  1.00  0.00     0.039 A 
ATOM      2  C   UNL     1       8.169  -8.032  21.610  1.00  0.00     0.124 A 
ATOM      3  C   UNL     1      10.454  -8.092  20.772  1.00  0.00     0.014 A 
ATOM      4  C   UNL     1       8.051  -9.400  21.332  1.00  0.00     0.047 A 
ATOM      5  C   UNL     1      10.326  -9.461  20.520  1.00  0.00     0.001 A 
ATOM      6  C   UNL     1       9.123 -10.111  20.791  1.00  0.00     0.004 A 
ENDROOT
BRANCH   1   7
ATOM      7  C   UNL     1       9.545  -5.894  21.469  1.00  0.00     0.075 C 
ATOM      8  O   UNL     1      10.038  -5.186  20.552  1.00  0.00    -0.545 OA
ATOM      9  O   UNL     1       9.222  -5.295  22.682  1.00  0.00    -0.545 OA
ENDBRANCH   1   7
BRANCH   2  10
ATOM     10  O   UNL     1       7.085  -7.398  22.222  1.00  0.00    -0.507 OA
ATOM     11  H   UNL     1       7.117  -6.450  22.572  1.00  0.00     0.293 HD
ENDBRANCH   2  10
TORSDOF 2
ENDMDL
MODEL 7
REMARK VINA RESULT:    -4.733     11.380     11.960
REMARK INTER + INTRA:          -5.322
REMARK INTER:                  -5.072
REMARK INTRA:                  -0.250
REMARK UNBOUND:                -0.174
REMARK SMILES O=C([O-])c1ccccc1O
REMARK SMILES IDX 4 1 9 2 5 3 8 4 6 5 7 6 2 7 1 8 3 9 10 10
REMARK H PARENT 10 11
REMARK Flexibility Score: inf
ROOT
ATOM      1  C   UNL     1      10.025  -5.288  21.874  1.00  0.00     0.039 A 
ATOM      2  C   UNL     1       9.729  -5.718  20.553  1.00  0.00     0.124 A 
ATOM      3  C   UNL     1       9.356  -5.896  22.952  1.00  0.00     0.014 A 
ATOM      4  C   UNL     1       8.832  -6.775  20.354  1.00  0.00     0.047 A 
ATOM      5  C   UNL     1       8.448  -6.936  22.734  1.00  0.00     0.001 A 
ATOM      6  C   UNL     1       8.194  -7.380  21.437  1.00  0.00     0.004 A 
ENDROOT
BRANCH   1   7
ATOM      7  C   UNL     1      11.033  -4.246  22.170  1.00  0.00     0.075 C 
ATOM      8  O   UNL     1      12.092  -4.160  21.497  1.00  0.00    -0.545 OA
ATOM      9  O   UNL     1      10.849  -3.389  23.250  1.00  0.00    -0.545 OA
ENDBRANCH   1   7
BRANCH   2  10
ATOM     10  O   UNL     1      10.273  -5.107  19.421  1.00  0.00    -0.507 OA
ATOM     11  H   UNL     1      10.345  -4.105  19.307  1.00  0.00     0.293 HD
ENDBRANCH   2  10
TORSDOF 2
ENDMDL
MODEL 8
REMARK VINA RESULT:    -4.726      1.265      2.198
REMARK INTER + INTRA:          -5.314
REMARK INTER:                  -5.117
REMARK INTRA:                  -0.197
REMARK UNBOUND:                -0.174
REMARK SMILES O=C([O-])c1ccccc1O
REMARK SMILES IDX 4 1 9 2 5 3 8 4 6 5 7 6 2 7 1 8 3 9 10 10
REMARK H PARENT 10 11
REMARK Flexibility Score: inf
ROOT
ATOM      1  C   UNL     1      10.192  -8.334  10.174  1.00  0.00     0.039 A 
ATOM      2  C   UNL     1      11.004  -9.220  10.930  1.00  0.00     0.124 A 
ATOM      3  C   UNL     1       8.793  -8.416  10.304  1.00  0.00     0.014 A 
ATOM      4  C   UNL     1      10.404 -10.109  11.832  1.00  0.00     0.047 A 
ATOM      5  C   UNL     1       8.211  -9.323  11.193  1.00  0.00     0.001 A 
ATOM      6  C   UNL     1       9.016 -10.161  11.963  1.00  0.00     0.004 A 
ENDROOT
BRANCH   1   7
ATOM      7  C   UNL     1      10.754  -7.302   9.275  1.00  0.00     0.075 C 
ATOM      8  O   UNL     1      11.399  -7.623   8.244  1.00  0.00    -0.545 OA
ATOM      9  O   UNL     1      10.632  -5.955   9.602  1.00  0.00    -0.545 OA
ENDBRANCH   1   7
BRANCH   2  10
ATOM     10  O   UNL     1      12.393  -9.274  10.793  1.00  0.00    -0.507 OA
ATOM     11  H   UNL     1      12.885 -10.065  10.402  1.00  0.00     0.293 HD
ENDBRANCH   2  10
TORSDOF 2
ENDMDL
MODEL 9
REMARK VINA RESULT:    -4.715     10.755     11.381
REMARK INTER + INTRA:          -5.303
REMARK INTER:                  -5.058
REMARK INTRA:                  -0.245
REMARK UNBOUND:                -0.174
REMARK SMILES O=C([O-])c1ccccc1O
REMARK SMILES IDX 4 1 9 2 5 3 8 4 6 5 7 6 2 7 1 8 3 9 10 10
REMARK H PARENT 10 11
REMARK Flexibility Score: inf
ROOT
ATOM      1  C   UNL     1      10.319  -6.867  21.257  1.00  0.00     0.039 A 
ATOM      2  C   UNL     1       9.148  -6.444  21.940  1.00  0.00     0.124 A 
ATOM      3  C   UNL     1      10.365  -8.171  20.729  1.00  0.00     0.014 A 
ATOM      4  C   UNL     1       8.045  -7.304  22.019  1.00  0.00     0.047 A 
ATOM      5  C   UNL     1       9.263  -9.023  20.836  1.00  0.00     0.001 A 
ATOM      6  C   UNL     1       8.101  -8.586  21.471  1.00  0.00     0.004 A 
ENDROOT
BRANCH   1   7
ATOM      7  C   UNL     1      11.487  -5.983  21.046  1.00  0.00     0.075 C 
ATOM      8  O   UNL     1      12.651  -6.369  21.330  1.00  0.00    -0.545 OA
ATOM      9  O   UNL     1      11.301  -4.681  20.594  1.00  0.00    -0.545 OA
ENDBRANCH   1   7
BRANCH   2  10
ATOM     10  O   UNL     1       9.052  -5.204  22.576  1.00  0.00    -0.507 OA
ATOM     11  H   UNL     1       8.797  -5.093  23.547  1.00  0.00     0.293 HD
ENDBRANCH   2  10
TORSDOF 2
ENDMDL
