MODEL 1
REMARK VINA RESULT:    -6.120      0.000      0.000
REMARK INTER + INTRA:          -9.842
REMARK INTER:                  -9.162
REMARK INTRA:                  -0.680
REMARK UNBOUND:                -0.680
REMARK SMILES C=C(CC[C@H](C(=O)[O-])[C@H]1[C@@H](O)C[C@@]2(C)C3=C(CC[C@@]12C)[C@@]1(C)CC[C@@H](OC(C)=O)C(C)(C)[C@H]1CC3)C(C)C
REMARK SMILES IDX 4 1 5 2 6 3 7 4 8 5 9 6 10 7 19 8 12 9 13 10 18 11 20 12
REMARK SMILES IDX 14 13 15 14 17 15 16 16 35 17 21 18 34 19 33 20 23 21 22 22
REMARK SMILES IDX 30 23 24 24 25 25 31 26 32 27 11 28 26 30 27 31 29 32 28 33
REMARK SMILES IDX 3 34 2 35 1 36 36 37 37 38 38 39
REMARK H PARENT 11 29
REMARK Flexibility Score: inf
ROOT
ATOM      1  C   UNL     1       2.489   5.529 -25.145  1.00  0.00     0.014 C 
ENDROOT
BRANCH   1   2
ATOM      2  C   UNL     1       3.393   6.439 -24.277  1.00  0.00     0.042 C 
BRANCH   2   3
ATOM      3  C   UNL     1       3.996   7.517 -25.156  1.00  0.00     0.045 C 
ATOM      4  O   UNL     1       5.115   8.016 -24.901  1.00  0.00    -0.550 OA
ATOM      5  O   UNL     1       3.361   7.898 -26.330  1.00  0.00    -0.550 OA
ENDBRANCH   2   3
BRANCH   2   6
ATOM      6  C   UNL     1       4.423   5.654 -23.347  1.00  0.00     0.033 C 
ATOM      7  C   UNL     1       3.849   4.937 -22.117  1.00  0.00     0.119 C 
ATOM      8  C   UNL     1       5.374   4.566 -24.023  1.00  0.00    -0.017 C 
ATOM      9  C   UNL     1       3.668   3.496 -22.525  1.00  0.00     0.043 C 
ATOM     10  C   UNL     1       4.872   3.137 -23.440  1.00  0.00    -0.003 C 
ATOM     11  C   UNL     1       5.308   4.581 -25.579  1.00  0.00     0.012 C 
ATOM     12  C   UNL     1       6.878   4.920 -23.658  1.00  0.00     0.013 C 
ATOM     13  C   UNL     1       5.937   2.382 -22.589  1.00  0.00     0.017 C 
ATOM     14  C   UNL     1       4.394   2.116 -24.505  1.00  0.00    -0.064 C 
ATOM     15  C   UNL     1       5.797   3.257 -26.144  1.00  0.00     0.032 C 
ATOM     16  C   UNL     1       4.758   2.204 -25.809  1.00  0.00    -0.064 C 
ATOM     17  C   UNL     1       3.585   0.920 -24.069  1.00  0.00     0.032 C 
ATOM     18  C   UNL     1       4.253   1.209 -26.898  1.00  0.00    -0.008 C 
ATOM     19  C   UNL     1       2.447   0.746 -25.046  1.00  0.00     0.009 C 
ATOM     20  C   UNL     1       2.993   0.300 -26.431  1.00  0.00     0.009 C 
ATOM     21  C   UNL     1       5.539   0.427 -27.314  1.00  0.00     0.015 C 
ATOM     22  C   UNL     1       3.760   2.030 -28.122  1.00  0.00     0.016 C 
ATOM     23  C   UNL     1       3.060  -1.282 -26.699  1.00  0.00     0.005 C 
ATOM     24  C   UNL     1       5.293  -0.962 -27.865  1.00  0.00     0.047 C 
ATOM     25  C   UNL     1       4.520  -1.796 -26.840  1.00  0.00     0.182 C 
ATOM     26  C   UNL     1       2.383  -2.126 -25.578  1.00  0.00     0.015 C 
ATOM     27  C   UNL     1       2.281  -1.636 -28.004  1.00  0.00     0.015 C 
BRANCH   7  28
ATOM     28  O   UNL     1       2.651   5.498 -21.651  1.00  0.00    -0.393 OA
ATOM     29  H   UNL     1       2.452   6.292 -22.224  1.00  0.00     0.210 HD
ENDBRANCH   7  28
BRANCH  25  30
ATOM     30  O   UNL     1       5.171  -1.769 -25.562  1.00  0.00    -0.462 OA
BRANCH  30  31
ATOM     31  C   UNL     1       5.514  -2.921 -24.842  1.00  0.00     0.302 C 
ATOM     32  O   UNL     1       6.527  -3.604 -25.159  1.00  0.00    -0.253 OA
ATOM     33  C   UNL     1       4.721  -3.294 -23.637  1.00  0.00     0.139 C 
ENDBRANCH  30  31
ENDBRANCH  25  30
ENDBRANCH   2   6
ENDBRANCH   1   2
BRANCH   1  34
ATOM     34  C   UNL     1       1.120   6.158 -25.483  1.00  0.00     0.031 C 
BRANCH  34  35
ATOM     35  C   UNL     1       0.529   5.545 -26.740  1.00  0.00    -0.075 C 
ATOM     36  C   UNL     1       1.300   5.428 -27.832  1.00  0.00     0.008 C 
BRANCH  35  37
ATOM     37  C   UNL     1      -0.888   4.979 -26.789  1.00  0.00     0.008 C 
ATOM     38  C   UNL     1      -1.622   5.004 -25.432  1.00  0.00     0.012 C 
ATOM     39  C   UNL     1      -0.860   3.555 -27.355  1.00  0.00     0.012 C 
ENDBRANCH  35  37
ENDBRANCH  34  35
ENDBRANCH   1  34
TORSDOF 9
ENDMDL
MODEL 2
REMARK VINA RESULT:    -5.428      1.524      2.247
REMARK INTER + INTRA:          -8.806
REMARK INTER:                  -9.541
REMARK INTRA:                   0.736
REMARK UNBOUND:                -0.680
REMARK SMILES C=C(CC[C@H](C(=O)[O-])[C@H]1[C@@H](O)C[C@@]2(C)C3=C(CC[C@@]12C)[C@@]1(C)CC[C@@H](OC(C)=O)C(C)(C)[C@H]1CC3)C(C)C
REMARK SMILES IDX 4 1 5 2 6 3 7 4 8 5 9 6 10 7 19 8 12 9 13 10 18 11 20 12
REMARK SMILES IDX 14 13 15 14 17 15 16 16 35 17 21 18 34 19 33 20 23 21 22 22
REMARK SMILES IDX 30 23 24 24 25 25 31 26 32 27 11 28 26 30 27 31 29 32 28 33
REMARK SMILES IDX 3 34 2 35 1 36 36 37 37 38 38 39
REMARK H PARENT 11 29
REMARK Flexibility Score: inf
ROOT
ATOM      1  C   UNL     1       2.147   4.440 -25.130  1.00  0.00     0.014 C 
ENDROOT
BRANCH   1   2
ATOM      2  C   UNL     1       2.804   5.436 -24.143  1.00  0.00     0.042 C 
BRANCH   2   3
ATOM      3  C   UNL     1       2.811   6.817 -24.768  1.00  0.00     0.045 C 
ATOM      4  O   UNL     1       1.857   7.610 -24.607  1.00  0.00    -0.550 OA
ATOM      5  O   UNL     1       3.933   7.271 -25.446  1.00  0.00    -0.550 OA
ENDBRANCH   2   3
BRANCH   2   6
ATOM      6  C   UNL     1       4.196   4.948 -23.538  1.00  0.00     0.033 C 
ATOM      7  C   UNL     1       4.263   4.737 -22.018  1.00  0.00     0.119 C 
ATOM      8  C   UNL     1       4.862   3.630 -24.143  1.00  0.00    -0.017 C 
ATOM      9  C   UNL     1       4.054   3.259 -21.797  1.00  0.00     0.043 C 
ATOM     10  C   UNL     1       4.783   2.526 -22.957  1.00  0.00    -0.003 C 
ATOM     11  C   UNL     1       4.142   3.116 -25.425  1.00  0.00     0.012 C 
ATOM     12  C   UNL     1       6.341   3.983 -24.600  1.00  0.00     0.013 C 
ATOM     13  C   UNL     1       6.169   2.036 -22.444  1.00  0.00     0.017 C 
ATOM     14  C   UNL     1       3.990   1.238 -23.301  1.00  0.00    -0.064 C 
ATOM     15  C   UNL     1       4.459   1.649 -25.660  1.00  0.00     0.032 C 
ATOM     16  C   UNL     1       3.758   0.849 -24.580  1.00  0.00    -0.064 C 
ATOM     17  C   UNL     1       3.552   0.322 -22.185  1.00  0.00     0.032 C 
ATOM     18  C   UNL     1       2.928  -0.421 -24.940  1.00  0.00    -0.008 C 
ATOM     19  C   UNL     1       2.126  -0.096 -22.459  1.00  0.00     0.009 C 
ATOM     20  C   UNL     1       2.070  -1.025 -23.704  1.00  0.00     0.009 C 
ATOM     21  C   UNL     1       3.980  -1.385 -25.575  1.00  0.00     0.015 C 
ATOM     22  C   UNL     1       1.893  -0.037 -26.034  1.00  0.00     0.016 C 
ATOM     23  C   UNL     1       2.157  -2.604 -23.423  1.00  0.00     0.005 C 
ATOM     24  C   UNL     1       3.647  -2.859 -25.463  1.00  0.00     0.047 C 
ATOM     25  C   UNL     1       3.458  -3.236 -23.991  1.00  0.00     0.182 C 
ATOM     26  C   UNL     1       2.096  -2.965 -21.908  1.00  0.00     0.015 C 
ATOM     27  C   UNL     1       0.932  -3.329 -24.064  1.00  0.00     0.015 C 
BRANCH   7  28
ATOM     28  O   UNL     1       3.332   5.505 -21.305  1.00  0.00    -0.393 OA
ATOM     29  H   UNL     1       3.747   6.399 -21.143  1.00  0.00     0.210 HD
ENDBRANCH   7  28
BRANCH  25  30
ATOM     30  O   UNL     1       4.584  -2.818 -23.207  1.00  0.00    -0.462 OA
BRANCH  30  31
ATOM     31  C   UNL     1       5.836  -2.506 -23.752  1.00  0.00     0.302 C 
ATOM     32  O   UNL     1       6.441  -1.449 -23.420  1.00  0.00    -0.253 OA
ATOM     33  C   UNL     1       6.497  -3.476 -24.670  1.00  0.00     0.139 C 
ENDBRANCH  30  31
ENDBRANCH  25  30
ENDBRANCH   2   6
ENDBRANCH   1   2
BRANCH   1  34
ATOM     34  C   UNL     1       1.297   5.121 -26.224  1.00  0.00     0.031 C 
BRANCH  34  35
ATOM     35  C   UNL     1       0.530   4.097 -27.041  1.00  0.00    -0.075 C 
ATOM     36  C   UNL     1       1.213   3.155 -27.711  1.00  0.00     0.008 C 
BRANCH  35  37
ATOM     37  C   UNL     1      -0.995   4.043 -27.068  1.00  0.00     0.008 C 
ATOM     38  C   UNL     1      -1.668   4.669 -25.828  1.00  0.00     0.012 C 
ATOM     39  C   UNL     1      -1.462   2.596 -27.256  1.00  0.00     0.012 C 
ENDBRANCH  35  37
ENDBRANCH  34  35
ENDBRANCH   1  34
TORSDOF 9
ENDMDL
MODEL 3
REMARK VINA RESULT:    -5.172      1.975      7.622
REMARK INTER + INTRA:          -8.422
REMARK INTER:                  -7.565
REMARK INTRA:                  -0.857
REMARK UNBOUND:                -0.680
REMARK SMILES C=C(CC[C@H](C(=O)[O-])[C@H]1[C@@H](O)C[C@@]2(C)C3=C(CC[C@@]12C)[C@@]1(C)CC[C@@H](OC(C)=O)C(C)(C)[C@H]1CC3)C(C)C
REMARK SMILES IDX 4 1 5 2 6 3 7 4 8 5 9 6 10 7 19 8 12 9 13 10 18 11 20 12
REMARK SMILES IDX 14 13 15 14 17 15 16 16 35 17 21 18 34 19 33 20 23 21 22 22
REMARK SMILES IDX 30 23 24 24 25 25 31 26 32 27 11 28 26 30 27 31 29 32 28 33
REMARK SMILES IDX 3 34 2 35 1 36 36 37 37 38 38 39
REMARK H PARENT 11 29
REMARK Flexibility Score: inf
ROOT
ATOM      1  C   UNL     1       4.761  -0.104 -24.226  1.00  0.00     0.014 C 
ENDROOT
BRANCH   1   2
ATOM      2  C   UNL     1       3.938  -1.397 -24.449  1.00  0.00     0.042 C 
BRANCH   2   3
ATOM      3  C   UNL     1       4.889  -2.564 -24.618  1.00  0.00     0.045 C 
ATOM      4  O   UNL     1       5.812  -2.537 -25.464  1.00  0.00    -0.550 OA
ATOM      5  O   UNL     1       4.823  -3.651 -23.757  1.00  0.00    -0.550 OA
ENDBRANCH   2   3
BRANCH   2   6
ATOM      6  C   UNL     1       2.797  -1.272 -25.557  1.00  0.00     0.033 C 
ATOM      7  C   UNL     1       1.373  -0.979 -25.064  1.00  0.00     0.119 C 
ATOM      8  C   UNL     1       3.016  -0.240 -26.753  1.00  0.00    -0.017 C 
ATOM      9  C   UNL     1       1.183   0.511 -25.212  1.00  0.00     0.043 C 
ATOM     10  C   UNL     1       1.911   0.926 -26.521  1.00  0.00    -0.003 C 
ATOM     11  C   UNL     1       4.453   0.360 -26.786  1.00  0.00     0.012 C 
ATOM     12  C   UNL     1       2.851  -1.022 -28.125  1.00  0.00     0.013 C 
ATOM     13  C   UNL     1       0.857   1.047 -27.661  1.00  0.00     0.017 C 
ATOM     14  C   UNL     1       2.484   2.355 -26.333  1.00  0.00    -0.064 C 
ATOM     15  C   UNL     1       4.468   1.660 -27.572  1.00  0.00     0.032 C 
ATOM     16  C   UNL     1       3.726   2.700 -26.754  1.00  0.00    -0.064 C 
ATOM     17  C   UNL     1       1.598   3.435 -25.762  1.00  0.00     0.032 C 
ATOM     18  C   UNL     1       4.330   4.121 -26.536  1.00  0.00    -0.008 C 
ATOM     19  C   UNL     1       2.406   4.212 -24.749  1.00  0.00     0.009 C 
ATOM     20  C   UNL     1       3.519   5.028 -25.463  1.00  0.00     0.009 C 
ATOM     21  C   UNL     1       4.436   4.706 -27.981  1.00  0.00     0.015 C 
ATOM     22  C   UNL     1       5.767   3.962 -25.965  1.00  0.00     0.016 C 
ATOM     23  C   UNL     1       3.151   6.536 -25.873  1.00  0.00     0.005 C 
ATOM     24  C   UNL     1       4.397   6.218 -28.063  1.00  0.00     0.047 C 
ATOM     25  C   UNL     1       3.111   6.738 -27.414  1.00  0.00     0.182 C 
ATOM     26  C   UNL     1       1.775   7.008 -25.314  1.00  0.00     0.015 C 
ATOM     27  C   UNL     1       4.196   7.524 -25.269  1.00  0.00     0.015 C 
BRANCH   7  28
ATOM     28  O   UNL     1       1.137  -1.405 -23.750  1.00  0.00    -0.393 OA
ATOM     29  H   UNL     1       0.215  -1.790 -23.723  1.00  0.00     0.210 HD
ENDBRANCH   7  28
BRANCH  25  30
ATOM     30  O   UNL     1       1.959   6.082 -27.961  1.00  0.00    -0.462 OA
BRANCH  30  31
ATOM     31  C   UNL     1       0.692   6.674 -28.035  1.00  0.00     0.302 C 
ATOM     32  O   UNL     1       0.568   7.927 -28.124  1.00  0.00    -0.253 OA
ATOM     33  C   UNL     1      -0.519   5.807 -28.097  1.00  0.00     0.139 C 
ENDBRANCH  30  31
ENDBRANCH  25  30
ENDBRANCH   2   6
ENDBRANCH   1   2
BRANCH   1  34
ATOM     34  C   UNL     1       5.390  -0.006 -22.820  1.00  0.00     0.031 C 
BRANCH  34  35
ATOM     35  C   UNL     1       4.806   1.155 -22.036  1.00  0.00    -0.075 C 
ATOM     36  C   UNL     1       4.443   0.962 -20.758  1.00  0.00     0.008 C 
BRANCH  35  37
ATOM     37  C   UNL     1       4.691   2.562 -22.617  1.00  0.00     0.008 C 
ATOM     38  C   UNL     1       6.044   3.196 -23.003  1.00  0.00     0.012 C 
ATOM     39  C   UNL     1       3.935   3.469 -21.640  1.00  0.00     0.012 C 
ENDBRANCH  35  37
ENDBRANCH  34  35
ENDBRANCH   1  34
TORSDOF 9
ENDMDL
MODEL 4
REMARK VINA RESULT:    -4.897      2.004      7.848
REMARK INTER + INTRA:          -8.011
REMARK INTER:                  -7.449
REMARK INTRA:                  -0.562
REMARK UNBOUND:                -0.680
REMARK SMILES C=C(CC[C@H](C(=O)[O-])[C@H]1[C@@H](O)C[C@@]2(C)C3=C(CC[C@@]12C)[C@@]1(C)CC[C@@H](OC(C)=O)C(C)(C)[C@H]1CC3)C(C)C
REMARK SMILES IDX 4 1 5 2 6 3 7 4 8 5 9 6 10 7 19 8 12 9 13 10 18 11 20 12
REMARK SMILES IDX 14 13 15 14 17 15 16 16 35 17 21 18 34 19 33 20 23 21 22 22
REMARK SMILES IDX 30 23 24 24 25 25 31 26 32 27 11 28 26 30 27 31 29 32 28 33
REMARK SMILES IDX 3 34 2 35 1 36 36 37 37 38 38 39
REMARK H PARENT 11 29
REMARK Flexibility Score: inf
ROOT
ATOM      1  C   UNL     1       2.674  -0.824 -23.789  1.00  0.00     0.014 C 
ENDROOT
BRANCH   1   2
ATOM      2  C   UNL     1       3.278  -1.791 -24.836  1.00  0.00     0.042 C 
BRANCH   2   3
ATOM      3  C   UNL     1       4.465  -2.506 -24.221  1.00  0.00     0.045 C 
ATOM      4  O   UNL     1       5.194  -3.262 -24.900  1.00  0.00    -0.550 OA
ATOM      5  O   UNL     1       4.832  -2.247 -22.908  1.00  0.00    -0.550 OA
ENDBRANCH   2   3
BRANCH   2   6
ATOM      6  C   UNL     1       3.534  -1.140 -26.269  1.00  0.00     0.033 C 
ATOM      7  C   UNL     1       2.304  -0.642 -27.041  1.00  0.00     0.119 C 
ATOM      8  C   UNL     1       4.575   0.064 -26.376  1.00  0.00    -0.017 C 
ATOM      9  C   UNL     1       2.222   0.842 -26.775  1.00  0.00     0.043 C 
ATOM     10  C   UNL     1       3.684   1.370 -26.742  1.00  0.00    -0.003 C 
ATOM     11  C   UNL     1       5.378   0.295 -25.061  1.00  0.00     0.012 C 
ATOM     12  C   UNL     1       5.658  -0.308 -27.475  1.00  0.00     0.013 C 
ATOM     13  C   UNL     1       4.016   2.005 -28.125  1.00  0.00     0.017 C 
ATOM     14  C   UNL     1       3.763   2.536 -25.722  1.00  0.00    -0.064 C 
ATOM     15  C   UNL     1       5.949   1.703 -25.028  1.00  0.00     0.032 C 
ATOM     16  C   UNL     1       4.791   2.665 -24.846  1.00  0.00    -0.064 C 
ATOM     17  C   UNL     1       2.723   3.628 -25.769  1.00  0.00     0.032 C 
ATOM     18  C   UNL     1       4.863   3.807 -23.788  1.00  0.00    -0.008 C 
ATOM     19  C   UNL     1       2.298   3.927 -24.350  1.00  0.00     0.009 C 
ATOM     20  C   UNL     1       3.464   4.600 -23.573  1.00  0.00     0.009 C 
ATOM     21  C   UNL     1       6.072   4.676 -24.260  1.00  0.00     0.015 C 
ATOM     22  C   UNL     1       5.217   3.180 -22.411  1.00  0.00     0.016 C 
ATOM     23  C   UNL     1       3.496   6.206 -23.578  1.00  0.00     0.005 C 
ATOM     24  C   UNL     1       6.021   6.129 -23.835  1.00  0.00     0.047 C 
ATOM     25  C   UNL     1       4.726   6.771 -24.341  1.00  0.00     0.182 C 
ATOM     26  C   UNL     1       2.226   6.845 -24.218  1.00  0.00     0.015 C 
ATOM     27  C   UNL     1       3.529   6.744 -22.114  1.00  0.00     0.015 C 
BRANCH   7  28
ATOM     28  O   UNL     1       1.117  -1.298 -26.686  1.00  0.00    -0.393 OA
ATOM     29  H   UNL     1       0.439  -1.086 -27.389  1.00  0.00     0.210 HD
ENDBRANCH   7  28
BRANCH  25  30
ATOM     30  O   UNL     1       4.565   6.557 -25.750  1.00  0.00    -0.462 OA
BRANCH  30  31
ATOM     31  C   UNL     1       3.951   7.478 -26.609  1.00  0.00     0.302 C 
ATOM     32  O   UNL     1       4.415   8.643 -26.747  1.00  0.00    -0.253 OA
ATOM     33  C   UNL     1       2.787   7.046 -27.433  1.00  0.00     0.139 C 
ENDBRANCH  30  31
ENDBRANCH  25  30
ENDBRANCH   2   6
ENDBRANCH   1   2
BRANCH   1  34
ATOM     34  C   UNL     1       1.265  -1.232 -23.307  1.00  0.00     0.031 C 
BRANCH  34  35
ATOM     35  C   UNL     1       1.260  -2.648 -22.760  1.00  0.00    -0.075 C 
ATOM     36  C   UNL     1       1.615  -2.855 -21.482  1.00  0.00     0.008 C 
BRANCH  35  37
ATOM     37  C   UNL     1       0.785  -3.843 -23.583  1.00  0.00     0.008 C 
ATOM     38  C   UNL     1      -0.715  -4.165 -23.417  1.00  0.00     0.012 C 
ATOM     39  C   UNL     1       1.636  -5.075 -23.252  1.00  0.00     0.012 C 
ENDBRANCH  35  37
ENDBRANCH  34  35
ENDBRANCH   1  34
TORSDOF 9
ENDMDL
MODEL 5
REMARK VINA RESULT:    -4.531      2.054      7.553
REMARK INTER + INTRA:          -7.463
REMARK INTER:                  -7.205
REMARK INTRA:                  -0.258
REMARK UNBOUND:                -0.680
REMARK SMILES C=C(CC[C@H](C(=O)[O-])[C@H]1[C@@H](O)C[C@@]2(C)C3=C(CC[C@@]12C)[C@@]1(C)CC[C@@H](OC(C)=O)C(C)(C)[C@H]1CC3)C(C)C
REMARK SMILES IDX 4 1 5 2 6 3 7 4 8 5 9 6 10 7 19 8 12 9 13 10 18 11 20 12
REMARK SMILES IDX 14 13 15 14 17 15 16 16 35 17 21 18 34 19 33 20 23 21 22 22
REMARK SMILES IDX 30 23 24 24 25 25 31 26 32 27 11 28 26 30 27 31 29 32 28 33
REMARK SMILES IDX 3 34 2 35 1 36 36 37 37 38 38 39
REMARK H PARENT 11 29
REMARK Flexibility Score: inf
ROOT
ATOM      1  C   UNL     1       2.494  -0.150 -24.130  1.00  0.00     0.014 C 
ENDROOT
BRANCH   1   2
ATOM      2  C   UNL     1       3.778  -0.951 -24.458  1.00  0.00     0.042 C 
BRANCH   2   3
ATOM      3  C   UNL     1       4.609  -1.088 -23.198  1.00  0.00     0.045 C 
ATOM      4  O   UNL     1       5.688  -1.723 -23.194  1.00  0.00    -0.550 OA
ATOM      5  O   UNL     1       4.241  -0.414 -22.041  1.00  0.00    -0.550 OA
ENDBRANCH   2   3
BRANCH   2   6
ATOM      6  C   UNL     1       4.564  -0.441 -25.748  1.00  0.00     0.033 C 
ATOM      7  C   UNL     1       3.872  -0.624 -27.107  1.00  0.00     0.119 C 
ATOM      8  C   UNL     1       5.076   1.070 -25.773  1.00  0.00    -0.017 C 
ATOM      9  C   UNL     1       3.219   0.700 -27.419  1.00  0.00     0.043 C 
ATOM     10  C   UNL     1       4.186   1.806 -26.913  1.00  0.00    -0.003 C 
ATOM     11  C   UNL     1       4.919   1.790 -24.401  1.00  0.00     0.012 C 
ATOM     12  C   UNL     1       6.635   1.064 -26.073  1.00  0.00     0.013 C 
ATOM     13  C   UNL     1       5.009   2.340 -28.123  1.00  0.00     0.017 C 
ATOM     14  C   UNL     1       3.342   3.011 -26.422  1.00  0.00    -0.064 C 
ATOM     15  C   UNL     1       4.926   3.298 -24.588  1.00  0.00     0.032 C 
ATOM     16  C   UNL     1       3.631   3.681 -25.278  1.00  0.00    -0.064 C 
ATOM     17  C   UNL     1       2.226   3.532 -27.293  1.00  0.00     0.032 C 
ATOM     18  C   UNL     1       2.768   4.867 -24.751  1.00  0.00    -0.008 C 
ATOM     19  C   UNL     1       1.031   3.797 -26.408  1.00  0.00     0.009 C 
ATOM     20  C   UNL     1       1.318   5.000 -25.466  1.00  0.00     0.009 C 
ATOM     21  C   UNL     1       3.712   6.104 -24.891  1.00  0.00     0.015 C 
ATOM     22  C   UNL     1       2.483   4.635 -23.242  1.00  0.00     0.016 C 
ATOM     23  C   UNL     1       0.864   6.447 -25.993  1.00  0.00     0.005 C 
ATOM     24  C   UNL     1       3.004   7.434 -25.047  1.00  0.00     0.047 C 
ATOM     25  C   UNL     1       2.074   7.385 -26.263  1.00  0.00     0.182 C 
ATOM     26  C   UNL     1       0.027   6.390 -27.307  1.00  0.00     0.015 C 
ATOM     27  C   UNL     1      -0.070   7.129 -24.945  1.00  0.00     0.015 C 
BRANCH   7  28
ATOM     28  O   UNL     1       2.947  -1.677 -27.126  1.00  0.00    -0.393 OA
ATOM     29  H   UNL     1       2.716  -1.887 -26.176  1.00  0.00     0.210 HD
ENDBRANCH   7  28
BRANCH  25  30
ATOM     30  O   UNL     1       2.779   6.945 -27.431  1.00  0.00    -0.462 OA
BRANCH  30  31
ATOM     31  C   UNL     1       4.076   7.364 -27.757  1.00  0.00     0.302 C 
ATOM     32  O   UNL     1       4.991   6.523 -27.979  1.00  0.00    -0.253 OA
ATOM     33  C   UNL     1       4.354   8.818 -27.928  1.00  0.00     0.139 C 
ENDBRANCH  30  31
ENDBRANCH  25  30
ENDBRANCH   2   6
ENDBRANCH   1   2
BRANCH   1  34
ATOM     34  C   UNL     1       1.575  -0.848 -23.104  1.00  0.00     0.031 C 
BRANCH  34  35
ATOM     35  C   UNL     1       0.913  -2.076 -23.703  1.00  0.00    -0.075 C 
ATOM     36  C   UNL     1       0.455  -2.019 -24.964  1.00  0.00     0.008 C 
BRANCH  35  37
ATOM     37  C   UNL     1       0.823  -3.405 -22.958  1.00  0.00     0.008 C 
ATOM     38  C   UNL     1       2.082  -4.287 -23.091  1.00  0.00     0.012 C 
ATOM     39  C   UNL     1      -0.420  -4.175 -23.416  1.00  0.00     0.012 C 
ENDBRANCH  35  37
ENDBRANCH  34  35
ENDBRANCH   1  34
TORSDOF 9
ENDMDL
MODEL 6
REMARK VINA RESULT:    -3.993      2.396      7.888
REMARK INTER + INTRA:          -6.658
REMARK INTER:                  -8.656
REMARK INTRA:                   1.998
REMARK UNBOUND:                -0.680
REMARK SMILES C=C(CC[C@H](C(=O)[O-])[C@H]1[C@@H](O)C[C@@]2(C)C3=C(CC[C@@]12C)[C@@]1(C)CC[C@@H](OC(C)=O)C(C)(C)[C@H]1CC3)C(C)C
REMARK SMILES IDX 4 1 5 2 6 3 7 4 8 5 9 6 10 7 19 8 12 9 13 10 18 11 20 12
REMARK SMILES IDX 14 13 15 14 17 15 16 16 35 17 21 18 34 19 33 20 23 21 22 22
REMARK SMILES IDX 30 23 24 24 25 25 31 26 32 27 11 28 26 30 27 31 29 32 28 33
REMARK SMILES IDX 3 34 2 35 1 36 36 37 37 38 38 39
REMARK H PARENT 11 29
REMARK Flexibility Score: inf
ROOT
ATOM      1  C   UNL     1       2.173  -1.107 -22.802  1.00  0.00     0.014 C 
ENDROOT
BRANCH   1   2
ATOM      2  C   UNL     1       1.118  -1.271 -23.923  1.00  0.00     0.042 C 
BRANCH   2   3
ATOM      3  C   UNL     1       0.246  -2.470 -23.608  1.00  0.00     0.045 C 
ATOM      4  O   UNL     1      -0.801  -2.355 -22.933  1.00  0.00    -0.550 OA
ATOM      5  O   UNL     1       0.537  -3.711 -24.158  1.00  0.00    -0.550 OA
ENDBRANCH   2   3
BRANCH   2   6
ATOM      6  C   UNL     1       1.710  -1.222 -25.403  1.00  0.00     0.033 C 
ATOM      7  C   UNL     1       0.713  -1.007 -26.549  1.00  0.00     0.119 C 
ATOM      8  C   UNL     1       2.886  -0.188 -25.711  1.00  0.00    -0.017 C 
ATOM      9  C   UNL     1       0.756   0.468 -26.864  1.00  0.00     0.043 C 
ATOM     10  C   UNL     1       2.237   0.914 -26.710  1.00  0.00    -0.003 C 
ATOM     11  C   UNL     1       3.451   0.493 -24.429  1.00  0.00     0.012 C 
ATOM     12  C   UNL     1       4.105  -0.990 -26.337  1.00  0.00     0.013 C 
ATOM     13  C   UNL     1       2.893   0.965 -28.121  1.00  0.00     0.017 C 
ATOM     14  C   UNL     1       2.259   2.376 -26.190  1.00  0.00    -0.064 C 
ATOM     15  C   UNL     1       4.166   1.786 -24.786  1.00  0.00     0.032 C 
ATOM     16  C   UNL     1       3.114   2.788 -25.220  1.00  0.00    -0.064 C 
ATOM     17  C   UNL     1       1.381   3.407 -26.854  1.00  0.00     0.032 C 
ATOM     18  C   UNL     1       3.119   4.243 -24.660  1.00  0.00    -0.008 C 
ATOM     19  C   UNL     1       0.737   4.237 -25.768  1.00  0.00     0.009 C 
ATOM     20  C   UNL     1       1.807   5.110 -25.055  1.00  0.00     0.009 C 
ATOM     21  C   UNL     1       4.488   4.821 -25.141  1.00  0.00     0.015 C 
ATOM     22  C   UNL     1       3.135   4.171 -23.108  1.00  0.00     0.016 C 
ATOM     23  C   UNL     1       2.026   6.591 -25.636  1.00  0.00     0.005 C 
ATOM     24  C   UNL     1       4.528   6.328 -25.293  1.00  0.00     0.047 C 
ATOM     25  C   UNL     1       3.434   6.778 -26.265  1.00  0.00     0.182 C 
ATOM     26  C   UNL     1       0.981   6.988 -26.722  1.00  0.00     0.015 C 
ATOM     27  C   UNL     1       1.848   7.643 -24.496  1.00  0.00     0.015 C 
BRANCH   7  28
ATOM     28  O   UNL     1      -0.588  -1.435 -26.247  1.00  0.00    -0.393 OA
ATOM     29  H   UNL     1      -0.549  -2.422 -26.099  1.00  0.00     0.210 HD
ENDBRANCH   7  28
BRANCH  25  30
ATOM     30  O   UNL     1       3.515   6.053 -27.500  1.00  0.00    -0.462 OA
BRANCH  30  31
ATOM     31  C   UNL     1       4.667   5.379 -27.930  1.00  0.00     0.302 C 
ATOM     32  O   UNL     1       5.748   6.003 -28.117  1.00  0.00    -0.253 OA
ATOM     33  C   UNL     1       4.633   3.898 -28.085  1.00  0.00     0.139 C 
ENDBRANCH  30  31
ENDBRANCH  25  30
ENDBRANCH   2   6
ENDBRANCH   1   2
BRANCH   1  34
ATOM     34  C   UNL     1       2.813  -2.439 -22.353  1.00  0.00     0.031 C 
BRANCH  34  35
ATOM     35  C   UNL     1       3.911  -2.870 -23.308  1.00  0.00    -0.075 C 
ATOM     36  C   UNL     1       3.592  -3.634 -24.366  1.00  0.00     0.008 C 
BRANCH  35  37
ATOM     37  C   UNL     1       5.356  -2.401 -23.163  1.00  0.00     0.008 C 
ATOM     38  C   UNL     1       5.515  -0.869 -23.075  1.00  0.00     0.012 C 
ATOM     39  C   UNL     1       6.204  -2.961 -24.310  1.00  0.00     0.012 C 
ENDBRANCH  35  37
ENDBRANCH  34  35
ENDBRANCH   1  34
TORSDOF 9
ENDMDL
MODEL 7
REMARK VINA RESULT:    -3.826      1.654      2.844
REMARK INTER + INTRA:          -6.408
REMARK INTER:                  -5.303
REMARK INTRA:                  -1.104
REMARK UNBOUND:                -0.680
REMARK SMILES C=C(CC[C@H](C(=O)[O-])[C@H]1[C@@H](O)C[C@@]2(C)C3=C(CC[C@@]12C)[C@@]1(C)CC[C@@H](OC(C)=O)C(C)(C)[C@H]1CC3)C(C)C
REMARK SMILES IDX 4 1 5 2 6 3 7 4 8 5 9 6 10 7 19 8 12 9 13 10 18 11 20 12
REMARK SMILES IDX 14 13 15 14 17 15 16 16 35 17 21 18 34 19 33 20 23 21 22 22
REMARK SMILES IDX 30 23 24 24 25 25 31 26 32 27 11 28 26 30 27 31 29 32 28 33
REMARK SMILES IDX 3 34 2 35 1 36 36 37 37 38 38 39
REMARK H PARENT 11 29
REMARK Flexibility Score: inf
ROOT
ATOM      1  C   UNL     1       3.490   7.516 -25.781  1.00  0.00     0.014 C 
ENDROOT
BRANCH   1   2
ATOM      2  C   UNL     1       3.549   6.032 -25.344  1.00  0.00     0.042 C 
BRANCH   2   3
ATOM      3  C   UNL     1       3.233   5.941 -23.864  1.00  0.00     0.045 C 
ATOM      4  O   UNL     1       3.230   6.957 -23.134  1.00  0.00    -0.550 OA
ATOM      5  O   UNL     1       2.831   4.734 -23.308  1.00  0.00    -0.550 OA
ENDBRANCH   2   3
BRANCH   2   6
ATOM      6  C   UNL     1       4.858   5.255 -25.817  1.00  0.00     0.033 C 
ATOM      7  C   UNL     1       5.877   4.875 -24.733  1.00  0.00     0.119 C 
ATOM      8  C   UNL     1       4.676   3.916 -26.666  1.00  0.00    -0.017 C 
ATOM      9  C   UNL     1       5.584   3.438 -24.376  1.00  0.00     0.043 C 
ATOM     10  C   UNL     1       5.192   2.721 -25.698  1.00  0.00    -0.003 C 
ATOM     11  C   UNL     1       3.203   3.670 -27.108  1.00  0.00     0.012 C 
ATOM     12  C   UNL     1       5.505   4.061 -28.012  1.00  0.00     0.013 C 
ATOM     13  C   UNL     1       6.436   1.952 -26.235  1.00  0.00     0.017 C 
ATOM     14  C   UNL     1       4.140   1.629 -25.371  1.00  0.00    -0.064 C 
ATOM     15  C   UNL     1       2.987   2.204 -27.443  1.00  0.00     0.032 C 
ATOM     16  C   UNL     1       3.045   1.423 -26.145  1.00  0.00    -0.064 C 
ATOM     17  C   UNL     1       4.388   0.687 -24.220  1.00  0.00     0.032 C 
ATOM     18  C   UNL     1       1.958   0.357 -25.807  1.00  0.00    -0.008 C 
ATOM     19  C   UNL     1       3.098   0.547 -23.447  1.00  0.00     0.009 C 
ATOM     20  C   UNL     1       2.046  -0.222 -24.294  1.00  0.00     0.009 C 
ATOM     21  C   UNL     1       2.104  -0.697 -26.950  1.00  0.00     0.015 C 
ATOM     22  C   UNL     1       0.560   1.025 -25.930  1.00  0.00     0.016 C 
ATOM     23  C   UNL     1       1.986  -1.814 -24.089  1.00  0.00     0.005 C 
ATOM     24  C   UNL     1       1.649  -2.098 -26.590  1.00  0.00     0.047 C 
ATOM     25  C   UNL     1       2.420  -2.592 -25.363  1.00  0.00     0.182 C 
ATOM     26  C   UNL     1       2.881  -2.318 -22.917  1.00  0.00     0.015 C 
ATOM     27  C   UNL     1       0.536  -2.249 -23.712  1.00  0.00     0.015 C 
BRANCH   7  28
ATOM     28  O   UNL     1       5.833   5.709 -23.607  1.00  0.00    -0.393 OA
ATOM     29  H   UNL     1       5.072   6.343 -23.737  1.00  0.00     0.210 HD
ENDBRANCH   7  28
BRANCH  25  30
ATOM     30  O   UNL     1       3.835  -2.456 -25.557  1.00  0.00    -0.462 OA
BRANCH  30  31
ATOM     31  C   UNL     1       4.785  -3.286 -24.947  1.00  0.00     0.302 C 
ATOM     32  O   UNL     1       4.447  -4.392 -24.441  1.00  0.00    -0.253 OA
ATOM     33  C   UNL     1       6.222  -2.896 -24.974  1.00  0.00     0.139 C 
ENDBRANCH  30  31
ENDBRANCH  25  30
ENDBRANCH   2   6
ENDBRANCH   1   2
BRANCH   1  34
ATOM     34  C   UNL     1       2.336   7.829 -26.759  1.00  0.00     0.031 C 
BRANCH  34  35
ATOM     35  C   UNL     1       0.994   7.431 -26.171  1.00  0.00    -0.075 C 
ATOM     36  C   UNL     1       0.505   8.128 -25.134  1.00  0.00     0.008 C 
BRANCH  35  37
ATOM     37  C   UNL     1       0.135   6.319 -26.767  1.00  0.00     0.008 C 
ATOM     38  C   UNL     1      -0.036   5.094 -25.846  1.00  0.00     0.012 C 
ATOM     39  C   UNL     1       0.704   5.893 -28.125  1.00  0.00     0.012 C 
ENDBRANCH  35  37
ENDBRANCH  34  35
ENDBRANCH   1  34
TORSDOF 9
ENDMDL
MODEL 8
REMARK VINA RESULT:    -3.738      2.218      3.072
REMARK INTER + INTRA:          -6.275
REMARK INTER:                  -5.742
REMARK INTRA:                  -0.532
REMARK UNBOUND:                -0.680
REMARK SMILES C=C(CC[C@H](C(=O)[O-])[C@H]1[C@@H](O)C[C@@]2(C)C3=C(CC[C@@]12C)[C@@]1(C)CC[C@@H](OC(C)=O)C(C)(C)[C@H]1CC3)C(C)C
REMARK SMILES IDX 4 1 5 2 6 3 7 4 8 5 9 6 10 7 19 8 12 9 13 10 18 11 20 12
REMARK SMILES IDX 14 13 15 14 17 15 16 16 35 17 21 18 34 19 33 20 23 21 22 22
REMARK SMILES IDX 30 23 24 24 25 25 31 26 32 27 11 28 26 30 27 31 29 32 28 33
REMARK SMILES IDX 3 34 2 35 1 36 36 37 37 38 38 39
REMARK H PARENT 11 29
REMARK Flexibility Score: inf
ROOT
ATOM      1  C   UNL     1       4.230   7.979 -26.482  1.00  0.00     0.014 C 
ENDROOT
BRANCH   1   2
ATOM      2  C   UNL     1       4.481   6.458 -26.335  1.00  0.00     0.042 C 
BRANCH   2   3
ATOM      3  C   UNL     1       3.555   5.712 -27.274  1.00  0.00     0.045 C 
ATOM      4  O   UNL     1       3.983   4.821 -28.041  1.00  0.00    -0.550 OA
ATOM      5  O   UNL     1       2.185   5.929 -27.222  1.00  0.00    -0.550 OA
ENDBRANCH   2   3
BRANCH   2   6
ATOM      6  C   UNL     1       4.504   5.934 -24.829  1.00  0.00     0.033 C 
ATOM      7  C   UNL     1       3.164   5.896 -24.081  1.00  0.00     0.119 C 
ATOM      8  C   UNL     1       5.155   4.507 -24.536  1.00  0.00    -0.017 C 
ATOM      9  C   UNL     1       2.669   4.474 -24.193  1.00  0.00     0.043 C 
ATOM     10  C   UNL     1       3.919   3.557 -24.086  1.00  0.00    -0.003 C 
ATOM     11  C   UNL     1       5.891   3.907 -25.771  1.00  0.00     0.012 C 
ATOM     12  C   UNL     1       6.271   4.686 -23.422  1.00  0.00     0.013 C 
ATOM     13  C   UNL     1       4.020   3.021 -22.628  1.00  0.00     0.017 C 
ATOM     14  C   UNL     1       3.687   2.304 -24.972  1.00  0.00    -0.064 C 
ATOM     15  C   UNL     1       6.037   2.402 -25.622  1.00  0.00     0.032 C 
ATOM     16  C   UNL     1       4.657   1.790 -25.769  1.00  0.00    -0.064 C 
ATOM     17  C   UNL     1       2.378   1.562 -24.871  1.00  0.00     0.032 C 
ATOM     18  C   UNL     1       4.427   0.557 -26.695  1.00  0.00    -0.008 C 
ATOM     19  C   UNL     1       1.922   1.230 -26.272  1.00  0.00     0.009 C 
ATOM     20  C   UNL     1       2.866   0.170 -26.906  1.00  0.00     0.009 C 
ATOM     21  C   UNL     1       5.326  -0.554 -26.065  1.00  0.00     0.015 C 
ATOM     22  C   UNL     1       4.981   0.894 -28.107  1.00  0.00     0.016 C 
ATOM     23  C   UNL     1       2.438  -1.368 -26.729  1.00  0.00     0.005 C 
ATOM     24  C   UNL     1       4.872  -1.974 -26.337  1.00  0.00     0.047 C 
ATOM     25  C   UNL     1       3.436  -2.162 -25.842  1.00  0.00     0.182 C 
ATOM     26  C   UNL     1       1.023  -1.545 -26.100  1.00  0.00     0.015 C 
ATOM     27  C   UNL     1       2.353  -2.062 -28.124  1.00  0.00     0.015 C 
BRANCH   7  28
ATOM     28  O   UNL     1       2.224   6.812 -24.571  1.00  0.00    -0.393 OA
ATOM     29  H   UNL     1       2.308   6.822 -25.566  1.00  0.00     0.210 HD
ENDBRANCH   7  28
BRANCH  25  30
ATOM     30  O   UNL     1       3.307  -1.748 -24.475  1.00  0.00    -0.462 OA
BRANCH  30  31
ATOM     31  C   UNL     1       3.202  -2.641 -23.400  1.00  0.00     0.302 C 
ATOM     32  O   UNL     1       3.209  -2.223 -22.209  1.00  0.00    -0.253 OA
ATOM     33  C   UNL     1       2.993  -4.091 -23.672  1.00  0.00     0.139 C 
ENDBRANCH  30  31
ENDBRANCH  25  30
ENDBRANCH   2   6
ENDBRANCH   1   2
BRANCH   1  34
ATOM     34  C   UNL     1       4.085   8.444 -27.948  1.00  0.00     0.031 C 
BRANCH  34  35
ATOM     35  C   UNL     1       3.446   9.819 -28.028  1.00  0.00    -0.075 C 
ATOM     36  C   UNL     1       4.237  10.902 -28.091  1.00  0.00     0.008 C 
BRANCH  35  37
ATOM     37  C   UNL     1       1.936  10.017 -28.125  1.00  0.00     0.008 C 
ATOM     38  C   UNL     1       1.493  11.495 -28.116  1.00  0.00     0.012 C 
ATOM     39  C   UNL     1       1.236   9.243 -27.002  1.00  0.00     0.012 C 
ENDBRANCH  35  37
ENDBRANCH  34  35
ENDBRANCH   1  34
TORSDOF 9
ENDMDL
