MODEL 1
REMARK VINA RESULT:    -2.323      0.000      0.000
REMARK INTER + INTRA:          -2.917
REMARK INTER:                  -2.866
REMARK INTRA:                  -0.051
REMARK UNBOUND:                -0.051
REMARK SMILES O=c1c(O)c(-c2cc(O)c(O)c(O)c2)oc2cc(O)cc(O)c12
REMARK SMILES IDX 5 1 3 2 2 3 1 4 23 5 21 6 20 7 18 8 17 9 16 10 15 11 6 12
REMARK SMILES IDX 7 13 8 14 14 15 10 16 12 17 9 18 11 20 13 22 4 24 22 26
REMARK SMILES IDX 19 28
REMARK H PARENT 9 19 11 21 13 23 4 25 22 27 19 29
REMARK Flexibility Score: inf
ROOT
ATOM      1  C   UNL     1       3.482   7.187   6.644  1.00  0.00     0.180 A 
ATOM      2  C   UNL     1       4.415   7.597   7.613  1.00  0.00     0.208 A 
ATOM      3  C   UNL     1       5.628   8.164   7.191  1.00  0.00     0.238 A 
ATOM      4  O   UNL     1       6.437   8.578   8.063  1.00  0.00    -0.285 OA
ATOM      5  C   UNL     1       5.901   8.299   5.809  1.00  0.00     0.111 A 
ATOM      6  C   UNL     1       7.114   8.823   5.268  1.00  0.00     0.134 A 
ATOM      7  C   UNL     1       7.221   9.032   3.888  1.00  0.00     0.093 A 
ATOM      8  C   UNL     1       6.184   8.676   3.022  1.00  0.00     0.123 A 
ATOM      9  C   UNL     1       5.020   8.109   3.535  1.00  0.00     0.094 A 
ATOM     10  C   UNL     1       4.868   7.921   4.910  1.00  0.00     0.146 A 
ATOM     11  O   UNL     1       3.738   7.388   5.357  1.00  0.00    -0.452 OA
ENDROOT
BRANCH   1  12
ATOM     12  C   UNL     1       2.192   6.558   7.011  1.00  0.00     0.029 A 
ATOM     13  C   UNL     1       2.133   5.480   7.910  1.00  0.00     0.062 A 
ATOM     14  C   UNL     1       0.905   4.883   8.226  1.00  0.00     0.162 A 
ATOM     15  C   UNL     1       1.008   7.008   6.405  1.00  0.00     0.062 A 
ATOM     16  C   UNL     1      -0.275   5.352   7.635  1.00  0.00     0.200 A 
ATOM     17  C   UNL     1      -0.224   6.415   6.718  1.00  0.00     0.162 A 
BRANCH  14  18
ATOM     18  O   UNL     1       0.850   3.819   9.124  1.00  0.00    -0.504 OA
ATOM     19  H   UNL     1       0.340   3.887   9.997  1.00  0.00     0.293 HD
ENDBRANCH  14  18
BRANCH  16  20
ATOM     20  O   UNL     1      -1.489   4.748   7.964  1.00  0.00    -0.502 OA
ATOM     21  H   UNL     1      -1.550   3.775   8.239  1.00  0.00     0.293 HD
ENDBRANCH  16  20
BRANCH  17  22
ATOM     22  O   UNL     1      -1.395   6.880   6.121  1.00  0.00    -0.504 OA
ATOM     23  H   UNL     1      -1.374   7.571   5.380  1.00  0.00     0.293 HD
ENDBRANCH  17  22
ENDBRANCH   1  12
BRANCH   2  24
ATOM     24  O   UNL     1       4.118   7.474   8.972  1.00  0.00    -0.502 OA
ATOM     25  H   UNL     1       3.168   7.452   9.322  1.00  0.00     0.293 HD
ENDBRANCH   2  24
BRANCH   6  26
ATOM     26  O   UNL     1       8.243   9.125   6.036  1.00  0.00    -0.507 OA
ATOM     27  H   UNL     1       9.193   9.082   5.702  1.00  0.00     0.293 HD
ENDBRANCH   6  26
BRANCH   8  28
ATOM     28  O   UNL     1       6.307   8.873   1.649  1.00  0.00    -0.508 OA
ATOM     29  H   UNL     1       5.827   8.279   0.982  1.00  0.00     0.293 HD
ENDBRANCH   8  28
TORSDOF 7
ENDMDL
MODEL 2
REMARK VINA RESULT:    -2.029      2.347      4.335
REMARK INTER + INTRA:          -2.555
REMARK INTER:                  -2.771
REMARK INTRA:                   0.216
REMARK UNBOUND:                -0.051
REMARK SMILES O=c1c(O)c(-c2cc(O)c(O)c(O)c2)oc2cc(O)cc(O)c12
REMARK SMILES IDX 5 1 3 2 2 3 1 4 23 5 21 6 20 7 18 8 17 9 16 10 15 11 6 12
REMARK SMILES IDX 7 13 8 14 14 15 10 16 12 17 9 18 11 20 13 22 4 24 22 26
REMARK SMILES IDX 19 28
REMARK H PARENT 9 19 11 21 13 23 4 25 22 27 19 29
REMARK Flexibility Score: inf
ROOT
ATOM      1  C   UNL     1       0.407   6.734   6.268  1.00  0.00     0.180 A 
ATOM      2  C   UNL     1       0.591   5.986   7.444  1.00  0.00     0.208 A 
ATOM      3  C   UNL     1       1.861   5.961   8.043  1.00  0.00     0.238 A 
ATOM      4  O   UNL     1       2.007   5.333   9.125  1.00  0.00    -0.285 OA
ATOM      5  C   UNL     1       2.934   6.669   7.451  1.00  0.00     0.111 A 
ATOM      6  C   UNL     1       4.272   6.681   7.950  1.00  0.00     0.134 A 
ATOM      7  C   UNL     1       5.222   7.522   7.358  1.00  0.00     0.093 A 
ATOM      8  C   UNL     1       4.899   8.303   6.245  1.00  0.00     0.123 A 
ATOM      9  C   UNL     1       3.613   8.253   5.715  1.00  0.00     0.094 A 
ATOM     10  C   UNL     1       2.633   7.452   6.305  1.00  0.00     0.146 A 
ATOM     11  O   UNL     1       1.417   7.442   5.774  1.00  0.00    -0.452 OA
ENDROOT
BRANCH   1  12
ATOM     12  C   UNL     1      -0.895   6.790   5.566  1.00  0.00     0.029 A 
ATOM     13  C   UNL     1      -1.795   5.711   5.609  1.00  0.00     0.062 A 
ATOM     14  C   UNL     1      -3.013   5.773   4.919  1.00  0.00     0.162 A 
ATOM     15  C   UNL     1      -1.215   7.916   4.793  1.00  0.00     0.062 A 
ATOM     16  C   UNL     1      -3.336   6.910   4.167  1.00  0.00     0.200 A 
ATOM     17  C   UNL     1      -2.433   7.984   4.101  1.00  0.00     0.162 A 
BRANCH  14  18
ATOM     18  O   UNL     1      -3.906   4.704   4.970  1.00  0.00    -0.504 OA
ATOM     19  H   UNL     1      -4.617   4.572   4.259  1.00  0.00     0.293 HD
ENDBRANCH  14  18
BRANCH  16  20
ATOM     20  O   UNL     1      -4.555   6.955   3.489  1.00  0.00    -0.502 OA
ATOM     21  H   UNL     1      -5.012   6.120   3.145  1.00  0.00     0.293 HD
ENDBRANCH  16  20
BRANCH  17  22
ATOM     22  O   UNL     1      -2.747   9.115   3.347  1.00  0.00    -0.504 OA
ATOM     23  H   UNL     1      -2.047   9.811   3.119  1.00  0.00     0.293 HD
ENDBRANCH  17  22
ENDBRANCH   1  12
BRANCH   2  24
ATOM     24  O   UNL     1      -0.485   5.311   8.024  1.00  0.00    -0.502 OA
ATOM     25  H   UNL     1      -0.373   4.445   8.536  1.00  0.00     0.293 HD
ENDBRANCH   2  24
BRANCH   6  26
ATOM     26  O   UNL     1       4.720   5.871   8.997  1.00  0.00    -0.507 OA
ATOM     27  H   UNL     1       5.331   6.177   9.739  1.00  0.00     0.293 HD
ENDBRANCH   6  26
BRANCH   8  28
ATOM     28  O   UNL     1       5.856   9.124   5.653  1.00  0.00    -0.508 OA
ATOM     29  H   UNL     1       6.215   8.937   4.724  1.00  0.00     0.293 HD
ENDBRANCH   8  28
TORSDOF 7
ENDMDL
MODEL 3
REMARK VINA RESULT:    -1.760     11.900     14.758
REMARK INTER + INTRA:          -2.223
REMARK INTER:                  -2.735
REMARK INTRA:                   0.511
REMARK UNBOUND:                -0.051
REMARK SMILES O=c1c(O)c(-c2cc(O)c(O)c(O)c2)oc2cc(O)cc(O)c12
REMARK SMILES IDX 5 1 3 2 2 3 1 4 23 5 21 6 20 7 18 8 17 9 16 10 15 11 6 12
REMARK SMILES IDX 7 13 8 14 14 15 10 16 12 17 9 18 11 20 13 22 4 24 22 26
REMARK SMILES IDX 19 28
REMARK H PARENT 9 19 11 21 13 23 4 25 22 27 19 29
REMARK Flexibility Score: inf
ROOT
ATOM      1  C   UNL     1      -7.010  -0.026   2.113  1.00  0.00     0.180 A 
ATOM      2  C   UNL     1      -6.865  -1.058   3.057  1.00  0.00     0.208 A 
ATOM      3  C   UNL     1      -6.849  -2.390   2.613  1.00  0.00     0.238 A 
ATOM      4  O   UNL     1      -6.665  -3.306   3.456  1.00  0.00    -0.285 OA
ATOM      5  C   UNL     1      -6.994  -2.674   1.234  1.00  0.00     0.111 A 
ATOM      6  C   UNL     1      -7.032  -3.988   0.676  1.00  0.00     0.134 A 
ATOM      7  C   UNL     1      -7.049  -4.147  -0.715  1.00  0.00     0.093 A 
ATOM      8  C   UNL     1      -7.093  -3.041  -1.567  1.00  0.00     0.123 A 
ATOM      9  C   UNL     1      -7.116  -1.756  -1.030  1.00  0.00     0.094 A 
ATOM     10  C   UNL     1      -7.065  -1.563   0.352  1.00  0.00     0.146 A 
ATOM     11  O   UNL     1      -7.078  -0.322   0.820  1.00  0.00    -0.452 OA
ENDROOT
BRANCH   1  12
ATOM     12  C   UNL     1      -7.061   1.401   2.508  1.00  0.00     0.029 A 
ATOM     13  C   UNL     1      -7.071   2.425   1.546  1.00  0.00     0.062 A 
ATOM     14  C   UNL     1      -7.094   3.770   1.940  1.00  0.00     0.162 A 
ATOM     15  C   UNL     1      -7.038   1.741   3.869  1.00  0.00     0.062 A 
ATOM     16  C   UNL     1      -7.095   4.102   3.301  1.00  0.00     0.200 A 
ATOM     17  C   UNL     1      -7.063   3.085   4.269  1.00  0.00     0.162 A 
BRANCH  14  18
ATOM     18  O   UNL     1      -7.112   4.783   0.984  1.00  0.00    -0.504 OA
ATOM     19  H   UNL     1      -6.615   5.656   1.125  1.00  0.00     0.293 HD
ENDBRANCH  14  18
BRANCH  16  20
ATOM     20  O   UNL     1      -7.122   5.447   3.674  1.00  0.00    -0.502 OA
ATOM     21  H   UNL     1      -6.500   6.133   3.265  1.00  0.00     0.293 HD
ENDBRANCH  16  20
BRANCH  17  22
ATOM     22  O   UNL     1      -7.055   3.411   5.625  1.00  0.00    -0.504 OA
ATOM     23  H   UNL     1      -7.000   2.697   6.342  1.00  0.00     0.293 HD
ENDBRANCH  17  22
ENDBRANCH   1  12
BRANCH   2  24
ATOM     24  O   UNL     1      -6.702  -0.754   4.411  1.00  0.00    -0.502 OA
ATOM     25  H   UNL     1      -5.896  -0.253   4.763  1.00  0.00     0.293 HD
ENDBRANCH   2  24
BRANCH   6  26
ATOM     26  O   UNL     1      -7.084  -5.158   1.440  1.00  0.00    -0.507 OA
ATOM     27  H   UNL     1      -6.297  -5.761   1.622  1.00  0.00     0.293 HD
ENDBRANCH   6  26
BRANCH   8  28
ATOM     28  O   UNL     1      -7.125  -3.210  -2.949  1.00  0.00    -0.508 OA
ATOM     29  H   UNL     1      -6.679  -2.550  -3.576  1.00  0.00     0.293 HD
ENDBRANCH   8  28
TORSDOF 7
ENDMDL
MODEL 4
REMARK VINA RESULT:    -1.733      1.308      6.915
REMARK INTER + INTRA:          -2.189
REMARK INTER:                  -2.175
REMARK INTRA:                  -0.014
REMARK UNBOUND:                -0.051
REMARK SMILES O=c1c(O)c(-c2cc(O)c(O)c(O)c2)oc2cc(O)cc(O)c12
REMARK SMILES IDX 5 1 3 2 2 3 1 4 23 5 21 6 20 7 18 8 17 9 16 10 15 11 6 12
REMARK SMILES IDX 7 13 8 14 14 15 10 16 12 17 9 18 11 20 13 22 4 24 22 26
REMARK SMILES IDX 19 28
REMARK H PARENT 9 19 11 21 13 23 4 25 22 27 19 29
REMARK Flexibility Score: inf
ROOT
ATOM      1  C   UNL     1       2.942   6.571   6.458  1.00  0.00     0.180 A 
ATOM      2  C   UNL     1       2.952   5.789   7.627  1.00  0.00     0.208 A 
ATOM      3  C   UNL     1       1.740   5.270   8.109  1.00  0.00     0.238 A 
ATOM      4  O   UNL     1       1.762   4.526   9.125  1.00  0.00    -0.285 OA
ATOM      5  C   UNL     1       0.532   5.551   7.426  1.00  0.00     0.111 A 
ATOM      6  C   UNL     1      -0.759   5.110   7.848  1.00  0.00     0.134 A 
ATOM      7  C   UNL     1      -1.868   5.337   7.024  1.00  0.00     0.093 A 
ATOM      8  C   UNL     1      -1.744   6.044   5.826  1.00  0.00     0.123 A 
ATOM      9  C   UNL     1      -0.499   6.530   5.436  1.00  0.00     0.094 A 
ATOM     10  C   UNL     1       0.633   6.289   6.218  1.00  0.00     0.146 A 
ATOM     11  O   UNL     1       1.802   6.762   5.804  1.00  0.00    -0.452 OA
ENDROOT
BRANCH   1  12
ATOM     12  C   UNL     1       4.176   7.173   5.903  1.00  0.00     0.029 A 
ATOM     13  C   UNL     1       5.085   7.864   6.723  1.00  0.00     0.062 A 
ATOM     14  C   UNL     1       6.236   8.447   6.175  1.00  0.00     0.162 A 
ATOM     15  C   UNL     1       4.417   7.104   4.523  1.00  0.00     0.062 A 
ATOM     16  C   UNL     1       6.481   8.355   4.799  1.00  0.00     0.200 A 
ATOM     17  C   UNL     1       5.567   7.685   3.969  1.00  0.00     0.162 A 
BRANCH  14  18
ATOM     18  O   UNL     1       7.138   9.125   6.992  1.00  0.00    -0.504 OA
ATOM     19  H   UNL     1       7.863   8.634   7.503  1.00  0.00     0.293 HD
ENDBRANCH  14  18
BRANCH  16  20
ATOM     20  O   UNL     1       7.634   8.939   4.272  1.00  0.00    -0.502 OA
ATOM     21  H   UNL     1       7.891   8.840   3.298  1.00  0.00     0.293 HD
ENDBRANCH  16  20
BRANCH  17  22
ATOM     22  O   UNL     1       5.803   7.599   2.597  1.00  0.00    -0.504 OA
ATOM     23  H   UNL     1       5.714   6.722   2.098  1.00  0.00     0.293 HD
ENDBRANCH  17  22
ENDBRANCH   1  12
BRANCH   2  24
ATOM     24  O   UNL     1       4.158   5.506   8.274  1.00  0.00    -0.502 OA
ATOM     25  H   UNL     1       4.205   5.255   9.253  1.00  0.00     0.293 HD
ENDBRANCH   2  24
BRANCH   6  26
ATOM     26  O   UNL     1      -1.006   4.475   9.068  1.00  0.00    -0.507 OA
ATOM     27  H   UNL     1      -1.017   4.937   9.965  1.00  0.00     0.293 HD
ENDBRANCH   6  26
BRANCH   8  28
ATOM     28  O   UNL     1      -2.857   6.279   5.021  1.00  0.00    -0.508 OA
ATOM     29  H   UNL     1      -2.866   7.020   4.330  1.00  0.00     0.293 HD
ENDBRANCH   8  28
TORSDOF 7
ENDMDL
MODEL 5
REMARK VINA RESULT:    -1.571      2.843      3.785
REMARK INTER + INTRA:          -1.989
REMARK INTER:                  -2.024
REMARK INTRA:                   0.035
REMARK UNBOUND:                -0.051
REMARK SMILES O=c1c(O)c(-c2cc(O)c(O)c(O)c2)oc2cc(O)cc(O)c12
REMARK SMILES IDX 5 1 3 2 2 3 1 4 23 5 21 6 20 7 18 8 17 9 16 10 15 11 6 12
REMARK SMILES IDX 7 13 8 14 14 15 10 16 12 17 9 18 11 20 13 22 4 24 22 26
REMARK SMILES IDX 19 28
REMARK H PARENT 9 19 11 21 13 23 4 25 22 27 19 29
REMARK Flexibility Score: inf
ROOT
ATOM      1  C   UNL     1       3.747   4.452   6.886  1.00  0.00     0.180 A 
ATOM      2  C   UNL     1       3.879   5.498   7.816  1.00  0.00     0.208 A 
ATOM      3  C   UNL     1       4.445   6.714   7.399  1.00  0.00     0.238 A 
ATOM      4  O   UNL     1       4.511   7.664   8.222  1.00  0.00    -0.285 OA
ATOM      5  C   UNL     1       4.886   6.863   6.062  1.00  0.00     0.111 A 
ATOM      6  C   UNL     1       5.511   8.036   5.540  1.00  0.00     0.134 A 
ATOM      7  C   UNL     1       5.788   8.119   4.170  1.00  0.00     0.093 A 
ATOM      8  C   UNL     1       5.522   7.047   3.314  1.00  0.00     0.123 A 
ATOM      9  C   UNL     1       4.967   5.877   3.825  1.00  0.00     0.094 A 
ATOM     10  C   UNL     1       4.646   5.776   5.180  1.00  0.00     0.146 A 
ATOM     11  O   UNL     1       4.110   4.646   5.623  1.00  0.00    -0.452 OA
ENDROOT
BRANCH   1  12
ATOM     12  C   UNL     1       3.182   3.135   7.258  1.00  0.00     0.029 A 
ATOM     13  C   UNL     1       1.999   3.032   8.009  1.00  0.00     0.062 A 
ATOM     14  C   UNL     1       1.493   1.776   8.372  1.00  0.00     0.162 A 
ATOM     15  C   UNL     1       3.872   1.964   6.905  1.00  0.00     0.062 A 
ATOM     16  C   UNL     1       2.175   0.611   7.997  1.00  0.00     0.200 A 
ATOM     17  C   UNL     1       3.370   0.705   7.264  1.00  0.00     0.162 A 
BRANCH  14  18
ATOM     18  O   UNL     1       0.316   1.679   9.110  1.00  0.00    -0.504 OA
ATOM     19  H   UNL     1       0.101   2.331   9.855  1.00  0.00     0.293 HD
ENDBRANCH  14  18
BRANCH  16  20
ATOM     20  O   UNL     1       1.654  -0.631   8.364  1.00  0.00    -0.502 OA
ATOM     21  H   UNL     1       0.823  -1.016   7.932  1.00  0.00     0.293 HD
ENDBRANCH  16  20
BRANCH  17  22
ATOM     22  O   UNL     1       4.056  -0.452   6.896  1.00  0.00    -0.504 OA
ATOM     23  H   UNL     1       4.361  -1.129   7.585  1.00  0.00     0.293 HD
ENDBRANCH  17  22
ENDBRANCH   1  12
BRANCH   2  24
ATOM     24  O   UNL     1       3.417   5.338   9.125  1.00  0.00    -0.502 OA
ATOM     25  H   UNL     1       3.203   4.430   9.519  1.00  0.00     0.293 HD
ENDBRANCH   2  24
BRANCH   6  26
ATOM     26  O   UNL     1       5.902   9.125   6.324  1.00  0.00    -0.507 OA
ATOM     27  H   UNL     1       5.526   9.343   7.234  1.00  0.00     0.293 HD
ENDBRANCH   6  26
BRANCH   8  28
ATOM     28  O   UNL     1       5.816   7.134   1.956  1.00  0.00    -0.508 OA
ATOM     29  H   UNL     1       6.691   6.788   1.578  1.00  0.00     0.293 HD
ENDBRANCH   8  28
TORSDOF 7
ENDMDL
MODEL 6
REMARK VINA RESULT:    -1.392      1.710      7.305
REMARK INTER + INTRA:          -1.768
REMARK INTER:                  -1.476
REMARK INTRA:                  -0.292
REMARK UNBOUND:                -0.051
REMARK SMILES O=c1c(O)c(-c2cc(O)c(O)c(O)c2)oc2cc(O)cc(O)c12
REMARK SMILES IDX 5 1 3 2 2 3 1 4 23 5 21 6 20 7 18 8 17 9 16 10 15 11 6 12
REMARK SMILES IDX 7 13 8 14 14 15 10 16 12 17 9 18 11 20 13 22 4 24 22 26
REMARK SMILES IDX 19 28
REMARK H PARENT 9 19 11 21 13 23 4 25 22 27 19 29
REMARK Flexibility Score: inf
ROOT
ATOM      1  C   UNL     1       3.310   5.951   6.691  1.00  0.00     0.180 A 
ATOM      2  C   UNL     1       3.458   4.560   6.839  1.00  0.00     0.208 A 
ATOM      3  C   UNL     1       2.448   3.834   7.489  1.00  0.00     0.238 A 
ATOM      4  O   UNL     1       2.561   2.583   7.571  1.00  0.00    -0.285 OA
ATOM      5  C   UNL     1       1.311   4.507   7.998  1.00  0.00     0.111 A 
ATOM      6  C   UNL     1       0.246   3.877   8.710  1.00  0.00     0.134 A 
ATOM      7  C   UNL     1      -0.890   4.620   9.052  1.00  0.00     0.093 A 
ATOM      8  C   UNL     1      -0.972   5.985   8.766  1.00  0.00     0.123 A 
ATOM      9  C   UNL     1       0.088   6.621   8.125  1.00  0.00     0.094 A 
ATOM     10  C   UNL     1       1.219   5.900   7.738  1.00  0.00     0.146 A 
ATOM     11  O   UNL     1       2.202   6.544   7.120  1.00  0.00    -0.452 OA
ENDROOT
BRANCH   1  12
ATOM     12  C   UNL     1       4.343   6.788   6.038  1.00  0.00     0.029 A 
ATOM     13  C   UNL     1       4.519   6.777   4.644  1.00  0.00     0.062 A 
ATOM     14  C   UNL     1       5.518   7.557   4.047  1.00  0.00     0.162 A 
ATOM     15  C   UNL     1       5.204   7.563   6.830  1.00  0.00     0.062 A 
ATOM     16  C   UNL     1       6.359   8.346   4.841  1.00  0.00     0.200 A 
ATOM     17  C   UNL     1       6.205   8.347   6.238  1.00  0.00     0.162 A 
BRANCH  14  18
ATOM     18  O   UNL     1       5.684   7.550   2.663  1.00  0.00    -0.504 OA
ATOM     19  H   UNL     1       5.699   8.409   2.126  1.00  0.00     0.293 HD
ENDBRANCH  14  18
BRANCH  16  20
ATOM     20  O   UNL     1       7.346   9.120   4.229  1.00  0.00    -0.502 OA
ATOM     21  H   UNL     1       8.223   9.338   4.687  1.00  0.00     0.293 HD
ENDBRANCH  16  20
BRANCH  17  22
ATOM     22  O   UNL     1       7.046   9.125   7.033  1.00  0.00    -0.504 OA
ATOM     23  H   UNL     1       7.663   8.707   7.719  1.00  0.00     0.293 HD
ENDBRANCH  17  22
ENDBRANCH   1  12
BRANCH   2  24
ATOM     24  O   UNL     1       4.577   3.913   6.311  1.00  0.00    -0.502 OA
ATOM     25  H   UNL     1       5.328   3.562   6.892  1.00  0.00     0.293 HD
ENDBRANCH   2  24
BRANCH   6  26
ATOM     26  O   UNL     1       0.269   2.542   9.125  1.00  0.00    -0.507 OA
ATOM     27  H   UNL     1       0.136   1.748   8.517  1.00  0.00     0.293 HD
ENDBRANCH   6  26
BRANCH   8  28
ATOM     28  O   UNL     1      -2.100   6.719   9.125  1.00  0.00    -0.508 OA
ATOM     29  H   UNL     1      -2.390   7.537   8.602  1.00  0.00     0.293 HD
ENDBRANCH   8  28
TORSDOF 7
ENDMDL
MODEL 7
REMARK VINA RESULT:    -1.161      1.329      2.488
REMARK INTER + INTRA:          -1.484
REMARK INTER:                  -1.494
REMARK INTRA:                   0.011
REMARK UNBOUND:                -0.051
REMARK SMILES O=c1c(O)c(-c2cc(O)c(O)c(O)c2)oc2cc(O)cc(O)c12
REMARK SMILES IDX 5 1 3 2 2 3 1 4 23 5 21 6 20 7 18 8 17 9 16 10 15 11 6 12
REMARK SMILES IDX 7 13 8 14 14 15 10 16 12 17 9 18 11 20 13 22 4 24 22 26
REMARK SMILES IDX 19 28
REMARK H PARENT 9 19 11 21 13 23 4 25 22 27 19 29
REMARK Flexibility Score: inf
ROOT
ATOM      1  C   UNL     1       2.436   7.612   6.554  1.00  0.00     0.180 A 
ATOM      2  C   UNL     1       2.908   7.939   7.838  1.00  0.00     0.208 A 
ATOM      3  C   UNL     1       4.228   8.398   7.981  1.00  0.00     0.238 A 
ATOM      4  O   UNL     1       4.628   8.739   9.124  1.00  0.00    -0.285 OA
ATOM      5  C   UNL     1       5.063   8.508   6.843  1.00  0.00     0.111 A 
ATOM      6  C   UNL     1       6.428   8.924   6.876  1.00  0.00     0.134 A 
ATOM      7  C   UNL     1       7.119   9.122   5.675  1.00  0.00     0.093 A 
ATOM      8  C   UNL     1       6.514   8.858   4.443  1.00  0.00     0.123 A 
ATOM      9  C   UNL     1       5.201   8.396   4.403  1.00  0.00     0.094 A 
ATOM     10  C   UNL     1       4.474   8.222   5.583  1.00  0.00     0.146 A 
ATOM     11  O   UNL     1       3.222   7.790   5.499  1.00  0.00    -0.452 OA
ENDROOT
BRANCH   1  12
ATOM     12  C   UNL     1       1.065   7.100   6.327  1.00  0.00     0.029 A 
ATOM     13  C   UNL     1       0.217   7.678   5.367  1.00  0.00     0.062 A 
ATOM     14  C   UNL     1      -1.085   7.195   5.184  1.00  0.00     0.162 A 
ATOM     15  C   UNL     1       0.579   6.054   7.126  1.00  0.00     0.062 A 
ATOM     16  C   UNL     1      -1.556   6.135   5.969  1.00  0.00     0.200 A 
ATOM     17  C   UNL     1      -0.724   5.564   6.946  1.00  0.00     0.162 A 
BRANCH  14  18
ATOM     18  O   UNL     1      -1.920   7.766   4.226  1.00  0.00    -0.504 OA
ATOM     19  H   UNL     1      -2.210   7.253   3.401  1.00  0.00     0.293 HD
ENDBRANCH  14  18
BRANCH  16  20
ATOM     20  O   UNL     1      -2.855   5.664   5.770  1.00  0.00    -0.502 OA
ATOM     21  H   UNL     1      -3.067   4.935   5.101  1.00  0.00     0.293 HD
ENDBRANCH  16  20
BRANCH  17  22
ATOM     22  O   UNL     1      -1.191   4.515   7.736  1.00  0.00    -0.504 OA
ATOM     23  H   UNL     1      -2.147   4.185   7.668  1.00  0.00     0.293 HD
ENDBRANCH  17  22
ENDBRANCH   1  12
BRANCH   2  24
ATOM     24  O   UNL     1       2.062   7.843   8.944  1.00  0.00    -0.502 OA
ATOM     25  H   UNL     1       2.402   7.627   9.873  1.00  0.00     0.293 HD
ENDBRANCH   2  24
BRANCH   6  26
ATOM     26  O   UNL     1       7.153   9.125   8.054  1.00  0.00    -0.507 OA
ATOM     27  H   UNL     1       6.746   9.203   8.974  1.00  0.00     0.293 HD
ENDBRANCH   6  26
BRANCH   8  28
ATOM     28  O   UNL     1       7.215   9.043   3.254  1.00  0.00    -0.508 OA
ATOM     29  H   UNL     1       6.783   8.878   2.352  1.00  0.00     0.293 HD
ENDBRANCH   8  28
TORSDOF 7
ENDMDL
