MODEL 1
REMARK VINA RESULT:    -4.943      0.000      0.000
REMARK INTER + INTRA:          -5.465
REMARK INTER:                  -5.376
REMARK INTRA:                  -0.089
REMARK UNBOUND:                -0.089
REMARK SMILES CC(=O)[C@@H]1CC[C@@H]2[C@H]3CC=C4C[C@@H](O)CC[C@]4(C)[C@H]3CC[C@@]21C
REMARK SMILES IDX 4 1 5 2 6 3 7 4 22 5 21 6 20 7 19 8 8 9 9 10 10 11 11 12
REMARK SMILES IDX 17 13 16 14 15 15 13 16 12 17 18 18 23 19 2 20 1 21 3 22
REMARK SMILES IDX 14 23
REMARK H PARENT 14 24
REMARK Flexibility Score: inf
ROOT
ATOM      1  C   UNL     1       1.571  10.859  46.596  1.00  0.00     0.062 C 
ATOM      2  C   UNL     1       0.314  10.208  46.039  1.00  0.00     0.012 C 
ATOM      3  C   UNL     1      -0.810  11.031  46.629  1.00  0.00     0.005 C 
ATOM      4  C   UNL     1      -0.315  12.488  46.591  1.00  0.00    -0.001 C 
ATOM      5  C   UNL     1       1.252  12.390  46.667  1.00  0.00    -0.020 C 
ATOM      6  C   UNL     1       1.925  13.180  45.507  1.00  0.00     0.008 C 
ATOM      7  C   UNL     1       1.355  14.591  45.373  1.00  0.00     0.005 C 
ATOM      8  C   UNL     1      -0.151  14.584  45.005  1.00  0.00     0.003 C 
ATOM      9  C   UNL     1      -0.873  13.232  45.326  1.00  0.00     0.000 C 
ATOM     10  C   UNL     1      -2.423  13.364  45.386  1.00  0.00     0.031 C 
ATOM     11  C   UNL     1      -2.981  14.625  44.786  1.00  0.00    -0.027 C 
ATOM     12  C   UNL     1      -2.338  15.806  44.860  1.00  0.00    -0.065 C 
ATOM     13  C   UNL     1      -0.930  15.875  45.458  1.00  0.00    -0.008 C 
ATOM     14  C   UNL     1      -0.170  17.131  44.916  1.00  0.00     0.014 C 
ATOM     15  C   UNL     1      -1.020  18.402  44.869  1.00  0.00     0.033 C 
ATOM     16  C   UNL     1      -2.248  18.183  43.989  1.00  0.00     0.118 C 
ATOM     17  C   UNL     1      -3.125  17.070  44.570  1.00  0.00     0.063 C 
ATOM     18  C   UNL     1      -1.059  15.978  46.999  1.00  0.00     0.016 C 
ATOM     19  C   UNL     1       1.751  12.938  48.029  1.00  0.00     0.012 C 
ENDROOT
BRANCH   1  20
ATOM     20  C   UNL     1       2.863  10.482  45.885  1.00  0.00     0.133 C 
ATOM     21  C   UNL     1       4.220  10.876  46.400  1.00  0.00     0.088 C 
ATOM     22  O   UNL     1       2.795   9.849  44.841  1.00  0.00    -0.300 OA
ENDBRANCH   1  20
BRANCH  16  23
ATOM     23  O   UNL     1      -2.980  19.378  43.916  1.00  0.00    -0.393 OA
ATOM     24  H   UNL     1      -2.560  19.930  43.206  1.00  0.00     0.210 HD
ENDBRANCH  16  23
TORSDOF 2
ENDMDL
MODEL 2
REMARK VINA RESULT:    -3.092      1.040      1.104
REMARK INTER + INTRA:          -3.452
REMARK INTER:                  -3.299
REMARK INTRA:                  -0.153
REMARK UNBOUND:                -0.089
REMARK SMILES CC(=O)[C@@H]1CC[C@@H]2[C@H]3CC=C4C[C@@H](O)CC[C@]4(C)[C@H]3CC[C@@]21C
REMARK SMILES IDX 4 1 5 2 6 3 7 4 22 5 21 6 20 7 19 8 8 9 9 10 10 11 11 12
REMARK SMILES IDX 17 13 16 14 15 15 13 16 12 17 18 18 23 19 2 20 1 21 3 22
REMARK SMILES IDX 14 23
REMARK H PARENT 14 24
REMARK Flexibility Score: inf
ROOT
ATOM      1  C   UNL     1       2.507  11.162  46.979  1.00  0.00     0.062 C 
ATOM      2  C   UNL     1       1.555  10.318  46.144  1.00  0.00     0.012 C 
ATOM      3  C   UNL     1       0.187  10.849  46.510  1.00  0.00     0.005 C 
ATOM      4  C   UNL     1       0.357  12.374  46.632  1.00  0.00    -0.001 C 
ATOM      5  C   UNL     1       1.861  12.588  47.036  1.00  0.00    -0.020 C 
ATOM      6  C   UNL     1       2.569  13.587  46.076  1.00  0.00     0.008 C 
ATOM      7  C   UNL     1       1.750  14.860  45.875  1.00  0.00     0.005 C 
ATOM      8  C   UNL     1       0.385  14.580  45.194  1.00  0.00     0.003 C 
ATOM      9  C   UNL     1      -0.081  13.090  45.305  1.00  0.00     0.000 C 
ATOM     10  C   UNL     1      -1.603  12.902  45.038  1.00  0.00     0.031 C 
ATOM     11  C   UNL     1      -2.286  14.069  44.379  1.00  0.00    -0.027 C 
ATOM     12  C   UNL     1      -1.937  15.345  44.630  1.00  0.00    -0.065 C 
ATOM     13  C   UNL     1      -0.726  15.648  45.517  1.00  0.00    -0.008 C 
ATOM     14  C   UNL     1      -0.159  17.070  45.195  1.00  0.00     0.014 C 
ATOM     15  C   UNL     1      -1.234  18.144  45.014  1.00  0.00     0.033 C 
ATOM     16  C   UNL     1      -2.184  17.754  43.885  1.00  0.00     0.118 C 
ATOM     17  C   UNL     1      -2.901  16.444  44.226  1.00  0.00     0.063 C 
ATOM     18  C   UNL     1      -1.181  15.599  46.997  1.00  0.00     0.016 C 
ATOM     19  C   UNL     1       1.948  13.114  48.492  1.00  0.00     0.012 C 
ENDROOT
BRANCH   1  20
ATOM     20  C   UNL     1       3.966  11.111  46.547  1.00  0.00     0.133 C 
ATOM     21  C   UNL     1       4.408  10.491  45.251  1.00  0.00     0.088 C 
ATOM     22  O   UNL     1       4.815  11.577  47.293  1.00  0.00    -0.300 OA
ENDBRANCH   1  20
BRANCH  16  23
ATOM     23  O   UNL     1      -3.124  18.779  43.701  1.00  0.00    -0.393 OA
ATOM     24  H   UNL     1      -2.746  19.595  44.122  1.00  0.00     0.210 HD
ENDBRANCH  16  23
TORSDOF 2
ENDMDL
MODEL 3
REMARK VINA RESULT:    -2.646      1.817      6.706
REMARK INTER + INTRA:          -2.966
REMARK INTER:                  -3.003
REMARK INTRA:                   0.037
REMARK UNBOUND:                -0.089
REMARK SMILES CC(=O)[C@@H]1CC[C@@H]2[C@H]3CC=C4C[C@@H](O)CC[C@]4(C)[C@H]3CC[C@@]21C
REMARK SMILES IDX 4 1 5 2 6 3 7 4 22 5 21 6 20 7 19 8 8 9 9 10 10 11 11 12
REMARK SMILES IDX 17 13 16 14 15 15 13 16 12 17 18 18 23 19 2 20 1 21 3 22
REMARK SMILES IDX 14 23
REMARK H PARENT 14 24
REMARK Flexibility Score: inf
ROOT
ATOM      1  C   UNL     1      -2.387  15.916  45.017  1.00  0.00     0.062 C 
ATOM      2  C   UNL     1      -3.125  14.622  45.327  1.00  0.00     0.012 C 
ATOM      3  C   UNL     1      -2.211  13.547  44.782  1.00  0.00     0.005 C 
ATOM      4  C   UNL     1      -0.783  14.011  45.118  1.00  0.00    -0.001 C 
ATOM      5  C   UNL     1      -0.867  15.580  45.181  1.00  0.00    -0.020 C 
ATOM      6  C   UNL     1      -0.290  16.125  46.519  1.00  0.00     0.008 C 
ATOM      7  C   UNL     1       1.076  15.521  46.838  1.00  0.00     0.005 C 
ATOM      8  C   UNL     1       1.006  13.987  47.051  1.00  0.00     0.003 C 
ATOM      9  C   UNL     1      -0.270  13.322  46.432  1.00  0.00     0.000 C 
ATOM     10  C   UNL     1      -0.130  11.783  46.245  1.00  0.00     0.031 C 
ATOM     11  C   UNL     1       1.008  11.148  46.996  1.00  0.00    -0.027 C 
ATOM     12  C   UNL     1       2.184  11.776  47.191  1.00  0.00    -0.065 C 
ATOM     13  C   UNL     1       2.356  13.234  46.754  1.00  0.00    -0.008 C 
ATOM     14  C   UNL     1       3.498  13.916  47.576  1.00  0.00     0.014 C 
ATOM     15  C   UNL     1       4.743  13.044  47.758  1.00  0.00     0.033 C 
ATOM     16  C   UNL     1       4.374  11.741  48.464  1.00  0.00     0.118 C 
ATOM     17  C   UNL     1       3.378  10.943  47.615  1.00  0.00     0.063 C 
ATOM     18  C   UNL     1       2.725  13.251  45.249  1.00  0.00     0.016 C 
ATOM     19  C   UNL     1      -0.091  16.198  43.988  1.00  0.00     0.012 C 
ENDROOT
BRANCH   1  20
ATOM     20  C   UNL     1      -2.882  17.140  45.775  1.00  0.00     0.133 C 
ATOM     21  C   UNL     1      -3.062  18.483  45.123  1.00  0.00     0.088 C 
ATOM     22  O   UNL     1      -3.125  17.031  46.968  1.00  0.00    -0.300 OA
ENDBRANCH   1  20
BRANCH  16  23
ATOM     23  O   UNL     1       5.538  10.985  48.670  1.00  0.00    -0.393 OA
ATOM     24  H   UNL     1       5.673  10.927  49.651  1.00  0.00     0.210 HD
ENDBRANCH  16  23
TORSDOF 2
ENDMDL
MODEL 4
REMARK VINA RESULT:    -2.400      1.562      6.841
REMARK INTER + INTRA:          -2.700
REMARK INTER:                  -3.260
REMARK INTRA:                   0.560
REMARK UNBOUND:                -0.089
REMARK SMILES CC(=O)[C@@H]1CC[C@@H]2[C@H]3CC=C4C[C@@H](O)CC[C@]4(C)[C@H]3CC[C@@]21C
REMARK SMILES IDX 4 1 5 2 6 3 7 4 22 5 21 6 20 7 19 8 8 9 9 10 10 11 11 12
REMARK SMILES IDX 17 13 16 14 15 15 13 16 12 17 18 18 23 19 2 20 1 21 3 22
REMARK SMILES IDX 14 23
REMARK H PARENT 14 24
REMARK Flexibility Score: inf
ROOT
ATOM      1  C   UNL     1      -2.604  16.210  45.111  1.00  0.00     0.062 C 
ATOM      2  C   UNL     1      -1.728  17.233  45.819  1.00  0.00     0.012 C 
ATOM      3  C   UNL     1      -1.221  16.494  47.037  1.00  0.00     0.005 C 
ATOM      4  C   UNL     1      -0.929  15.061  46.556  1.00  0.00    -0.001 C 
ATOM      5  C   UNL     1      -1.904  14.829  45.346  1.00  0.00    -0.020 C 
ATOM      6  C   UNL     1      -1.135  14.343  44.083  1.00  0.00     0.008 C 
ATOM      7  C   UNL     1      -0.187  13.189  44.403  1.00  0.00     0.005 C 
ATOM      8  C   UNL     1       0.930  13.602  45.395  1.00  0.00     0.003 C 
ATOM      9  C   UNL     1       0.596  14.888  46.222  1.00  0.00     0.000 C 
ATOM     10  C   UNL     1       1.475  15.043  47.497  1.00  0.00     0.031 C 
ATOM     11  C   UNL     1       2.703  14.175  47.537  1.00  0.00    -0.027 C 
ATOM     12  C   UNL     1       2.727  12.934  47.014  1.00  0.00    -0.065 C 
ATOM     13  C   UNL     1       1.518  12.408  46.235  1.00  0.00    -0.008 C 
ATOM     14  C   UNL     1       1.958  11.275  45.250  1.00  0.00     0.014 C 
ATOM     15  C   UNL     1       2.947  10.274  45.853  1.00  0.00     0.033 C 
ATOM     16  C   UNL     1       4.206  10.997  46.325  1.00  0.00     0.118 C 
ATOM     17  C   UNL     1       3.856  12.008  47.422  1.00  0.00     0.063 C 
ATOM     18  C   UNL     1       0.495  11.838  47.250  1.00  0.00     0.016 C 
ATOM     19  C   UNL     1      -2.984  13.784  45.731  1.00  0.00     0.012 C 
ENDROOT
BRANCH   1  20
ATOM     20  C   UNL     1      -2.949  16.542  43.666  1.00  0.00     0.133 C 
ATOM     21  C   UNL     1      -3.107  17.953  43.172  1.00  0.00     0.088 C 
ATOM     22  O   UNL     1      -3.125  15.623  42.880  1.00  0.00    -0.300 OA
ENDBRANCH   1  20
BRANCH  16  23
ATOM     23  O   UNL     1       5.119  10.053  46.821  1.00  0.00    -0.393 OA
ATOM     24  H   UNL     1       5.061  10.090  47.811  1.00  0.00     0.210 HD
ENDBRANCH  16  23
TORSDOF 2
ENDMDL
