MODEL 1
REMARK VINA RESULT:    45.601      0.000      0.000
REMARK INTER + INTRA:          76.068
REMARK INTER:                  72.259
REMARK INTRA:                   3.808
REMARK UNBOUND:                 3.808
REMARK SMILES C[C@H]1O[C@@H](O[C@H]2[C@@H](Oc3cc(O)c4c(c3)O[C@H](c3ccc(O)cc3)CC4=O)O[C@@H](CO)[C@@H](O)[C@H]2O)[C@H](O)[C@@H](O)[C@H]1O
REMARK SMILES IDX 6 1 34 2 32 3 29 4 28 5 7 6 5 7 4 8 1 9 2 10 40 11 3 12
REMARK SMILES IDX 38 13 36 14 41 15 39 17 37 19 35 21 8 23 9 24 10 25 15 26
REMARK SMILES IDX 11 27 14 28 13 29 16 30 26 31 17 32 27 33 25 34 12 35 18 37
REMARK SMILES IDX 19 38 24 39 20 40 23 41 21 42 22 43 33 45 30 47 31 48
REMARK H PARENT 41 16 39 18 37 20 35 22 12 36 22 44 33 46 31 49
REMARK Flexibility Score: inf
ROOT
ATOM      1  C   UNL     1     -49.926  40.742  14.402  1.00  0.00     0.221 C 
ATOM      2  C   UNL     1     -49.563  42.161  14.866  1.00  0.00     0.181 C 
ATOM      3  C   UNL     1     -48.317  42.093  15.768  1.00  0.00     0.177 C 
ATOM      4  C   UNL     1     -47.170  41.218  15.186  1.00  0.00     0.179 C 
ATOM      5  O   UNL     1     -47.610  39.970  14.653  1.00  0.00    -0.332 OA
ATOM      6  C   UNL     1     -48.703  40.058  13.751  1.00  0.00     0.339 C 
ENDROOT
BRANCH   1   7
ATOM      7  O   UNL     1     -51.012  40.811  13.485  1.00  0.00    -0.337 OA
BRANCH   7   8
ATOM      8  C   UNL     1     -52.222  41.227  14.102  1.00  0.00     0.282 C 
ATOM      9  C   UNL     1     -52.637  40.813  11.028  1.00  0.00     0.041 C 
ATOM     10  C   UNL     1     -53.589  41.311  12.131  1.00  0.00     0.150 C 
ATOM     11  C   UNL     1     -53.729  42.849  12.214  1.00  0.00     0.174 C 
ATOM     12  O   UNL     1     -53.339  40.700  13.393  1.00  0.00    -0.344 OA
ATOM     13  C   UNL     1     -52.542  43.492  12.938  1.00  0.00     0.179 C 
ATOM     14  C   UNL     1     -52.290  42.774  14.272  1.00  0.00     0.202 C 
BRANCH  11  15
ATOM     15  O   UNL     1     -53.879  43.397  10.928  1.00  0.00    -0.388 OA
ATOM     16  H   UNL     1     -53.006  43.800  10.684  1.00  0.00     0.211 HD
ENDBRANCH  11  15
BRANCH  13  17
ATOM     17  O   UNL     1     -51.395  43.440  12.128  1.00  0.00    -0.387 OA
ATOM     18  H   UNL     1     -50.614  43.330  12.731  1.00  0.00     0.211 HD
ENDBRANCH  13  17
BRANCH  14  19
ATOM     19  O   UNL     1     -53.261  43.146  15.223  1.00  0.00    -0.385 OA
ATOM     20  H   UNL     1     -53.341  42.415  15.893  1.00  0.00     0.211 HD
ENDBRANCH  14  19
ENDBRANCH   7   8
ENDBRANCH   1   7
BRANCH   2  21
ATOM     21  O   UNL     1     -49.350  43.008  13.765  1.00  0.00    -0.387 OA
ATOM     22  H   UNL     1     -49.251  43.931  14.121  1.00  0.00     0.211 HD
ENDBRANCH   2  21
BRANCH   6  23
ATOM     23  O   UNL     1     -48.294  40.708  12.545  1.00  0.00    -0.462 OA
BRANCH  23  24
ATOM     24  C   UNL     1     -47.069  40.552  11.879  1.00  0.00     0.130 A 
ATOM     25  C   UNL     1     -46.967  40.371  10.488  1.00  0.00     0.093 A 
ATOM     26  C   UNL     1     -45.908  40.549  12.655  1.00  0.00     0.094 A 
ATOM     27  C   UNL     1     -45.719  40.174   9.885  1.00  0.00     0.133 A 
ATOM     28  C   UNL     1     -44.652  40.425  12.060  1.00  0.00     0.138 A 
ATOM     29  C   UNL     1     -44.541  40.249  10.669  1.00  0.00     0.102 A 
ATOM     30  O   UNL     1     -43.509  40.499  12.871  1.00  0.00    -0.484 OA
ATOM     31  C   UNL     1     -43.175  40.201  10.104  1.00  0.00     0.174 C 
ATOM     32  C   UNL     1     -42.175  40.607  12.360  1.00  0.00     0.211 C 
ATOM     33  O   UNL     1     -42.955  40.462   8.893  1.00  0.00    -0.294 OA
ATOM     34  C   UNL     1     -42.027  39.876  11.014  1.00  0.00     0.131 C 
BRANCH  27  35
ATOM     35  O   UNL     1     -45.693  39.875   8.522  1.00  0.00    -0.507 OA
ATOM     36  H   UNL     1     -46.166  40.434   7.829  1.00  0.00     0.293 HD
ENDBRANCH  27  35
BRANCH  32  37
ATOM     37  C   UNL     1     -41.739  42.057  12.262  1.00  0.00    -0.007 A 
ATOM     38  C   UNL     1     -42.590  43.115  12.639  1.00  0.00     0.011 A 
ATOM     39  C   UNL     1     -40.469  42.363  11.736  1.00  0.00     0.011 A 
ATOM     40  C   UNL     1     -42.167  44.442  12.519  1.00  0.00     0.046 A 
ATOM     41  C   UNL     1     -40.049  43.691  11.618  1.00  0.00     0.046 A 
ATOM     42  C   UNL     1     -40.897  44.734  12.014  1.00  0.00     0.115 A 
BRANCH  42  43
ATOM     43  O   UNL     1     -40.487  46.061  11.906  1.00  0.00    -0.508 OA
ATOM     44  H   UNL     1     -39.546  46.304  11.622  1.00  0.00     0.293 HD
ENDBRANCH  42  43
ENDBRANCH  32  37
ENDBRANCH  23  24
ENDBRANCH   6  23
BRANCH   3  45
ATOM     45  O   UNL     1     -47.871  43.369  16.159  1.00  0.00    -0.387 OA
ATOM     46  H   UNL     1     -46.915  43.304  16.409  1.00  0.00     0.211 HD
ENDBRANCH   3  45
BRANCH   4  47
ATOM     47  C   UNL     1     -46.136  41.921  14.276  1.00  0.00     0.191 C 
BRANCH  47  48
ATOM     48  O   UNL     1     -45.279  42.765  14.992  1.00  0.00    -0.394 OA
ATOM     49  H   UNL     1     -45.245  43.622  14.489  1.00  0.00     0.210 HD
ENDBRANCH  47  48
ENDBRANCH   4  47
TORSDOF 14
ENDMDL
