MODEL 1
REMARK VINA RESULT:    -4.677      0.000      0.000
REMARK INTER + INTRA:          -7.620
REMARK INTER:                  -7.138
REMARK INTRA:                  -0.482
REMARK UNBOUND:                -0.482
REMARK SMILES CCCCCCCCCC=CC(=O)[O-]
REMARK SMILES IDX 7 1 8 2 9 3 10 4 11 5 12 6 13 7 14 8 6 9 5 10 4 11 3 12 2 13
REMARK SMILES IDX 1 14
REMARK H PARENT
REMARK Flexibility Score: inf
ROOT
ATOM      1  C   UNL     1      19.064 -24.412  14.551  1.00  0.00     0.000 C 
ENDROOT
BRANCH   1   2
ATOM      2  C   UNL     1      20.291 -23.800  15.247  1.00  0.00     0.004 C 
BRANCH   2   3
ATOM      3  C   UNL     1      20.110 -23.677  16.767  1.00  0.00     0.027 C 
BRANCH   3   4
ATOM      4  C   UNL     1      21.432 -23.511  17.459  1.00  0.00    -0.025 C 
ATOM      5  C   UNL     1      22.574 -23.410  16.770  1.00  0.00     0.020 C 
BRANCH   5   6
ATOM      6  C   UNL     1      23.878 -23.233  17.427  1.00  0.00     0.064 C 
ATOM      7  O   UNL     1      24.868 -23.946  17.112  1.00  0.00    -0.545 OA
ATOM      8  O   UNL     1      24.021 -22.263  18.410  1.00  0.00    -0.545 OA
ENDBRANCH   5   6
ENDBRANCH   3   4
ENDBRANCH   2   3
ENDBRANCH   1   2
BRANCH   1   9
ATOM      9  C   UNL     1      18.145 -25.166  15.525  1.00  0.00     0.000 C 
BRANCH   9  10
ATOM     10  C   UNL     1      16.669 -24.959  15.156  1.00  0.00     0.000 C 
BRANCH  10  11
ATOM     11  C   UNL     1      15.732 -25.018  16.376  1.00  0.00    -0.000 C 
BRANCH  11  12
ATOM     12  C   UNL     1      15.898 -26.267  17.266  1.00  0.00    -0.000 C 
BRANCH  12  13
ATOM     13  C   UNL     1      14.693 -26.587  18.167  1.00  0.00    -0.003 C 
ATOM     14  C   UNL     1      13.425 -26.904  17.375  1.00  0.00     0.004 C 
ENDBRANCH  12  13
ENDBRANCH  11  12
ENDBRANCH  10  11
ENDBRANCH   9  10
ENDBRANCH   1   9
TORSDOF 9
ENDMDL
MODEL 2
REMARK VINA RESULT:    -4.660     16.146     17.950
REMARK INTER + INTRA:          -7.594
REMARK INTER:                  -6.216
REMARK INTRA:                  -1.378
REMARK UNBOUND:                -0.482
REMARK SMILES CCCCCCCCCC=CC(=O)[O-]
REMARK SMILES IDX 7 1 8 2 9 3 10 4 11 5 12 6 13 7 14 8 6 9 5 10 4 11 3 12 2 13
REMARK SMILES IDX 1 14
REMARK H PARENT
REMARK Flexibility Score: inf
ROOT
ATOM      1  C   UNL     1      28.854 -36.590  28.695  1.00  0.00     0.000 C 
ENDROOT
BRANCH   1   2
ATOM      2  C   UNL     1      30.201 -35.876  28.491  1.00  0.00     0.004 C 
BRANCH   2   3
ATOM      3  C   UNL     1      30.050 -34.353  28.368  1.00  0.00     0.027 C 
BRANCH   3   4
ATOM      4  C   UNL     1      30.294 -33.895  26.958  1.00  0.00    -0.025 C 
ATOM      5  C   UNL     1      31.095 -34.577  26.132  1.00  0.00     0.020 C 
BRANCH   5   6
ATOM      6  C   UNL     1      31.336 -34.155  24.742  1.00  0.00     0.064 C 
ATOM      7  O   UNL     1      30.391 -33.766  24.006  1.00  0.00    -0.545 OA
ATOM      8  O   UNL     1      32.628 -34.189  24.234  1.00  0.00    -0.545 OA
ENDBRANCH   5   6
ENDBRANCH   3   4
ENDBRANCH   2   3
ENDBRANCH   1   2
BRANCH   1   9
ATOM      9  C   UNL     1      28.016 -35.963  29.819  1.00  0.00     0.000 C 
BRANCH   9  10
ATOM     10  C   UNL     1      26.523 -36.270  29.625  1.00  0.00     0.000 C 
BRANCH  10  11
ATOM     11  C   UNL     1      25.938 -35.623  28.357  1.00  0.00    -0.000 C 
BRANCH  11  12
ATOM     12  C   UNL     1      26.243 -34.120  28.191  1.00  0.00    -0.000 C 
BRANCH  12  13
ATOM     13  C   UNL     1      26.583 -33.681  26.757  1.00  0.00    -0.003 C 
ATOM     14  C   UNL     1      26.982 -34.849  25.855  1.00  0.00     0.004 C 
ENDBRANCH  12  13
ENDBRANCH  11  12
ENDBRANCH  10  11
ENDBRANCH   9  10
ENDBRANCH   1   9
TORSDOF 9
ENDMDL
MODEL 3
REMARK VINA RESULT:    -4.470     15.546     17.363
REMARK INTER + INTRA:          -7.303
REMARK INTER:                  -5.765
REMARK INTRA:                  -1.539
REMARK UNBOUND:                -0.482
REMARK SMILES CCCCCCCCCC=CC(=O)[O-]
REMARK SMILES IDX 7 1 8 2 9 3 10 4 11 5 12 6 13 7 14 8 6 9 5 10 4 11 3 12 2 13
REMARK SMILES IDX 1 14
REMARK H PARENT
REMARK Flexibility Score: inf
ROOT
ATOM      1  C   UNL     1      30.378 -35.020  27.971  1.00  0.00     0.000 C 
ENDROOT
BRANCH   1   2
ATOM      2  C   UNL     1      30.143 -33.883  26.964  1.00  0.00     0.004 C 
BRANCH   2   3
ATOM      3  C   UNL     1      30.996 -34.032  25.695  1.00  0.00     0.027 C 
BRANCH   3   4
ATOM      4  C   UNL     1      30.132 -34.209  24.479  1.00  0.00    -0.025 C 
ATOM      5  C   UNL     1      30.330 -35.219  23.624  1.00  0.00     0.020 C 
BRANCH   5   6
ATOM      6  C   UNL     1      29.488 -35.421  22.434  1.00  0.00     0.064 C 
ATOM      7  O   UNL     1      29.293 -34.490  21.608  1.00  0.00    -0.545 OA
ATOM      8  O   UNL     1      28.897 -36.659  22.219  1.00  0.00    -0.545 OA
ENDBRANCH   5   6
ENDBRANCH   3   4
ENDBRANCH   2   3
ENDBRANCH   1   2
BRANCH   1   9
ATOM      9  C   UNL     1      29.188 -35.986  28.063  1.00  0.00     0.000 C 
BRANCH   9  10
ATOM     10  C   UNL     1      29.168 -36.945  26.864  1.00  0.00     0.000 C 
BRANCH  10  11
ATOM     11  C   UNL     1      27.916 -36.778  25.983  1.00  0.00    -0.000 C 
BRANCH  11  12
ATOM     12  C   UNL     1      26.817 -35.875  26.577  1.00  0.00    -0.000 C 
BRANCH  12  13
ATOM     13  C   UNL     1      26.588 -34.551  25.829  1.00  0.00    -0.003 C 
ATOM     14  C   UNL     1      26.334 -33.372  26.767  1.00  0.00     0.004 C 
ENDBRANCH  12  13
ENDBRANCH  11  12
ENDBRANCH  10  11
ENDBRANCH   9  10
ENDBRANCH   1   9
TORSDOF 9
ENDMDL
MODEL 4
REMARK VINA RESULT:    -4.443     15.887     17.388
REMARK INTER + INTRA:          -7.263
REMARK INTER:                  -5.910
REMARK INTRA:                  -1.354
REMARK UNBOUND:                -0.482
REMARK SMILES CCCCCCCCCC=CC(=O)[O-]
REMARK SMILES IDX 7 1 8 2 9 3 10 4 11 5 12 6 13 7 14 8 6 9 5 10 4 11 3 12 2 13
REMARK SMILES IDX 1 14
REMARK H PARENT
REMARK Flexibility Score: inf
ROOT
ATOM      1  C   UNL     1      29.964 -34.243  28.783  1.00  0.00     0.000 C 
ENDROOT
BRANCH   1   2
ATOM      2  C   UNL     1      30.438 -34.862  27.457  1.00  0.00     0.004 C 
BRANCH   2   3
ATOM      3  C   UNL     1      30.300 -33.896  26.271  1.00  0.00     0.027 C 
BRANCH   3   4
ATOM      4  C   UNL     1      30.468 -34.615  24.963  1.00  0.00    -0.025 C 
ATOM      5  C   UNL     1      29.807 -34.231  23.866  1.00  0.00     0.020 C 
BRANCH   5   6
ATOM      6  C   UNL     1      29.967 -34.912  22.570  1.00  0.00     0.064 C 
ATOM      7  O   UNL     1      29.232 -34.624  21.588  1.00  0.00    -0.545 OA
ATOM      8  O   UNL     1      30.944 -35.888  22.428  1.00  0.00    -0.545 OA
ENDBRANCH   5   6
ENDBRANCH   3   4
ENDBRANCH   2   3
ENDBRANCH   1   2
BRANCH   1   9
ATOM      9  C   UNL     1      28.811 -35.030  29.425  1.00  0.00     0.000 C 
BRANCH   9  10
ATOM     10  C   UNL     1      27.568 -34.143  29.588  1.00  0.00     0.000 C 
BRANCH  10  11
ATOM     11  C   UNL     1      26.437 -34.510  28.610  1.00  0.00    -0.000 C 
BRANCH  11  12
ATOM     12  C   UNL     1      26.463 -33.751  27.268  1.00  0.00    -0.000 C 
BRANCH  12  13
ATOM     13  C   UNL     1      26.692 -34.631  26.028  1.00  0.00    -0.003 C 
ATOM     14  C   UNL     1      27.004 -36.086  26.379  1.00  0.00     0.004 C 
ENDBRANCH  12  13
ENDBRANCH  11  12
ENDBRANCH  10  11
ENDBRANCH   9  10
ENDBRANCH   1   9
TORSDOF 9
ENDMDL
MODEL 5
REMARK VINA RESULT:    -4.374     15.429     17.729
REMARK INTER + INTRA:          -7.157
REMARK INTER:                  -5.620
REMARK INTRA:                  -1.537
REMARK UNBOUND:                -0.482
REMARK SMILES CCCCCCCCCC=CC(=O)[O-]
REMARK SMILES IDX 7 1 8 2 9 3 10 4 11 5 12 6 13 7 14 8 6 9 5 10 4 11 3 12 2 13
REMARK SMILES IDX 1 14
REMARK H PARENT
REMARK Flexibility Score: inf
ROOT
ATOM      1  C   UNL     1      32.052 -34.234  25.037  1.00  0.00     0.000 C 
ENDROOT
BRANCH   1   2
ATOM      2  C   UNL     1      30.863 -33.953  25.971  1.00  0.00     0.004 C 
BRANCH   2   3
ATOM      3  C   UNL     1      30.436 -35.191  26.774  1.00  0.00     0.027 C 
BRANCH   3   4
ATOM      4  C   UNL     1      28.961 -35.441  26.643  1.00  0.00    -0.025 C 
ATOM      5  C   UNL     1      28.171 -34.610  25.955  1.00  0.00     0.020 C 
BRANCH   5   6
ATOM      6  C   UNL     1      26.726 -34.842  25.801  1.00  0.00     0.064 C 
ATOM      7  O   UNL     1      25.999 -34.028  25.172  1.00  0.00    -0.545 OA
ATOM      8  O   UNL     1      26.154 -35.977  26.360  1.00  0.00    -0.545 OA
ENDBRANCH   5   6
ENDBRANCH   3   4
ENDBRANCH   2   3
ENDBRANCH   1   2
BRANCH   1   9
ATOM      9  C   UNL     1      32.180 -35.721  24.671  1.00  0.00     0.000 C 
BRANCH   9  10
ATOM     10  C   UNL     1      32.377 -35.897  23.158  1.00  0.00     0.000 C 
BRANCH  10  11
ATOM     11  C   UNL     1      31.225 -36.668  22.489  1.00  0.00    -0.000 C 
BRANCH  11  12
ATOM     12  C   UNL     1      29.843 -36.476  23.146  1.00  0.00    -0.000 C 
BRANCH  12  13
ATOM     13  C   UNL     1      28.880 -35.557  22.377  1.00  0.00    -0.003 C 
ATOM     14  C   UNL     1      29.182 -34.072  22.581  1.00  0.00     0.004 C 
ENDBRANCH  12  13
ENDBRANCH  11  12
ENDBRANCH  10  11
ENDBRANCH   9  10
ENDBRANCH   1   9
TORSDOF 9
ENDMDL
MODEL 6
REMARK VINA RESULT:    -4.367     15.467     17.622
REMARK INTER + INTRA:          -7.146
REMARK INTER:                  -5.481
REMARK INTRA:                  -1.665
REMARK UNBOUND:                -0.482
REMARK SMILES CCCCCCCCCC=CC(=O)[O-]
REMARK SMILES IDX 7 1 8 2 9 3 10 4 11 5 12 6 13 7 14 8 6 9 5 10 4 11 3 12 2 13
REMARK SMILES IDX 1 14
REMARK H PARENT
REMARK Flexibility Score: inf
ROOT
ATOM      1  C   UNL     1      31.307 -35.677  26.294  1.00  0.00     0.000 C 
ENDROOT
BRANCH   1   2
ATOM      2  C   UNL     1      30.108 -35.782  27.252  1.00  0.00     0.004 C 
BRANCH   2   3
ATOM      3  C   UNL     1      28.995 -36.690  26.709  1.00  0.00     0.027 C 
BRANCH   3   4
ATOM      4  C   UNL     1      27.841 -35.882  26.190  1.00  0.00    -0.025 C 
ATOM      5  C   UNL     1      27.660 -34.607  26.555  1.00  0.00     0.020 C 
BRANCH   5   6
ATOM      6  C   UNL     1      26.545 -33.792  26.048  1.00  0.00     0.064 C 
ATOM      7  O   UNL     1      26.049 -32.864  26.741  1.00  0.00    -0.545 OA
ATOM      8  O   UNL     1      26.030 -34.050  24.784  1.00  0.00    -0.545 OA
ENDBRANCH   5   6
ENDBRANCH   3   4
ENDBRANCH   2   3
ENDBRANCH   1   2
BRANCH   1   9
ATOM      9  C   UNL     1      31.403 -34.303  25.614  1.00  0.00     0.000 C 
BRANCH   9  10
ATOM     10  C   UNL     1      31.285 -34.438  24.089  1.00  0.00     0.000 C 
BRANCH  10  11
ATOM     11  C   UNL     1      29.853 -34.204  23.575  1.00  0.00    -0.000 C 
BRANCH  11  12
ATOM     12  C   UNL     1      29.218 -35.404  22.843  1.00  0.00    -0.000 C 
BRANCH  12  13
ATOM     13  C   UNL     1      30.015 -36.717  22.935  1.00  0.00    -0.003 C 
ATOM     14  C   UNL     1      29.126 -37.938  23.170  1.00  0.00     0.004 C 
ENDBRANCH  12  13
ENDBRANCH  11  12
ENDBRANCH  10  11
ENDBRANCH   9  10
ENDBRANCH   1   9
TORSDOF 9
ENDMDL
MODEL 7
REMARK VINA RESULT:    -4.346      4.611      7.990
REMARK INTER + INTRA:          -7.114
REMARK INTER:                  -6.676
REMARK INTRA:                  -0.438
REMARK UNBOUND:                -0.482
REMARK SMILES CCCCCCCCCC=CC(=O)[O-]
REMARK SMILES IDX 7 1 8 2 9 3 10 4 11 5 12 6 13 7 14 8 6 9 5 10 4 11 3 12 2 13
REMARK SMILES IDX 1 14
REMARK H PARENT
REMARK Flexibility Score: inf
ROOT
ATOM      1  C   UNL     1      17.984 -24.064  15.406  1.00  0.00     0.000 C 
ENDROOT
BRANCH   1   2
ATOM      2  C   UNL     1      17.303 -24.522  16.707  1.00  0.00     0.004 C 
BRANCH   2   3
ATOM      3  C   UNL     1      16.835 -25.983  16.646  1.00  0.00     0.027 C 
BRANCH   3   4
ATOM      4  C   UNL     1      15.842 -26.280  17.733  1.00  0.00    -0.025 C 
ATOM      5  C   UNL     1      14.534 -26.388  17.472  1.00  0.00     0.020 C 
BRANCH   5   6
ATOM      6  C   UNL     1      13.545 -26.693  18.518  1.00  0.00     0.064 C 
ATOM      7  O   UNL     1      12.941 -25.773  19.132  1.00  0.00    -0.545 OA
ATOM      8  O   UNL     1      13.272 -28.018  18.834  1.00  0.00    -0.545 OA
ENDBRANCH   5   6
ENDBRANCH   3   4
ENDBRANCH   2   3
ENDBRANCH   1   2
BRANCH   1   9
ATOM      9  C   UNL     1      19.498 -23.863  15.569  1.00  0.00     0.000 C 
BRANCH   9  10
ATOM     10  C   UNL     1      19.872 -23.698  17.050  1.00  0.00     0.000 C 
BRANCH  10  11
ATOM     11  C   UNL     1      21.339 -23.278  17.255  1.00  0.00    -0.000 C 
BRANCH  11  12
ATOM     12  C   UNL     1      22.173 -23.171  15.962  1.00  0.00    -0.000 C 
BRANCH  12  13
ATOM     13  C   UNL     1      23.660 -22.837  16.174  1.00  0.00    -0.003 C 
ATOM     14  C   UNL     1      24.377 -23.851  17.065  1.00  0.00     0.004 C 
ENDBRANCH  12  13
ENDBRANCH  11  12
ENDBRANCH  10  11
ENDBRANCH   9  10
ENDBRANCH   1   9
TORSDOF 9
ENDMDL
MODEL 8
REMARK VINA RESULT:    -4.337     15.627     17.054
REMARK INTER + INTRA:          -7.101
REMARK INTER:                  -5.813
REMARK INTRA:                  -1.288
REMARK UNBOUND:                -0.482
REMARK SMILES CCCCCCCCCC=CC(=O)[O-]
REMARK SMILES IDX 7 1 8 2 9 3 10 4 11 5 12 6 13 7 14 8 6 9 5 10 4 11 3 12 2 13
REMARK SMILES IDX 1 14
REMARK H PARENT
REMARK Flexibility Score: inf
ROOT
ATOM      1  C   UNL     1      30.638 -33.922  26.009  1.00  0.00     0.000 C 
ENDROOT
BRANCH   1   2
ATOM      2  C   UNL     1      30.589 -34.936  24.854  1.00  0.00     0.004 C 
BRANCH   2   3
ATOM      3  C   UNL     1      29.838 -34.399  23.627  1.00  0.00     0.027 C 
BRANCH   3   4
ATOM      4  C   UNL     1      29.209 -35.515  22.844  1.00  0.00    -0.025 C 
ATOM      5  C   UNL     1      28.988 -35.407  21.529  1.00  0.00     0.020 C 
BRANCH   5   6
ATOM      6  C   UNL     1      28.387 -36.494  20.739  1.00  0.00     0.064 C 
ATOM      7  O   UNL     1      27.553 -36.251  19.826  1.00  0.00    -0.545 OA
ATOM      8  O   UNL     1      28.745 -37.809  21.003  1.00  0.00    -0.545 OA
ENDBRANCH   5   6
ENDBRANCH   3   4
ENDBRANCH   2   3
ENDBRANCH   1   2
BRANCH   1   9
ATOM      9  C   UNL     1      30.104 -34.501  27.329  1.00  0.00     0.000 C 
BRANCH   9  10
ATOM     10  C   UNL     1      29.503 -35.897  27.110  1.00  0.00     0.000 C 
BRANCH  10  11
ATOM     11  C   UNL     1      27.994 -35.954  27.408  1.00  0.00    -0.000 C 
BRANCH  11  12
ATOM     12  C   UNL     1      27.081 -35.891  26.167  1.00  0.00    -0.000 C 
BRANCH  12  13
ATOM     13  C   UNL     1      26.747 -34.472  25.676  1.00  0.00    -0.003 C 
ATOM     14  C   UNL     1      26.465 -33.497  26.819  1.00  0.00     0.004 C 
ENDBRANCH  12  13
ENDBRANCH  11  12
ENDBRANCH  10  11
ENDBRANCH   9  10
ENDBRANCH   1   9
TORSDOF 9
ENDMDL
MODEL 9
REMARK VINA RESULT:    -4.333     15.940     17.101
REMARK INTER + INTRA:          -7.095
REMARK INTER:                  -6.120
REMARK INTRA:                  -0.975
REMARK UNBOUND:                -0.482
REMARK SMILES CCCCCCCCCC=CC(=O)[O-]
REMARK SMILES IDX 7 1 8 2 9 3 10 4 11 5 12 6 13 7 14 8 6 9 5 10 4 11 3 12 2 13
REMARK SMILES IDX 1 14
REMARK H PARENT
REMARK Flexibility Score: inf
ROOT
ATOM      1  C   UNL     1      28.693 -35.698  26.247  1.00  0.00     0.000 C 
ENDROOT
BRANCH   1   2
ATOM      2  C   UNL     1      29.498 -34.442  26.618  1.00  0.00     0.004 C 
BRANCH   2   3
ATOM      3  C   UNL     1      30.467 -34.011  25.507  1.00  0.00     0.027 C 
BRANCH   3   4
ATOM      4  C   UNL     1      30.256 -34.819  24.259  1.00  0.00    -0.025 C 
ATOM      5  C   UNL     1      29.873 -34.247  23.113  1.00  0.00     0.020 C 
BRANCH   5   6
ATOM      6  C   UNL     1      29.675 -35.017  21.875  1.00  0.00     0.064 C 
ATOM      7  O   UNL     1      28.620 -35.680  21.682  1.00  0.00    -0.545 OA
ATOM      8  O   UNL     1      30.666 -35.014  20.903  1.00  0.00    -0.545 OA
ENDBRANCH   5   6
ENDBRANCH   3   4
ENDBRANCH   2   3
ENDBRANCH   1   2
BRANCH   1   9
ATOM      9  C   UNL     1      27.183 -35.430  26.160  1.00  0.00     0.000 C 
BRANCH   9  10
ATOM     10  C   UNL     1      26.823 -34.102  26.843  1.00  0.00     0.000 C 
BRANCH  10  11
ATOM     11  C   UNL     1      26.212 -34.293  28.243  1.00  0.00    -0.000 C 
BRANCH  11  12
ATOM     12  C   UNL     1      25.633 -35.697  28.515  1.00  0.00    -0.000 C 
BRANCH  12  13
ATOM     13  C   UNL     1      26.336 -36.484  29.634  1.00  0.00    -0.003 C 
ATOM     14  C   UNL     1      27.617 -35.808  30.124  1.00  0.00     0.004 C 
ENDBRANCH  12  13
ENDBRANCH  11  12
ENDBRANCH  10  11
ENDBRANCH   9  10
ENDBRANCH   1   9
TORSDOF 9
ENDMDL
