MODEL 1
REMARK VINA RESULT:    -2.947      0.000      0.000
REMARK INTER + INTRA:         -13.859
REMARK INTER:                  -7.771
REMARK INTRA:                  -6.087
REMARK UNBOUND:                -6.087
REMARK SMILES CCCCCCCCCCCCCCCCCCCCCCCCCCCCCC(=O)[O-]
REMARK SMILES IDX 16 1 17 2 18 3 19 4 20 5 21 6 22 7 23 8 24 9 25 10 26 11
REMARK SMILES IDX 27 12 28 13 29 14 30 15 31 16 32 17 15 18 14 19 13 20 12 21
REMARK SMILES IDX 11 22 10 23 9 24 8 25 7 26 6 27 5 28 4 29 3 30 2 31 1 32
REMARK H PARENT
REMARK Flexibility Score: inf
ROOT
ATOM      1  C   UNL     1     167.121 165.051 145.459  1.00  0.00     0.000 C 
ENDROOT
BRANCH   1   2
ATOM      2  C   UNL     1     167.592 166.499 145.253  1.00  0.00     0.000 C 
BRANCH   2   3
ATOM      3  C   UNL     1     167.357 167.375 146.495  1.00  0.00     0.000 C 
BRANCH   3   4
ATOM      4  C   UNL     1     168.419 168.475 146.648  1.00  0.00     0.000 C 
BRANCH   4   5
ATOM      5  C   UNL     1     169.634 168.014 147.469  1.00  0.00     0.000 C 
BRANCH   5   6
ATOM      6  C   UNL     1     170.976 168.374 146.810  1.00  0.00     0.000 C 
BRANCH   6   7
ATOM      7  C   UNL     1     171.806 167.147 146.377  1.00  0.00     0.000 C 
BRANCH   7   8
ATOM      8  C   UNL     1     171.608 166.800 144.890  1.00  0.00     0.000 C 
BRANCH   8   9
ATOM      9  C   UNL     1     171.057 167.983 144.075  1.00  0.00     0.000 C 
BRANCH   9  10
ATOM     10  C   UNL     1     171.570 168.073 142.622  1.00  0.00     0.000 C 
BRANCH  10  11
ATOM     11  C   UNL     1     170.487 167.925 141.537  1.00  0.00     0.000 C 
BRANCH  11  12
ATOM     12  C   UNL     1     169.092 167.657 142.127  1.00  0.00     0.000 C 
BRANCH  12  13
ATOM     13  C   UNL     1     168.011 167.523 141.042  1.00  0.00     0.006 C 
BRANCH  13  14
ATOM     14  C   UNL     1     167.644 166.060 140.765  1.00  0.00     0.053 C 
BRANCH  14  15
ATOM     15  C   UNL     1     166.301 165.737 141.340  1.00  0.00     0.041 C 
ATOM     16  O   UNL     1     166.193 164.893 142.270  1.00  0.00    -0.550 OA
ATOM     17  O   UNL     1     165.165 166.362 140.842  1.00  0.00    -0.550 OA
ENDBRANCH  14  15
ENDBRANCH  13  14
ENDBRANCH  12  13
ENDBRANCH  11  12
ENDBRANCH  10  11
ENDBRANCH   9  10
ENDBRANCH   8   9
ENDBRANCH   7   8
ENDBRANCH   6   7
ENDBRANCH   5   6
ENDBRANCH   4   5
ENDBRANCH   3   4
ENDBRANCH   2   3
ENDBRANCH   1   2
BRANCH   1  18
ATOM     18  C   UNL     1     167.801 164.376 146.664  1.00  0.00     0.000 C 
BRANCH  18  19
ATOM     19  C   UNL     1     169.332 164.512 146.626  1.00  0.00     0.000 C 
BRANCH  19  20
ATOM     20  C   UNL     1     170.037 163.163 146.421  1.00  0.00     0.000 C 
BRANCH  20  21
ATOM     21  C   UNL     1     169.023 162.056 146.089  1.00  0.00     0.000 C 
BRANCH  21  22
ATOM     22  C   UNL     1     169.638 160.649 146.139  1.00  0.00     0.000 C 
BRANCH  22  23
ATOM     23  C   UNL     1     170.945 160.601 146.949  1.00  0.00     0.000 C 
BRANCH  23  24
ATOM     24  C   UNL     1     172.164 160.253 146.077  1.00  0.00    -0.000 C 
BRANCH  24  25
ATOM     25  C   UNL     1     171.814 160.154 144.582  1.00  0.00    -0.000 C 
BRANCH  25  26
ATOM     26  C   UNL     1     172.695 161.065 143.711  1.00  0.00    -0.000 C 
BRANCH  26  27
ATOM     27  C   UNL     1     173.097 162.363 144.431  1.00  0.00    -0.000 C 
BRANCH  27  28
ATOM     28  C   UNL     1     173.012 163.601 143.521  1.00  0.00    -0.000 C 
BRANCH  28  29
ATOM     29  C   UNL     1     172.144 163.428 142.260  1.00  0.00    -0.000 C 
BRANCH  29  30
ATOM     30  C   UNL     1     170.960 164.407 142.141  1.00  0.00    -0.000 C 
BRANCH  30  31
ATOM     31  C   UNL     1     169.711 164.015 142.951  1.00  0.00    -0.003 C 
ATOM     32  C   UNL     1     169.023 162.760 142.415  1.00  0.00     0.004 C 
ENDBRANCH  30  31
ENDBRANCH  29  30
ENDBRANCH  28  29
ENDBRANCH  27  28
ENDBRANCH  26  27
ENDBRANCH  25  26
ENDBRANCH  24  25
ENDBRANCH  23  24
ENDBRANCH  22  23
ENDBRANCH  21  22
ENDBRANCH  20  21
ENDBRANCH  19  20
ENDBRANCH  18  19
ENDBRANCH   1  18
TORSDOF 28
ENDMDL
MODEL 2
REMARK VINA RESULT:    -2.933      2.684      5.358
REMARK INTER + INTRA:         -13.821
REMARK INTER:                  -8.261
REMARK INTRA:                  -5.560
REMARK UNBOUND:                -6.087
REMARK SMILES CCCCCCCCCCCCCCCCCCCCCCCCCCCCCC(=O)[O-]
REMARK SMILES IDX 16 1 17 2 18 3 19 4 20 5 21 6 22 7 23 8 24 9 25 10 26 11
REMARK SMILES IDX 27 12 28 13 29 14 30 15 31 16 32 17 15 18 14 19 13 20 12 21
REMARK SMILES IDX 11 22 10 23 9 24 8 25 7 26 6 27 5 28 4 29 3 30 2 31 1 32
REMARK H PARENT
REMARK Flexibility Score: inf
ROOT
ATOM      1  C   UNL     1     169.070 165.906 143.424  1.00  0.00     0.000 C 
ENDROOT
BRANCH   1   2
ATOM      2  C   UNL     1     169.334 167.415 143.543  1.00  0.00     0.000 C 
BRANCH   2   3
ATOM      3  C   UNL     1     170.221 167.948 142.406  1.00  0.00     0.000 C 
BRANCH   3   4
ATOM      4  C   UNL     1     171.690 168.102 142.828  1.00  0.00     0.000 C 
BRANCH   4   5
ATOM      5  C   UNL     1     172.612 167.077 142.146  1.00  0.00     0.000 C 
BRANCH   5   6
ATOM      6  C   UNL     1     173.007 165.915 143.073  1.00  0.00     0.000 C 
BRANCH   6   7
ATOM      7  C   UNL     1     173.125 166.316 144.559  1.00  0.00     0.000 C 
BRANCH   7   8
ATOM      8  C   UNL     1     172.942 165.117 145.507  1.00  0.00     0.000 C 
BRANCH   8   9
ATOM      9  C   UNL     1     172.112 165.471 146.754  1.00  0.00     0.000 C 
BRANCH   9  10
ATOM     10  C   UNL     1     171.795 166.971 146.926  1.00  0.00     0.000 C 
BRANCH  10  11
ATOM     11  C   UNL     1     170.297 167.317 147.010  1.00  0.00     0.000 C 
BRANCH  11  12
ATOM     12  C   UNL     1     170.036 168.832 146.973  1.00  0.00     0.000 C 
BRANCH  12  13
ATOM     13  C   UNL     1     169.897 169.439 148.379  1.00  0.00     0.006 C 
BRANCH  13  14
ATOM     14  C   UNL     1     168.756 170.461 148.460  1.00  0.00     0.053 C 
BRANCH  14  15
ATOM     15  C   UNL     1     167.641 169.937 149.307  1.00  0.00     0.041 C 
ATOM     16  O   UNL     1     166.469 169.871 148.847  1.00  0.00    -0.550 OA
ATOM     17  O   UNL     1     167.893 169.529 150.611  1.00  0.00    -0.550 OA
ENDBRANCH  14  15
ENDBRANCH  13  14
ENDBRANCH  12  13
ENDBRANCH  11  12
ENDBRANCH  10  11
ENDBRANCH   9  10
ENDBRANCH   8   9
ENDBRANCH   7   8
ENDBRANCH   6   7
ENDBRANCH   5   6
ENDBRANCH   4   5
ENDBRANCH   3   4
ENDBRANCH   2   3
ENDBRANCH   1   2
BRANCH   1  18
ATOM     18  C   UNL     1     169.349 165.370 142.009  1.00  0.00     0.000 C 
BRANCH  18  19
ATOM     19  C   UNL     1     169.767 163.890 142.014  1.00  0.00     0.000 C 
BRANCH  19  20
ATOM     20  C   UNL     1     170.248 163.420 143.394  1.00  0.00     0.000 C 
BRANCH  20  21
ATOM     21  C   UNL     1     171.496 162.530 143.270  1.00  0.00     0.000 C 
BRANCH  21  22
ATOM     22  C   UNL     1     171.159 161.085 142.865  1.00  0.00     0.000 C 
BRANCH  22  23
ATOM     23  C   UNL     1     170.570 160.266 144.026  1.00  0.00     0.000 C 
BRANCH  23  24
ATOM     24  C   UNL     1     171.656 159.709 144.962  1.00  0.00    -0.000 C 
BRANCH  24  25
ATOM     25  C   UNL     1     171.776 160.507 146.272  1.00  0.00    -0.000 C 
BRANCH  25  26
ATOM     26  C   UNL     1     170.406 160.844 146.882  1.00  0.00    -0.000 C 
BRANCH  26  27
ATOM     27  C   UNL     1     170.198 162.356 147.072  1.00  0.00    -0.000 C 
BRANCH  27  28
ATOM     28  C   UNL     1     168.755 162.802 146.776  1.00  0.00    -0.000 C 
BRANCH  28  29
ATOM     29  C   UNL     1     168.555 164.325 146.644  1.00  0.00    -0.000 C 
BRANCH  29  30
ATOM     30  C   UNL     1     167.087 164.792 146.621  1.00  0.00    -0.000 C 
BRANCH  30  31
ATOM     31  C   UNL     1     166.892 166.315 146.515  1.00  0.00    -0.003 C 
ATOM     32  C   UNL     1     166.051 166.725 145.307  1.00  0.00     0.004 C 
ENDBRANCH  30  31
ENDBRANCH  29  30
ENDBRANCH  28  29
ENDBRANCH  27  28
ENDBRANCH  26  27
ENDBRANCH  25  26
ENDBRANCH  24  25
ENDBRANCH  23  24
ENDBRANCH  22  23
ENDBRANCH  21  22
ENDBRANCH  20  21
ENDBRANCH  19  20
ENDBRANCH  18  19
ENDBRANCH   1  18
TORSDOF 28
ENDMDL
MODEL 3
REMARK VINA RESULT:    -2.865      1.393      5.634
REMARK INTER + INTRA:         -13.643
REMARK INTER:                  -7.306
REMARK INTRA:                  -6.336
REMARK UNBOUND:                -6.087
REMARK SMILES CCCCCCCCCCCCCCCCCCCCCCCCCCCCCC(=O)[O-]
REMARK SMILES IDX 16 1 17 2 18 3 19 4 20 5 21 6 22 7 23 8 24 9 25 10 26 11
REMARK SMILES IDX 27 12 28 13 29 14 30 15 31 16 32 17 15 18 14 19 13 20 12 21
REMARK SMILES IDX 11 22 10 23 9 24 8 25 7 26 6 27 5 28 4 29 3 30 2 31 1 32
REMARK H PARENT
REMARK Flexibility Score: inf
ROOT
ATOM      1  C   UNL     1     169.072 162.348 145.819  1.00  0.00     0.000 C 
ENDROOT
BRANCH   1   2
ATOM      2  C   UNL     1     169.705 161.828 147.119  1.00  0.00     0.000 C 
BRANCH   2   3
ATOM      3  C   UNL     1     170.864 160.852 146.858  1.00  0.00     0.000 C 
BRANCH   3   4
ATOM      4  C   UNL     1     170.744 160.146 145.499  1.00  0.00     0.000 C 
BRANCH   4   5
ATOM      5  C   UNL     1     171.997 160.327 144.626  1.00  0.00     0.000 C 
BRANCH   5   6
ATOM      6  C   UNL     1     172.632 161.721 144.770  1.00  0.00     0.000 C 
BRANCH   6   7
ATOM      7  C   UNL     1     172.477 162.608 143.516  1.00  0.00     0.000 C 
BRANCH   7   8
ATOM      8  C   UNL     1     171.830 161.854 142.340  1.00  0.00     0.000 C 
BRANCH   8   9
ATOM      9  C   UNL     1     170.392 162.324 142.056  1.00  0.00     0.000 C 
BRANCH   9  10
ATOM     10  C   UNL     1     170.209 163.854 141.964  1.00  0.00     0.000 C 
BRANCH  10  11
ATOM     11  C   UNL     1     169.470 164.348 140.706  1.00  0.00     0.000 C 
BRANCH  11  12
ATOM     12  C   UNL     1     168.089 164.945 141.028  1.00  0.00     0.000 C 
BRANCH  12  13
ATOM     13  C   UNL     1     167.167 163.941 141.739  1.00  0.00     0.006 C 
BRANCH  13  14
ATOM     14  C   UNL     1     166.715 164.443 143.117  1.00  0.00     0.053 C 
BRANCH  14  15
ATOM     15  C   UNL     1     165.527 165.342 142.984  1.00  0.00     0.041 C 
ATOM     16  O   UNL     1     165.676 166.593 142.953  1.00  0.00    -0.550 OA
ATOM     17  O   UNL     1     164.251 164.798 142.905  1.00  0.00    -0.550 OA
ENDBRANCH  14  15
ENDBRANCH  13  14
ENDBRANCH  12  13
ENDBRANCH  11  12
ENDBRANCH  10  11
ENDBRANCH   9  10
ENDBRANCH   8   9
ENDBRANCH   7   8
ENDBRANCH   6   7
ENDBRANCH   5   6
ENDBRANCH   4   5
ENDBRANCH   3   4
ENDBRANCH   2   3
ENDBRANCH   1   2
BRANCH   1  18
ATOM     18  C   UNL     1     169.474 163.800 145.507  1.00  0.00     0.000 C 
BRANCH  18  19
ATOM     19  C   UNL     1     170.576 164.319 146.446  1.00  0.00     0.000 C 
BRANCH  19  20
ATOM     20  C   UNL     1     171.566 165.251 145.731  1.00  0.00     0.000 C 
BRANCH  20  21
ATOM     21  C   UNL     1     172.739 165.620 146.653  1.00  0.00     0.000 C 
BRANCH  21  22
ATOM     22  C   UNL     1     172.711 167.092 147.095  1.00  0.00     0.000 C 
BRANCH  22  23
ATOM     23  C   UNL     1     171.730 167.941 146.267  1.00  0.00     0.000 C 
BRANCH  23  24
ATOM     24  C   UNL     1     170.965 168.961 147.128  1.00  0.00    -0.000 C 
BRANCH  24  25
ATOM     25  C   UNL     1     169.441 168.870 146.939  1.00  0.00    -0.000 C 
BRANCH  25  26
ATOM     26  C   UNL     1     169.012 167.564 146.250  1.00  0.00    -0.000 C 
BRANCH  26  27
ATOM     27  C   UNL     1     168.386 167.804 144.866  1.00  0.00    -0.000 C 
BRANCH  27  28
ATOM     28  C   UNL     1     169.189 167.149 143.727  1.00  0.00    -0.000 C 
BRANCH  28  29
ATOM     29  C   UNL     1     169.373 168.023 142.471  1.00  0.00    -0.000 C 
BRANCH  29  30
ATOM     30  C   UNL     1     170.729 167.863 141.757  1.00  0.00    -0.000 C 
BRANCH  30  31
ATOM     31  C   UNL     1     171.942 167.720 142.694  1.00  0.00    -0.003 C 
ATOM     32  C   UNL     1     172.744 166.443 142.438  1.00  0.00     0.004 C 
ENDBRANCH  30  31
ENDBRANCH  29  30
ENDBRANCH  28  29
ENDBRANCH  27  28
ENDBRANCH  26  27
ENDBRANCH  25  26
ENDBRANCH  24  25
ENDBRANCH  23  24
ENDBRANCH  22  23
ENDBRANCH  21  22
ENDBRANCH  20  21
ENDBRANCH  19  20
ENDBRANCH  18  19
ENDBRANCH   1  18
TORSDOF 28
ENDMDL
MODEL 4
REMARK VINA RESULT:    -2.835      2.247      5.420
REMARK INTER + INTRA:         -13.563
REMARK INTER:                  -7.917
REMARK INTRA:                  -5.646
REMARK UNBOUND:                -6.087
REMARK SMILES CCCCCCCCCCCCCCCCCCCCCCCCCCCCCC(=O)[O-]
REMARK SMILES IDX 16 1 17 2 18 3 19 4 20 5 21 6 22 7 23 8 24 9 25 10 26 11
REMARK SMILES IDX 27 12 28 13 29 14 30 15 31 16 32 17 15 18 14 19 13 20 12 21
REMARK SMILES IDX 11 22 10 23 9 24 8 25 7 26 6 27 5 28 4 29 3 30 2 31 1 32
REMARK H PARENT
REMARK Flexibility Score: inf
ROOT
ATOM      1  C   UNL     1     167.717 166.871 145.574  1.00  0.00     0.000 C 
ENDROOT
BRANCH   1   2
ATOM      2  C   UNL     1     168.385 165.576 145.088  1.00  0.00     0.000 C 
BRANCH   2   3
ATOM      3  C   UNL     1     167.918 164.341 145.878  1.00  0.00     0.000 C 
BRANCH   3   4
ATOM      4  C   UNL     1     169.056 163.341 146.132  1.00  0.00     0.000 C 
BRANCH   4   5
ATOM      5  C   UNL     1     169.096 162.214 145.087  1.00  0.00     0.000 C 
BRANCH   5   6
ATOM      6  C   UNL     1     169.610 160.882 145.660  1.00  0.00     0.000 C 
BRANCH   6   7
ATOM      7  C   UNL     1     170.847 161.033 146.571  1.00  0.00     0.000 C 
BRANCH   7   8
ATOM      8  C   UNL     1     172.156 160.671 145.849  1.00  0.00     0.000 C 
BRANCH   8   9
ATOM      9  C   UNL     1     171.913 160.019 144.476  1.00  0.00     0.000 C 
BRANCH   9  10
ATOM     10  C   UNL     1     172.447 160.817 143.268  1.00  0.00     0.000 C 
BRANCH  10  11
ATOM     11  C   UNL     1     171.365 161.452 142.375  1.00  0.00     0.000 C 
BRANCH  11  12
ATOM     12  C   UNL     1     171.959 162.259 141.208  1.00  0.00     0.000 C 
BRANCH  12  13
ATOM     13  C   UNL     1     171.029 163.392 140.744  1.00  0.00     0.006 C 
BRANCH  13  14
ATOM     14  C   UNL     1     170.913 163.459 139.215  1.00  0.00     0.053 C 
BRANCH  14  15
ATOM     15  C   UNL     1     171.561 164.702 138.694  1.00  0.00     0.041 C 
ATOM     16  O   UNL     1     172.460 165.280 139.363  1.00  0.00    -0.550 OA
ATOM     17  O   UNL     1     171.165 165.230 137.472  1.00  0.00    -0.550 OA
ENDBRANCH  14  15
ENDBRANCH  13  14
ENDBRANCH  12  13
ENDBRANCH  11  12
ENDBRANCH  10  11
ENDBRANCH   9  10
ENDBRANCH   8   9
ENDBRANCH   7   8
ENDBRANCH   6   7
ENDBRANCH   5   6
ENDBRANCH   4   5
ENDBRANCH   3   4
ENDBRANCH   2   3
ENDBRANCH   1   2
BRANCH   1  18
ATOM     18  C   UNL     1     168.702 168.051 145.646  1.00  0.00     0.000 C 
BRANCH  18  19
ATOM     19  C   UNL     1     170.166 167.603 145.506  1.00  0.00     0.000 C 
BRANCH  19  20
ATOM     20  C   UNL     1     170.875 167.480 146.863  1.00  0.00     0.000 C 
BRANCH  20  21
ATOM     21  C   UNL     1     172.179 166.677 146.734  1.00  0.00     0.000 C 
BRANCH  21  22
ATOM     22  C   UNL     1     171.940 165.160 146.658  1.00  0.00     0.000 C 
BRANCH  22  23
ATOM     23  C   UNL     1     172.750 164.487 145.537  1.00  0.00     0.000 C 
BRANCH  23  24
ATOM     24  C   UNL     1     172.097 164.662 144.155  1.00  0.00    -0.000 C 
BRANCH  24  25
ATOM     25  C   UNL     1     172.997 165.425 143.167  1.00  0.00    -0.000 C 
BRANCH  25  26
ATOM     26  C   UNL     1     172.328 166.700 142.628  1.00  0.00    -0.000 C 
BRANCH  26  27
ATOM     27  C   UNL     1     170.811 166.536 142.434  1.00  0.00    -0.000 C 
BRANCH  27  28
ATOM     28  C   UNL     1     170.287 167.262 141.183  1.00  0.00    -0.000 C 
BRANCH  28  29
ATOM     29  C   UNL     1     168.861 167.834 141.306  1.00  0.00    -0.000 C 
BRANCH  29  30
ATOM     30  C   UNL     1     167.766 166.796 141.622  1.00  0.00    -0.000 C 
BRANCH  30  31
ATOM     31  C   UNL     1     167.580 165.705 140.553  1.00  0.00    -0.003 C 
ATOM     32  C   UNL     1     166.124 165.267 140.397  1.00  0.00     0.004 C 
ENDBRANCH  30  31
ENDBRANCH  29  30
ENDBRANCH  28  29
ENDBRANCH  27  28
ENDBRANCH  26  27
ENDBRANCH  25  26
ENDBRANCH  24  25
ENDBRANCH  23  24
ENDBRANCH  22  23
ENDBRANCH  21  22
ENDBRANCH  20  21
ENDBRANCH  19  20
ENDBRANCH  18  19
ENDBRANCH   1  18
TORSDOF 28
ENDMDL
MODEL 5
REMARK VINA RESULT:    -2.826      1.673      6.538
REMARK INTER + INTRA:         -13.540
REMARK INTER:                  -7.764
REMARK INTRA:                  -5.776
REMARK UNBOUND:                -6.087
REMARK SMILES CCCCCCCCCCCCCCCCCCCCCCCCCCCCCC(=O)[O-]
REMARK SMILES IDX 16 1 17 2 18 3 19 4 20 5 21 6 22 7 23 8 24 9 25 10 26 11
REMARK SMILES IDX 27 12 28 13 29 14 30 15 31 16 32 17 15 18 14 19 13 20 12 21
REMARK SMILES IDX 11 22 10 23 9 24 8 25 7 26 6 27 5 28 4 29 3 30 2 31 1 32
REMARK H PARENT
REMARK Flexibility Score: inf
ROOT
ATOM      1  C   UNL     1     171.646 163.757 142.233  1.00  0.00     0.000 C 
ENDROOT
BRANCH   1   2
ATOM      2  C   UNL     1     170.903 162.600 142.917  1.00  0.00     0.000 C 
BRANCH   2   3
ATOM      3  C   UNL     1     170.701 161.396 141.980  1.00  0.00     0.000 C 
BRANCH   3   4
ATOM      4  C   UNL     1     171.942 160.494 141.905  1.00  0.00     0.000 C 
BRANCH   4   5
ATOM      5  C   UNL     1     172.393 159.993 143.287  1.00  0.00     0.000 C 
BRANCH   5   6
ATOM      6  C   UNL     1     171.386 159.027 143.933  1.00  0.00     0.000 C 
BRANCH   6   7
ATOM      7  C   UNL     1     170.645 159.621 145.149  1.00  0.00     0.000 C 
BRANCH   7   8
ATOM      8  C   UNL     1     171.559 160.504 146.018  1.00  0.00     0.000 C 
BRANCH   8   9
ATOM      9  C   UNL     1     170.816 161.711 146.620  1.00  0.00     0.000 C 
BRANCH   9  10
ATOM     10  C   UNL     1     169.510 161.369 147.368  1.00  0.00     0.000 C 
BRANCH  10  11
ATOM     11  C   UNL     1     168.223 161.907 146.713  1.00  0.00     0.000 C 
BRANCH  11  12
ATOM     12  C   UNL     1     168.454 163.220 145.946  1.00  0.00     0.000 C 
BRANCH  12  13
ATOM     13  C   UNL     1     167.701 164.406 146.571  1.00  0.00     0.006 C 
BRANCH  13  14
ATOM     14  C   UNL     1     168.137 165.750 145.974  1.00  0.00     0.053 C 
BRANCH  14  15
ATOM     15  C   UNL     1     166.947 166.618 145.711  1.00  0.00     0.041 C 
ATOM     16  O   UNL     1     166.919 167.369 144.699  1.00  0.00    -0.550 OA
ATOM     17  O   UNL     1     165.872 166.606 146.590  1.00  0.00    -0.550 OA
ENDBRANCH  14  15
ENDBRANCH  13  14
ENDBRANCH  12  13
ENDBRANCH  11  12
ENDBRANCH  10  11
ENDBRANCH   9  10
ENDBRANCH   8   9
ENDBRANCH   7   8
ENDBRANCH   6   7
ENDBRANCH   5   6
ENDBRANCH   4   5
ENDBRANCH   3   4
ENDBRANCH   2   3
ENDBRANCH   1   2
BRANCH   1  18
ATOM     18  C   UNL     1     172.898 164.197 143.011  1.00  0.00     0.000 C 
BRANCH  18  19
ATOM     19  C   UNL     1     172.915 163.653 144.450  1.00  0.00     0.000 C 
BRANCH  19  20
ATOM     20  C   UNL     1     173.125 164.760 145.494  1.00  0.00     0.000 C 
BRANCH  20  21
ATOM     21  C   UNL     1     171.790 165.171 146.137  1.00  0.00     0.000 C 
BRANCH  21  22
ATOM     22  C   UNL     1     171.646 166.694 146.289  1.00  0.00     0.000 C 
BRANCH  22  23
ATOM     23  C   UNL     1     172.669 167.474 145.446  1.00  0.00     0.000 C 
BRANCH  23  24
ATOM     24  C   UNL     1     172.012 168.228 144.276  1.00  0.00    -0.000 C 
BRANCH  24  25
ATOM     25  C   UNL     1     172.138 167.474 142.941  1.00  0.00    -0.000 C 
BRANCH  25  26
ATOM     26  C   UNL     1     171.054 167.884 141.931  1.00  0.00    -0.000 C 
BRANCH  26  27
ATOM     27  C   UNL     1     169.640 167.854 142.535  1.00  0.00    -0.000 C 
BRANCH  27  28
ATOM     28  C   UNL     1     168.534 167.811 141.465  1.00  0.00    -0.000 C 
BRANCH  28  29
ATOM     29  C   UNL     1     167.736 166.494 141.403  1.00  0.00    -0.000 C 
BRANCH  29  30
ATOM     30  C   UNL     1     168.308 165.341 142.250  1.00  0.00    -0.000 C 
BRANCH  30  31
ATOM     31  C   UNL     1     167.492 164.037 142.206  1.00  0.00    -0.003 C 
ATOM     32  C   UNL     1     166.221 164.101 143.053  1.00  0.00     0.004 C 
ENDBRANCH  30  31
ENDBRANCH  29  30
ENDBRANCH  28  29
ENDBRANCH  27  28
ENDBRANCH  26  27
ENDBRANCH  25  26
ENDBRANCH  24  25
ENDBRANCH  23  24
ENDBRANCH  22  23
ENDBRANCH  21  22
ENDBRANCH  20  21
ENDBRANCH  19  20
ENDBRANCH  18  19
ENDBRANCH   1  18
TORSDOF 28
ENDMDL
MODEL 6
REMARK VINA RESULT:    -2.817      1.528      4.388
REMARK INTER + INTRA:         -13.515
REMARK INTER:                  -7.291
REMARK INTRA:                  -6.224
REMARK UNBOUND:                -6.087
REMARK SMILES CCCCCCCCCCCCCCCCCCCCCCCCCCCCCC(=O)[O-]
REMARK SMILES IDX 16 1 17 2 18 3 19 4 20 5 21 6 22 7 23 8 24 9 25 10 26 11
REMARK SMILES IDX 27 12 28 13 29 14 30 15 31 16 32 17 15 18 14 19 13 20 12 21
REMARK SMILES IDX 11 22 10 23 9 24 8 25 7 26 6 27 5 28 4 29 3 30 2 31 1 32
REMARK H PARENT
REMARK Flexibility Score: inf
ROOT
ATOM      1  C   UNL     1     170.115 163.239 140.123  1.00  0.00     0.000 C 
ENDROOT
BRANCH   1   2
ATOM      2  C   UNL     1     171.084 164.417 139.936  1.00  0.00     0.000 C 
BRANCH   2   3
ATOM      3  C   UNL     1     172.508 164.088 140.417  1.00  0.00     0.000 C 
BRANCH   3   4
ATOM      4  C   UNL     1     172.907 164.892 141.665  1.00  0.00     0.000 C 
BRANCH   4   5
ATOM      5  C   UNL     1     172.506 164.191 142.973  1.00  0.00     0.000 C 
BRANCH   5   6
ATOM      6  C   UNL     1     171.433 164.961 143.762  1.00  0.00     0.000 C 
BRANCH   6   7
ATOM      7  C   UNL     1     171.898 166.349 144.251  1.00  0.00     0.000 C 
BRANCH   7   8
ATOM      8  C   UNL     1     170.911 167.467 143.869  1.00  0.00     0.000 C 
BRANCH   8   9
ATOM      9  C   UNL     1     171.317 168.198 142.577  1.00  0.00     0.000 C 
BRANCH   9  10
ATOM     10  C   UNL     1     170.525 167.791 141.317  1.00  0.00     0.000 C 
BRANCH  10  11
ATOM     11  C   UNL     1     168.993 167.851 141.461  1.00  0.00     0.000 C 
BRANCH  11  12
ATOM     12  C   UNL     1     168.310 166.529 141.073  1.00  0.00     0.000 C 
BRANCH  12  13
ATOM     13  C   UNL     1     168.038 165.629 142.290  1.00  0.00     0.006 C 
BRANCH  13  14
ATOM     14  C   UNL     1     166.876 164.657 142.045  1.00  0.00     0.053 C 
BRANCH  14  15
ATOM     15  C   UNL     1     165.565 165.331 142.301  1.00  0.00     0.041 C 
ATOM     16  O   UNL     1     165.518 166.395 142.976  1.00  0.00    -0.550 OA
ATOM     17  O   UNL     1     164.392 164.780 141.801  1.00  0.00    -0.550 OA
ENDBRANCH  14  15
ENDBRANCH  13  14
ENDBRANCH  12  13
ENDBRANCH  11  12
ENDBRANCH  10  11
ENDBRANCH   9  10
ENDBRANCH   8   9
ENDBRANCH   7   8
ENDBRANCH   6   7
ENDBRANCH   5   6
ENDBRANCH   4   5
ENDBRANCH   3   4
ENDBRANCH   2   3
ENDBRANCH   1   2
BRANCH   1  18
ATOM     18  C   UNL     1     170.846 161.900 140.322  1.00  0.00     0.000 C 
BRANCH  18  19
ATOM     19  C   UNL     1     170.405 161.175 141.604  1.00  0.00     0.000 C 
BRANCH  19  20
ATOM     20  C   UNL     1     169.545 162.063 142.516  1.00  0.00     0.000 C 
BRANCH  20  21
ATOM     21  C   UNL     1     168.910 161.239 143.648  1.00  0.00     0.000 C 
BRANCH  21  22
ATOM     22  C   UNL     1     169.261 159.745 143.567  1.00  0.00     0.000 C 
BRANCH  22  23
ATOM     23  C   UNL     1     170.003 159.242 144.817  1.00  0.00     0.000 C 
BRANCH  23  24
ATOM     24  C   UNL     1     171.415 159.839 144.943  1.00  0.00    -0.000 C 
BRANCH  24  25
ATOM     25  C   UNL     1     171.592 160.679 146.220  1.00  0.00    -0.000 C 
BRANCH  25  26
ATOM     26  C   UNL     1     170.308 160.742 147.063  1.00  0.00    -0.000 C 
BRANCH  26  27
ATOM     27  C   UNL     1     170.183 162.056 147.853  1.00  0.00    -0.000 C 
BRANCH  27  28
ATOM     28  C   UNL     1     170.232 163.302 146.952  1.00  0.00    -0.000 C 
BRANCH  28  29
ATOM     29  C   UNL     1     168.864 163.939 146.640  1.00  0.00    -0.000 C 
BRANCH  29  30
ATOM     30  C   UNL     1     168.898 165.451 146.344  1.00  0.00    -0.000 C 
BRANCH  30  31
ATOM     31  C   UNL     1     167.560 166.051 145.877  1.00  0.00    -0.003 C 
ATOM     32  C   UNL     1     167.654 167.544 145.564  1.00  0.00     0.004 C 
ENDBRANCH  30  31
ENDBRANCH  29  30
ENDBRANCH  28  29
ENDBRANCH  27  28
ENDBRANCH  26  27
ENDBRANCH  25  26
ENDBRANCH  24  25
ENDBRANCH  23  24
ENDBRANCH  22  23
ENDBRANCH  21  22
ENDBRANCH  20  21
ENDBRANCH  19  20
ENDBRANCH  18  19
ENDBRANCH   1  18
TORSDOF 28
ENDMDL
MODEL 7
REMARK VINA RESULT:    -2.809      3.351      7.333
REMARK INTER + INTRA:         -13.494
REMARK INTER:                  -7.634
REMARK INTRA:                  -5.860
REMARK UNBOUND:                -6.087
REMARK SMILES CCCCCCCCCCCCCCCCCCCCCCCCCCCCCC(=O)[O-]
REMARK SMILES IDX 16 1 17 2 18 3 19 4 20 5 21 6 22 7 23 8 24 9 25 10 26 11
REMARK SMILES IDX 27 12 28 13 29 14 30 15 31 16 32 17 15 18 14 19 13 20 12 21
REMARK SMILES IDX 11 22 10 23 9 24 8 25 7 26 6 27 5 28 4 29 3 30 2 31 1 32
REMARK H PARENT
REMARK Flexibility Score: inf
ROOT
ATOM      1  C   UNL     1     167.584 166.812 143.011  1.00  0.00     0.000 C 
ENDROOT
BRANCH   1   2
ATOM      2  C   UNL     1     167.931 165.408 142.494  1.00  0.00     0.000 C 
BRANCH   2   3
ATOM      3  C   UNL     1     169.360 165.326 141.930  1.00  0.00     0.000 C 
BRANCH   3   4
ATOM      4  C   UNL     1     169.623 166.378 140.841  1.00  0.00     0.000 C 
BRANCH   4   5
ATOM      5  C   UNL     1     171.050 166.946 140.901  1.00  0.00     0.000 C 
BRANCH   5   6
ATOM      6  C   UNL     1     171.316 167.768 142.174  1.00  0.00     0.000 C 
BRANCH   6   7
ATOM      7  C   UNL     1     172.658 167.437 142.860  1.00  0.00     0.000 C 
BRANCH   7   8
ATOM      8  C   UNL     1     173.023 165.945 142.746  1.00  0.00     0.000 C 
BRANCH   8   9
ATOM      9  C   UNL     1     173.049 165.237 144.113  1.00  0.00     0.000 C 
BRANCH   9  10
ATOM     10  C   UNL     1     171.670 165.051 144.780  1.00  0.00     0.000 C 
BRANCH  10  11
ATOM     11  C   UNL     1     171.516 165.723 146.158  1.00  0.00     0.000 C 
BRANCH  11  12
ATOM     12  C   UNL     1     172.804 166.425 146.621  1.00  0.00     0.000 C 
BRANCH  12  13
ATOM     13  C   UNL     1     172.700 167.957 146.542  1.00  0.00     0.006 C 
BRANCH  13  14
ATOM     14  C   UNL     1     171.255 168.431 146.333  1.00  0.00     0.053 C 
BRANCH  14  15
ATOM     15  C   UNL     1     170.816 169.294 147.472  1.00  0.00     0.041 C 
ATOM     16  O   UNL     1     171.211 170.488 147.555  1.00  0.00    -0.550 OA
ATOM     17  O   UNL     1     169.977 168.777 148.451  1.00  0.00    -0.550 OA
ENDBRANCH  14  15
ENDBRANCH  13  14
ENDBRANCH  12  13
ENDBRANCH  11  12
ENDBRANCH  10  11
ENDBRANCH   9  10
ENDBRANCH   8   9
ENDBRANCH   7   8
ENDBRANCH   6   7
ENDBRANCH   5   6
ENDBRANCH   4   5
ENDBRANCH   3   4
ENDBRANCH   2   3
ENDBRANCH   1   2
BRANCH   1  18
ATOM     18  C   UNL     1     168.466 167.238 144.198  1.00  0.00     0.000 C 
BRANCH  18  19
ATOM     19  C   UNL     1     167.644 167.539 145.463  1.00  0.00     0.000 C 
BRANCH  19  20
ATOM     20  C   UNL     1     167.983 166.592 146.623  1.00  0.00     0.000 C 
BRANCH  20  21
ATOM     21  C   UNL     1     167.757 165.125 146.223  1.00  0.00     0.000 C 
BRANCH  21  22
ATOM     22  C   UNL     1     166.318 164.651 146.485  1.00  0.00     0.000 C 
BRANCH  22  23
ATOM     23  C   UNL     1     165.562 164.305 145.192  1.00  0.00     0.000 C 
BRANCH  23  24
ATOM     24  C   UNL     1     164.618 165.434 144.743  1.00  0.00    -0.000 C 
BRANCH  24  25
ATOM     25  C   UNL     1     164.243 166.385 145.894  1.00  0.00    -0.000 C 
BRANCH  25  26
ATOM     26  C   UNL     1     162.774 166.238 146.322  1.00  0.00    -0.000 C 
BRANCH  26  27
ATOM     27  C   UNL     1     162.626 165.733 147.767  1.00  0.00    -0.000 C 
BRANCH  27  28
ATOM     28  C   UNL     1     163.848 166.061 148.642  1.00  0.00    -0.000 C 
BRANCH  28  29
ATOM     29  C   UNL     1     163.583 167.054 149.790  1.00  0.00    -0.000 C 
BRANCH  29  30
ATOM     30  C   UNL     1     164.468 168.316 149.780  1.00  0.00    -0.000 C 
BRANCH  30  31
ATOM     31  C   UNL     1     165.585 168.316 148.721  1.00  0.00    -0.003 C 
ATOM     32  C   UNL     1     166.456 169.571 148.775  1.00  0.00     0.004 C 
ENDBRANCH  30  31
ENDBRANCH  29  30
ENDBRANCH  28  29
ENDBRANCH  27  28
ENDBRANCH  26  27
ENDBRANCH  25  26
ENDBRANCH  24  25
ENDBRANCH  23  24
ENDBRANCH  22  23
ENDBRANCH  21  22
ENDBRANCH  20  21
ENDBRANCH  19  20
ENDBRANCH  18  19
ENDBRANCH   1  18
TORSDOF 28
ENDMDL
MODEL 8
REMARK VINA RESULT:    -2.788      2.058      5.644
REMARK INTER + INTRA:         -13.439
REMARK INTER:                  -7.790
REMARK INTRA:                  -5.649
REMARK UNBOUND:                -6.087
REMARK SMILES CCCCCCCCCCCCCCCCCCCCCCCCCCCCCC(=O)[O-]
REMARK SMILES IDX 16 1 17 2 18 3 19 4 20 5 21 6 22 7 23 8 24 9 25 10 26 11
REMARK SMILES IDX 27 12 28 13 29 14 30 15 31 16 32 17 15 18 14 19 13 20 12 21
REMARK SMILES IDX 11 22 10 23 9 24 8 25 7 26 6 27 5 28 4 29 3 30 2 31 1 32
REMARK H PARENT
REMARK Flexibility Score: inf
ROOT
ATOM      1  C   UNL     1     169.336 166.940 141.019  1.00  0.00     0.000 C 
ENDROOT
BRANCH   1   2
ATOM      2  C   UNL     1     167.808 166.780 141.008  1.00  0.00     0.000 C 
BRANCH   2   3
ATOM      3  C   UNL     1     167.363 165.441 140.395  1.00  0.00     0.000 C 
BRANCH   3   4
ATOM      4  C   UNL     1     166.101 164.878 141.067  1.00  0.00     0.000 C 
BRANCH   4   5
ATOM      5  C   UNL     1     166.103 163.342 141.137  1.00  0.00     0.000 C 
BRANCH   5   6
ATOM      6  C   UNL     1     165.697 162.804 142.520  1.00  0.00     0.000 C 
BRANCH   6   7
ATOM      7  C   UNL     1     166.576 163.330 143.674  1.00  0.00     0.000 C 
BRANCH   7   8
ATOM      8  C   UNL     1     167.738 162.377 144.009  1.00  0.00     0.000 C 
BRANCH   8   9
ATOM      9  C   UNL     1     169.116 163.015 143.761  1.00  0.00     0.000 C 
BRANCH   9  10
ATOM     10  C   UNL     1     169.117 164.554 143.656  1.00  0.00     0.000 C 
BRANCH  10  11
ATOM     11  C   UNL     1     169.087 165.300 145.004  1.00  0.00     0.000 C 
BRANCH  11  12
ATOM     12  C   UNL     1     168.690 166.778 144.853  1.00  0.00     0.000 C 
BRANCH  12  13
ATOM     13  C   UNL     1     167.174 166.995 144.982  1.00  0.00     0.006 C 
BRANCH  13  14
ATOM     14  C   UNL     1     166.550 166.108 146.067  1.00  0.00     0.053 C 
BRANCH  14  15
ATOM     15  C   UNL     1     165.363 166.781 146.678  1.00  0.00     0.041 C 
ATOM     16  O   UNL     1     165.351 167.057 147.908  1.00  0.00    -0.550 OA
ATOM     17  O   UNL     1     164.262 167.097 145.891  1.00  0.00    -0.550 OA
ENDBRANCH  14  15
ENDBRANCH  13  14
ENDBRANCH  12  13
ENDBRANCH  11  12
ENDBRANCH  10  11
ENDBRANCH   9  10
ENDBRANCH   8   9
ENDBRANCH   7   8
ENDBRANCH   6   7
ENDBRANCH   5   6
ENDBRANCH   4   5
ENDBRANCH   3   4
ENDBRANCH   2   3
ENDBRANCH   1   2
BRANCH   1  18
ATOM     18  C   UNL     1     169.799 168.103 141.914  1.00  0.00     0.000 C 
BRANCH  18  19
ATOM     19  C   UNL     1     171.267 167.960 142.349  1.00  0.00     0.000 C 
BRANCH  19  20
ATOM     20  C   UNL     1     171.972 166.780 141.663  1.00  0.00     0.000 C 
BRANCH  20  21
ATOM     21  C   UNL     1     173.114 166.237 142.536  1.00  0.00     0.000 C 
BRANCH  21  22
ATOM     22  C   UNL     1     172.944 166.584 144.024  1.00  0.00     0.000 C 
BRANCH  22  23
ATOM     23  C   UNL     1     172.697 165.343 144.899  1.00  0.00     0.000 C 
BRANCH  23  24
ATOM     24  C   UNL     1     172.816 164.031 144.104  1.00  0.00    -0.000 C 
BRANCH  24  25
ATOM     25  C   UNL     1     173.076 162.813 145.008  1.00  0.00    -0.000 C 
BRANCH  25  26
ATOM     26  C   UNL     1     172.392 161.539 144.486  1.00  0.00    -0.000 C 
BRANCH  26  27
ATOM     27  C   UNL     1     172.148 160.502 145.595  1.00  0.00    -0.000 C 
BRANCH  27  28
ATOM     28  C   UNL     1     170.675 160.438 146.038  1.00  0.00    -0.000 C 
BRANCH  28  29
ATOM     29  C   UNL     1     170.372 161.100 147.397  1.00  0.00    -0.000 C 
BRANCH  29  30
ATOM     30  C   UNL     1     169.853 162.549 147.317  1.00  0.00    -0.000 C 
BRANCH  30  31
ATOM     31  C   UNL     1     168.345 162.712 147.577  1.00  0.00    -0.003 C 
ATOM     32  C   UNL     1     167.797 161.687 148.570  1.00  0.00     0.004 C 
ENDBRANCH  30  31
ENDBRANCH  29  30
ENDBRANCH  28  29
ENDBRANCH  27  28
ENDBRANCH  26  27
ENDBRANCH  25  26
ENDBRANCH  24  25
ENDBRANCH  23  24
ENDBRANCH  22  23
ENDBRANCH  21  22
ENDBRANCH  20  21
ENDBRANCH  19  20
ENDBRANCH  18  19
ENDBRANCH   1  18
TORSDOF 28
ENDMDL
MODEL 9
REMARK VINA RESULT:    -2.729      1.686      6.020
REMARK INTER + INTRA:         -13.284
REMARK INTER:                  -6.952
REMARK INTRA:                  -6.332
REMARK UNBOUND:                -6.087
REMARK SMILES CCCCCCCCCCCCCCCCCCCCCCCCCCCCCC(=O)[O-]
REMARK SMILES IDX 16 1 17 2 18 3 19 4 20 5 21 6 22 7 23 8 24 9 25 10 26 11
REMARK SMILES IDX 27 12 28 13 29 14 30 15 31 16 32 17 15 18 14 19 13 20 12 21
REMARK SMILES IDX 11 22 10 23 9 24 8 25 7 26 6 27 5 28 4 29 3 30 2 31 1 32
REMARK H PARENT
REMARK Flexibility Score: inf
ROOT
ATOM      1  C   UNL     1     168.440 166.541 145.636  1.00  0.00     0.000 C 
ENDROOT
BRANCH   1   2
ATOM      2  C   UNL     1     169.281 165.299 145.305  1.00  0.00     0.000 C 
BRANCH   2   3
ATOM      3  C   UNL     1     169.579 164.444 146.548  1.00  0.00     0.000 C 
BRANCH   3   4
ATOM      4  C   UNL     1     171.017 163.900 146.557  1.00  0.00     0.000 C 
BRANCH   4   5
ATOM      5  C   UNL     1     171.564 163.655 145.141  1.00  0.00     0.000 C 
BRANCH   5   6
ATOM      6  C   UNL     1     172.536 162.465 145.072  1.00  0.00     0.000 C 
BRANCH   6   7
ATOM      7  C   UNL     1     172.574 161.771 143.694  1.00  0.00     0.000 C 
BRANCH   7   8
ATOM      8  C   UNL     1     172.240 160.272 143.782  1.00  0.00     0.000 C 
BRANCH   8   9
ATOM      9  C   UNL     1     171.598 159.887 145.127  1.00  0.00     0.000 C 
BRANCH   9  10
ATOM     10  C   UNL     1     170.070 159.678 145.088  1.00  0.00     0.000 C 
BRANCH  10  11
ATOM     11  C   UNL     1     169.249 160.715 145.877  1.00  0.00     0.000 C 
BRANCH  11  12
ATOM     12  C   UNL     1     168.253 161.482 144.990  1.00  0.00     0.000 C 
BRANCH  12  13
ATOM     13  C   UNL     1     168.504 161.251 143.491  1.00  0.00     0.006 C 
BRANCH  13  14
ATOM     14  C   UNL     1     168.998 162.519 142.782  1.00  0.00     0.053 C 
BRANCH  14  15
ATOM     15  C   UNL     1     169.310 162.231 141.348  1.00  0.00     0.041 C 
ATOM     16  O   UNL     1     168.730 162.871 140.430  1.00  0.00    -0.550 OA
ATOM     17  O   UNL     1     170.235 161.248 141.023  1.00  0.00    -0.550 OA
ENDBRANCH  14  15
ENDBRANCH  13  14
ENDBRANCH  12  13
ENDBRANCH  11  12
ENDBRANCH  10  11
ENDBRANCH   9  10
ENDBRANCH   8   9
ENDBRANCH   7   8
ENDBRANCH   6   7
ENDBRANCH   5   6
ENDBRANCH   4   5
ENDBRANCH   3   4
ENDBRANCH   2   3
ENDBRANCH   1   2
BRANCH   1  18
ATOM     18  C   UNL     1     169.264 167.840 145.593  1.00  0.00     0.000 C 
BRANCH  18  19
ATOM     19  C   UNL     1     169.921 168.163 146.946  1.00  0.00     0.000 C 
BRANCH  19  20
ATOM     20  C   UNL     1     171.401 168.547 146.804  1.00  0.00     0.000 C 
BRANCH  20  21
ATOM     21  C   UNL     1     172.233 167.357 146.299  1.00  0.00     0.000 C 
BRANCH  21  22
ATOM     22  C   UNL     1     173.059 167.695 145.047  1.00  0.00     0.000 C 
BRANCH  22  23
ATOM     23  C   UNL     1     173.118 166.531 144.043  1.00  0.00     0.000 C 
BRANCH  23  24
ATOM     24  C   UNL     1     172.317 166.820 142.762  1.00  0.00    -0.000 C 
BRANCH  24  25
ATOM     25  C   UNL     1     171.532 168.141 142.839  1.00  0.00    -0.000 C 
BRANCH  25  26
ATOM     26  C   UNL     1     170.345 168.176 141.862  1.00  0.00    -0.000 C 
BRANCH  26  27
ATOM     27  C   UNL     1     170.089 166.815 141.191  1.00  0.00    -0.000 C 
BRANCH  27  28
ATOM     28  C   UNL     1     168.866 166.084 141.772  1.00  0.00    -0.000 C 
BRANCH  28  29
ATOM     29  C   UNL     1     167.499 166.650 141.338  1.00  0.00    -0.000 C 
BRANCH  29  30
ATOM     30  C   UNL     1     166.469 165.596 140.885  1.00  0.00    -0.000 C 
BRANCH  30  31
ATOM     31  C   UNL     1     166.015 164.619 141.985  1.00  0.00    -0.003 C 
ATOM     32  C   UNL     1     165.803 165.301 143.336  1.00  0.00     0.004 C 
ENDBRANCH  30  31
ENDBRANCH  29  30
ENDBRANCH  28  29
ENDBRANCH  27  28
ENDBRANCH  26  27
ENDBRANCH  25  26
ENDBRANCH  24  25
ENDBRANCH  23  24
ENDBRANCH  22  23
ENDBRANCH  21  22
ENDBRANCH  20  21
ENDBRANCH  19  20
ENDBRANCH  18  19
ENDBRANCH   1  18
TORSDOF 28
ENDMDL
