MODEL 1
REMARK VINA RESULT:    -3.266      0.000      0.000
REMARK INTER + INTRA:          -4.475
REMARK INTER:                  -4.603
REMARK INTRA:                   0.128
REMARK UNBOUND:                 0.128
REMARK SMILES CC1=CCC(=C(C)C)C(=O)CC(C)=CCC1
REMARK SMILES IDX 12 1 14 2 13 3 15 4 16 5 2 6 1 7 3 8 11 10 9 11 10 12 5 13
REMARK SMILES IDX 6 14 7 15 8 16 4 17
REMARK H PARENT
REMARK Flexibility Score: 60.00
ROOT
ATOM      1  C   UNL     1      15.250  23.538  14.278  1.00  0.00    -0.070 C 
ATOM      2  C   UNL     1      16.457  24.129  14.425  1.00  0.00    -0.027 C 
ATOM      3  C   UNL     1      15.109  22.102  14.712  1.00  0.00     0.039 C 
ENDROOT
BRANCH   2   4
ATOM      4  C   UNL     1      16.771  25.580  14.140  1.00  0.00     0.032 C 
BRANCH   4   5
ATOM      5  C   UNL     1      16.608  26.528  15.347  1.00  0.00     0.034 C 
BRANCH   5   6
ATOM      6  C   UNL     1      15.853  27.801  15.008  1.00  0.00    -0.077 C 
ATOM      7  C   UNL     1      16.602  28.887  14.278  1.00  0.00     0.039 C 
ATOM      8  C   UNL     1      14.535  27.997  15.257  1.00  0.00    -0.023 CG0
ATOM      9  G   UNL     1      13.593  27.061  15.989  1.00  0.00     0.000 G0
ENDBRANCH   5   6
ENDBRANCH   4   5
ENDBRANCH   2   4
BRANCH   1  10
ATOM     10  C   UNL     1      14.019  24.275  13.787  1.00  0.00     0.111 C 
BRANCH  10  11
ATOM     11  C   UNL     1      13.162  24.748  14.931  1.00  0.00     0.163 C 
ATOM     12  O   UNL     1      12.828  23.909  15.810  1.00  0.00    -0.294 OA
BRANCH  11  13
ATOM     13  C   UNL     1      12.754  26.176  15.088  1.00  0.00    -0.002 C 
ATOM     14  C   UNL     1      11.617  26.647  14.492  1.00  0.00    -0.069 C 
ATOM     15  C   UNL     1      10.821  25.791  13.532  1.00  0.00     0.039 C 
ATOM     16  C   UNL     1      11.091  28.040  14.759  1.00  0.00     0.039 C 
BRANCH  13  17
ATOM     17  C   UNL     1      13.597  27.044  16.008  1.00  0.00     0.066 CG0
ATOM     18  G   UNL     1      14.515  27.975  15.240  1.00  0.00     0.000 G0
ENDBRANCH  13  17
ENDBRANCH  11  13
ENDBRANCH  10  11
ENDBRANCH   1  10
TORSDOF 0
ENDMDL
MODEL 2
REMARK VINA RESULT:    -3.200      6.384      8.410
REMARK INTER + INTRA:          -4.381
REMARK INTER:                  -4.831
REMARK INTRA:                   0.450
REMARK UNBOUND:                 0.128
REMARK SMILES CC1=CCC(=C(C)C)C(=O)CC(C)=CCC1
REMARK SMILES IDX 12 1 14 2 13 3 15 4 16 5 2 6 1 7 3 8 11 10 9 11 10 12 5 13
REMARK SMILES IDX 6 14 7 15 8 16 4 17
REMARK H PARENT
REMARK Flexibility Score: 60.00
ROOT
ATOM      1  C   UNL     1       6.233  26.356  15.808  1.00  0.00    -0.070 C 
ATOM      2  C   UNL     1       7.251  26.160  14.941  1.00  0.00    -0.027 C 
ATOM      3  C   UNL     1       4.959  25.581  15.591  1.00  0.00     0.039 C 
ENDROOT
BRANCH   2   4
ATOM      4  C   UNL     1       8.632  26.767  15.046  1.00  0.00     0.032 C 
BRANCH   4   5
ATOM      5  C   UNL     1       8.880  27.977  14.121  1.00  0.00     0.034 C 
BRANCH   5   6
ATOM      6  C   UNL     1       8.668  29.312  14.814  1.00  0.00    -0.077 C 
ATOM      7  C   UNL     1       9.873  29.986  15.418  1.00  0.00     0.039 C 
ATOM      8  C   UNL     1       7.483  29.967  14.863  1.00  0.00    -0.023 CG0
ATOM      9  G   UNL     1       6.145  29.478  14.344  1.00  0.00     0.000 G0
ENDBRANCH   5   6
ENDBRANCH   4   5
ENDBRANCH   2   4
BRANCH   1  10
ATOM     10  C   UNL     1       6.345  27.243  17.033  1.00  0.00     0.111 C 
BRANCH  10  11
ATOM     11  C   UNL     1       5.834  28.634  16.761  1.00  0.00     0.163 C 
ATOM     12  O   UNL     1       5.999  29.512  17.651  1.00  0.00    -0.294 OA
BRANCH  11  13
ATOM     13  C   UNL     1       5.205  29.016  15.462  1.00  0.00    -0.002 C 
ATOM     14  C   UNL     1       3.845  29.023  15.320  1.00  0.00    -0.069 C 
ATOM     15  C   UNL     1       2.939  28.498  16.412  1.00  0.00     0.039 C 
ATOM     16  C   UNL     1       3.172  29.555  14.074  1.00  0.00     0.039 C 
BRANCH  13  17
ATOM     17  C   UNL     1       6.130  29.483  14.350  1.00  0.00     0.066 CG0
ATOM     18  G   UNL     1       7.463  29.977  14.879  1.00  0.00     0.000 G0
ENDBRANCH  13  17
ENDBRANCH  11  13
ENDBRANCH  10  11
ENDBRANCH   1  10
TORSDOF 0
ENDMDL
MODEL 3
REMARK VINA RESULT:    -3.124      7.063      9.305
REMARK INTER + INTRA:          -4.275
REMARK INTER:                  -4.452
REMARK INTRA:                   0.177
REMARK UNBOUND:                 0.128
REMARK SMILES CC1=CCC(=C(C)C)C(=O)CC(C)=CCC1
REMARK SMILES IDX 12 1 14 2 13 3 15 4 16 5 2 6 1 7 3 8 11 10 9 11 10 12 5 13
REMARK SMILES IDX 6 14 7 15 8 16 4 17
REMARK H PARENT
REMARK Flexibility Score: 60.00
ROOT
ATOM      1  C   UNL     1       7.664  29.757  15.854  1.00  0.00    -0.070 C 
ATOM      2  C   UNL     1       8.654  28.920  15.471  1.00  0.00    -0.027 C 
ATOM      3  C   UNL     1       8.044  30.993  16.628  1.00  0.00     0.039 C 
ENDROOT
BRANCH   2   4
ATOM      4  C   UNL     1       8.485  27.687  14.610  1.00  0.00     0.032 C 
BRANCH   4   5
ATOM      5  C   UNL     1       7.935  26.451  15.350  1.00  0.00     0.034 C 
BRANCH   5   6
ATOM      6  C   UNL     1       6.715  25.846  14.676  1.00  0.00    -0.077 C 
ATOM      7  C   UNL     1       6.912  25.175  13.341  1.00  0.00     0.039 C 
ATOM      8  C   UNL     1       5.477  25.811  15.228  1.00  0.00    -0.023 CG0
ATOM      9  G   UNL     1       5.042  26.431  16.542  1.00  0.00     0.000 G0
ENDBRANCH   5   6
ENDBRANCH   4   5
ENDBRANCH   2   4
BRANCH   1  10
ATOM     10  C   UNL     1       6.212  29.561  15.464  1.00  0.00     0.111 C 
BRANCH  10  11
ATOM     11  C   UNL     1       5.409  28.968  16.591  1.00  0.00     0.163 C 
ATOM     12  O   UNL     1       5.510  29.494  17.733  1.00  0.00    -0.294 OA
BRANCH  11  13
ATOM     13  C   UNL     1       4.463  27.831  16.390  1.00  0.00    -0.002 C 
ATOM     14  C   UNL     1       3.173  28.058  15.996  1.00  0.00    -0.069 C 
ATOM     15  C   UNL     1       2.615  29.461  15.903  1.00  0.00     0.039 C 
ATOM     16  C   UNL     1       2.237  26.926  15.631  1.00  0.00     0.039 C 
BRANCH  13  17
ATOM     17  C   UNL     1       5.019  26.426  16.547  1.00  0.00     0.066 CG0
ATOM     18  G   UNL     1       5.471  25.833  15.227  1.00  0.00     0.000 G0
ENDBRANCH  13  17
ENDBRANCH  11  13
ENDBRANCH  10  11
ENDBRANCH   1  10
TORSDOF 0
ENDMDL
MODEL 4
REMARK VINA RESULT:    -2.983      1.716      2.503
REMARK INTER + INTRA:          -4.075
REMARK INTER:                  -4.519
REMARK INTRA:                   0.444
REMARK UNBOUND:                 0.128
REMARK SMILES CC1=CCC(=C(C)C)C(=O)CC(C)=CCC1
REMARK SMILES IDX 12 1 14 2 13 3 15 4 16 5 2 6 1 7 3 8 11 10 9 11 10 12 5 13
REMARK SMILES IDX 6 14 7 15 8 16 4 17
REMARK H PARENT
REMARK Flexibility Score: 60.00
ROOT
ATOM      1  C   UNL     1      13.187  24.827  15.698  1.00  0.00    -0.070 C 
ATOM      2  C   UNL     1      14.501  24.610  15.472  1.00  0.00    -0.027 C 
ATOM      3  C   UNL     1      12.292  23.627  15.873  1.00  0.00     0.039 C 
ENDROOT
BRANCH   2   4
ATOM      4  C   UNL     1      15.568  25.677  15.367  1.00  0.00     0.032 C 
BRANCH   4   5
ATOM      5  C   UNL     1      15.660  26.368  13.990  1.00  0.00     0.034 C 
BRANCH   5   6
ATOM      6  C   UNL     1      15.400  27.863  14.054  1.00  0.00    -0.077 C 
ATOM      7  C   UNL     1      16.483  28.738  14.632  1.00  0.00     0.039 C 
ATOM      8  C   UNL     1      14.290  28.466  13.564  1.00  0.00    -0.023 CG0
ATOM      9  G   UNL     1      13.073  27.793  12.960  1.00  0.00     0.000 G0
ENDBRANCH   5   6
ENDBRANCH   4   5
ENDBRANCH   2   4
BRANCH   1  10
ATOM     10  C   UNL     1      12.591  26.210  15.875  1.00  0.00     0.111 C 
BRANCH  10  11
ATOM     11  C   UNL     1      11.672  26.569  14.737  1.00  0.00     0.163 C 
ATOM     12  O   UNL     1      10.673  25.829  14.525  1.00  0.00    -0.294 OA
BRANCH  11  13
ATOM     13  C   UNL     1      11.869  27.791  13.903  1.00  0.00    -0.002 C 
ATOM     14  C   UNL     1      11.048  28.876  14.048  1.00  0.00    -0.069 C 
ATOM     15  C   UNL     1       9.826  28.821  14.937  1.00  0.00     0.039 C 
ATOM     16  C   UNL     1      11.316  30.183  13.335  1.00  0.00     0.039 C 
BRANCH  13  17
ATOM     17  C   UNL     1      13.066  27.810  12.967  1.00  0.00     0.066 CG0
ATOM     18  G   UNL     1      14.279  28.469  13.594  1.00  0.00     0.000 G0
ENDBRANCH  13  17
ENDBRANCH  11  13
ENDBRANCH  10  11
ENDBRANCH   1  10
TORSDOF 0
ENDMDL
MODEL 5
REMARK VINA RESULT:    -2.972      1.570      4.059
REMARK INTER + INTRA:          -4.061
REMARK INTER:                  -4.665
REMARK INTRA:                   0.605
REMARK UNBOUND:                 0.128
REMARK SMILES CC1=CCC(=C(C)C)C(=O)CC(C)=CCC1
REMARK SMILES IDX 12 1 14 2 13 3 15 4 16 5 2 6 1 7 3 8 11 10 9 11 10 12 5 13
REMARK SMILES IDX 6 14 7 15 8 16 4 17
REMARK H PARENT
REMARK Flexibility Score: 60.00
ROOT
ATOM      1  C   UNL     1      13.009  24.888  15.052  1.00  0.00    -0.070 C 
ATOM      2  C   UNL     1      12.556  26.142  15.272  1.00  0.00    -0.027 C 
ATOM      3  C   UNL     1      12.294  23.748  15.732  1.00  0.00     0.039 C 
ENDROOT
BRANCH   2   4
ATOM      4  C   UNL     1      13.075  27.398  14.609  1.00  0.00     0.032 C 
BRANCH   4   5
ATOM      5  C   UNL     1      14.162  28.149  15.405  1.00  0.00     0.034 C 
BRANCH   5   6
ATOM      6  C   UNL     1      15.514  28.151  14.715  1.00  0.00    -0.077 C 
ATOM      7  C   UNL     1      15.809  29.274  13.754  1.00  0.00     0.039 C 
ATOM      8  C   UNL     1      16.497  27.249  14.959  1.00  0.00    -0.023 CG0
ATOM      9  G   UNL     1      16.421  26.035  15.863  1.00  0.00     0.000 G0
ENDBRANCH   5   6
ENDBRANCH   4   5
ENDBRANCH   2   4
BRANCH   1  10
ATOM     10  C   UNL     1      14.135  24.568  14.089  1.00  0.00     0.111 C 
BRANCH  10  11
ATOM     11  C   UNL     1      15.313  23.951  14.796  1.00  0.00     0.163 C 
ATOM     12  O   UNL     1      15.246  22.730  15.106  1.00  0.00    -0.294 OA
BRANCH  11  13
ATOM     13  C   UNL     1      16.565  24.711  15.081  1.00  0.00    -0.002 C 
ATOM     14  C   UNL     1      17.768  24.287  14.588  1.00  0.00    -0.069 C 
ATOM     15  C   UNL     1      17.900  22.960  13.874  1.00  0.00     0.039 C 
ATOM     16  C   UNL     1      19.026  25.117  14.724  1.00  0.00     0.039 C 
BRANCH  13  17
ATOM     17  C   UNL     1      16.428  26.013  15.854  1.00  0.00     0.066 CG0
ATOM     18  G   UNL     1      16.502  27.229  14.952  1.00  0.00     0.000 G0
ENDBRANCH  13  17
ENDBRANCH  11  13
ENDBRANCH  10  11
ENDBRANCH   1  10
TORSDOF 0
ENDMDL
MODEL 6
REMARK VINA RESULT:    -2.902      5.664      7.486
REMARK INTER + INTRA:          -3.961
REMARK INTER:                  -4.634
REMARK INTRA:                   0.673
REMARK UNBOUND:                 0.128
REMARK SMILES CC1=CCC(=C(C)C)C(=O)CC(C)=CCC1
REMARK SMILES IDX 12 1 14 2 13 3 15 4 16 5 2 6 1 7 3 8 11 10 9 11 10 12 5 13
REMARK SMILES IDX 6 14 7 15 8 16 4 17
REMARK H PARENT
REMARK Flexibility Score: 60.00
ROOT
ATOM      1  C   UNL     1       6.642  29.617  16.666  1.00  0.00    -0.070 C 
ATOM      2  C   UNL     1       7.584  30.582  16.752  1.00  0.00    -0.027 C 
ATOM      3  C   UNL     1       5.573  29.576  17.728  1.00  0.00     0.039 C 
ENDROOT
BRANCH   2   4
ATOM      4  C   UNL     1       8.675  30.845  15.738  1.00  0.00     0.032 C 
BRANCH   4   5
ATOM      5  C   UNL     1       9.640  29.665  15.503  1.00  0.00     0.034 C 
BRANCH   5   6
ATOM      6  C   UNL     1       9.619  29.151  14.075  1.00  0.00    -0.077 C 
ATOM      7  C   UNL     1       9.824  30.152  12.966  1.00  0.00     0.039 C 
ATOM      8  C   UNL     1       9.496  27.844  13.735  1.00  0.00    -0.023 CG0
ATOM      9  G   UNL     1       9.263  26.674  14.670  1.00  0.00     0.000 G0
ENDBRANCH   5   6
ENDBRANCH   4   5
ENDBRANCH   2   4
BRANCH   1  10
ATOM     10  C   UNL     1       6.557  28.639  15.511  1.00  0.00     0.111 C 
BRANCH  10  11
ATOM     11  C   UNL     1       7.085  27.281  15.891  1.00  0.00     0.163 C 
ATOM     12  O   UNL     1       6.879  26.871  17.066  1.00  0.00    -0.294 OA
BRANCH  11  13
ATOM     13  C   UNL     1       7.782  26.391  14.916  1.00  0.00    -0.002 C 
ATOM     14  C   UNL     1       7.089  25.440  14.219  1.00  0.00    -0.069 C 
ATOM     15  C   UNL     1       5.634  25.151  14.520  1.00  0.00     0.039 C 
ATOM     16  C   UNL     1       7.730  24.631  13.113  1.00  0.00     0.039 C 
BRANCH  13  17
ATOM     17  C   UNL     1       9.259  26.650  14.668  1.00  0.00     0.066 CG0
ATOM     18  G   UNL     1       9.489  27.828  13.742  1.00  0.00     0.000 G0
ENDBRANCH  13  17
ENDBRANCH  11  13
ENDBRANCH  10  11
ENDBRANCH   1  10
TORSDOF 0
ENDMDL
MODEL 7
REMARK VINA RESULT:    -2.889      1.898      5.029
REMARK INTER + INTRA:          -3.944
REMARK INTER:                  -4.347
REMARK INTRA:                   0.404
REMARK UNBOUND:                 0.128
REMARK SMILES CC1=CCC(=C(C)C)C(=O)CC(C)=CCC1
REMARK SMILES IDX 12 1 14 2 13 3 15 4 16 5 2 6 1 7 3 8 11 10 9 11 10 12 5 13
REMARK SMILES IDX 6 14 7 15 8 16 4 17
REMARK H PARENT
REMARK Flexibility Score: 60.00
ROOT
ATOM      1  C   UNL     1      11.577  27.513  13.924  1.00  0.00    -0.070 C 
ATOM      2  C   UNL     1      11.046  26.293  13.689  1.00  0.00    -0.027 C 
ATOM      3  C   UNL     1      10.767  28.493  14.733  1.00  0.00     0.039 C 
ENDROOT
BRANCH   2   4
ATOM      4  C   UNL     1      11.739  25.148  12.986  1.00  0.00     0.032 C 
BRANCH   4   5
ATOM      5  C   UNL     1      12.023  23.918  13.873  1.00  0.00     0.034 C 
BRANCH   5   6
ATOM      6  C   UNL     1      12.568  24.284  15.243  1.00  0.00    -0.077 C 
ATOM      7  C   UNL     1      11.722  23.950  16.445  1.00  0.00     0.039 C 
ATOM      8  C   UNL     1      13.791  24.826  15.458  1.00  0.00    -0.023 CG0
ATOM      9  G   UNL     1      14.798  25.259  14.411  1.00  0.00     0.000 G0
ENDBRANCH   5   6
ENDBRANCH   4   5
ENDBRANCH   2   4
BRANCH   1  10
ATOM     10  C   UNL     1      12.976  27.907  13.493  1.00  0.00     0.111 C 
BRANCH  10  11
ATOM     11  C   UNL     1      13.978  27.692  14.597  1.00  0.00     0.163 C 
ATOM     12  O   UNL     1      13.797  28.294  15.689  1.00  0.00    -0.294 OA
BRANCH  11  13
ATOM     13  C   UNL     1      15.130  26.751  14.461  1.00  0.00    -0.002 C 
ATOM     14  C   UNL     1      16.416  27.215  14.464  1.00  0.00    -0.069 C 
ATOM     15  C   UNL     1      16.715  28.698  14.447  1.00  0.00     0.039 C 
ATOM     16  C   UNL     1      17.605  26.280  14.488  1.00  0.00     0.039 C 
BRANCH  13  17
ATOM     17  C   UNL     1      14.813  25.265  14.416  1.00  0.00     0.066 CG0
ATOM     18  G   UNL     1      13.797  24.860  15.467  1.00  0.00     0.000 G0
ENDBRANCH  13  17
ENDBRANCH  11  13
ENDBRANCH  10  11
ENDBRANCH   1  10
TORSDOF 0
ENDMDL
MODEL 8
REMARK VINA RESULT:    -2.764      9.636     12.264
REMARK INTER + INTRA:          -3.768
REMARK INTER:                  -3.954
REMARK INTRA:                   0.186
REMARK UNBOUND:                 0.128
REMARK SMILES CC1=CCC(=C(C)C)C(=O)CC(C)=CCC1
REMARK SMILES IDX 12 1 14 2 13 3 15 4 16 5 2 6 1 7 3 8 11 10 9 11 10 12 5 13
REMARK SMILES IDX 6 14 7 15 8 16 4 17
REMARK H PARENT
REMARK Flexibility Score: 60.00
ROOT
ATOM      1  C   UNL     1      17.287  16.648  14.693  1.00  0.00    -0.070 C 
ATOM      2  C   UNL     1      18.373  15.844  14.718  1.00  0.00    -0.027 C 
ATOM      3  C   UNL     1      17.457  18.080  15.129  1.00  0.00     0.039 C 
ENDROOT
BRANCH   2   4
ATOM      4  C   UNL     1      18.426  14.413  14.231  1.00  0.00     0.032 C 
BRANCH   4   5
ATOM      5  C   UNL     1      17.858  13.372  15.217  1.00  0.00     0.034 C 
BRANCH   5   6
ATOM      6  C   UNL     1      16.893  12.396  14.565  1.00  0.00    -0.077 C 
ATOM      7  C   UNL     1      17.458  11.406  13.579  1.00  0.00     0.039 C 
ATOM      8  C   UNL     1      15.573  12.313  14.863  1.00  0.00    -0.023 CG0
ATOM      9  G   UNL     1      14.789  13.209  15.801  1.00  0.00     0.000 G0
ENDBRANCH   5   6
ENDBRANCH   4   5
ENDBRANCH   2   4
BRANCH   1  10
ATOM     10  C   UNL     1      15.937  16.204  14.163  1.00  0.00     0.111 C 
BRANCH  10  11
ATOM     11  C   UNL     1      15.043  15.706  15.268  1.00  0.00     0.163 C 
ATOM     12  O   UNL     1      14.945  16.405  16.313  1.00  0.00    -0.294 OA
BRANCH  11  13
ATOM     13  C   UNL     1      14.232  14.459  15.142  1.00  0.00    -0.002 C 
ATOM     14  C   UNL     1      13.100  14.437  14.376  1.00  0.00    -0.069 C 
ATOM     15  C   UNL     1      12.544  15.702  13.760  1.00  0.00     0.039 C 
ATOM     16  C   UNL     1      12.345  13.155  14.099  1.00  0.00     0.039 C 
BRANCH  13  17
ATOM     17  C   UNL     1      14.769  13.208  15.818  1.00  0.00     0.066 CG0
ATOM     18  G   UNL     1      15.552  12.328  14.863  1.00  0.00     0.000 G0
ENDBRANCH  13  17
ENDBRANCH  11  13
ENDBRANCH  10  11
ENDBRANCH   1  10
TORSDOF 0
ENDMDL
MODEL 9
REMARK VINA RESULT:    -2.592      7.134      9.346
REMARK INTER + INTRA:          -3.525
REMARK INTER:                  -4.044
REMARK INTRA:                   0.519
REMARK UNBOUND:                 0.128
REMARK SMILES CC1=CCC(=C(C)C)C(=O)CC(C)=CCC1
REMARK SMILES IDX 12 1 14 2 13 3 15 4 16 5 2 6 1 7 3 8 11 10 9 11 10 12 5 13
REMARK SMILES IDX 6 14 7 15 8 16 4 17
REMARK H PARENT
REMARK Flexibility Score: 60.00
ROOT
ATOM      1  C   UNL     1       5.315  27.909  16.823  1.00  0.00    -0.070 C 
ATOM      2  C   UNL     1       4.142  27.471  16.315  1.00  0.00    -0.027 C 
ATOM      3  C   UNL     1       5.367  29.311  17.375  1.00  0.00     0.039 C 
ENDROOT
BRANCH   2   4
ATOM      4  C   UNL     1       3.865  26.074  15.807  1.00  0.00     0.032 C 
BRANCH   4   5
ATOM      5  C   UNL     1       3.787  25.946  14.271  1.00  0.00     0.034 C 
BRANCH   5   6
ATOM      6  C   UNL     1       5.075  25.435  13.649  1.00  0.00    -0.077 C 
ATOM      7  C   UNL     1       5.177  23.958  13.365  1.00  0.00     0.039 C 
ATOM      8  C   UNL     1       6.107  26.227  13.269  1.00  0.00    -0.023 CG0
ATOM      9  G   UNL     1       6.233  27.725  13.470  1.00  0.00     0.000 G0
ENDBRANCH   5   6
ENDBRANCH   4   5
ENDBRANCH   2   4
BRANCH   1  10
ATOM     10  C   UNL     1       6.546  27.032  16.947  1.00  0.00     0.111 C 
BRANCH  10  11
ATOM     11  C   UNL     1       7.367  27.045  15.685  1.00  0.00     0.163 C 
ATOM     12  O   UNL     1       8.202  26.116  15.510  1.00  0.00    -0.294 OA
BRANCH  11  13
ATOM     13  C   UNL     1       7.183  28.075  14.620  1.00  0.00    -0.002 C 
ATOM     14  C   UNL     1       7.903  29.237  14.639  1.00  0.00    -0.069 C 
ATOM     15  C   UNL     1       8.789  29.592  15.812  1.00  0.00     0.039 C 
ATOM     16  C   UNL     1       7.857  30.227  13.495  1.00  0.00     0.039 C 
BRANCH  13  17
ATOM     17  C   UNL     1       6.241  27.733  13.477  1.00  0.00     0.066 CG0
ATOM     18  G   UNL     1       6.114  26.237  13.262  1.00  0.00     0.000 G0
ENDBRANCH  13  17
ENDBRANCH  11  13
ENDBRANCH  10  11
ENDBRANCH   1  10
TORSDOF 0
ENDMDL
