MODEL 1
REMARK VINA RESULT:    -3.753      0.000      0.000
REMARK INTER + INTRA:          -4.331
REMARK INTER:                  -4.082
REMARK INTRA:                  -0.250
REMARK UNBOUND:                -0.250
REMARK SMILES CC1=C2C[C@@H](C(C)(C)O)CC[C@@]2(C)CCC1
REMARK SMILES IDX 6 1 7 2 8 3 5 4 1 5 2 6 3 7 16 8 4 9 12 10 15 11 11 12 14 13
REMARK SMILES IDX 13 14 10 15 9 16
REMARK H PARENT 9 17
REMARK Flexibility Score: inf
ROOT
ATOM      1  C   UNL     1       3.481  47.188  47.350  1.00  0.00     0.062 C 
ATOM      2  C   UNL     1       2.314  48.110  46.937  1.00  0.00     0.042 C 
ATOM      3  C   UNL     1       4.602  48.097  47.912  1.00  0.00     0.042 C 
ENDROOT
BRANCH   1   4
ATOM      4  C   UNL     1       2.988  46.139  48.419  1.00  0.00     0.024 C 
ATOM      5  C   UNL     1      -1.125  44.565  47.840  1.00  0.00     0.039 C 
ATOM      6  C   UNL     1      -0.346  44.342  49.119  1.00  0.00    -0.074 C 
ATOM      7  C   UNL     1       0.941  44.795  49.256  1.00  0.00    -0.065 C 
ATOM      8  C   UNL     1      -1.125  43.733  50.270  1.00  0.00     0.031 C 
ATOM      9  C   UNL     1       1.610  45.515  48.086  1.00  0.00     0.038 C 
ATOM     10  C   UNL     1       1.773  44.471  50.513  1.00  0.00    -0.011 C 
ATOM     11  C   UNL     1      -0.257  43.213  51.412  1.00  0.00     0.005 C 
ATOM     12  C   UNL     1       2.760  45.634  50.893  1.00  0.00     0.011 C 
ATOM     13  C   UNL     1       0.847  44.214  51.733  1.00  0.00     0.011 C 
ATOM     14  C   UNL     1       2.594  43.189  50.218  1.00  0.00     0.016 C 
ATOM     15  C   UNL     1       2.914  46.735  49.836  1.00  0.00     0.008 C 
ENDBRANCH   1   4
BRANCH   1  16
ATOM     16  O   UNL     1       3.937  46.540  46.183  1.00  0.00    -0.390 OA
ATOM     17  H   UNL     1       3.212  45.956  45.844  1.00  0.00     0.211 HD
ENDBRANCH   1  16
TORSDOF 2
ENDMDL
MODEL 2
REMARK VINA RESULT:    -1.575     23.547     24.997
REMARK INTER + INTRA:          -1.962
REMARK INTER:                  -1.699
REMARK INTRA:                  -0.264
REMARK UNBOUND:                -0.250
REMARK SMILES CC1=C2C[C@@H](C(C)(C)O)CC[C@@]2(C)CCC1
REMARK SMILES IDX 6 1 7 2 8 3 5 4 1 5 2 6 3 7 16 8 4 9 12 10 15 11 11 12 14 13
REMARK SMILES IDX 13 14 10 15 9 16
REMARK H PARENT 9 17
REMARK Flexibility Score: inf
ROOT
ATOM      1  C   UNL     1      18.510  28.763  36.796  1.00  0.00     0.062 C 
ATOM      2  C   UNL     1      18.862  27.975  38.076  1.00  0.00     0.042 C 
ATOM      3  C   UNL     1      19.117  27.985  35.601  1.00  0.00     0.042 C 
ENDROOT
BRANCH   1   4
ATOM      4  C   UNL     1      16.945  28.907  36.664  1.00  0.00     0.024 C 
ATOM      5  C   UNL     1      14.608  28.134  40.361  1.00  0.00     0.039 C 
ATOM      6  C   UNL     1      13.955  28.247  39.000  1.00  0.00    -0.074 C 
ATOM      7  C   UNL     1      14.691  28.536  37.880  1.00  0.00    -0.065 C 
ATOM      8  C   UNL     1      12.485  27.875  38.938  1.00  0.00     0.031 C 
ATOM      9  C   UNL     1      16.195  28.773  38.012  1.00  0.00     0.038 C 
ATOM     10  C   UNL     1      14.013  28.763  36.514  1.00  0.00    -0.011 C 
ATOM     11  C   UNL     1      11.778  28.313  37.660  1.00  0.00     0.005 C 
ATOM     12  C   UNL     1      14.897  28.261  35.316  1.00  0.00     0.011 C 
ATOM     13  C   UNL     1      12.652  28.018  36.447  1.00  0.00     0.011 C 
ATOM     14  C   UNL     1      13.768  30.287  36.356  1.00  0.00     0.016 C 
ATOM     15  C   UNL     1      16.342  27.892  35.677  1.00  0.00     0.008 C 
ENDBRANCH   1   4
BRANCH   1  16
ATOM     16  O   UNL     1      19.125  30.027  36.898  1.00  0.00    -0.390 OA
ATOM     17  H   UNL     1      18.480  30.716  36.595  1.00  0.00     0.211 HD
ENDBRANCH   1  16
TORSDOF 2
ENDMDL
MODEL 3
REMARK VINA RESULT:    -1.423      1.229      2.426
REMARK INTER + INTRA:          -1.797
REMARK INTER:                  -1.603
REMARK INTRA:                  -0.195
REMARK UNBOUND:                -0.250
REMARK SMILES CC1=C2C[C@@H](C(C)(C)O)CC[C@@]2(C)CCC1
REMARK SMILES IDX 6 1 7 2 8 3 5 4 1 5 2 6 3 7 16 8 4 9 12 10 15 11 11 12 14 13
REMARK SMILES IDX 13 14 10 15 9 16
REMARK H PARENT 9 17
REMARK Flexibility Score: inf
ROOT
ATOM      1  C   UNL     1       3.039  47.078  47.406  1.00  0.00     0.062 C 
ATOM      2  C   UNL     1       2.393  48.125  46.474  1.00  0.00     0.042 C 
ATOM      3  C   UNL     1       4.334  47.712  47.973  1.00  0.00     0.042 C 
ENDROOT
BRANCH   1   4
ATOM      4  C   UNL     1       2.032  46.680  48.552  1.00  0.00     0.024 C 
ATOM      5  C   UNL     1       2.822  42.802  50.569  1.00  0.00     0.039 C 
ATOM      6  C   UNL     1       1.526  43.562  50.755  1.00  0.00    -0.074 C 
ATOM      7  C   UNL     1       1.324  44.781  50.162  1.00  0.00    -0.065 C 
ATOM      8  C   UNL     1       0.429  42.826  51.503  1.00  0.00     0.031 C 
ATOM      9  C   UNL     1       2.439  45.396  49.317  1.00  0.00     0.038 C 
ATOM     10  C   UNL     1       0.052  45.606  50.441  1.00  0.00    -0.011 C 
ATOM     11  C   UNL     1      -0.721  43.713  51.967  1.00  0.00     0.005 C 
ATOM     12  C   UNL     1      -0.410  46.436  49.189  1.00  0.00     0.011 C 
ATOM     13  C   UNL     1      -1.122  44.680  50.859  1.00  0.00     0.011 C 
ATOM     14  C   UNL     1       0.369  46.583  51.604  1.00  0.00     0.016 C 
ATOM     15  C   UNL     1       0.595  46.492  48.032  1.00  0.00     0.008 C 
ENDBRANCH   1   4
BRANCH   1  16
ATOM     16  O   UNL     1       3.369  45.958  46.614  1.00  0.00    -0.390 OA
ATOM     17  H   UNL     1       3.440  45.166  47.205  1.00  0.00     0.211 HD
ENDBRANCH   1  16
TORSDOF 2
ENDMDL
MODEL 4
REMARK VINA RESULT:    -0.801      1.850      2.699
REMARK INTER + INTRA:          -1.121
REMARK INTER:                  -0.921
REMARK INTRA:                  -0.200
REMARK UNBOUND:                -0.250
REMARK SMILES CC1=C2C[C@@H](C(C)(C)O)CC[C@@]2(C)CCC1
REMARK SMILES IDX 6 1 7 2 8 3 5 4 1 5 2 6 3 7 16 8 4 9 12 10 15 11 11 12 14 13
REMARK SMILES IDX 13 14 10 15 9 16
REMARK H PARENT 9 17
REMARK Flexibility Score: inf
ROOT
ATOM      1  C   UNL     1       3.428  47.239  47.153  1.00  0.00     0.062 C 
ATOM      2  C   UNL     1       2.946  48.125  45.984  1.00  0.00     0.042 C 
ATOM      3  C   UNL     1       4.836  47.744  47.556  1.00  0.00     0.042 C 
ENDROOT
BRANCH   1   4
ATOM      4  C   UNL     1       2.409  47.328  48.353  1.00  0.00     0.024 C 
ATOM      5  C   UNL     1       1.858  43.603  50.710  1.00  0.00     0.039 C 
ATOM      6  C   UNL     1       0.935  44.795  50.852  1.00  0.00    -0.074 C 
ATOM      7  C   UNL     1       1.154  45.952  50.151  1.00  0.00    -0.065 C 
ATOM      8  C   UNL     1      -0.311  44.571  51.690  1.00  0.00     0.031 C 
ATOM      9  C   UNL     1       2.368  46.050  49.227  1.00  0.00     0.038 C 
ATOM     10  C   UNL     1       0.283  47.203  50.379  1.00  0.00    -0.011 C 
ATOM     11  C   UNL     1      -1.036  45.850  52.093  1.00  0.00     0.005 C 
ATOM     12  C   UNL     1       0.082  48.041  49.064  1.00  0.00     0.011 C 
ATOM     13  C   UNL     1      -1.122  46.804  50.909  1.00  0.00     0.011 C 
ATOM     14  C   UNL     1       0.993  48.088  51.438  1.00  0.00     0.016 C 
ATOM     15  C   UNL     1       0.975  47.634  47.885  1.00  0.00     0.008 C 
ENDBRANCH   1   4
BRANCH   1  16
ATOM     16  O   UNL     1       3.520  45.918  46.668  1.00  0.00    -0.390 OA
ATOM     17  H   UNL     1       4.124  45.406  47.264  1.00  0.00     0.211 HD
ENDBRANCH   1  16
TORSDOF 2
ENDMDL
