MODEL 1
REMARK VINA RESULT:    -5.811      0.000      0.000
REMARK INTER + INTRA:          -5.981
REMARK INTER:                  -5.981
REMARK INTRA:                   0.000
REMARK UNBOUND:                 0.000
REMARK SMILES O=c1ccc2ccc(O)cc2o1
REMARK SMILES IDX 6 1 7 2 8 3 10 4 11 5 5 6 4 7 3 8 2 9 1 10 12 11 9 12
REMARK H PARENT 9 13
REMARK Flexibility Score: inf
ROOT
ATOM      1  C   UNL     1      18.678  -4.312  20.878  1.00  0.00     0.016 A 
ATOM      2  C   UNL     1      18.413  -4.863  19.620  1.00  0.00     0.047 A 
ATOM      3  C   UNL     1      19.404  -4.876  18.630  1.00  0.00     0.119 A 
ATOM      4  C   UNL     1      20.669  -4.335  18.900  1.00  0.00     0.094 A 
ATOM      5  C   UNL     1      20.944  -3.781  20.155  1.00  0.00     0.142 A 
ATOM      6  C   UNL     1      19.941  -3.770  21.151  1.00  0.00     0.018 A 
ATOM      7  C   UNL     1      20.245  -3.211  22.396  1.00  0.00     0.019 A 
ATOM      8  C   UNL     1      21.517  -2.685  22.618  1.00  0.00     0.094 A 
ATOM      9  C   UNL     1      22.460  -2.730  21.585  1.00  0.00     0.336 A 
ATOM     10  O   UNL     1      23.614  -2.260  21.765  1.00  0.00    -0.246 OA
ATOM     11  O   UNL     1      22.145  -3.268  20.409  1.00  0.00    -0.423 OA
ENDROOT
BRANCH   3  12
ATOM     12  O   UNL     1      19.120  -5.429  17.384  1.00  0.00    -0.508 OA
ATOM     13  H   UNL     1      19.456  -5.004  16.527  1.00  0.00     0.293 HD
ENDBRANCH   3  12
TORSDOF 1
ENDMDL
MODEL 2
REMARK VINA RESULT:    -5.677      2.909      4.774
REMARK INTER + INTRA:          -5.843
REMARK INTER:                  -5.843
REMARK INTRA:                   0.000
REMARK UNBOUND:                 0.000
REMARK SMILES O=c1ccc2ccc(O)cc2o1
REMARK SMILES IDX 6 1 7 2 8 3 10 4 11 5 5 6 4 7 3 8 2 9 1 10 12 11 9 12
REMARK H PARENT 9 13
REMARK Flexibility Score: inf
ROOT
ATOM      1  C   UNL     1      20.263  -0.995  23.337  1.00  0.00     0.016 A 
ATOM      2  C   UNL     1      21.096  -2.066  23.677  1.00  0.00     0.047 A 
ATOM      3  C   UNL     1      21.058  -3.254  22.937  1.00  0.00     0.119 A 
ATOM      4  C   UNL     1      20.183  -3.372  21.848  1.00  0.00     0.094 A 
ATOM      5  C   UNL     1      19.347  -2.306  21.499  1.00  0.00     0.142 A 
ATOM      6  C   UNL     1      19.387  -1.109  22.249  1.00  0.00     0.018 A 
ATOM      7  C   UNL     1      18.541  -0.060  21.877  1.00  0.00     0.019 A 
ATOM      8  C   UNL     1      17.687  -0.224  20.786  1.00  0.00     0.094 A 
ATOM      9  C   UNL     1      17.700  -1.437  20.091  1.00  0.00     0.336 A 
ATOM     10  O   UNL     1      16.937  -1.605  19.103  1.00  0.00    -0.246 OA
ATOM     11  O   UNL     1      18.517  -2.420  20.465  1.00  0.00    -0.423 OA
ENDROOT
BRANCH   3  12
ATOM     12  O   UNL     1      21.895  -4.309  23.292  1.00  0.00    -0.508 OA
ATOM     13  H   UNL     1      22.116  -4.506  24.261  1.00  0.00     0.293 HD
ENDBRANCH   3  12
TORSDOF 1
ENDMDL
MODEL 3
REMARK VINA RESULT:    -5.498      2.562      4.515
REMARK INTER + INTRA:          -5.659
REMARK INTER:                  -5.659
REMARK INTRA:                   0.000
REMARK UNBOUND:                 0.000
REMARK SMILES O=c1ccc2ccc(O)cc2o1
REMARK SMILES IDX 6 1 7 2 8 3 10 4 11 5 5 6 4 7 3 8 2 9 1 10 12 11 9 12
REMARK H PARENT 9 13
REMARK Flexibility Score: inf
ROOT
ATOM      1  C   UNL     1      20.255  -4.092  20.036  1.00  0.00     0.016 A 
ATOM      2  C   UNL     1      21.376  -4.102  19.200  1.00  0.00     0.047 A 
ATOM      3  C   UNL     1      21.250  -3.781  17.843  1.00  0.00     0.119 A 
ATOM      4  C   UNL     1      19.994  -3.445  17.318  1.00  0.00     0.094 A 
ATOM      5  C   UNL     1      18.867  -3.432  18.146  1.00  0.00     0.142 A 
ATOM      6  C   UNL     1      18.998  -3.757  19.515  1.00  0.00     0.018 A 
ATOM      7  C   UNL     1      17.854  -3.735  20.319  1.00  0.00     0.019 A 
ATOM      8  C   UNL     1      16.626  -3.395  19.752  1.00  0.00     0.094 A 
ATOM      9  C   UNL     1      16.571  -3.084  18.389  1.00  0.00     0.336 A 
ATOM     10  O   UNL     1      15.472  -2.775  17.858  1.00  0.00    -0.246 OA
ATOM     11  O   UNL     1      17.676  -3.113  17.646  1.00  0.00    -0.423 OA
ENDROOT
BRANCH   3  12
ATOM     12  O   UNL     1      22.379  -3.797  17.027  1.00  0.00    -0.508 OA
ATOM     13  H   UNL     1      23.255  -4.195  17.344  1.00  0.00     0.293 HD
ENDBRANCH   3  12
TORSDOF 1
ENDMDL
MODEL 4
REMARK VINA RESULT:    -5.485      1.559      2.256
REMARK INTER + INTRA:          -5.645
REMARK INTER:                  -5.645
REMARK INTRA:                   0.000
REMARK UNBOUND:                 0.000
REMARK SMILES O=c1ccc2ccc(O)cc2o1
REMARK SMILES IDX 6 1 7 2 8 3 10 4 11 5 5 6 4 7 3 8 2 9 1 10 12 11 9 12
REMARK H PARENT 9 13
REMARK Flexibility Score: inf
ROOT
ATOM      1  C   UNL     1      21.106  -4.183  19.122  1.00  0.00     0.016 A 
ATOM      2  C   UNL     1      19.934  -4.804  18.678  1.00  0.00     0.047 A 
ATOM      3  C   UNL     1      18.771  -4.763  19.458  1.00  0.00     0.119 A 
ATOM      4  C   UNL     1      18.780  -4.094  20.691  1.00  0.00     0.094 A 
ATOM      5  C   UNL     1      19.948  -3.470  21.144  1.00  0.00     0.142 A 
ATOM      6  C   UNL     1      21.118  -3.514  20.354  1.00  0.00     0.018 A 
ATOM      7  C   UNL     1      22.269  -2.880  20.831  1.00  0.00     0.019 A 
ATOM      8  C   UNL     1      22.230  -2.228  22.064  1.00  0.00     0.094 A 
ATOM      9  C   UNL     1      21.035  -2.225  22.792  1.00  0.00     0.336 A 
ATOM     10  O   UNL     1      20.979  -1.642  23.906  1.00  0.00    -0.246 OA
ATOM     11  O   UNL     1      19.953  -2.836  22.314  1.00  0.00    -0.423 OA
ENDROOT
BRANCH   3  12
ATOM     12  O   UNL     1      17.615  -5.388  18.999  1.00  0.00    -0.508 OA
ATOM     13  H   UNL     1      16.944  -4.898  18.418  1.00  0.00     0.293 HD
ENDBRANCH   3  12
TORSDOF 1
ENDMDL
MODEL 5
REMARK VINA RESULT:    -5.458      2.549      3.584
REMARK INTER + INTRA:          -5.617
REMARK INTER:                  -5.617
REMARK INTRA:                   0.000
REMARK UNBOUND:                 0.000
REMARK SMILES O=c1ccc2ccc(O)cc2o1
REMARK SMILES IDX 6 1 7 2 8 3 10 4 11 5 5 6 4 7 3 8 2 9 1 10 12 11 9 12
REMARK H PARENT 9 13
REMARK Flexibility Score: inf
ROOT
ATOM      1  C   UNL     1      17.971  -3.264  20.582  1.00  0.00     0.016 A 
ATOM      2  C   UNL     1      16.627  -3.326  20.200  1.00  0.00     0.047 A 
ATOM      3  C   UNL     1      16.263  -3.933  18.991  1.00  0.00     0.119 A 
ATOM      4  C   UNL     1      17.249  -4.482  18.159  1.00  0.00     0.094 A 
ATOM      5  C   UNL     1      18.596  -4.424  18.533  1.00  0.00     0.142 A 
ATOM      6  C   UNL     1      18.960  -3.811  19.753  1.00  0.00     0.018 A 
ATOM      7  C   UNL     1      20.313  -3.769  20.100  1.00  0.00     0.019 A 
ATOM      8  C   UNL     1      21.258  -4.328  19.240  1.00  0.00     0.094 A 
ATOM      9  C   UNL     1      20.825  -4.918  18.048  1.00  0.00     0.336 A 
ATOM     10  O   UNL     1      21.663  -5.429  17.258  1.00  0.00    -0.246 OA
ATOM     11  O   UNL     1      19.530  -4.946  17.741  1.00  0.00    -0.423 OA
ENDROOT
BRANCH   3  12
ATOM     12  O   UNL     1      14.919  -3.985  18.628  1.00  0.00    -0.508 OA
ATOM     13  H   UNL     1      14.625  -3.851  17.668  1.00  0.00     0.293 HD
ENDBRANCH   3  12
TORSDOF 1
ENDMDL
MODEL 6
REMARK VINA RESULT:    -5.413      2.947      3.891
REMARK INTER + INTRA:          -5.571
REMARK INTER:                  -5.571
REMARK INTRA:                   0.000
REMARK UNBOUND:                 0.000
REMARK SMILES O=c1ccc2ccc(O)cc2o1
REMARK SMILES IDX 6 1 7 2 8 3 10 4 11 5 5 6 4 7 3 8 2 9 1 10 12 11 9 12
REMARK H PARENT 9 13
REMARK Flexibility Score: inf
ROOT
ATOM      1  C   UNL     1      16.453  -1.854  18.099  1.00  0.00     0.016 A 
ATOM      2  C   UNL     1      15.435  -2.805  18.222  1.00  0.00     0.047 A 
ATOM      3  C   UNL     1      15.730  -4.106  18.646  1.00  0.00     0.119 A 
ATOM      4  C   UNL     1      17.052  -4.459  18.951  1.00  0.00     0.094 A 
ATOM      5  C   UNL     1      18.078  -3.515  18.830  1.00  0.00     0.142 A 
ATOM      6  C   UNL     1      17.776  -2.203  18.401  1.00  0.00     0.018 A 
ATOM      7  C   UNL     1      18.821  -1.281  18.291  1.00  0.00     0.019 A 
ATOM      8  C   UNL     1      20.120  -1.678  18.604  1.00  0.00     0.094 A 
ATOM      9  C   UNL     1      20.345  -2.994  19.022  1.00  0.00     0.336 A 
ATOM     10  O   UNL     1      21.511  -3.373  19.310  1.00  0.00    -0.246 OA
ATOM     11  O   UNL     1      19.332  -3.853  19.119  1.00  0.00    -0.423 OA
ENDROOT
BRANCH   3  12
ATOM     12  O   UNL     1      14.702  -5.038  18.763  1.00  0.00    -0.508 OA
ATOM     13  H   UNL     1      13.744  -4.802  18.532  1.00  0.00     0.293 HD
ENDBRANCH   3  12
TORSDOF 1
ENDMDL
MODEL 7
REMARK VINA RESULT:    -5.402      3.183      3.753
REMARK INTER + INTRA:          -5.560
REMARK INTER:                  -5.560
REMARK INTRA:                   0.000
REMARK UNBOUND:                 0.000
REMARK SMILES O=c1ccc2ccc(O)cc2o1
REMARK SMILES IDX 6 1 7 2 8 3 10 4 11 5 5 6 4 7 3 8 2 9 1 10 12 11 9 12
REMARK H PARENT 9 13
REMARK Flexibility Score: inf
ROOT
ATOM      1  C   UNL     1      19.275  -4.080  20.546  1.00  0.00     0.016 A 
ATOM      2  C   UNL     1      18.505  -4.905  19.719  1.00  0.00     0.047 A 
ATOM      3  C   UNL     1      17.237  -4.493  19.290  1.00  0.00     0.119 A 
ATOM      4  C   UNL     1      16.736  -3.246  19.690  1.00  0.00     0.094 A 
ATOM      5  C   UNL     1      17.498  -2.414  20.517  1.00  0.00     0.142 A 
ATOM      6  C   UNL     1      18.776  -2.834  20.948  1.00  0.00     0.018 A 
ATOM      7  C   UNL     1      19.515  -1.981  21.773  1.00  0.00     0.019 A 
ATOM      8  C   UNL     1      18.974  -0.750  22.144  1.00  0.00     0.094 A 
ATOM      9  C   UNL     1      17.702  -0.400  21.680  1.00  0.00     0.336 A 
ATOM     10  O   UNL     1      17.196   0.706  22.004  1.00  0.00    -0.246 OA
ATOM     11  O   UNL     1      17.019  -1.231  20.894  1.00  0.00    -0.423 OA
ENDROOT
BRANCH   3  12
ATOM     12  O   UNL     1      16.487  -5.329  18.467  1.00  0.00    -0.508 OA
ATOM     13  H   UNL     1      16.724  -6.307  18.348  1.00  0.00     0.293 HD
ENDBRANCH   3  12
TORSDOF 1
ENDMDL
MODEL 8
REMARK VINA RESULT:    -5.346      2.161      4.870
REMARK INTER + INTRA:          -5.502
REMARK INTER:                  -5.502
REMARK INTRA:                   0.000
REMARK UNBOUND:                 0.000
REMARK SMILES O=c1ccc2ccc(O)cc2o1
REMARK SMILES IDX 6 1 7 2 8 3 10 4 11 5 5 6 4 7 3 8 2 9 1 10 12 11 9 12
REMARK H PARENT 9 13
REMARK Flexibility Score: inf
ROOT
ATOM      1  C   UNL     1      19.162  -0.561  22.129  1.00  0.00     0.016 A 
ATOM      2  C   UNL     1      20.241  -0.485  23.016  1.00  0.00     0.047 A 
ATOM      3  C   UNL     1      21.055  -1.603  23.239  1.00  0.00     0.119 A 
ATOM      4  C   UNL     1      20.789  -2.805  22.569  1.00  0.00     0.094 A 
ATOM      5  C   UNL     1      19.711  -2.892  21.681  1.00  0.00     0.142 A 
ATOM      6  C   UNL     1      18.892  -1.762  21.459  1.00  0.00     0.018 A 
ATOM      7  C   UNL     1      17.824  -1.878  20.565  1.00  0.00     0.019 A 
ATOM      8  C   UNL     1      17.598  -3.095  19.923  1.00  0.00     0.094 A 
ATOM      9  C   UNL     1      18.450  -4.172  20.191  1.00  0.00     0.336 A 
ATOM     10  O   UNL     1      18.263  -5.280  19.622  1.00  0.00    -0.246 OA
ATOM     11  O   UNL     1      19.461  -4.035  21.047  1.00  0.00    -0.423 OA
ENDROOT
BRANCH   3  12
ATOM     12  O   UNL     1      22.125  -1.506  24.125  1.00  0.00    -0.508 OA
ATOM     13  H   UNL     1      22.946  -0.954  23.905  1.00  0.00     0.293 HD
ENDBRANCH   3  12
TORSDOF 1
ENDMDL
MODEL 9
REMARK VINA RESULT:    -5.320      1.943      4.557
REMARK INTER + INTRA:          -5.476
REMARK INTER:                  -5.476
REMARK INTRA:                   0.000
REMARK UNBOUND:                 0.000
REMARK SMILES O=c1ccc2ccc(O)cc2o1
REMARK SMILES IDX 6 1 7 2 8 3 10 4 11 5 5 6 4 7 3 8 2 9 1 10 12 11 9 12
REMARK H PARENT 9 13
REMARK Flexibility Score: inf
ROOT
ATOM      1  C   UNL     1      21.238  -0.766  22.630  1.00  0.00     0.016 A 
ATOM      2  C   UNL     1      22.594  -1.109  22.624  1.00  0.00     0.047 A 
ATOM      3  C   UNL     1      23.043  -2.209  21.884  1.00  0.00     0.119 A 
ATOM      4  C   UNL     1      22.130  -2.972  21.142  1.00  0.00     0.094 A 
ATOM      5  C   UNL     1      20.771  -2.637  21.141  1.00  0.00     0.142 A 
ATOM      6  C   UNL     1      20.322  -1.526  21.890  1.00  0.00     0.018 A 
ATOM      7  C   UNL     1      18.959  -1.215  21.869  1.00  0.00     0.019 A 
ATOM      8  C   UNL     1      18.089  -2.003  21.116  1.00  0.00     0.094 A 
ATOM      9  C   UNL     1      18.605  -3.089  20.399  1.00  0.00     0.336 A 
ATOM     10  O   UNL     1      17.836  -3.812  19.714  1.00  0.00    -0.246 OA
ATOM     11  O   UNL     1      19.907  -3.363  20.436  1.00  0.00    -0.423 OA
ENDROOT
BRANCH   3  12
ATOM     12  O   UNL     1      24.397  -2.534  21.891  1.00  0.00    -0.508 OA
ATOM     13  H   UNL     1      24.928  -2.571  22.754  1.00  0.00     0.293 HD
ENDBRANCH   3  12
TORSDOF 1
ENDMDL
