MODEL 1
REMARK VINA RESULT:    -6.089      0.000      0.000
REMARK INTER + INTRA:         -14.867
REMARK INTER:                 -13.209
REMARK INTRA:                  -1.658
REMARK UNBOUND:                -1.658
REMARK SMILES CCCCCCCCCCCCCCCCCCCCCC(=O)[O-]
REMARK SMILES IDX 12 1 11 2 10 3 9 4 8 5 7 6 6 7 5 8 4 9 3 10 2 11 1 12 13 13
REMARK SMILES IDX 14 14 15 15 16 16 17 17 18 18 19 19 20 20 21 21 22 22 23 23
REMARK SMILES IDX 24 24
REMARK H PARENT
REMARK Flexibility Score: inf
ROOT
ATOM      1  C   UNL     1      -9.073  12.968   4.357  1.00  0.00     0.000 C 
ENDROOT
BRANCH   1   2
ATOM      2  C   UNL     1      -7.664  13.401   3.913  1.00  0.00     0.000 C 
BRANCH   2   3
ATOM      3  C   UNL     1      -7.541  13.588   2.393  1.00  0.00     0.000 C 
BRANCH   3   4
ATOM      4  C   UNL     1      -6.352  12.791   1.836  1.00  0.00    -0.000 C 
BRANCH   4   5
ATOM      5  C   UNL     1      -5.799  11.764   2.840  1.00  0.00    -0.000 C 
BRANCH   5   6
ATOM      6  C   UNL     1      -5.973  10.288   2.427  1.00  0.00    -0.000 C 
BRANCH   6   7
ATOM      7  C   UNL     1      -5.599   9.256   3.507  1.00  0.00    -0.000 C 
BRANCH   7   8
ATOM      8  C   UNL     1      -4.691   9.843   4.602  1.00  0.00    -0.000 C 
BRANCH   8   9
ATOM      9  C   UNL     1      -4.421   8.843   5.738  1.00  0.00    -0.000 C 
BRANCH   9  10
ATOM     10  C   UNL     1      -4.113   9.540   7.075  1.00  0.00    -0.000 C 
BRANCH  10  11
ATOM     11  C   UNL     1      -4.505   8.686   8.290  1.00  0.00    -0.003 C 
ATOM     12  C   UNL     1      -5.454   7.543   7.930  1.00  0.00     0.004 C 
ENDBRANCH  10  11
ENDBRANCH   9  10
ENDBRANCH   8   9
ENDBRANCH   7   8
ENDBRANCH   6   7
ENDBRANCH   5   6
ENDBRANCH   4   5
ENDBRANCH   3   4
ENDBRANCH   2   3
ENDBRANCH   1   2
BRANCH   1  13
ATOM     13  C   UNL     1      -9.956  12.364   3.248  1.00  0.00     0.000 C 
BRANCH  13  14
ATOM     14  C   UNL     1     -10.997  11.367   3.786  1.00  0.00     0.000 C 
BRANCH  14  15
ATOM     15  C   UNL     1     -11.179  11.457   5.311  1.00  0.00     0.000 C 
BRANCH  15  16
ATOM     16  C   UNL     1     -12.144  10.422   5.917  1.00  0.00     0.000 C 
BRANCH  16  17
ATOM     17  C   UNL     1     -12.009  10.297   7.442  1.00  0.00     0.000 C 
BRANCH  17  18
ATOM     18  C   UNL     1     -13.003  11.225   8.158  1.00  0.00     0.000 C 
BRANCH  18  19
ATOM     19  C   UNL     1     -12.391  12.587   8.535  1.00  0.00     0.000 C 
BRANCH  19  20
ATOM     20  C   UNL     1     -10.859  12.596   8.679  1.00  0.00     0.006 C 
BRANCH  20  21
ATOM     21  C   UNL     1     -10.350  13.709   9.604  1.00  0.00     0.053 C 
BRANCH  21  22
ATOM     22  C   UNL     1      -9.124  14.346   9.029  1.00  0.00     0.041 C 
ATOM     23  O   UNL     1      -8.870  14.238   7.799  1.00  0.00    -0.550 OA
ATOM     24  O   UNL     1      -8.281  15.091   9.844  1.00  0.00    -0.550 OA
ENDBRANCH  21  22
ENDBRANCH  20  21
ENDBRANCH  19  20
ENDBRANCH  18  19
ENDBRANCH  17  18
ENDBRANCH  16  17
ENDBRANCH  15  16
ENDBRANCH  14  15
ENDBRANCH  13  14
ENDBRANCH   1  13
TORSDOF 20
ENDMDL
MODEL 2
REMARK VINA RESULT:    -5.992      4.174      7.200
REMARK INTER + INTRA:         -14.656
REMARK INTER:                 -12.738
REMARK INTRA:                  -1.918
REMARK UNBOUND:                -1.658
REMARK SMILES CCCCCCCCCCCCCCCCCCCCCC(=O)[O-]
REMARK SMILES IDX 12 1 11 2 10 3 9 4 8 5 7 6 6 7 5 8 4 9 3 10 2 11 1 12 13 13
REMARK SMILES IDX 14 14 15 15 16 16 17 17 18 18 19 19 20 20 21 21 22 22 23 23
REMARK SMILES IDX 24 24
REMARK H PARENT
REMARK Flexibility Score: inf
ROOT
ATOM      1  C   UNL     1     -12.429  12.778   8.828  1.00  0.00     0.000 C 
ENDROOT
BRANCH   1   2
ATOM      2  C   UNL     1     -10.920  12.637   9.103  1.00  0.00     0.000 C 
BRANCH   2   3
ATOM      3  C   UNL     1     -10.250  13.966   9.483  1.00  0.00     0.000 C 
BRANCH   3   4
ATOM      4  C   UNL     1      -8.949  14.169   8.693  1.00  0.00    -0.000 C 
BRANCH   4   5
ATOM      5  C   UNL     1      -7.906  14.998   9.464  1.00  0.00    -0.000 C 
BRANCH   5   6
ATOM      6  C   UNL     1      -8.489  15.982  10.499  1.00  0.00    -0.000 C 
BRANCH   6   7
ATOM      7  C   UNL     1      -8.038  15.749  11.952  1.00  0.00    -0.000 C 
BRANCH   7   8
ATOM      8  C   UNL     1      -7.048  14.579  12.088  1.00  0.00    -0.000 C 
BRANCH   8   9
ATOM      9  C   UNL     1      -7.644  13.394  12.866  1.00  0.00    -0.000 C 
BRANCH   9  10
ATOM     10  C   UNL     1      -7.793  12.134  11.994  1.00  0.00    -0.000 C 
BRANCH  10  11
ATOM     11  C   UNL     1      -9.157  11.450  12.176  1.00  0.00    -0.003 C 
ATOM     12  C   UNL     1      -9.322  10.815  13.556  1.00  0.00     0.004 C 
ENDBRANCH  10  11
ENDBRANCH   9  10
ENDBRANCH   8   9
ENDBRANCH   7   8
ENDBRANCH   6   7
ENDBRANCH   5   6
ENDBRANCH   4   5
ENDBRANCH   3   4
ENDBRANCH   2   3
ENDBRANCH   1   2
BRANCH   1  13
ATOM     13  C   UNL     1     -13.073  11.600   8.072  1.00  0.00     0.000 C 
BRANCH  13  14
ATOM     14  C   UNL     1     -12.042  10.582   7.555  1.00  0.00     0.000 C 
BRANCH  14  15
ATOM     15  C   UNL     1     -12.020  10.481   6.020  1.00  0.00     0.000 C 
BRANCH  15  16
ATOM     16  C   UNL     1     -11.203  11.573   5.304  1.00  0.00     0.000 C 
BRANCH  16  17
ATOM     17  C   UNL     1     -10.804  11.182   3.873  1.00  0.00     0.000 C 
BRANCH  17  18
ATOM     18  C   UNL     1     -10.762  12.416   2.960  1.00  0.00     0.000 C 
BRANCH  18  19
ATOM     19  C   UNL     1      -9.689  13.438   3.378  1.00  0.00     0.000 C 
BRANCH  19  20
ATOM     20  C   UNL     1      -9.268  14.428   2.277  1.00  0.00     0.006 C 
BRANCH  20  21
ATOM     21  C   UNL     1      -7.747  14.598   2.172  1.00  0.00     0.053 C 
BRANCH  21  22
ATOM     22  C   UNL     1      -7.203  13.754   1.064  1.00  0.00     0.041 C 
ATOM     23  O   UNL     1      -5.967  13.754   0.814  1.00  0.00    -0.550 OA
ATOM     24  O   UNL     1      -8.054  12.937   0.330  1.00  0.00    -0.550 OA
ENDBRANCH  21  22
ENDBRANCH  20  21
ENDBRANCH  19  20
ENDBRANCH  18  19
ENDBRANCH  17  18
ENDBRANCH  16  17
ENDBRANCH  15  16
ENDBRANCH  14  15
ENDBRANCH  13  14
ENDBRANCH   1  13
TORSDOF 20
ENDMDL
MODEL 3
REMARK VINA RESULT:    -5.947      1.151      2.239
REMARK INTER + INTRA:         -14.559
REMARK INTER:                 -13.165
REMARK INTRA:                  -1.394
REMARK UNBOUND:                -1.658
REMARK SMILES CCCCCCCCCCCCCCCCCCCCCC(=O)[O-]
REMARK SMILES IDX 12 1 11 2 10 3 9 4 8 5 7 6 6 7 5 8 4 9 3 10 2 11 1 12 13 13
REMARK SMILES IDX 14 14 15 15 16 16 17 17 18 18 19 19 20 20 21 21 22 22 23 23
REMARK SMILES IDX 24 24
REMARK H PARENT
REMARK Flexibility Score: inf
ROOT
ATOM      1  C   UNL     1     -10.384  11.329   3.943  1.00  0.00     0.000 C 
ENDROOT
BRANCH   1   2
ATOM      2  C   UNL     1     -10.568  12.415   2.867  1.00  0.00     0.000 C 
BRANCH   2   3
ATOM      3  C   UNL     1      -9.250  13.091   2.460  1.00  0.00     0.000 C 
BRANCH   3   4
ATOM      4  C   UNL     1      -8.103  12.658   3.385  1.00  0.00    -0.000 C 
BRANCH   4   5
ATOM      5  C   UNL     1      -6.779  12.438   2.631  1.00  0.00    -0.000 C 
BRANCH   5   6
ATOM      6  C   UNL     1      -5.802  11.451   3.302  1.00  0.00    -0.000 C 
BRANCH   6   7
ATOM      7  C   UNL     1      -6.086   9.962   3.032  1.00  0.00    -0.000 C 
BRANCH   7   8
ATOM      8  C   UNL     1      -5.256   9.025   3.927  1.00  0.00    -0.000 C 
BRANCH   8   9
ATOM      9  C   UNL     1      -4.508   9.783   5.035  1.00  0.00    -0.000 C 
BRANCH   9  10
ATOM     10  C   UNL     1      -3.851   8.835   6.055  1.00  0.00    -0.000 C 
BRANCH  10  11
ATOM     11  C   UNL     1      -4.537   8.880   7.428  1.00  0.00    -0.003 C 
ATOM     12  C   UNL     1      -5.331   7.610   7.738  1.00  0.00     0.004 C 
ENDBRANCH  10  11
ENDBRANCH   9  10
ENDBRANCH   8   9
ENDBRANCH   7   8
ENDBRANCH   6   7
ENDBRANCH   5   6
ENDBRANCH   4   5
ENDBRANCH   3   4
ENDBRANCH   2   3
ENDBRANCH   1   2
BRANCH   1  13
ATOM     13  C   UNL     1     -10.910  11.695   5.344  1.00  0.00     0.000 C 
BRANCH  13  14
ATOM     14  C   UNL     1     -11.957  10.698   5.872  1.00  0.00     0.000 C 
BRANCH  14  15
ATOM     15  C   UNL     1     -11.995  10.630   7.409  1.00  0.00     0.000 C 
BRANCH  15  16
ATOM     16  C   UNL     1     -13.045  11.537   8.078  1.00  0.00     0.000 C 
BRANCH  16  17
ATOM     17  C   UNL     1     -12.429  12.782   8.735  1.00  0.00     0.000 C 
BRANCH  17  18
ATOM     18  C   UNL     1     -10.928  12.579   8.990  1.00  0.00     0.000 C 
BRANCH  18  19
ATOM     19  C   UNL     1     -10.245  13.825   9.583  1.00  0.00     0.000 C 
BRANCH  19  20
ATOM     20  C   UNL     1      -8.928  14.235   8.898  1.00  0.00     0.006 C 
BRANCH  20  21
ATOM     21  C   UNL     1      -8.019  15.076   9.802  1.00  0.00     0.053 C 
BRANCH  21  22
ATOM     22  C   UNL     1      -7.835  14.406  11.127  1.00  0.00     0.041 C 
ATOM     23  O   UNL     1      -7.335  13.251  11.190  1.00  0.00    -0.550 OA
ATOM     24  O   UNL     1      -8.179  15.072  12.297  1.00  0.00    -0.550 OA
ENDBRANCH  21  22
ENDBRANCH  20  21
ENDBRANCH  19  20
ENDBRANCH  18  19
ENDBRANCH  17  18
ENDBRANCH  16  17
ENDBRANCH  15  16
ENDBRANCH  14  15
ENDBRANCH  13  14
ENDBRANCH   1  13
TORSDOF 20
ENDMDL
MODEL 4
REMARK VINA RESULT:    -5.871      2.818      4.631
REMARK INTER + INTRA:         -14.393
REMARK INTER:                 -12.178
REMARK INTRA:                  -2.215
REMARK UNBOUND:                -1.658
REMARK SMILES CCCCCCCCCCCCCCCCCCCCCC(=O)[O-]
REMARK SMILES IDX 12 1 11 2 10 3 9 4 8 5 7 6 6 7 5 8 4 9 3 10 2 11 1 12 13 13
REMARK SMILES IDX 14 14 15 15 16 16 17 17 18 18 19 19 20 20 21 21 22 22 23 23
REMARK SMILES IDX 24 24
REMARK H PARENT
REMARK Flexibility Score: inf
ROOT
ATOM      1  C   UNL     1     -10.748  11.113   3.929  1.00  0.00     0.000 C 
ENDROOT
BRANCH   1   2
ATOM      2  C   UNL     1     -10.745  12.255   2.896  1.00  0.00     0.000 C 
BRANCH   2   3
ATOM      3  C   UNL     1      -9.932  13.477   3.349  1.00  0.00     0.000 C 
BRANCH   3   4
ATOM      4  C   UNL     1      -8.570  13.523   2.643  1.00  0.00    -0.000 C 
BRANCH   4   5
ATOM      5  C   UNL     1      -7.407  13.106   3.561  1.00  0.00    -0.000 C 
BRANCH   5   6
ATOM      6  C   UNL     1      -6.616  11.866   3.093  1.00  0.00    -0.000 C 
BRANCH   6   7
ATOM      7  C   UNL     1      -7.296  11.033   1.992  1.00  0.00    -0.000 C 
BRANCH   7   8
ATOM      8  C   UNL     1      -6.547  11.093   0.649  1.00  0.00    -0.000 C 
BRANCH   8   9
ATOM      9  C   UNL     1      -7.228  12.030  -0.362  1.00  0.00    -0.000 C 
BRANCH   9  10
ATOM     10  C   UNL     1      -6.262  13.087  -0.927  1.00  0.00    -0.000 C 
BRANCH  10  11
ATOM     11  C   UNL     1      -5.465  13.805   0.172  1.00  0.00    -0.003 C 
ATOM     12  C   UNL     1      -6.036  15.180   0.517  1.00  0.00     0.004 C 
ENDBRANCH  10  11
ENDBRANCH   9  10
ENDBRANCH   8   9
ENDBRANCH   7   8
ENDBRANCH   6   7
ENDBRANCH   5   6
ENDBRANCH   4   5
ENDBRANCH   3   4
ENDBRANCH   2   3
ENDBRANCH   1   2
BRANCH   1  13
ATOM     13  C   UNL     1     -11.131  11.524   5.364  1.00  0.00     0.000 C 
BRANCH  13  14
ATOM     14  C   UNL     1     -11.939  10.443   6.102  1.00  0.00     0.000 C 
BRANCH  14  15
ATOM     15  C   UNL     1     -12.045  10.706   7.615  1.00  0.00     0.000 C 
BRANCH  15  16
ATOM     16  C   UNL     1     -13.021  11.826   8.017  1.00  0.00     0.000 C 
BRANCH  16  17
ATOM     17  C   UNL     1     -12.351  12.939   8.838  1.00  0.00     0.000 C 
BRANCH  17  18
ATOM     18  C   UNL     1     -10.865  12.626   9.072  1.00  0.00     0.000 C 
BRANCH  18  19
ATOM     19  C   UNL     1      -9.934  13.776   8.648  1.00  0.00     0.000 C 
BRANCH  19  20
ATOM     20  C   UNL     1      -9.389  14.633   9.805  1.00  0.00     0.006 C 
BRANCH  20  21
ATOM     21  C   UNL     1      -7.918  14.339  10.127  1.00  0.00     0.053 C 
BRANCH  21  22
ATOM     22  C   UNL     1      -7.557  14.890  11.471  1.00  0.00     0.041 C 
ATOM     23  O   UNL     1      -6.737  14.279  12.207  1.00  0.00    -0.550 OA
ATOM     24  O   UNL     1      -8.097  16.098  11.894  1.00  0.00    -0.550 OA
ENDBRANCH  21  22
ENDBRANCH  20  21
ENDBRANCH  19  20
ENDBRANCH  18  19
ENDBRANCH  17  18
ENDBRANCH  16  17
ENDBRANCH  15  16
ENDBRANCH  14  15
ENDBRANCH  13  14
ENDBRANCH   1  13
TORSDOF 20
ENDMDL
MODEL 5
REMARK VINA RESULT:    -5.792      3.428      7.007
REMARK INTER + INTRA:         -14.223
REMARK INTER:                 -12.194
REMARK INTRA:                  -2.029
REMARK UNBOUND:                -1.658
REMARK SMILES CCCCCCCCCCCCCCCCCCCCCC(=O)[O-]
REMARK SMILES IDX 12 1 11 2 10 3 9 4 8 5 7 6 6 7 5 8 4 9 3 10 2 11 1 12 13 13
REMARK SMILES IDX 14 14 15 15 16 16 17 17 18 18 19 19 20 20 21 21 22 22 23 23
REMARK SMILES IDX 24 24
REMARK H PARENT
REMARK Flexibility Score: inf
ROOT
ATOM      1  C   UNL     1     -11.895  12.067   8.219  1.00  0.00     0.000 C 
ENDROOT
BRANCH   1   2
ATOM      2  C   UNL     1     -10.853  12.417   9.297  1.00  0.00     0.000 C 
BRANCH   2   3
ATOM      3  C   UNL     1     -10.477  13.907   9.311  1.00  0.00     0.000 C 
BRANCH   3   4
ATOM      4  C   UNL     1      -9.181  14.153   8.525  1.00  0.00    -0.000 C 
BRANCH   4   5
ATOM      5  C   UNL     1      -8.039  14.689   9.408  1.00  0.00    -0.000 C 
BRANCH   5   6
ATOM      6  C   UNL     1      -8.388  14.845  10.903  1.00  0.00    -0.000 C 
BRANCH   6   7
ATOM      7  C   UNL     1      -7.386  14.206  11.880  1.00  0.00    -0.000 C 
BRANCH   7   8
ATOM      8  C   UNL     1      -7.376  12.669  11.804  1.00  0.00    -0.000 C 
BRANCH   8   9
ATOM      9  C   UNL     1      -8.722  12.052  12.219  1.00  0.00    -0.000 C 
BRANCH   9  10
ATOM     10  C   UNL     1      -8.593  11.129  13.444  1.00  0.00    -0.000 C 
BRANCH  10  11
ATOM     11  C   UNL     1      -7.175  11.130  14.035  1.00  0.00    -0.003 C 
ATOM     12  C   UNL     1      -7.108  11.780  15.417  1.00  0.00     0.004 C 
ENDBRANCH  10  11
ENDBRANCH   9  10
ENDBRANCH   8   9
ENDBRANCH   7   8
ENDBRANCH   6   7
ENDBRANCH   5   6
ENDBRANCH   4   5
ENDBRANCH   3   4
ENDBRANCH   2   3
ENDBRANCH   1   2
BRANCH   1  13
ATOM     13  C   UNL     1     -12.020  10.569   7.885  1.00  0.00     0.000 C 
BRANCH  13  14
ATOM     14  C   UNL     1     -12.084  10.294   6.373  1.00  0.00     0.000 C 
BRANCH  14  15
ATOM     15  C   UNL     1     -11.669  11.510   5.526  1.00  0.00     0.000 C 
BRANCH  15  16
ATOM     16  C   UNL     1     -10.622  11.221   4.435  1.00  0.00     0.000 C 
BRANCH  16  17
ATOM     17  C   UNL     1     -10.849  12.040   3.155  1.00  0.00     0.000 C 
BRANCH  17  18
ATOM     18  C   UNL     1     -10.006  13.324   3.171  1.00  0.00     0.000 C 
BRANCH  18  19
ATOM     19  C   UNL     1      -8.809  13.247   4.137  1.00  0.00     0.000 C 
BRANCH  19  20
ATOM     20  C   UNL     1      -7.428  13.418   3.479  1.00  0.00     0.006 C 
BRANCH  20  21
ATOM     21  C   UNL     1      -6.645  12.103   3.378  1.00  0.00     0.053 C 
BRANCH  21  22
ATOM     22  C   UNL     1      -7.224  11.230   2.310  1.00  0.00     0.041 C 
ATOM     23  O   UNL     1      -7.708  10.104   2.603  1.00  0.00    -0.550 OA
ATOM     24  O   UNL     1      -7.265  11.676   0.995  1.00  0.00    -0.550 OA
ENDBRANCH  21  22
ENDBRANCH  20  21
ENDBRANCH  19  20
ENDBRANCH  18  19
ENDBRANCH  17  18
ENDBRANCH  16  17
ENDBRANCH  15  16
ENDBRANCH  14  15
ENDBRANCH  13  14
ENDBRANCH   1  13
TORSDOF 20
ENDMDL
MODEL 6
REMARK VINA RESULT:    -5.787      2.071      6.874
REMARK INTER + INTRA:         -14.212
REMARK INTER:                 -12.685
REMARK INTRA:                  -1.527
REMARK UNBOUND:                -1.658
REMARK SMILES CCCCCCCCCCCCCCCCCCCCCC(=O)[O-]
REMARK SMILES IDX 12 1 11 2 10 3 9 4 8 5 7 6 6 7 5 8 4 9 3 10 2 11 1 12 13 13
REMARK SMILES IDX 14 14 15 15 16 16 17 17 18 18 19 19 20 20 21 21 22 22 23 23
REMARK SMILES IDX 24 24
REMARK H PARENT
REMARK Flexibility Score: inf
ROOT
ATOM      1  C   UNL     1      -7.700  13.216   3.586  1.00  0.00     0.000 C 
ENDROOT
BRANCH   1   2
ATOM      2  C   UNL     1      -8.945  13.719   2.832  1.00  0.00     0.000 C 
BRANCH   2   3
ATOM      3  C   UNL     1     -10.184  12.840   3.059  1.00  0.00     0.000 C 
BRANCH   3   4
ATOM      4  C   UNL     1     -10.192  12.259   4.481  1.00  0.00    -0.000 C 
BRANCH   4   5
ATOM      5  C   UNL     1     -11.231  11.138   4.662  1.00  0.00    -0.000 C 
BRANCH   5   6
ATOM      6  C   UNL     1     -11.607  10.826   6.125  1.00  0.00    -0.000 C 
BRANCH   6   7
ATOM      7  C   UNL     1     -12.891  11.507   6.632  1.00  0.00    -0.000 C 
BRANCH   7   8
ATOM      8  C   UNL     1     -12.751  12.055   8.063  1.00  0.00    -0.000 C 
BRANCH   8   9
ATOM      9  C   UNL     1     -11.504  11.511   8.780  1.00  0.00    -0.000 C 
BRANCH   9  10
ATOM     10  C   UNL     1     -10.696  12.621   9.478  1.00  0.00    -0.000 C 
BRANCH  10  11
ATOM     11  C   UNL     1      -9.979  13.543   8.481  1.00  0.00    -0.003 C 
ATOM     12  C   UNL     1      -8.993  14.495   9.157  1.00  0.00     0.004 C 
ENDBRANCH  10  11
ENDBRANCH   9  10
ENDBRANCH   8   9
ENDBRANCH   7   8
ENDBRANCH   6   7
ENDBRANCH   5   6
ENDBRANCH   4   5
ENDBRANCH   3   4
ENDBRANCH   2   3
ENDBRANCH   1   2
BRANCH   1  13
ATOM     13  C   UNL     1      -6.612  12.574   2.705  1.00  0.00     0.000 C 
BRANCH  13  14
ATOM     14  C   UNL     1      -5.884  11.411   3.401  1.00  0.00     0.000 C 
BRANCH  14  15
ATOM     15  C   UNL     1      -6.258  10.038   2.816  1.00  0.00     0.000 C 
BRANCH  15  16
ATOM     16  C   UNL     1      -5.158   8.965   2.910  1.00  0.00     0.000 C 
BRANCH  16  17
ATOM     17  C   UNL     1      -5.568   7.761   3.772  1.00  0.00     0.000 C 
BRANCH  17  18
ATOM     18  C   UNL     1      -4.849   7.790   5.129  1.00  0.00     0.000 C 
BRANCH  18  19
ATOM     19  C   UNL     1      -5.660   7.121   6.254  1.00  0.00     0.000 C 
BRANCH  19  20
ATOM     20  C   UNL     1      -5.237   7.510   7.682  1.00  0.00     0.006 C 
BRANCH  20  21
ATOM     21  C   UNL     1      -3.883   8.228   7.732  1.00  0.00     0.053 C 
BRANCH  21  22
ATOM     22  C   UNL     1      -4.060   9.648   8.169  1.00  0.00     0.041 C 
ATOM     23  O   UNL     1      -4.453   9.908   9.338  1.00  0.00    -0.550 OA
ATOM     24  O   UNL     1      -3.755  10.686   7.297  1.00  0.00    -0.550 OA
ENDBRANCH  21  22
ENDBRANCH  20  21
ENDBRANCH  19  20
ENDBRANCH  18  19
ENDBRANCH  17  18
ENDBRANCH  16  17
ENDBRANCH  15  16
ENDBRANCH  14  15
ENDBRANCH  13  14
ENDBRANCH   1  13
TORSDOF 20
ENDMDL
MODEL 7
REMARK VINA RESULT:    -5.782      3.133      6.451
REMARK INTER + INTRA:         -14.201
REMARK INTER:                 -12.291
REMARK INTRA:                  -1.910
REMARK UNBOUND:                -1.658
REMARK SMILES CCCCCCCCCCCCCCCCCCCCCC(=O)[O-]
REMARK SMILES IDX 12 1 11 2 10 3 9 4 8 5 7 6 6 7 5 8 4 9 3 10 2 11 1 12 13 13
REMARK SMILES IDX 14 14 15 15 16 16 17 17 18 18 19 19 20 20 21 21 22 22 23 23
REMARK SMILES IDX 24 24
REMARK H PARENT
REMARK Flexibility Score: inf
ROOT
ATOM      1  C   UNL     1     -11.165  12.222   9.169  1.00  0.00     0.000 C 
ENDROOT
BRANCH   1   2
ATOM      2  C   UNL     1     -11.039  11.923   7.664  1.00  0.00     0.000 C 
BRANCH   2   3
ATOM      3  C   UNL     1     -11.942  10.769   7.201  1.00  0.00     0.000 C 
BRANCH   3   4
ATOM      4  C   UNL     1     -11.887  10.607   5.675  1.00  0.00    -0.000 C 
BRANCH   4   5
ATOM      5  C   UNL     1     -10.819  11.500   5.018  1.00  0.00    -0.000 C 
BRANCH   5   6
ATOM      6  C   UNL     1     -10.704  11.362   3.486  1.00  0.00    -0.000 C 
BRANCH   6   7
ATOM      7  C   UNL     1      -9.854  12.443   2.792  1.00  0.00    -0.000 C 
BRANCH   7   8
ATOM      8  C   UNL     1      -9.172  13.396   3.790  1.00  0.00    -0.000 C 
BRANCH   8   9
ATOM      9  C   UNL     1      -7.644  13.422   3.625  1.00  0.00    -0.000 C 
BRANCH   9  10
ATOM     10  C   UNL     1      -7.084  12.079   3.123  1.00  0.00    -0.000 C 
BRANCH  10  11
ATOM     11  C   UNL     1      -6.234  12.234   1.853  1.00  0.00    -0.003 C 
ATOM     12  C   UNL     1      -6.373  13.614   1.210  1.00  0.00     0.004 C 
ENDBRANCH  10  11
ENDBRANCH   9  10
ENDBRANCH   8   9
ENDBRANCH   7   8
ENDBRANCH   6   7
ENDBRANCH   5   6
ENDBRANCH   4   5
ENDBRANCH   3   4
ENDBRANCH   2   3
ENDBRANCH   1   2
BRANCH   1  13
ATOM     13  C   UNL     1     -10.208  13.302   9.707  1.00  0.00     0.000 C 
BRANCH  13  14
ATOM     14  C   UNL     1      -9.412  14.008   8.595  1.00  0.00     0.000 C 
BRANCH  14  15
ATOM     15  C   UNL     1      -8.075  14.585   9.092  1.00  0.00     0.000 C 
BRANCH  15  16
ATOM     16  C   UNL     1      -8.163  15.427  10.378  1.00  0.00     0.000 C 
BRANCH  16  17
ATOM     17  C   UNL     1      -7.107  15.035  11.424  1.00  0.00     0.000 C 
BRANCH  17  18
ATOM     18  C   UNL     1      -7.772  14.668  12.760  1.00  0.00     0.000 C 
BRANCH  18  19
ATOM     19  C   UNL     1      -8.230  13.199  12.820  1.00  0.00     0.000 C 
BRANCH  19  20
ATOM     20  C   UNL     1      -7.384  12.217  11.989  1.00  0.00     0.006 C 
BRANCH  20  21
ATOM     21  C   UNL     1      -6.553  11.261  12.855  1.00  0.00     0.053 C 
BRANCH  21  22
ATOM     22  C   UNL     1      -7.221   9.925  12.946  1.00  0.00     0.041 C 
ATOM     23  O   UNL     1      -8.403   9.777  12.535  1.00  0.00    -0.550 OA
ATOM     24  O   UNL     1      -6.524   8.834  13.449  1.00  0.00    -0.550 OA
ENDBRANCH  21  22
ENDBRANCH  20  21
ENDBRANCH  19  20
ENDBRANCH  18  19
ENDBRANCH  17  18
ENDBRANCH  16  17
ENDBRANCH  15  16
ENDBRANCH  14  15
ENDBRANCH  13  14
ENDBRANCH   1  13
TORSDOF 20
ENDMDL
MODEL 8
REMARK VINA RESULT:    -5.738      2.680      7.271
REMARK INTER + INTRA:         -14.105
REMARK INTER:                 -12.278
REMARK INTRA:                  -1.827
REMARK UNBOUND:                -1.658
REMARK SMILES CCCCCCCCCCCCCCCCCCCCCC(=O)[O-]
REMARK SMILES IDX 12 1 11 2 10 3 9 4 8 5 7 6 6 7 5 8 4 9 3 10 2 11 1 12 13 13
REMARK SMILES IDX 14 14 15 15 16 16 17 17 18 18 19 19 20 20 21 21 22 22 23 23
REMARK SMILES IDX 24 24
REMARK H PARENT
REMARK Flexibility Score: inf
ROOT
ATOM      1  C   UNL     1     -11.227  11.402   6.207  1.00  0.00     0.000 C 
ENDROOT
BRANCH   1   2
ATOM      2  C   UNL     1     -12.362  10.868   7.099  1.00  0.00     0.000 C 
BRANCH   2   3
ATOM      3  C   UNL     1     -12.264  11.350   8.554  1.00  0.00     0.000 C 
BRANCH   3   4
ATOM      4  C   UNL     1     -11.056  12.279   8.744  1.00  0.00    -0.000 C 
BRANCH   4   5
ATOM      5  C   UNL     1     -11.452  13.674   9.261  1.00  0.00    -0.000 C 
BRANCH   5   6
ATOM      6  C   UNL     1     -10.313  14.715   9.271  1.00  0.00    -0.000 C 
BRANCH   6   7
ATOM      7  C   UNL     1      -9.021  14.279   8.556  1.00  0.00    -0.000 C 
BRANCH   7   8
ATOM      8  C   UNL     1      -7.756  14.565   9.383  1.00  0.00    -0.000 C 
BRANCH   8   9
ATOM      9  C   UNL     1      -8.078  15.182  10.754  1.00  0.00    -0.000 C 
BRANCH   9  10
ATOM     10  C   UNL     1      -7.445  14.396  11.916  1.00  0.00    -0.000 C 
BRANCH  10  11
ATOM     11  C   UNL     1      -7.474  12.878  11.685  1.00  0.00    -0.003 C 
ATOM     12  C   UNL     1      -8.849  12.264  11.949  1.00  0.00     0.004 C 
ENDBRANCH  10  11
ENDBRANCH   9  10
ENDBRANCH   8   9
ENDBRANCH   7   8
ENDBRANCH   6   7
ENDBRANCH   5   6
ENDBRANCH   4   5
ENDBRANCH   3   4
ENDBRANCH   2   3
ENDBRANCH   1   2
BRANCH   1  13
ATOM     13  C   UNL     1     -11.413  11.172   4.695  1.00  0.00     0.000 C 
BRANCH  13  14
ATOM     14  C   UNL     1     -10.156  11.511   3.876  1.00  0.00     0.000 C 
BRANCH  14  15
ATOM     15  C   UNL     1      -9.636  12.935   4.142  1.00  0.00     0.000 C 
BRANCH  15  16
ATOM     16  C   UNL     1      -8.642  13.473   3.097  1.00  0.00     0.000 C 
BRANCH  16  17
ATOM     17  C   UNL     1      -7.807  12.365   2.437  1.00  0.00     0.000 C 
BRANCH  17  18
ATOM     18  C   UNL     1      -6.413  12.278   3.075  1.00  0.00     0.000 C 
BRANCH  18  19
ATOM     19  C   UNL     1      -5.794  10.872   2.979  1.00  0.00     0.000 C 
BRANCH  19  20
ATOM     20  C   UNL     1      -4.833  10.503   4.124  1.00  0.00     0.006 C 
BRANCH  20  21
ATOM     21  C   UNL     1      -4.858   9.009   4.470  1.00  0.00     0.053 C 
BRANCH  21  22
ATOM     22  C   UNL     1      -4.180   8.765   5.782  1.00  0.00     0.041 C 
ATOM     23  O   UNL     1      -4.086   9.693   6.629  1.00  0.00    -0.550 OA
ATOM     24  O   UNL     1      -3.687   7.502   6.085  1.00  0.00    -0.550 OA
ENDBRANCH  21  22
ENDBRANCH  20  21
ENDBRANCH  19  20
ENDBRANCH  18  19
ENDBRANCH  17  18
ENDBRANCH  16  17
ENDBRANCH  15  16
ENDBRANCH  14  15
ENDBRANCH  13  14
ENDBRANCH   1  13
TORSDOF 20
ENDMDL
MODEL 9
REMARK VINA RESULT:    -5.705      3.384      4.366
REMARK INTER + INTRA:         -14.033
REMARK INTER:                 -12.735
REMARK INTRA:                  -1.299
REMARK UNBOUND:                -1.658
REMARK SMILES CCCCCCCCCCCCCCCCCCCCCC(=O)[O-]
REMARK SMILES IDX 12 1 11 2 10 3 9 4 8 5 7 6 6 7 5 8 4 9 3 10 2 11 1 12 13 13
REMARK SMILES IDX 14 14 15 15 16 16 17 17 18 18 19 19 20 20 21 21 22 22 23 23
REMARK SMILES IDX 24 24
REMARK H PARENT
REMARK Flexibility Score: inf
ROOT
ATOM      1  C   UNL     1      -9.845  13.138   2.769  1.00  0.00     0.000 C 
ENDROOT
BRANCH   1   2
ATOM      2  C   UNL     1      -9.040  13.478   4.037  1.00  0.00     0.000 C 
BRANCH   2   3
ATOM      3  C   UNL     1      -7.524  13.303   3.854  1.00  0.00     0.000 C 
BRANCH   3   4
ATOM      4  C   UNL     1      -7.185  12.948   2.399  1.00  0.00    -0.000 C 
BRANCH   4   5
ATOM      5  C   UNL     1      -6.144  11.819   2.288  1.00  0.00    -0.000 C 
BRANCH   5   6
ATOM      6  C   UNL     1      -6.680  10.405   2.591  1.00  0.00    -0.000 C 
BRANCH   6   7
ATOM      7  C   UNL     1      -5.645   9.422   3.168  1.00  0.00    -0.000 C 
BRANCH   7   8
ATOM      8  C   UNL     1      -4.890   9.994   4.381  1.00  0.00    -0.000 C 
BRANCH   8   9
ATOM      9  C   UNL     1      -4.437   8.900   5.361  1.00  0.00    -0.000 C 
BRANCH   9  10
ATOM     10  C   UNL     1      -3.378   9.405   6.357  1.00  0.00    -0.000 C 
BRANCH  10  11
ATOM     11  C   UNL     1      -3.945   9.602   7.770  1.00  0.00    -0.003 C 
ATOM     12  C   UNL     1      -4.871   8.465   8.203  1.00  0.00     0.004 C 
ENDBRANCH  10  11
ENDBRANCH   9  10
ENDBRANCH   8   9
ENDBRANCH   7   8
ENDBRANCH   6   7
ENDBRANCH   5   6
ENDBRANCH   4   5
ENDBRANCH   3   4
ENDBRANCH   2   3
ENDBRANCH   1   2
BRANCH   1  13
ATOM     13  C   UNL     1     -10.896  12.025   2.935  1.00  0.00     0.000 C 
BRANCH  13  14
ATOM     14  C   UNL     1     -10.601  11.093   4.123  1.00  0.00     0.000 C 
BRANCH  14  15
ATOM     15  C   UNL     1     -11.381  11.478   5.393  1.00  0.00     0.000 C 
BRANCH  15  16
ATOM     16  C   UNL     1     -12.078  10.309   6.113  1.00  0.00     0.000 C 
BRANCH  16  17
ATOM     17  C   UNL     1     -12.061  10.453   7.642  1.00  0.00     0.000 C 
BRANCH  17  18
ATOM     18  C   UNL     1     -13.124   9.551   8.287  1.00  0.00     0.000 C 
BRANCH  18  19
ATOM     19  C   UNL     1     -13.684   8.493   7.319  1.00  0.00     0.000 C 
BRANCH  19  20
ATOM     20  C   UNL     1     -14.432   7.326   7.990  1.00  0.00     0.006 C 
BRANCH  20  21
ATOM     21  C   UNL     1     -13.662   6.001   7.919  1.00  0.00     0.053 C 
BRANCH  21  22
ATOM     22  C   UNL     1     -13.095   5.655   9.260  1.00  0.00     0.041 C 
ATOM     23  O   UNL     1     -13.747   5.905  10.308  1.00  0.00    -0.550 OA
ATOM     24  O   UNL     1     -11.862   5.020   9.349  1.00  0.00    -0.550 OA
ENDBRANCH  21  22
ENDBRANCH  20  21
ENDBRANCH  19  20
ENDBRANCH  18  19
ENDBRANCH  17  18
ENDBRANCH  16  17
ENDBRANCH  15  16
ENDBRANCH  14  15
ENDBRANCH  13  14
ENDBRANCH   1  13
TORSDOF 20
ENDMDL
