MODEL 1
REMARK VINA RESULT:    -4.739      0.000      0.000
REMARK INTER + INTRA:          -5.239
REMARK INTER:                  -5.293
REMARK INTRA:                   0.054
REMARK UNBOUND:                 0.054
REMARK SMILES O=C([O-])c1ccccc1C(=O)[O-]
REMARK SMILES IDX 4 1 9 2 5 3 8 4 6 5 7 6 2 7 1 8 3 9 10 10 11 11 12 12
REMARK H PARENT
REMARK Flexibility Score: inf
ROOT
ATOM      1  C   UNL     1       3.849  -9.596   3.018  1.00  0.00     0.006 A 
ATOM      2  C   UNL     1       3.072  -8.490   3.464  1.00  0.00     0.006 A 
ATOM      3  C   UNL     1       4.076 -10.671   3.898  1.00  0.00     0.010 A 
ATOM      4  C   UNL     1       2.499  -8.530   4.749  1.00  0.00     0.010 A 
ATOM      5  C   UNL     1       3.515 -10.679   5.177  1.00  0.00     0.001 A 
ATOM      6  C   UNL     1       2.719  -9.616   5.596  1.00  0.00     0.001 A 
ENDROOT
BRANCH   1   7
ATOM      7  C   UNL     1       4.372  -9.701   1.638  1.00  0.00     0.072 C 
ATOM      8  O   UNL     1       5.446  -9.123   1.321  1.00  0.00    -0.545 OA
ATOM      9  O   UNL     1       3.728 -10.491   0.693  1.00  0.00    -0.545 OA
ENDBRANCH   1   7
BRANCH   2  10
ATOM     10  C   UNL     1       2.893  -7.257   2.664  1.00  0.00     0.072 C 
ATOM     11  O   UNL     1       3.095  -6.123   3.173  1.00  0.00    -0.545 OA
ATOM     12  O   UNL     1       2.433  -7.336   1.355  1.00  0.00    -0.545 OA
ENDBRANCH   2  10
TORSDOF 2
ENDMDL
MODEL 2
REMARK VINA RESULT:    -4.697      0.101      2.896
REMARK INTER + INTRA:          -5.192
REMARK INTER:                  -5.236
REMARK INTRA:                   0.044
REMARK UNBOUND:                 0.054
REMARK SMILES O=C([O-])c1ccccc1C(=O)[O-]
REMARK SMILES IDX 4 1 9 2 5 3 8 4 6 5 7 6 2 7 1 8 3 9 10 10 11 11 12 12
REMARK H PARENT
REMARK Flexibility Score: inf
ROOT
ATOM      1  C   UNL     1       3.048  -8.562   3.400  1.00  0.00     0.006 A 
ATOM      2  C   UNL     1       3.840  -9.658   2.958  1.00  0.00     0.006 A 
ATOM      3  C   UNL     1       2.465  -8.611   4.681  1.00  0.00     0.010 A 
ATOM      4  C   UNL     1       4.073 -10.732   3.837  1.00  0.00     0.010 A 
ATOM      5  C   UNL     1       2.692  -9.698   5.528  1.00  0.00     0.001 A 
ATOM      6  C   UNL     1       3.503 -10.749   5.111  1.00  0.00     0.001 A 
ENDROOT
BRANCH   1   7
ATOM      7  C   UNL     1       2.865  -7.332   2.598  1.00  0.00     0.072 C 
ATOM      8  O   UNL     1       3.187  -6.210   3.073  1.00  0.00    -0.545 OA
ATOM      9  O   UNL     1       2.402  -7.400   1.289  1.00  0.00    -0.545 OA
ENDBRANCH   1   7
BRANCH   2  10
ATOM     10  C   UNL     1       4.379  -9.760   1.583  1.00  0.00     0.072 C 
ATOM     11  O   UNL     1       5.415  -9.127   1.249  1.00  0.00    -0.545 OA
ATOM     12  O   UNL     1       3.706 -10.507   0.623  1.00  0.00    -0.545 OA
ENDBRANCH   2  10
TORSDOF 2
ENDMDL
MODEL 3
REMARK VINA RESULT:    -4.359      1.478      2.317
REMARK INTER + INTRA:          -4.814
REMARK INTER:                  -4.643
REMARK INTRA:                  -0.171
REMARK UNBOUND:                 0.054
REMARK SMILES O=C([O-])c1ccccc1C(=O)[O-]
REMARK SMILES IDX 4 1 9 2 5 3 8 4 6 5 7 6 2 7 1 8 3 9 10 10 11 11 12 12
REMARK H PARENT
REMARK Flexibility Score: inf
ROOT
ATOM      1  C   UNL     1       3.933  -8.751   3.962  1.00  0.00     0.006 A 
ATOM      2  C   UNL     1       2.853  -9.205   3.156  1.00  0.00     0.006 A 
ATOM      3  C   UNL     1       3.924  -9.034   5.341  1.00  0.00     0.010 A 
ATOM      4  C   UNL     1       1.837  -9.980   3.746  1.00  0.00     0.010 A 
ATOM      5  C   UNL     1       2.894  -9.786   5.909  1.00  0.00     0.001 A 
ATOM      6  C   UNL     1       1.860 -10.268   5.111  1.00  0.00     0.001 A 
ENDROOT
BRANCH   1   7
ATOM      7  C   UNL     1       5.111  -8.051   3.402  1.00  0.00     0.072 C 
ATOM      8  O   UNL     1       5.357  -6.859   3.730  1.00  0.00    -0.545 OA
ATOM      9  O   UNL     1       5.997  -8.714   2.561  1.00  0.00    -0.545 OA
ENDBRANCH   1   7
BRANCH   2  10
ATOM     10  C   UNL     1       2.705  -8.841   1.728  1.00  0.00     0.072 C 
ATOM     11  O   UNL     1       2.980  -9.669   0.821  1.00  0.00    -0.545 OA
ATOM     12  O   UNL     1       2.320  -7.554   1.372  1.00  0.00    -0.545 OA
ENDBRANCH   2  10
TORSDOF 2
ENDMDL
MODEL 4
REMARK VINA RESULT:    -4.332      1.464      2.182
REMARK INTER + INTRA:          -4.784
REMARK INTER:                  -4.615
REMARK INTRA:                  -0.170
REMARK UNBOUND:                 0.054
REMARK SMILES O=C([O-])c1ccccc1C(=O)[O-]
REMARK SMILES IDX 4 1 9 2 5 3 8 4 6 5 7 6 2 7 1 8 3 9 10 10 11 11 12 12
REMARK H PARENT
REMARK Flexibility Score: inf
ROOT
ATOM      1  C   UNL     1       2.891  -9.227   3.212  1.00  0.00     0.006 A 
ATOM      2  C   UNL     1       3.966  -8.743   4.010  1.00  0.00     0.006 A 
ATOM      3  C   UNL     1       1.902 -10.030   3.811  1.00  0.00     0.010 A 
ATOM      4  C   UNL     1       3.976  -9.028   5.389  1.00  0.00     0.010 A 
ATOM      5  C   UNL     1       1.945 -10.318   5.176  1.00  0.00     0.001 A 
ATOM      6  C   UNL     1       2.972  -9.808   5.965  1.00  0.00     0.001 A 
ENDROOT
BRANCH   1   7
ATOM      7  C   UNL     1       2.726  -8.862   1.787  1.00  0.00     0.072 C 
ATOM      8  O   UNL     1       2.275  -7.729   1.471  1.00  0.00    -0.545 OA
ATOM      9  O   UNL     1       3.126  -9.733   0.781  1.00  0.00    -0.545 OA
ENDBRANCH   1   7
BRANCH   2  10
ATOM     10  C   UNL     1       5.121  -8.009   3.447  1.00  0.00     0.072 C 
ATOM     11  O   UNL     1       5.286  -6.784   3.688  1.00  0.00    -0.545 OA
ATOM     12  O   UNL     1       6.004  -8.651   2.587  1.00  0.00    -0.545 OA
ENDBRANCH   2  10
TORSDOF 2
ENDMDL
MODEL 5
REMARK VINA RESULT:    -4.246      2.149      4.004
REMARK INTER + INTRA:          -4.688
REMARK INTER:                  -5.211
REMARK INTRA:                   0.523
REMARK UNBOUND:                 0.054
REMARK SMILES O=C([O-])c1ccccc1C(=O)[O-]
REMARK SMILES IDX 4 1 9 2 5 3 8 4 6 5 7 6 2 7 1 8 3 9 10 10 11 11 12 12
REMARK H PARENT
REMARK Flexibility Score: inf
ROOT
ATOM      1  C   UNL     1       3.147  -8.559   3.560  1.00  0.00     0.006 A 
ATOM      2  C   UNL     1       3.458  -9.084   2.275  1.00  0.00     0.006 A 
ATOM      3  C   UNL     1       2.799  -7.200   3.678  1.00  0.00     0.010 A 
ATOM      4  C   UNL     1       3.346  -8.247   1.149  1.00  0.00     0.010 A 
ATOM      5  C   UNL     1       2.717  -6.383   2.550  1.00  0.00     0.001 A 
ATOM      6  C   UNL     1       2.978  -6.909   1.287  1.00  0.00     0.001 A 
ENDROOT
BRANCH   1   7
ATOM      7  C   UNL     1       3.102  -9.400   4.778  1.00  0.00     0.072 C 
ATOM      8  O   UNL     1       4.014  -9.312   5.643  1.00  0.00    -0.545 OA
ATOM      9  O   UNL     1       2.025 -10.245   5.018  1.00  0.00    -0.545 OA
ENDBRANCH   1   7
BRANCH   2  10
ATOM     10  C   UNL     1       3.964 -10.460   2.067  1.00  0.00     0.072 C 
ATOM     11  O   UNL     1       4.262 -11.192   3.047  1.00  0.00    -0.545 OA
ATOM     12  O   UNL     1       4.180 -10.937   0.779  1.00  0.00    -0.545 OA
ENDBRANCH   2  10
TORSDOF 2
ENDMDL
MODEL 6
REMARK VINA RESULT:    -4.100      2.183      3.331
REMARK INTER + INTRA:          -4.525
REMARK INTER:                  -5.082
REMARK INTRA:                   0.557
REMARK UNBOUND:                 0.054
REMARK SMILES O=C([O-])c1ccccc1C(=O)[O-]
REMARK SMILES IDX 4 1 9 2 5 3 8 4 6 5 7 6 2 7 1 8 3 9 10 10 11 11 12 12
REMARK H PARENT
REMARK Flexibility Score: inf
ROOT
ATOM      1  C   UNL     1       3.519  -9.255   2.290  1.00  0.00     0.006 A 
ATOM      2  C   UNL     1       3.117  -8.720   3.546  1.00  0.00     0.006 A 
ATOM      3  C   UNL     1       3.487  -8.427   1.152  1.00  0.00     0.010 A 
ATOM      4  C   UNL     1       2.762  -7.361   3.629  1.00  0.00     0.010 A 
ATOM      5  C   UNL     1       3.109  -7.087   1.254  1.00  0.00     0.001 A 
ATOM      6  C   UNL     1       2.760  -6.553   2.492  1.00  0.00     0.001 A 
ENDROOT
BRANCH   1   7
ATOM      7  C   UNL     1       4.040 -10.632   2.136  1.00  0.00     0.072 C 
ATOM      8  O   UNL     1       4.245 -11.350   3.151  1.00  0.00    -0.545 OA
ATOM      9  O   UNL     1       4.246 -11.176   0.874  1.00  0.00    -0.545 OA
ENDBRANCH   1   7
BRANCH   2  10
ATOM     10  C   UNL     1       2.987  -9.546   4.768  1.00  0.00     0.072 C 
ATOM     11  O   UNL     1       1.950 -10.230   4.976  1.00  0.00    -0.545 OA
ATOM     12  O   UNL     1       3.984  -9.522   5.736  1.00  0.00    -0.545 OA
ENDBRANCH   2  10
TORSDOF 2
ENDMDL
MODEL 7
REMARK VINA RESULT:    -3.947     16.103     17.260
REMARK INTER + INTRA:          -4.354
REMARK INTER:                  -4.140
REMARK INTRA:                  -0.214
REMARK UNBOUND:                 0.054
REMARK SMILES O=C([O-])c1ccccc1C(=O)[O-]
REMARK SMILES IDX 4 1 9 2 5 3 8 4 6 5 7 6 2 7 1 8 3 9 10 10 11 11 12 12
REMARK H PARENT
REMARK Flexibility Score: inf
ROOT
ATOM      1  C   UNL     1      15.914  -9.844  -8.484  1.00  0.00     0.006 A 
ATOM      2  C   UNL     1      15.223  -8.843  -9.221  1.00  0.00     0.006 A 
ATOM      3  C   UNL     1      15.174 -10.859  -7.848  1.00  0.00     0.010 A 
ATOM      4  C   UNL     1      13.824  -8.931  -9.349  1.00  0.00     0.010 A 
ATOM      5  C   UNL     1      13.784 -10.914  -7.970  1.00  0.00     0.001 A 
ATOM      6  C   UNL     1      13.113  -9.959  -8.729  1.00  0.00     0.001 A 
ENDROOT
BRANCH   1   7
ATOM      7  C   UNL     1      17.391  -9.909  -8.413  1.00  0.00     0.072 C 
ATOM      8  O   UNL     1      17.997  -9.482  -7.395  1.00  0.00    -0.545 OA
ATOM      9  O   UNL     1      18.125 -10.501  -9.435  1.00  0.00    -0.545 OA
ENDBRANCH   1   7
BRANCH   2  10
ATOM     10  C   UNL     1      15.898  -7.664  -9.809  1.00  0.00     0.072 C 
ATOM     11  O   UNL     1      15.888  -6.554  -9.216  1.00  0.00    -0.545 OA
ATOM     12  O   UNL     1      16.498  -7.755 -11.059  1.00  0.00    -0.545 OA
ENDBRANCH   2  10
TORSDOF 2
ENDMDL
MODEL 8
REMARK VINA RESULT:    -3.898      2.608      3.516
REMARK INTER + INTRA:          -4.299
REMARK INTER:                  -4.606
REMARK INTRA:                   0.306
REMARK UNBOUND:                 0.054
REMARK SMILES O=C([O-])c1ccccc1C(=O)[O-]
REMARK SMILES IDX 4 1 9 2 5 3 8 4 6 5 7 6 2 7 1 8 3 9 10 10 11 11 12 12
REMARK H PARENT
REMARK Flexibility Score: inf
ROOT
ATOM      1  C   UNL     1       3.697 -10.089   3.482  1.00  0.00     0.006 A 
ATOM      2  C   UNL     1       3.078  -9.016   4.182  1.00  0.00     0.006 A 
ATOM      3  C   UNL     1       4.001  -9.930   2.117  1.00  0.00     0.010 A 
ATOM      4  C   UNL     1       2.845  -7.803   3.507  1.00  0.00     0.010 A 
ATOM      5  C   UNL     1       3.740  -8.725   1.462  1.00  0.00     0.001 A 
ATOM      6  C   UNL     1       3.175  -7.661   2.159  1.00  0.00     0.001 A 
ENDROOT
BRANCH   1   7
ATOM      7  C   UNL     1       4.104 -11.347   4.146  1.00  0.00     0.072 C 
ATOM      8  O   UNL     1       4.229 -12.407   3.476  1.00  0.00    -0.545 OA
ATOM      9  O   UNL     1       4.420 -11.365   5.500  1.00  0.00    -0.545 OA
ENDBRANCH   1   7
BRANCH   2  10
ATOM     10  C   UNL     1       2.598  -9.134   5.578  1.00  0.00     0.072 C 
ATOM     11  O   UNL     1       3.226  -8.591   6.523  1.00  0.00    -0.545 OA
ATOM     12  O   UNL     1       1.479  -9.906   5.867  1.00  0.00    -0.545 OA
ENDBRANCH   2  10
TORSDOF 2
ENDMDL
MODEL 9
REMARK VINA RESULT:    -2.668     16.100     17.453
REMARK INTER + INTRA:          -2.925
REMARK INTER:                  -2.739
REMARK INTRA:                  -0.187
REMARK UNBOUND:                 0.054
REMARK SMILES O=C([O-])c1ccccc1C(=O)[O-]
REMARK SMILES IDX 4 1 9 2 5 3 8 4 6 5 7 6 2 7 1 8 3 9 10 10 11 11 12 12
REMARK H PARENT
REMARK Flexibility Score: inf
ROOT
ATOM      1  C   UNL     1      15.252  -8.873  -9.223  1.00  0.00     0.006 A 
ATOM      2  C   UNL     1      15.953  -9.875  -8.495  1.00  0.00     0.006 A 
ATOM      3  C   UNL     1      13.849  -8.945  -9.309  1.00  0.00     0.010 A 
ATOM      4  C   UNL     1      15.220 -10.873  -7.826  1.00  0.00     0.010 A 
ATOM      5  C   UNL     1      13.144  -9.958  -8.655  1.00  0.00     0.001 A 
ATOM      6  C   UNL     1      13.827 -10.912  -7.906  1.00  0.00     0.001 A 
ENDROOT
BRANCH   1   7
ATOM      7  C   UNL     1      15.930  -7.711  -9.839  1.00  0.00     0.072 C 
ATOM      8  O   UNL     1      16.465  -7.817 -10.975  1.00  0.00    -0.545 OA
ATOM      9  O   UNL     1      15.929  -6.472  -9.208  1.00  0.00    -0.545 OA
ENDBRANCH   1   7
BRANCH   2  10
ATOM     10  C   UNL     1      17.431  -9.962  -8.462  1.00  0.00     0.072 C 
ATOM     11  O   UNL     1      18.079  -9.539  -7.469  1.00  0.00    -0.545 OA
ATOM     12  O   UNL     1      18.125 -10.453  -9.561  1.00  0.00    -0.545 OA
ENDBRANCH   2  10
TORSDOF 2
ENDMDL
