MODEL 1
REMARK VINA RESULT:    -5.939      0.000      0.000
REMARK INTER + INTRA:          -7.303
REMARK INTER:                  -6.981
REMARK INTRA:                  -0.322
REMARK UNBOUND:                -0.322
REMARK SMILES O=c1c(O)c(-c2ccc(O)c(O)c2)oc2cc(O)ccc12
REMARK SMILES IDX 5 1 3 2 2 3 1 4 21 5 15 6 14 7 16 8 17 9 19 10 20 11 6 12
REMARK SMILES IDX 7 13 8 14 9 15 13 16 11 17 10 18 12 20 4 22 18 24
REMARK H PARENT 10 19 12 21 4 23 18 25
REMARK Flexibility Score: inf
ROOT
ATOM      1  C   UNL     1      50.627  14.123  26.516  1.00  0.00     0.180 A 
ATOM      2  C   UNL     1      49.564  14.747  27.199  1.00  0.00     0.208 A 
ATOM      3  C   UNL     1      48.576  15.409  26.452  1.00  0.00     0.235 A 
ATOM      4  O   UNL     1      47.609  15.966  27.039  1.00  0.00    -0.285 OA
ATOM      5  C   UNL     1      48.683  15.452  25.052  1.00  0.00     0.069 A 
ATOM      6  C   UNL     1      49.791  14.823  24.446  1.00  0.00     0.142 A 
ATOM      7  O   UNL     1      50.699  14.199  25.188  1.00  0.00    -0.452 OA
ATOM      8  C   UNL     1      49.938  14.851  23.055  1.00  0.00     0.094 A 
ATOM      9  C   UNL     1      48.988  15.500  22.258  1.00  0.00     0.119 A 
ATOM     10  C   UNL     1      47.885  16.125  22.857  1.00  0.00     0.047 A 
ATOM     11  C   UNL     1      47.731  16.102  24.247  1.00  0.00     0.020 A 
ENDROOT
BRANCH   1  12
ATOM     12  C   UNL     1      51.697  13.389  27.231  1.00  0.00     0.025 A 
ATOM     13  C   UNL     1      52.859  14.071  27.624  1.00  0.00     0.016 A 
ATOM     14  C   UNL     1      53.890  13.394  28.281  1.00  0.00     0.051 A 
ATOM     15  C   UNL     1      53.783  12.025  28.541  1.00  0.00     0.157 A 
ATOM     16  C   UNL     1      51.600  12.007  27.475  1.00  0.00     0.062 A 
ATOM     17  C   UNL     1      52.634  11.325  28.133  1.00  0.00     0.158 A 
BRANCH  15  18
ATOM     18  O   UNL     1      54.826  11.377  29.201  1.00  0.00    -0.504 OA
ATOM     19  H   UNL     1      55.592  11.885  29.627  1.00  0.00     0.293 HD
ENDBRANCH  15  18
BRANCH  17  20
ATOM     20  O   UNL     1      52.528   9.957  28.377  1.00  0.00    -0.504 OA
ATOM     21  H   UNL     1      53.151   9.483  29.020  1.00  0.00     0.293 HD
ENDBRANCH  17  20
ENDBRANCH   1  12
BRANCH   2  22
ATOM     22  O   UNL     1      49.511  14.730  28.595  1.00  0.00    -0.502 OA
ATOM     23  H   UNL     1      50.306  14.465  29.164  1.00  0.00     0.293 HD
ENDBRANCH   2  22
BRANCH   9  24
ATOM     24  O   UNL     1      49.150  15.519  20.875  1.00  0.00    -0.508 OA
ATOM     25  H   UNL     1      49.903  16.037  20.437  1.00  0.00     0.293 HD
ENDBRANCH   9  24
TORSDOF 5
ENDMDL
MODEL 2
REMARK VINA RESULT:    -5.541      2.643      4.551
REMARK INTER + INTRA:          -6.835
REMARK INTER:                  -7.078
REMARK INTRA:                   0.243
REMARK UNBOUND:                -0.322
REMARK SMILES O=c1c(O)c(-c2ccc(O)c(O)c2)oc2cc(O)ccc12
REMARK SMILES IDX 5 1 3 2 2 3 1 4 21 5 15 6 14 7 16 8 17 9 19 10 20 11 6 12
REMARK SMILES IDX 7 13 8 14 9 15 13 16 11 17 10 18 12 20 4 22 18 24
REMARK H PARENT 10 19 12 21 4 23 18 25
REMARK Flexibility Score: inf
ROOT
ATOM      1  C   UNL     1      52.035  14.268  26.499  1.00  0.00     0.180 A 
ATOM      2  C   UNL     1      51.554  14.157  25.179  1.00  0.00     0.208 A 
ATOM      3  C   UNL     1      50.179  13.966  24.973  1.00  0.00     0.235 A 
ATOM      4  O   UNL     1      49.723  13.875  23.801  1.00  0.00    -0.285 OA
ATOM      5  C   UNL     1      49.323  13.870  26.082  1.00  0.00     0.069 A 
ATOM      6  C   UNL     1      49.885  13.967  27.373  1.00  0.00     0.142 A 
ATOM      7  O   UNL     1      51.191  14.157  27.524  1.00  0.00    -0.452 OA
ATOM      8  C   UNL     1      49.066  13.867  28.502  1.00  0.00     0.094 A 
ATOM      9  C   UNL     1      47.688  13.671  28.360  1.00  0.00     0.119 A 
ATOM     10  C   UNL     1      47.126  13.576  27.080  1.00  0.00     0.047 A 
ATOM     11  C   UNL     1      47.936  13.674  25.944  1.00  0.00     0.020 A 
ENDROOT
BRANCH   1  12
ATOM     12  C   UNL     1      53.469  14.489  26.798  1.00  0.00     0.025 A 
ATOM     13  C   UNL     1      53.999  14.031  28.014  1.00  0.00     0.016 A 
ATOM     14  C   UNL     1      55.344  14.247  28.326  1.00  0.00     0.051 A 
ATOM     15  C   UNL     1      56.174  14.935  27.437  1.00  0.00     0.157 A 
ATOM     16  C   UNL     1      54.300  15.201  25.915  1.00  0.00     0.062 A 
ATOM     17  C   UNL     1      55.650  15.420  26.226  1.00  0.00     0.158 A 
BRANCH  15  18
ATOM     18  O   UNL     1      57.513  15.133  27.774  1.00  0.00    -0.504 OA
ATOM     19  H   UNL     1      58.223  15.317  27.075  1.00  0.00     0.293 HD
ENDBRANCH  15  18
BRANCH  17  20
ATOM     20  O   UNL     1      56.469  16.120  25.342  1.00  0.00    -0.504 OA
ATOM     21  H   UNL     1      57.153  16.790  25.671  1.00  0.00     0.293 HD
ENDBRANCH  17  20
ENDBRANCH   1  12
BRANCH   2  22
ATOM     22  O   UNL     1      52.437  14.208  24.098  1.00  0.00    -0.502 OA
ATOM     23  H   UNL     1      52.771  13.373  23.631  1.00  0.00     0.293 HD
ENDBRANCH   2  22
BRANCH   9  24
ATOM     24  O   UNL     1      46.888  13.574  29.496  1.00  0.00    -0.508 OA
ATOM     25  H   UNL     1      46.351  12.737  29.695  1.00  0.00     0.293 HD
ENDBRANCH   9  24
TORSDOF 5
ENDMDL
MODEL 3
REMARK VINA RESULT:    -5.457      2.057      2.721
REMARK INTER + INTRA:          -6.736
REMARK INTER:                  -7.165
REMARK INTRA:                   0.430
REMARK UNBOUND:                -0.322
REMARK SMILES O=c1c(O)c(-c2ccc(O)c(O)c2)oc2cc(O)ccc12
REMARK SMILES IDX 5 1 3 2 2 3 1 4 21 5 15 6 14 7 16 8 17 9 19 10 20 11 6 12
REMARK SMILES IDX 7 13 8 14 9 15 13 16 11 17 10 18 12 20 4 22 18 24
REMARK H PARENT 10 19 12 21 4 23 18 25
REMARK Flexibility Score: inf
ROOT
ATOM      1  C   UNL     1      52.134  14.587  25.953  1.00  0.00     0.180 A 
ATOM      2  C   UNL     1      51.101  13.971  26.687  1.00  0.00     0.208 A 
ATOM      3  C   UNL     1      49.826  13.871  26.109  1.00  0.00     0.235 A 
ATOM      4  O   UNL     1      48.888  13.314  26.741  1.00  0.00    -0.285 OA
ATOM      5  C   UNL     1      49.606  14.403  24.828  1.00  0.00     0.069 A 
ATOM      6  C   UNL     1      50.687  15.027  24.167  1.00  0.00     0.142 A 
ATOM      7  O   UNL     1      51.881  15.092  24.746  1.00  0.00    -0.452 OA
ATOM      8  C   UNL     1      50.506  15.577  22.895  1.00  0.00     0.094 A 
ATOM      9  C   UNL     1      49.256  15.513  22.269  1.00  0.00     0.119 A 
ATOM     10  C   UNL     1      48.180  14.894  22.921  1.00  0.00     0.047 A 
ATOM     11  C   UNL     1      48.352  14.341  24.194  1.00  0.00     0.020 A 
ENDROOT
BRANCH   1  12
ATOM     12  C   UNL     1      53.510  14.713  26.486  1.00  0.00     0.025 A 
ATOM     13  C   UNL     1      54.568  14.995  25.607  1.00  0.00     0.016 A 
ATOM     14  C   UNL     1      55.877  15.098  26.086  1.00  0.00     0.051 A 
ATOM     15  C   UNL     1      56.151  14.907  27.442  1.00  0.00     0.157 A 
ATOM     16  C   UNL     1      53.791  14.500  27.847  1.00  0.00     0.062 A 
ATOM     17  C   UNL     1      55.104  14.602  28.329  1.00  0.00     0.158 A 
BRANCH  15  18
ATOM     18  O   UNL     1      57.467  15.019  27.891  1.00  0.00    -0.504 OA
ATOM     19  H   UNL     1      57.721  15.613  28.672  1.00  0.00     0.293 HD
ENDBRANCH  15  18
BRANCH  17  20
ATOM     20  O   UNL     1      55.373  14.396  29.681  1.00  0.00    -0.504 OA
ATOM     21  H   UNL     1      56.057  13.715  29.989  1.00  0.00     0.293 HD
ENDBRANCH  17  20
ENDBRANCH   1  12
BRANCH   2  22
ATOM     22  O   UNL     1      51.338  13.494  27.979  1.00  0.00    -0.502 OA
ATOM     23  H   UNL     1      51.944  12.704  28.163  1.00  0.00     0.293 HD
ENDBRANCH   2  22
BRANCH   9  24
ATOM     24  O   UNL     1      49.093  16.067  21.001  1.00  0.00    -0.508 OA
ATOM     25  H   UNL     1      48.642  16.965  20.870  1.00  0.00     0.293 HD
ENDBRANCH   9  24
TORSDOF 5
ENDMDL
MODEL 4
REMARK VINA RESULT:    -5.447      2.539      4.294
REMARK INTER + INTRA:          -6.724
REMARK INTER:                  -7.225
REMARK INTRA:                   0.501
REMARK UNBOUND:                -0.322
REMARK SMILES O=c1c(O)c(-c2ccc(O)c(O)c2)oc2cc(O)ccc12
REMARK SMILES IDX 5 1 3 2 2 3 1 4 21 5 15 6 14 7 16 8 17 9 19 10 20 11 6 12
REMARK SMILES IDX 7 13 8 14 9 15 13 16 11 17 10 18 12 20 4 22 18 24
REMARK H PARENT 10 19 12 21 4 23 18 25
REMARK Flexibility Score: inf
ROOT
ATOM      1  C   UNL     1      51.912  14.173  26.543  1.00  0.00     0.180 A 
ATOM      2  C   UNL     1      51.470  14.031  25.212  1.00  0.00     0.208 A 
ATOM      3  C   UNL     1      50.102  13.831  24.971  1.00  0.00     0.235 A 
ATOM      4  O   UNL     1      49.680  13.713  23.788  1.00  0.00    -0.285 OA
ATOM      5  C   UNL     1      49.213  13.757  26.056  1.00  0.00     0.069 A 
ATOM      6  C   UNL     1      49.738  13.885  27.360  1.00  0.00     0.142 A 
ATOM      7  O   UNL     1      51.038  14.081  27.545  1.00  0.00    -0.452 OA
ATOM      8  C   UNL     1      48.887  13.807  28.467  1.00  0.00     0.094 A 
ATOM      9  C   UNL     1      47.514  13.604  28.290  1.00  0.00     0.119 A 
ATOM     10  C   UNL     1      46.989  13.479  26.996  1.00  0.00     0.047 A 
ATOM     11  C   UNL     1      47.832  13.554  25.883  1.00  0.00     0.020 A 
ENDROOT
BRANCH   1  12
ATOM     12  C   UNL     1      53.335  14.404  26.879  1.00  0.00     0.025 A 
ATOM     13  C   UNL     1      54.240  14.735  25.858  1.00  0.00     0.016 A 
ATOM     14  C   UNL     1      55.592  14.938  26.149  1.00  0.00     0.051 A 
ATOM     15  C   UNL     1      56.062  14.798  27.458  1.00  0.00     0.157 A 
ATOM     16  C   UNL     1      53.814  14.243  28.192  1.00  0.00     0.062 A 
ATOM     17  C   UNL     1      55.170  14.445  28.485  1.00  0.00     0.158 A 
BRANCH  15  18
ATOM     18  O   UNL     1      57.416  15.009  27.719  1.00  0.00    -0.504 OA
ATOM     19  H   UNL     1      58.142  14.696  27.085  1.00  0.00     0.293 HD
ENDBRANCH  15  18
BRANCH  17  20
ATOM     20  O   UNL     1      55.636  14.290  29.790  1.00  0.00    -0.504 OA
ATOM     21  H   UNL     1      56.552  13.902  29.984  1.00  0.00     0.293 HD
ENDBRANCH  17  20
ENDBRANCH   1  12
BRANCH   2  22
ATOM     22  O   UNL     1      52.384  14.060  24.156  1.00  0.00    -0.502 OA
ATOM     23  H   UNL     1      52.812  13.220  23.787  1.00  0.00     0.293 HD
ENDBRANCH   2  22
BRANCH   9  24
ATOM     24  O   UNL     1      46.681  13.529  29.404  1.00  0.00    -0.508 OA
ATOM     25  H   UNL     1      46.925  12.965  30.210  1.00  0.00     0.293 HD
ENDBRANCH   9  24
TORSDOF 5
ENDMDL
MODEL 5
REMARK VINA RESULT:    -5.360      2.425      6.642
REMARK INTER + INTRA:          -6.622
REMARK INTER:                  -6.376
REMARK INTRA:                  -0.246
REMARK UNBOUND:                -0.322
REMARK SMILES O=c1c(O)c(-c2ccc(O)c(O)c2)oc2cc(O)ccc12
REMARK SMILES IDX 5 1 3 2 2 3 1 4 21 5 15 6 14 7 16 8 17 9 19 10 20 11 6 12
REMARK SMILES IDX 7 13 8 14 9 15 13 16 11 17 10 18 12 20 4 22 18 24
REMARK H PARENT 10 19 12 21 4 23 18 25
REMARK Flexibility Score: inf
ROOT
ATOM      1  C   UNL     1      51.665  14.563  25.860  1.00  0.00     0.180 A 
ATOM      2  C   UNL     1      51.717  13.511  26.797  1.00  0.00     0.208 A 
ATOM      3  C   UNL     1      52.950  13.189  27.386  1.00  0.00     0.235 A 
ATOM      4  O   UNL     1      53.020  12.260  28.236  1.00  0.00    -0.285 OA
ATOM      5  C   UNL     1      54.099  13.905  27.015  1.00  0.00     0.069 A 
ATOM      6  C   UNL     1      53.969  14.929  26.052  1.00  0.00     0.142 A 
ATOM      7  O   UNL     1      52.781  15.207  25.525  1.00  0.00    -0.452 OA
ATOM      8  C   UNL     1      55.092  15.658  25.648  1.00  0.00     0.094 A 
ATOM      9  C   UNL     1      56.348  15.380  26.197  1.00  0.00     0.119 A 
ATOM     10  C   UNL     1      56.482  14.366  27.155  1.00  0.00     0.047 A 
ATOM     11  C   UNL     1      55.365  13.631  27.564  1.00  0.00     0.020 A 
ENDROOT
BRANCH   1  12
ATOM     12  C   UNL     1      50.400  14.974  25.209  1.00  0.00     0.025 A 
ATOM     13  C   UNL     1      49.443  15.686  25.949  1.00  0.00     0.016 A 
ATOM     14  C   UNL     1      48.234  16.066  25.360  1.00  0.00     0.051 A 
ATOM     15  C   UNL     1      47.956  15.728  24.033  1.00  0.00     0.157 A 
ATOM     16  C   UNL     1      50.111  14.616  23.880  1.00  0.00     0.062 A 
ATOM     17  C   UNL     1      48.897  14.996  23.288  1.00  0.00     0.158 A 
BRANCH  15  18
ATOM     18  O   UNL     1      46.742  16.124  23.472  1.00  0.00    -0.504 OA
ATOM     19  H   UNL     1      46.612  17.041  23.063  1.00  0.00     0.293 HD
ENDBRANCH  15  18
BRANCH  17  20
ATOM     20  O   UNL     1      48.620  14.644  21.968  1.00  0.00    -0.504 OA
ATOM     21  H   UNL     1      48.752  13.697  21.633  1.00  0.00     0.293 HD
ENDBRANCH  17  20
ENDBRANCH   1  12
BRANCH   2  22
ATOM     22  O   UNL     1      50.566  12.784  27.110  1.00  0.00    -0.502 OA
ATOM     23  H   UNL     1      49.656  13.020  26.733  1.00  0.00     0.293 HD
ENDBRANCH   2  22
BRANCH   9  24
ATOM     24  O   UNL     1      57.456  16.117  25.784  1.00  0.00    -0.508 OA
ATOM     25  H   UNL     1      57.375  17.093  25.523  1.00  0.00     0.293 HD
ENDBRANCH   9  24
TORSDOF 5
ENDMDL
MODEL 6
REMARK VINA RESULT:    -5.350      2.737      7.339
REMARK INTER + INTRA:          -6.610
REMARK INTER:                  -6.996
REMARK INTRA:                   0.386
REMARK UNBOUND:                -0.322
REMARK SMILES O=c1c(O)c(-c2ccc(O)c(O)c2)oc2cc(O)ccc12
REMARK SMILES IDX 5 1 3 2 2 3 1 4 21 5 15 6 14 7 16 8 17 9 19 10 20 11 6 12
REMARK SMILES IDX 7 13 8 14 9 15 13 16 11 17 10 18 12 20 4 22 18 24
REMARK H PARENT 10 19 12 21 4 23 18 25
REMARK Flexibility Score: inf
ROOT
ATOM      1  C   UNL     1      52.645  14.996  24.795  1.00  0.00     0.180 A 
ATOM      2  C   UNL     1      53.733  15.533  24.077  1.00  0.00     0.208 A 
ATOM      3  C   UNL     1      54.974  15.658  24.722  1.00  0.00     0.235 A 
ATOM      4  O   UNL     1      55.965  16.125  24.098  1.00  0.00    -0.285 OA
ATOM      5  C   UNL     1      55.095  15.269  26.066  1.00  0.00     0.069 A 
ATOM      6  C   UNL     1      53.952  14.763  26.722  1.00  0.00     0.142 A 
ATOM      7  O   UNL     1      52.798  14.652  26.072  1.00  0.00    -0.452 OA
ATOM      8  C   UNL     1      54.030  14.373  28.063  1.00  0.00     0.094 A 
ATOM      9  C   UNL     1      55.238  14.480  28.760  1.00  0.00     0.119 A 
ATOM     10  C   UNL     1      56.376  14.980  28.111  1.00  0.00     0.047 A 
ATOM     11  C   UNL     1      56.307  15.373  26.771  1.00  0.00     0.020 A 
ENDROOT
BRANCH   1  12
ATOM     12  C   UNL     1      51.310  14.814  24.179  1.00  0.00     0.025 A 
ATOM     13  C   UNL     1      50.418  13.881  24.729  1.00  0.00     0.016 A 
ATOM     14  C   UNL     1      49.162  13.678  24.152  1.00  0.00     0.051 A 
ATOM     15  C   UNL     1      48.784  14.392  23.011  1.00  0.00     0.157 A 
ATOM     16  C   UNL     1      50.937  15.516  23.019  1.00  0.00     0.062 A 
ATOM     17  C   UNL     1      49.677  15.313  22.438  1.00  0.00     0.158 A 
BRANCH  15  18
ATOM     18  O   UNL     1      47.522  14.170  22.459  1.00  0.00    -0.504 OA
ATOM     19  H   UNL     1      46.758  14.823  22.585  1.00  0.00     0.293 HD
ENDBRANCH  15  18
BRANCH  17  20
ATOM     20  O   UNL     1      49.312  16.018  21.292  1.00  0.00    -0.504 OA
ATOM     21  H   UNL     1      49.561  15.690  20.366  1.00  0.00     0.293 HD
ENDBRANCH  17  20
ENDBRANCH   1  12
BRANCH   2  22
ATOM     22  O   UNL     1      53.570  15.957  22.756  1.00  0.00    -0.502 OA
ATOM     23  H   UNL     1      52.875  15.554  22.139  1.00  0.00     0.293 HD
ENDBRANCH   2  22
BRANCH   9  24
ATOM     24  O   UNL     1      55.298  14.087  30.095  1.00  0.00    -0.508 OA
ATOM     25  H   UNL     1      56.173  14.082  30.607  1.00  0.00     0.293 HD
ENDBRANCH   9  24
TORSDOF 5
ENDMDL
MODEL 7
REMARK VINA RESULT:    -5.275      2.048      6.911
REMARK INTER + INTRA:          -6.522
REMARK INTER:                  -6.848
REMARK INTRA:                   0.327
REMARK UNBOUND:                -0.322
REMARK SMILES O=c1c(O)c(-c2ccc(O)c(O)c2)oc2cc(O)ccc12
REMARK SMILES IDX 5 1 3 2 2 3 1 4 21 5 15 6 14 7 16 8 17 9 19 10 20 11 6 12
REMARK SMILES IDX 7 13 8 14 9 15 13 16 11 17 10 18 12 20 4 22 18 24
REMARK H PARENT 10 19 12 21 4 23 18 25
REMARK Flexibility Score: inf
ROOT
ATOM      1  C   UNL     1      52.092  14.061  25.550  1.00  0.00     0.180 A 
ATOM      2  C   UNL     1      53.166  14.798  26.088  1.00  0.00     0.208 A 
ATOM      3  C   UNL     1      53.905  14.245  27.146  1.00  0.00     0.235 A 
ATOM      4  O   UNL     1      54.878  14.880  27.636  1.00  0.00    -0.285 OA
ATOM      5  C   UNL     1      53.545  12.986  27.654  1.00  0.00     0.069 A 
ATOM      6  C   UNL     1      52.441  12.322  27.077  1.00  0.00     0.142 A 
ATOM      7  O   UNL     1      51.773  12.877  26.071  1.00  0.00    -0.452 OA
ATOM      8  C   UNL     1      52.045  11.071  27.562  1.00  0.00     0.094 A 
ATOM      9  C   UNL     1      52.739  10.472  28.618  1.00  0.00     0.119 A 
ATOM     10  C   UNL     1      53.837  11.127  29.193  1.00  0.00     0.047 A 
ATOM     11  C   UNL     1      54.240  12.378  28.715  1.00  0.00     0.020 A 
ENDROOT
BRANCH   1  12
ATOM     12  C   UNL     1      51.277  14.568  24.422  1.00  0.00     0.025 A 
ATOM     13  C   UNL     1      51.858  15.439  23.488  1.00  0.00     0.016 A 
ATOM     14  C   UNL     1      51.101  15.946  22.428  1.00  0.00     0.051 A 
ATOM     15  C   UNL     1      49.753  15.603  22.293  1.00  0.00     0.157 A 
ATOM     16  C   UNL     1      49.915  14.241  24.298  1.00  0.00     0.062 A 
ATOM     17  C   UNL     1      49.154  14.749  23.235  1.00  0.00     0.158 A 
BRANCH  15  18
ATOM     18  O   UNL     1      49.025  16.121  21.223  1.00  0.00    -0.504 OA
ATOM     19  H   UNL     1      49.351  16.054  20.267  1.00  0.00     0.293 HD
ENDBRANCH  15  18
BRANCH  17  20
ATOM     20  O   UNL     1      47.806  14.414  23.115  1.00  0.00    -0.504 OA
ATOM     21  H   UNL     1      47.156  14.547  23.880  1.00  0.00     0.293 HD
ENDBRANCH  17  20
ENDBRANCH   1  12
BRANCH   2  22
ATOM     22  O   UNL     1      53.470  16.069  25.594  1.00  0.00    -0.502 OA
ATOM     23  H   UNL     1      54.318  16.561  25.849  1.00  0.00     0.293 HD
ENDBRANCH   2  22
BRANCH   9  24
ATOM     24  O   UNL     1      52.331   9.225  29.089  1.00  0.00    -0.508 OA
ATOM     25  H   UNL     1      52.433   8.388  28.526  1.00  0.00     0.293 HD
ENDBRANCH   9  24
TORSDOF 5
ENDMDL
MODEL 8
REMARK VINA RESULT:    -5.231      2.370      6.620
REMARK INTER + INTRA:          -6.471
REMARK INTER:                  -6.395
REMARK INTRA:                  -0.076
REMARK UNBOUND:                -0.322
REMARK SMILES O=c1c(O)c(-c2ccc(O)c(O)c2)oc2cc(O)ccc12
REMARK SMILES IDX 5 1 3 2 2 3 1 4 21 5 15 6 14 7 16 8 17 9 19 10 20 11 6 12
REMARK SMILES IDX 7 13 8 14 9 15 13 16 11 17 10 18 12 20 4 22 18 24
REMARK H PARENT 10 19 12 21 4 23 18 25
REMARK Flexibility Score: inf
ROOT
ATOM      1  C   UNL     1      51.579  14.561  25.896  1.00  0.00     0.180 A 
ATOM      2  C   UNL     1      51.630  13.540  26.866  1.00  0.00     0.208 A 
ATOM      3  C   UNL     1      52.863  13.237  27.465  1.00  0.00     0.235 A 
ATOM      4  O   UNL     1      52.933  12.336  28.344  1.00  0.00    -0.285 OA
ATOM      5  C   UNL     1      54.013  13.940  27.070  1.00  0.00     0.069 A 
ATOM      6  C   UNL     1      53.882  14.932  26.074  1.00  0.00     0.142 A 
ATOM      7  O   UNL     1      52.695  15.194  25.539  1.00  0.00    -0.452 OA
ATOM      8  C   UNL     1      55.006  15.647  25.647  1.00  0.00     0.094 A 
ATOM      9  C   UNL     1      56.263  15.386  26.204  1.00  0.00     0.119 A 
ATOM     10  C   UNL     1      56.396  14.402  27.194  1.00  0.00     0.047 A 
ATOM     11  C   UNL     1      55.278  13.682  27.627  1.00  0.00     0.020 A 
ENDROOT
BRANCH   1  12
ATOM     12  C   UNL     1      50.314  14.952  25.232  1.00  0.00     0.025 A 
ATOM     13  C   UNL     1      50.254  14.995  23.831  1.00  0.00     0.016 A 
ATOM     14  C   UNL     1      49.076  15.382  23.184  1.00  0.00     0.051 A 
ATOM     15  C   UNL     1      47.949  15.745  23.926  1.00  0.00     0.157 A 
ATOM     16  C   UNL     1      49.185  15.339  25.977  1.00  0.00     0.062 A 
ATOM     17  C   UNL     1      48.003  15.728  25.330  1.00  0.00     0.158 A 
BRANCH  15  18
ATOM     18  O   UNL     1      46.787  16.123  23.253  1.00  0.00    -0.504 OA
ATOM     19  H   UNL     1      46.812  16.688  22.413  1.00  0.00     0.293 HD
ENDBRANCH  15  18
BRANCH  17  20
ATOM     20  O   UNL     1      46.886  16.103  26.076  1.00  0.00    -0.504 OA
ATOM     21  H   UNL     1      46.475  15.483  26.763  1.00  0.00     0.293 HD
ENDBRANCH  17  20
ENDBRANCH   1  12
BRANCH   2  22
ATOM     22  O   UNL     1      50.478  12.825  27.203  1.00  0.00    -0.502 OA
ATOM     23  H   UNL     1      49.763  13.204  27.812  1.00  0.00     0.293 HD
ENDBRANCH   2  22
BRANCH   9  24
ATOM     24  O   UNL     1      57.371  16.108  25.767  1.00  0.00    -0.508 OA
ATOM     25  H   UNL     1      57.286  16.833  25.064  1.00  0.00     0.293 HD
ENDBRANCH   9  24
TORSDOF 5
ENDMDL
MODEL 9
REMARK VINA RESULT:    -4.901      3.041      4.736
REMARK INTER + INTRA:          -6.083
REMARK INTER:                  -6.236
REMARK INTRA:                   0.153
REMARK UNBOUND:                -0.322
REMARK SMILES O=c1c(O)c(-c2ccc(O)c(O)c2)oc2cc(O)ccc12
REMARK SMILES IDX 5 1 3 2 2 3 1 4 21 5 15 6 14 7 16 8 17 9 19 10 20 11 6 12
REMARK SMILES IDX 7 13 8 14 9 15 13 16 11 17 10 18 12 20 4 22 18 24
REMARK H PARENT 10 19 12 21 4 23 18 25
REMARK Flexibility Score: inf
ROOT
ATOM      1  C   UNL     1      49.703  14.851  25.859  1.00  0.00     0.180 A 
ATOM      2  C   UNL     1      49.031  15.244  24.684  1.00  0.00     0.208 A 
ATOM      3  C   UNL     1      49.788  15.659  23.578  1.00  0.00     0.235 A 
ATOM      4  O   UNL     1      49.211  16.005  22.511  1.00  0.00    -0.285 OA
ATOM      5  C   UNL     1      51.189  15.691  23.674  1.00  0.00     0.069 A 
ATOM      6  C   UNL     1      51.786  15.305  24.894  1.00  0.00     0.142 A 
ATOM      7  O   UNL     1      51.032  14.910  25.914  1.00  0.00    -0.452 OA
ATOM      8  C   UNL     1      53.177  15.333  25.032  1.00  0.00     0.094 A 
ATOM      9  C   UNL     1      53.984  15.742  23.965  1.00  0.00     0.119 A 
ATOM     10  C   UNL     1      53.396  16.125  22.752  1.00  0.00     0.047 A 
ATOM     11  C   UNL     1      52.006  16.101  22.604  1.00  0.00     0.020 A 
ENDROOT
BRANCH   1  12
ATOM     12  C   UNL     1      48.976  14.384  27.062  1.00  0.00     0.025 A 
ATOM     13  C   UNL     1      49.480  14.689  28.336  1.00  0.00     0.016 A 
ATOM     14  C   UNL     1      48.822  14.240  29.484  1.00  0.00     0.051 A 
ATOM     15  C   UNL     1      47.661  13.469  29.377  1.00  0.00     0.157 A 
ATOM     16  C   UNL     1      47.819  13.590  26.956  1.00  0.00     0.062 A 
ATOM     17  C   UNL     1      47.158  13.138  28.107  1.00  0.00     0.158 A 
BRANCH  15  18
ATOM     18  O   UNL     1      47.023  13.039  30.541  1.00  0.00    -0.504 OA
ATOM     19  H   UNL     1      47.176  12.115  30.928  1.00  0.00     0.293 HD
ENDBRANCH  15  18
BRANCH  17  20
ATOM     20  O   UNL     1      46.008  12.357  27.995  1.00  0.00    -0.504 OA
ATOM     21  H   UNL     1      45.749  11.918  27.119  1.00  0.00     0.293 HD
ENDBRANCH  17  20
ENDBRANCH   1  12
BRANCH   2  22
ATOM     22  O   UNL     1      47.635  15.248  24.635  1.00  0.00    -0.502 OA
ATOM     23  H   UNL     1      47.123  15.316  23.763  1.00  0.00     0.293 HD
ENDBRANCH   2  22
BRANCH   9  24
ATOM     24  O   UNL     1      55.369  15.763  24.121  1.00  0.00    -0.508 OA
ATOM     25  H   UNL     1      55.922  16.561  23.827  1.00  0.00     0.293 HD
ENDBRANCH   9  24
TORSDOF 5
ENDMDL
