MODEL 1
REMARK VINA RESULT:    -5.582      0.000      0.000
REMARK INTER + INTRA:          -9.562
REMARK INTER:                  -8.682
REMARK INTRA:                  -0.879
REMARK UNBOUND:                -0.879
REMARK SMILES C[C@@]12C[C@@]3(O)O[C@@H](O1)[C@]1(COC(=O)c4ccccc4)[C@H]3C[C@@]12O[C@H]1O[C@H](CO)[C@@H](O)[C@H](O)[C@@H]1O
REMARK SMILES IDX 1 1 2 2 3 3 4 4 20 5 21 6 22 7 9 8 7 9 8 10 6 11 23 12 24 13
REMARK SMILES IDX 33 14 25 15 31 16 26 17 29 18 34 19 32 21 27 23 28 24 30 26
REMARK SMILES IDX 5 28 10 30 11 31 12 32 13 33 14 34 15 35 19 36 16 37 18 38
REMARK SMILES IDX 17 39
REMARK H PARENT 34 20 32 22 28 25 30 27 5 29
REMARK Flexibility Score: inf
ROOT
ATOM      1  C   UNL     1      15.376  46.101  28.231  1.00  0.00     0.046 C 
ATOM      2  C   UNL     1      15.507  47.568  28.655  1.00  0.00     0.104 C 
ATOM      3  C   UNL     1      16.630  48.290  27.817  1.00  0.00     0.104 C 
ATOM      4  C   UNL     1      16.692  49.727  28.432  1.00  0.00     0.175 C 
ATOM      5  C   UNL     1      16.778  49.647  29.989  1.00  0.00     0.070 C 
ATOM      6  C   UNL     1      17.198  48.259  30.490  1.00  0.00     0.050 C 
ATOM      7  C   UNL     1      15.759  47.810  30.198  1.00  0.00     0.115 C 
ATOM      8  C   UNL     1      15.324  49.278  30.277  1.00  0.00     0.096 C 
ATOM      9  C   UNL     1      14.553  49.563  28.991  1.00  0.00     0.267 C 
ATOM     10  O   UNL     1      14.323  48.296  28.381  1.00  0.00    -0.342 OA
ATOM     11  O   UNL     1      15.432  50.315  28.171  1.00  0.00    -0.320 OA
ENDROOT
BRANCH   7  12
ATOM     12  O   UNL     1      15.289  46.877  31.169  1.00  0.00    -0.339 OA
BRANCH  12  13
ATOM     13  C   UNL     1      13.875  46.796  31.298  1.00  0.00     0.282 C 
ATOM     14  C   UNL     1      13.485  46.864  32.796  1.00  0.00     0.202 C 
ATOM     15  O   UNL     1      13.377  45.598  30.719  1.00  0.00    -0.341 OA
ATOM     16  C   UNL     1      13.954  45.608  33.553  1.00  0.00     0.179 C 
ATOM     17  C   UNL     1      13.944  44.436  31.308  1.00  0.00     0.178 C 
ATOM     18  C   UNL     1      13.542  44.330  32.800  1.00  0.00     0.177 C 
BRANCH  14  19
ATOM     19  O   UNL     1      12.102  47.072  32.956  1.00  0.00    -0.385 OA
ATOM     20  H   UNL     1      11.865  46.876  33.898  1.00  0.00     0.211 HD
ENDBRANCH  14  19
BRANCH  16  21
ATOM     21  O   UNL     1      13.408  45.610  34.847  1.00  0.00    -0.387 OA
ATOM     22  H   UNL     1      13.053  44.697  35.011  1.00  0.00     0.211 HD
ENDBRANCH  16  21
BRANCH  17  23
ATOM     23  C   UNL     1      13.449  43.208  30.535  1.00  0.00     0.191 C 
BRANCH  23  24
ATOM     24  O   UNL     1      14.346  42.146  30.703  1.00  0.00    -0.394 OA
ATOM     25  H   UNL     1      13.834  41.318  30.513  1.00  0.00     0.210 HD
ENDBRANCH  23  24
ENDBRANCH  17  23
BRANCH  18  26
ATOM     26  O   UNL     1      14.118  43.197  33.404  1.00  0.00    -0.387 OA
ATOM     27  H   UNL     1      14.171  43.369  34.381  1.00  0.00     0.211 HD
ENDBRANCH  18  26
ENDBRANCH  12  13
ENDBRANCH   7  12
BRANCH   4  28
ATOM     28  O   UNL     1      17.736  50.477  27.874  1.00  0.00    -0.365 OA
ATOM     29  H   UNL     1      18.431  50.568  28.577  1.00  0.00     0.214 HD
ENDBRANCH   4  28
BRANCH   8  30
ATOM     30  C   UNL     1      14.783  49.878  31.591  1.00  0.00     0.249 C 
BRANCH  30  31
ATOM     31  O   UNL     1      14.090  51.095  31.336  1.00  0.00    -0.461 OA
BRANCH  31  32
ATOM     32  C   UNL     1      14.665  52.354  31.529  1.00  0.00     0.338 C 
ATOM     33  O   UNL     1      15.288  52.917  30.586  1.00  0.00    -0.246 OA
BRANCH  32  34
ATOM     34  C   UNL     1      14.545  53.019  32.844  1.00  0.00     0.060 A 
ATOM     35  C   UNL     1      13.321  53.591  33.239  1.00  0.00     0.015 A 
ATOM     36  C   UNL     1      15.643  53.082  33.721  1.00  0.00     0.015 A 
ATOM     37  C   UNL     1      13.201  54.210  34.488  1.00  0.00     0.001 A 
ATOM     38  C   UNL     1      15.517  53.704  34.967  1.00  0.00     0.001 A 
ATOM     39  C   UNL     1      14.297  54.267  35.350  1.00  0.00     0.000 A 
ENDBRANCH  32  34
ENDBRANCH  31  32
ENDBRANCH  30  31
ENDBRANCH   8  30
TORSDOF 12
ENDMDL
MODEL 2
REMARK VINA RESULT:    -5.504      1.062      2.124
REMARK INTER + INTRA:          -9.441
REMARK INTER:                  -8.772
REMARK INTRA:                  -0.669
REMARK UNBOUND:                -0.879
REMARK SMILES C[C@@]12C[C@@]3(O)O[C@@H](O1)[C@]1(COC(=O)c4ccccc4)[C@H]3C[C@@]12O[C@H]1O[C@H](CO)[C@@H](O)[C@H](O)[C@@H]1O
REMARK SMILES IDX 1 1 2 2 3 3 4 4 20 5 21 6 22 7 9 8 7 9 8 10 6 11 23 12 24 13
REMARK SMILES IDX 33 14 25 15 31 16 26 17 29 18 34 19 32 21 27 23 28 24 30 26
REMARK SMILES IDX 5 28 10 30 11 31 12 32 13 33 14 34 15 35 19 36 16 37 18 38
REMARK SMILES IDX 17 39
REMARK H PARENT 34 20 32 22 28 25 30 27 5 29
REMARK Flexibility Score: inf
ROOT
ATOM      1  C   UNL     1      14.484  46.989  27.440  1.00  0.00     0.046 C 
ATOM      2  C   UNL     1      15.003  48.265  28.111  1.00  0.00     0.104 C 
ATOM      3  C   UNL     1      16.332  48.755  27.419  1.00  0.00     0.104 C 
ATOM      4  C   UNL     1      16.766  49.993  28.273  1.00  0.00     0.175 C 
ATOM      5  C   UNL     1      16.737  49.638  29.794  1.00  0.00     0.070 C 
ATOM      6  C   UNL     1      16.715  48.126  30.050  1.00  0.00     0.050 C 
ATOM      7  C   UNL     1      15.226  48.168  29.675  1.00  0.00     0.115 C 
ATOM      8  C   UNL     1      15.225  49.666  30.003  1.00  0.00     0.096 C 
ATOM      9  C   UNL     1      14.641  50.368  28.779  1.00  0.00     0.267 C 
ATOM     10  O   UNL     1      14.094  49.340  27.959  1.00  0.00    -0.342 OA
ATOM     11  O   UNL     1      15.744  50.955  28.108  1.00  0.00    -0.320 OA
ENDROOT
BRANCH   7  12
ATOM     12  O   UNL     1      14.455  47.267  30.468  1.00  0.00    -0.339 OA
BRANCH  12  13
ATOM     13  C   UNL     1      15.144  46.103  30.906  1.00  0.00     0.282 C 
ATOM     14  C   UNL     1      14.610  44.865  30.143  1.00  0.00     0.202 C 
ATOM     15  O   UNL     1      14.990  45.916  32.306  1.00  0.00    -0.341 OA
ATOM     16  C   UNL     1      13.155  44.551  30.537  1.00  0.00     0.179 C 
ATOM     17  C   UNL     1      13.627  45.797  32.690  1.00  0.00     0.178 C 
ATOM     18  C   UNL     1      12.995  44.528  32.068  1.00  0.00     0.177 C 
BRANCH  14  19
ATOM     19  O   UNL     1      15.445  43.748  30.333  1.00  0.00    -0.385 OA
ATOM     20  H   UNL     1      16.033  43.927  31.110  1.00  0.00     0.211 HD
ENDBRANCH  14  19
BRANCH  16  21
ATOM     21  O   UNL     1      12.777  43.315  29.987  1.00  0.00    -0.387 OA
ATOM     22  H   UNL     1      11.864  43.432  29.613  1.00  0.00     0.211 HD
ENDBRANCH  16  21
BRANCH  17  23
ATOM     23  C   UNL     1      13.558  45.731  34.220  1.00  0.00     0.191 C 
BRANCH  23  24
ATOM     24  O   UNL     1      13.575  44.395  34.639  1.00  0.00    -0.394 OA
ATOM     25  H   UNL     1      13.344  44.405  35.604  1.00  0.00     0.210 HD
ENDBRANCH  23  24
ENDBRANCH  17  23
BRANCH  18  26
ATOM     26  O   UNL     1      11.637  44.410  32.418  1.00  0.00    -0.387 OA
ATOM     27  H   UNL     1      11.103  44.858  31.710  1.00  0.00     0.211 HD
ENDBRANCH  18  26
ENDBRANCH  12  13
ENDBRANCH   7  12
BRANCH   4  28
ATOM     28  O   UNL     1      18.011  50.487  27.860  1.00  0.00    -0.365 OA
ATOM     29  H   UNL     1      18.175  51.318  28.378  1.00  0.00     0.214 HD
ENDBRANCH   4  28
BRANCH   8  30
ATOM     30  C   UNL     1      14.804  50.175  31.397  1.00  0.00     0.249 C 
BRANCH  30  31
ATOM     31  O   UNL     1      14.132  51.426  31.290  1.00  0.00    -0.461 OA
BRANCH  31  32
ATOM     32  C   UNL     1      14.732  52.643  31.626  1.00  0.00     0.338 C 
ATOM     33  O   UNL     1      15.435  53.259  30.777  1.00  0.00    -0.246 OA
BRANCH  32  34
ATOM     34  C   UNL     1      14.545  53.200  32.982  1.00  0.00     0.060 A 
ATOM     35  C   UNL     1      13.276  53.651  33.393  1.00  0.00     0.015 A 
ATOM     36  C   UNL     1      15.623  53.282  33.882  1.00  0.00     0.015 A 
ATOM     37  C   UNL     1      13.092  54.167  34.680  1.00  0.00     0.001 A 
ATOM     38  C   UNL     1      15.433  53.802  35.167  1.00  0.00     0.001 A 
ATOM     39  C   UNL     1      14.169  54.243  35.565  1.00  0.00     0.000 A 
ENDBRANCH  32  34
ENDBRANCH  31  32
ENDBRANCH  30  31
ENDBRANCH   8  30
TORSDOF 12
ENDMDL
MODEL 3
REMARK VINA RESULT:    -5.493      2.868      7.623
REMARK INTER + INTRA:          -9.423
REMARK INTER:                  -8.095
REMARK INTRA:                  -1.328
REMARK UNBOUND:                -0.879
REMARK SMILES C[C@@]12C[C@@]3(O)O[C@@H](O1)[C@]1(COC(=O)c4ccccc4)[C@H]3C[C@@]12O[C@H]1O[C@H](CO)[C@@H](O)[C@H](O)[C@@H]1O
REMARK SMILES IDX 1 1 2 2 3 3 4 4 20 5 21 6 22 7 9 8 7 9 8 10 6 11 23 12 24 13
REMARK SMILES IDX 33 14 25 15 31 16 26 17 29 18 34 19 32 21 27 23 28 24 30 26
REMARK SMILES IDX 5 28 10 30 11 31 12 32 13 33 14 34 15 35 19 36 16 37 18 38
REMARK SMILES IDX 17 39
REMARK H PARENT 34 20 32 22 28 25 30 27 5 29
REMARK Flexibility Score: inf
ROOT
ATOM      1  C   UNL     1      13.922  55.650  29.321  1.00  0.00     0.046 C 
ATOM      2  C   UNL     1      13.666  54.649  30.453  1.00  0.00     0.104 C 
ATOM      3  C   UNL     1      13.202  55.398  31.760  1.00  0.00     0.104 C 
ATOM      4  C   UNL     1      13.076  54.256  32.822  1.00  0.00     0.175 C 
ATOM      5  C   UNL     1      14.361  53.368  32.818  1.00  0.00     0.070 C 
ATOM      6  C   UNL     1      15.550  54.047  32.125  1.00  0.00     0.050 C 
ATOM      7  C   UNL     1      14.873  53.685  30.794  1.00  0.00     0.115 C 
ATOM      8  C   UNL     1      14.094  52.590  31.532  1.00  0.00     0.096 C 
ATOM      9  C   UNL     1      12.622  52.817  31.198  1.00  0.00     0.267 C 
ATOM     10  O   UNL     1      12.601  53.770  30.138  1.00  0.00    -0.342 OA
ATOM     11  O   UNL     1      12.049  53.403  32.355  1.00  0.00    -0.320 OA
ENDROOT
BRANCH   7  12
ATOM     12  O   UNL     1      15.827  53.328  29.796  1.00  0.00    -0.339 OA
BRANCH  12  13
ATOM     13  C   UNL     1      15.318  53.254  28.470  1.00  0.00     0.282 C 
ATOM     14  C   UNL     1      15.004  51.778  28.117  1.00  0.00     0.202 C 
ATOM     15  O   UNL     1      16.244  53.792  27.537  1.00  0.00    -0.341 OA
ATOM     16  C   UNL     1      16.293  50.941  28.020  1.00  0.00     0.179 C 
ATOM     17  C   UNL     1      17.497  53.122  27.570  1.00  0.00     0.178 C 
ATOM     18  C   UNL     1      17.337  51.645  27.135  1.00  0.00     0.177 C 
BRANCH  14  19
ATOM     19  O   UNL     1      14.242  51.685  26.938  1.00  0.00    -0.385 OA
ATOM     20  H   UNL     1      14.768  51.180  26.266  1.00  0.00     0.211 HD
ENDBRANCH  14  19
BRANCH  16  21
ATOM     21  O   UNL     1      15.989  49.671  27.501  1.00  0.00    -0.387 OA
ATOM     22  H   UNL     1      16.830  49.143  27.520  1.00  0.00     0.211 HD
ENDBRANCH  16  21
BRANCH  17  23
ATOM     23  C   UNL     1      18.463  53.852  26.629  1.00  0.00     0.191 C 
BRANCH  23  24
ATOM     24  O   UNL     1      19.774  53.728  27.104  1.00  0.00    -0.394 OA
ATOM     25  H   UNL     1      20.333  54.315  26.532  1.00  0.00     0.210 HD
ENDBRANCH  23  24
ENDBRANCH  17  23
BRANCH  18  26
ATOM     26  O   UNL     1      18.567  50.962  27.188  1.00  0.00    -0.387 OA
ATOM     27  H   UNL     1      18.382  50.029  27.475  1.00  0.00     0.211 HD
ENDBRANCH  18  26
ENDBRANCH  12  13
ENDBRANCH   7  12
BRANCH   4  28
ATOM     28  O   UNL     1      12.782  54.770  34.092  1.00  0.00    -0.365 OA
ATOM     29  H   UNL     1      13.583  54.613  34.657  1.00  0.00     0.214 HD
ENDBRANCH   4  28
BRANCH   8  30
ATOM     30  C   UNL     1      14.609  51.137  31.571  1.00  0.00     0.249 C 
BRANCH  30  31
ATOM     31  O   UNL     1      13.689  50.263  30.926  1.00  0.00    -0.461 OA
BRANCH  31  32
ATOM     32  C   UNL     1      13.952  48.908  30.704  1.00  0.00     0.338 C 
ATOM     33  O   UNL     1      14.247  48.502  29.545  1.00  0.00    -0.246 OA
BRANCH  32  34
ATOM     34  C   UNL     1      13.876  47.954  31.830  1.00  0.00     0.060 A 
ATOM     35  C   UNL     1      12.631  47.438  32.237  1.00  0.00     0.015 A 
ATOM     36  C   UNL     1      15.039  47.543  32.505  1.00  0.00     0.015 A 
ATOM     37  C   UNL     1      12.556  46.527  33.296  1.00  0.00     0.001 A 
ATOM     38  C   UNL     1      14.957  46.632  33.564  1.00  0.00     0.001 A 
ATOM     39  C   UNL     1      13.717  46.125  33.958  1.00  0.00     0.000 A 
ENDBRANCH  32  34
ENDBRANCH  31  32
ENDBRANCH  30  31
ENDBRANCH   8  30
TORSDOF 12
ENDMDL
MODEL 4
REMARK VINA RESULT:    -5.476      3.580      7.222
REMARK INTER + INTRA:          -9.396
REMARK INTER:                  -8.751
REMARK INTRA:                  -0.645
REMARK UNBOUND:                -0.879
REMARK SMILES C[C@@]12C[C@@]3(O)O[C@@H](O1)[C@]1(COC(=O)c4ccccc4)[C@H]3C[C@@]12O[C@H]1O[C@H](CO)[C@@H](O)[C@H](O)[C@@H]1O
REMARK SMILES IDX 1 1 2 2 3 3 4 4 20 5 21 6 22 7 9 8 7 9 8 10 6 11 23 12 24 13
REMARK SMILES IDX 33 14 25 15 31 16 26 17 29 18 34 19 32 21 27 23 28 24 30 26
REMARK SMILES IDX 5 28 10 30 11 31 12 32 13 33 14 34 15 35 19 36 16 37 18 38
REMARK SMILES IDX 17 39
REMARK H PARENT 34 20 32 22 28 25 30 27 5 29
REMARK Flexibility Score: inf
ROOT
ATOM      1  C   UNL     1      14.991  52.621  34.999  1.00  0.00     0.046 C 
ATOM      2  C   UNL     1      14.504  53.828  34.190  1.00  0.00     0.104 C 
ATOM      3  C   UNL     1      13.251  54.489  34.882  1.00  0.00     0.104 C 
ATOM      4  C   UNL     1      12.834  55.629  33.893  1.00  0.00     0.175 C 
ATOM      5  C   UNL     1      12.748  55.076  32.435  1.00  0.00     0.070 C 
ATOM      6  C   UNL     1      12.670  53.545  32.384  1.00  0.00     0.050 C 
ATOM      7  C   UNL     1      14.179  53.541  32.668  1.00  0.00     0.115 C 
ATOM      8  C   UNL     1      14.244  54.979  32.141  1.00  0.00     0.096 C 
ATOM      9  C   UNL     1      14.941  55.798  33.225  1.00  0.00     0.267 C 
ATOM     10  O   UNL     1      15.480  54.854  34.146  1.00  0.00    -0.342 OA
ATOM     11  O   UNL     1      13.918  56.537  33.870  1.00  0.00    -0.320 OA
ENDROOT
BRANCH   7  12
ATOM     12  O   UNL     1      14.847  52.496  31.964  1.00  0.00    -0.339 OA
BRANCH  12  13
ATOM     13  C   UNL     1      14.001  51.631  31.216  1.00  0.00     0.282 C 
ATOM     14  C   UNL     1      14.419  50.159  31.458  1.00  0.00     0.202 C 
ATOM     15  O   UNL     1      14.061  51.933  29.829  1.00  0.00    -0.341 OA
ATOM     16  C   UNL     1      15.804  49.865  30.853  1.00  0.00     0.179 C 
ATOM     17  C   UNL     1      15.379  51.826  29.309  1.00  0.00     0.178 C 
ATOM     18  C   UNL     1      15.884  50.364  29.399  1.00  0.00     0.177 C 
BRANCH  14  19
ATOM     19  O   UNL     1      13.447  49.265  30.972  1.00  0.00    -0.385 OA
ATOM     20  H   UNL     1      12.878  49.748  30.320  1.00  0.00     0.211 HD
ENDBRANCH  14  19
BRANCH  16  21
ATOM     21  O   UNL     1      16.057  48.484  30.910  1.00  0.00    -0.387 OA
ATOM     22  H   UNL     1      16.932  48.333  30.465  1.00  0.00     0.211 HD
ENDBRANCH  16  21
BRANCH  17  23
ATOM     23  C   UNL     1      15.364  52.294  27.849  1.00  0.00     0.191 C 
BRANCH  23  24
ATOM     24  O   UNL     1      16.602  52.860  27.518  1.00  0.00    -0.394 OA
ATOM     25  H   UNL     1      16.526  53.158  26.575  1.00  0.00     0.210 HD
ENDBRANCH  23  24
ENDBRANCH  17  23
BRANCH  18  26
ATOM     26  O   UNL     1      17.198  50.248  28.911  1.00  0.00    -0.387 OA
ATOM     27  H   UNL     1      17.221  49.476  28.286  1.00  0.00     0.211 HD
ENDBRANCH  18  26
ENDBRANCH  12  13
ENDBRANCH   7  12
BRANCH   4  28
ATOM     28  O   UNL     1      11.648  56.252  34.303  1.00  0.00    -0.365 OA
ATOM     29  H   UNL     1      11.382  55.825  35.159  1.00  0.00     0.214 HD
ENDBRANCH   4  28
BRANCH   8  30
ATOM     30  C   UNL     1      14.605  55.272  30.671  1.00  0.00     0.249 C 
BRANCH  30  31
ATOM     31  O   UNL     1      15.925  55.796  30.576  1.00  0.00    -0.461 OA
BRANCH  31  32
ATOM     32  C   UNL     1      16.194  57.125  30.233  1.00  0.00     0.338 C 
ATOM     33  O   UNL     1      16.197  57.477  29.020  1.00  0.00    -0.246 OA
BRANCH  32  34
ATOM     34  C   UNL     1      16.483  58.110  31.296  1.00  0.00     0.060 A 
ATOM     35  C   UNL     1      15.503  59.043  31.681  1.00  0.00     0.015 A 
ATOM     36  C   UNL     1      17.733  58.127  31.941  1.00  0.00     0.015 A 
ATOM     37  C   UNL     1      15.768  59.970  32.695  1.00  0.00     0.001 A 
ATOM     38  C   UNL     1      17.993  59.057  32.953  1.00  0.00     0.001 A 
ATOM     39  C   UNL     1      17.012  59.977  33.329  1.00  0.00     0.000 A 
ENDBRANCH  32  34
ENDBRANCH  31  32
ENDBRANCH  30  31
ENDBRANCH   8  30
TORSDOF 12
ENDMDL
MODEL 5
REMARK VINA RESULT:    -5.435      2.480      6.455
REMARK INTER + INTRA:          -9.333
REMARK INTER:                  -8.469
REMARK INTRA:                  -0.864
REMARK UNBOUND:                -0.879
REMARK SMILES C[C@@]12C[C@@]3(O)O[C@@H](O1)[C@]1(COC(=O)c4ccccc4)[C@H]3C[C@@]12O[C@H]1O[C@H](CO)[C@@H](O)[C@H](O)[C@@H]1O
REMARK SMILES IDX 1 1 2 2 3 3 4 4 20 5 21 6 22 7 9 8 7 9 8 10 6 11 23 12 24 13
REMARK SMILES IDX 33 14 25 15 31 16 26 17 29 18 34 19 32 21 27 23 28 24 30 26
REMARK SMILES IDX 5 28 10 30 11 31 12 32 13 33 14 34 15 35 19 36 16 37 18 38
REMARK SMILES IDX 17 39
REMARK H PARENT 34 20 32 22 28 25 30 27 5 29
REMARK Flexibility Score: inf
ROOT
ATOM      1  C   UNL     1      17.263  47.326  29.574  1.00  0.00     0.046 C 
ATOM      2  C   UNL     1      15.968  48.082  29.888  1.00  0.00     0.104 C 
ATOM      3  C   UNL     1      14.729  47.109  29.831  1.00  0.00     0.104 C 
ATOM      4  C   UNL     1      13.502  48.049  30.080  1.00  0.00     0.175 C 
ATOM      5  C   UNL     1      13.583  49.303  29.153  1.00  0.00     0.070 C 
ATOM      6  C   UNL     1      14.553  49.112  27.980  1.00  0.00     0.050 C 
ATOM      7  C   UNL     1      15.687  49.352  28.987  1.00  0.00     0.115 C 
ATOM      8  C   UNL     1      14.678  50.064  29.897  1.00  0.00     0.096 C 
ATOM      9  C   UNL     1      14.799  49.400  31.266  1.00  0.00     0.267 C 
ATOM     10  O   UNL     1      15.971  48.592  31.210  1.00  0.00    -0.342 OA
ATOM     11  O   UNL     1      13.664  48.558  31.389  1.00  0.00    -0.320 OA
ENDROOT
BRANCH   7  12
ATOM     12  O   UNL     1      16.763  50.088  28.408  1.00  0.00    -0.339 OA
BRANCH  12  13
ATOM     13  C   UNL     1      16.635  50.354  27.017  1.00  0.00     0.282 C 
ATOM     14  C   UNL     1      17.966  50.013  26.299  1.00  0.00     0.202 C 
ATOM     15  O   UNL     1      16.292  51.714  26.787  1.00  0.00    -0.341 OA
ATOM     16  C   UNL     1      19.089  50.980  26.715  1.00  0.00     0.179 C 
ATOM     17  C   UNL     1      17.252  52.613  27.326  1.00  0.00     0.178 C 
ATOM     18  C   UNL     1      18.617  52.442  26.615  1.00  0.00     0.177 C 
BRANCH  14  19
ATOM     19  O   UNL     1      17.801  49.990  24.902  1.00  0.00    -0.385 OA
ATOM     20  H   UNL     1      17.496  50.886  24.609  1.00  0.00     0.211 HD
ENDBRANCH  14  19
BRANCH  16  21
ATOM     21  O   UNL     1      20.213  50.773  25.899  1.00  0.00    -0.387 OA
ATOM     22  H   UNL     1      20.926  51.380  26.229  1.00  0.00     0.211 HD
ENDBRANCH  16  21
BRANCH  17  23
ATOM     23  C   UNL     1      16.732  54.044  27.143  1.00  0.00     0.191 C 
BRANCH  23  24
ATOM     24  O   UNL     1      17.103  54.828  28.243  1.00  0.00    -0.394 OA
ATOM     25  H   UNL     1      17.875  55.375  27.945  1.00  0.00     0.210 HD
ENDBRANCH  23  24
ENDBRANCH  17  23
BRANCH  18  26
ATOM     26  O   UNL     1      19.585  53.309  27.156  1.00  0.00    -0.387 OA
ATOM     27  H   UNL     1      20.424  53.187  26.638  1.00  0.00     0.211 HD
ENDBRANCH  18  26
ENDBRANCH  12  13
ENDBRANCH   7  12
BRANCH   4  28
ATOM     28  O   UNL     1      12.292  47.355  29.943  1.00  0.00    -0.365 OA
ATOM     29  H   UNL     1      11.586  47.930  30.340  1.00  0.00     0.214 HD
ENDBRANCH   4  28
BRANCH   8  30
ATOM     30  C   UNL     1      14.507  51.595  29.849  1.00  0.00     0.249 C 
BRANCH  30  31
ATOM     31  O   UNL     1      15.389  52.225  30.773  1.00  0.00    -0.461 OA
BRANCH  31  32
ATOM     32  C   UNL     1      15.130  53.475  31.343  1.00  0.00     0.338 C 
ATOM     33  O   UNL     1      15.240  54.523  30.647  1.00  0.00    -0.246 OA
BRANCH  32  34
ATOM     34  C   UNL     1      14.734  53.563  32.764  1.00  0.00     0.060 A 
ATOM     35  C   UNL     1      13.416  53.915  33.112  1.00  0.00     0.015 A 
ATOM     36  C   UNL     1      15.660  53.290  33.787  1.00  0.00     0.015 A 
ATOM     37  C   UNL     1      13.035  53.988  34.455  1.00  0.00     0.001 A 
ATOM     38  C   UNL     1      15.273  53.366  35.129  1.00  0.00     0.001 A 
ATOM     39  C   UNL     1      13.962  53.714  35.463  1.00  0.00     0.000 A 
ENDBRANCH  32  34
ENDBRANCH  31  32
ENDBRANCH  30  31
ENDBRANCH   8  30
TORSDOF 12
ENDMDL
MODEL 6
REMARK VINA RESULT:    -5.365      6.280      9.685
REMARK INTER + INTRA:          -9.223
REMARK INTER:                  -7.752
REMARK INTRA:                  -1.472
REMARK UNBOUND:                -0.879
REMARK SMILES C[C@@]12C[C@@]3(O)O[C@@H](O1)[C@]1(COC(=O)c4ccccc4)[C@H]3C[C@@]12O[C@H]1O[C@H](CO)[C@@H](O)[C@H](O)[C@@H]1O
REMARK SMILES IDX 1 1 2 2 3 3 4 4 20 5 21 6 22 7 9 8 7 9 8 10 6 11 23 12 24 13
REMARK SMILES IDX 33 14 25 15 31 16 26 17 29 18 34 19 32 21 27 23 28 24 30 26
REMARK SMILES IDX 5 28 10 30 11 31 12 32 13 33 14 34 15 35 19 36 16 37 18 38
REMARK SMILES IDX 17 39
REMARK H PARENT 34 20 32 22 28 25 30 27 5 29
REMARK Flexibility Score: inf
ROOT
ATOM      1  C   UNL     1      15.372  53.632  30.475  1.00  0.00     0.046 C 
ATOM      2  C   UNL     1      13.881  53.980  30.429  1.00  0.00     0.104 C 
ATOM      3  C   UNL     1      13.195  53.317  29.174  1.00  0.00     0.104 C 
ATOM      4  C   UNL     1      11.721  53.842  29.231  1.00  0.00     0.175 C 
ATOM      5  C   UNL     1      11.706  55.391  29.430  1.00  0.00     0.070 C 
ATOM      6  C   UNL     1      13.054  56.045  29.103  1.00  0.00     0.050 C 
ATOM      7  C   UNL     1      13.542  55.525  30.464  1.00  0.00     0.115 C 
ATOM      8  C   UNL     1      12.078  55.432  30.910  1.00  0.00     0.096 C 
ATOM      9  C   UNL     1      11.883  54.011  31.435  1.00  0.00     0.267 C 
ATOM     10  O   UNL     1      13.188  53.450  31.546  1.00  0.00    -0.342 OA
ATOM     11  O   UNL     1      11.169  53.320  30.423  1.00  0.00    -0.320 OA
ENDROOT
BRANCH   7  12
ATOM     12  O   UNL     1      14.421  56.451  31.100  1.00  0.00    -0.339 OA
BRANCH  12  13
ATOM     13  C   UNL     1      14.698  57.632  30.358  1.00  0.00     0.282 C 
ATOM     14  C   UNL     1      16.230  57.788  30.185  1.00  0.00     0.202 C 
ATOM     15  O   UNL     1      14.161  58.778  31.004  1.00  0.00    -0.341 OA
ATOM     16  C   UNL     1      16.918  58.079  31.531  1.00  0.00     0.179 C 
ATOM     17  C   UNL     1      14.673  58.948  32.318  1.00  0.00     0.178 C 
ATOM     18  C   UNL     1      16.198  59.216  32.279  1.00  0.00     0.177 C 
BRANCH  14  19
ATOM     19  O   UNL     1      16.538  58.774  29.228  1.00  0.00    -0.385 OA
ATOM     20  H   UNL     1      17.170  58.384  28.572  1.00  0.00     0.211 HD
ENDBRANCH  14  19
BRANCH  16  21
ATOM     21  O   UNL     1      18.263  58.417  31.307  1.00  0.00    -0.387 OA
ATOM     22  H   UNL     1      18.326  59.406  31.374  1.00  0.00     0.211 HD
ENDBRANCH  16  21
BRANCH  17  23
ATOM     23  C   UNL     1      13.942  60.125  32.975  1.00  0.00     0.191 C 
BRANCH  23  24
ATOM     24  O   UNL     1      12.567  60.028  32.730  1.00  0.00    -0.394 OA
ATOM     25  H   UNL     1      12.116  60.391  33.536  1.00  0.00     0.210 HD
ENDBRANCH  23  24
ENDBRANCH  17  23
BRANCH  18  26
ATOM     26  O   UNL     1      16.723  59.361  33.576  1.00  0.00    -0.387 OA
ATOM     27  H   UNL     1      16.131  58.864  34.200  1.00  0.00     0.211 HD
ENDBRANCH  18  26
ENDBRANCH  12  13
ENDBRANCH   7  12
BRANCH   4  28
ATOM     28  O   UNL     1      10.991  53.437  28.105  1.00  0.00    -0.365 OA
ATOM     29  H   UNL     1      10.999  54.201  27.469  1.00  0.00     0.214 HD
ENDBRANCH   4  28
BRANCH   8  30
ATOM     30  C   UNL     1      11.408  56.585  31.684  1.00  0.00     0.249 C 
BRANCH  30  31
ATOM     31  O   UNL     1      11.192  56.216  33.042  1.00  0.00    -0.461 OA
BRANCH  31  32
ATOM     32  C   UNL     1      12.088  56.530  34.069  1.00  0.00     0.338 C 
ATOM     33  O   UNL     1      12.041  57.661  34.627  1.00  0.00    -0.246 OA
BRANCH  32  34
ATOM     34  C   UNL     1      13.095  55.533  34.490  1.00  0.00     0.060 A 
ATOM     35  C   UNL     1      12.715  54.437  35.288  1.00  0.00     0.015 A 
ATOM     36  C   UNL     1      14.440  55.657  34.096  1.00  0.00     0.015 A 
ATOM     37  C   UNL     1      13.663  53.485  35.678  1.00  0.00     0.001 A 
ATOM     38  C   UNL     1      15.383  54.703  34.491  1.00  0.00     0.001 A 
ATOM     39  C   UNL     1      14.995  53.618  35.281  1.00  0.00     0.000 A 
ENDBRANCH  32  34
ENDBRANCH  31  32
ENDBRANCH  30  31
ENDBRANCH   8  30
TORSDOF 12
ENDMDL
MODEL 7
REMARK VINA RESULT:    -5.342      1.885      6.946
REMARK INTER + INTRA:          -9.188
REMARK INTER:                  -8.576
REMARK INTRA:                  -0.611
REMARK UNBOUND:                -0.879
REMARK SMILES C[C@@]12C[C@@]3(O)O[C@@H](O1)[C@]1(COC(=O)c4ccccc4)[C@H]3C[C@@]12O[C@H]1O[C@H](CO)[C@@H](O)[C@H](O)[C@@H]1O
REMARK SMILES IDX 1 1 2 2 3 3 4 4 20 5 21 6 22 7 9 8 7 9 8 10 6 11 23 12 24 13
REMARK SMILES IDX 33 14 25 15 31 16 26 17 29 18 34 19 32 21 27 23 28 24 30 26
REMARK SMILES IDX 5 28 10 30 11 31 12 32 13 33 14 34 15 35 19 36 16 37 18 38
REMARK SMILES IDX 17 39
REMARK H PARENT 34 20 32 22 28 25 30 27 5 29
REMARK Flexibility Score: inf
ROOT
ATOM      1  C   UNL     1      17.222  50.611  27.891  1.00  0.00     0.046 C 
ATOM      2  C   UNL     1      16.521  49.425  28.562  1.00  0.00     0.104 C 
ATOM      3  C   UNL     1      15.877  48.477  27.479  1.00  0.00     0.104 C 
ATOM      4  C   UNL     1      15.137  47.389  28.326  1.00  0.00     0.175 C 
ATOM      5  C   UNL     1      14.259  48.064  29.427  1.00  0.00     0.070 C 
ATOM      6  C   UNL     1      14.003  49.551  29.153  1.00  0.00     0.050 C 
ATOM      7  C   UNL     1      15.435  49.803  29.649  1.00  0.00     0.115 C 
ATOM      8  C   UNL     1      15.373  48.463  30.391  1.00  0.00     0.096 C 
ATOM      9  C   UNL     1      16.609  47.679  29.957  1.00  0.00     0.267 C 
ATOM     10  O   UNL     1      17.440  48.606  29.263  1.00  0.00    -0.342 OA
ATOM     11  O   UNL     1      16.145  46.702  29.040  1.00  0.00    -0.320 OA
ENDROOT
BRANCH   7  12
ATOM     12  O   UNL     1      15.534  51.020  30.386  1.00  0.00    -0.339 OA
BRANCH  12  13
ATOM     13  C   UNL     1      14.390  51.862  30.322  1.00  0.00     0.282 C 
ATOM     14  C   UNL     1      14.688  53.074  29.403  1.00  0.00     0.202 C 
ATOM     15  O   UNL     1      14.014  52.313  31.616  1.00  0.00    -0.341 OA
ATOM     16  C   UNL     1      15.744  54.003  30.029  1.00  0.00     0.179 C 
ATOM     17  C   UNL     1      15.057  53.028  32.263  1.00  0.00     0.178 C 
ATOM     18  C   UNL     1      15.387  54.329  31.491  1.00  0.00     0.177 C 
BRANCH  14  19
ATOM     19  O   UNL     1      13.511  53.776  29.084  1.00  0.00    -0.385 OA
ATOM     20  H   UNL     1      12.817  53.118  28.823  1.00  0.00     0.211 HD
ENDBRANCH  14  19
BRANCH  16  21
ATOM     21  O   UNL     1      15.836  55.184  29.274  1.00  0.00    -0.387 OA
ATOM     22  H   UNL     1      15.001  55.250  28.740  1.00  0.00     0.211 HD
ENDBRANCH  16  21
BRANCH  17  23
ATOM     23  C   UNL     1      14.607  53.357  33.692  1.00  0.00     0.191 C 
BRANCH  23  24
ATOM     24  O   UNL     1      15.723  53.463  34.530  1.00  0.00    -0.394 OA
ATOM     25  H   UNL     1      16.045  54.398  34.444  1.00  0.00     0.210 HD
ENDBRANCH  23  24
ENDBRANCH  17  23
BRANCH  18  26
ATOM     26  O   UNL     1      16.437  55.035  32.107  1.00  0.00    -0.387 OA
ATOM     27  H   UNL     1      17.041  55.364  31.390  1.00  0.00     0.211 HD
ENDBRANCH  18  26
ENDBRANCH  12  13
ENDBRANCH   7  12
BRANCH   4  28
ATOM     28  O   UNL     1      14.401  46.520  27.509  1.00  0.00    -0.365 OA
ATOM     29  H   UNL     1      14.036  45.811  28.101  1.00  0.00     0.214 HD
ENDBRANCH   4  28
BRANCH   8  30
ATOM     30  C   UNL     1      14.960  48.394  31.875  1.00  0.00     0.249 C 
BRANCH  30  31
ATOM     31  O   UNL     1      15.406  47.177  32.463  1.00  0.00    -0.461 OA
BRANCH  31  32
ATOM     32  C   UNL     1      14.608  46.031  32.541  1.00  0.00     0.338 C 
ATOM     33  O   UNL     1      14.972  44.966  31.969  1.00  0.00    -0.246 OA
BRANCH  32  34
ATOM     34  C   UNL     1      13.335  46.077  33.290  1.00  0.00     0.060 A 
ATOM     35  C   UNL     1      12.209  46.711  32.733  1.00  0.00     0.015 A 
ATOM     36  C   UNL     1      13.226  45.484  34.561  1.00  0.00     0.015 A 
ATOM     37  C   UNL     1      10.999  46.747  33.433  1.00  0.00     0.001 A 
ATOM     38  C   UNL     1      12.014  45.524  35.257  1.00  0.00     0.001 A 
ATOM     39  C   UNL     1      10.901  46.154  34.694  1.00  0.00     0.000 A 
ENDBRANCH  32  34
ENDBRANCH  31  32
ENDBRANCH  30  31
ENDBRANCH   8  30
TORSDOF 12
ENDMDL
MODEL 8
REMARK VINA RESULT:    -5.329      4.217     10.364
REMARK INTER + INTRA:          -9.168
REMARK INTER:                  -8.868
REMARK INTRA:                  -0.300
REMARK UNBOUND:                -0.879
REMARK SMILES C[C@@]12C[C@@]3(O)O[C@@H](O1)[C@]1(COC(=O)c4ccccc4)[C@H]3C[C@@]12O[C@H]1O[C@H](CO)[C@@H](O)[C@H](O)[C@@H]1O
REMARK SMILES IDX 1 1 2 2 3 3 4 4 20 5 21 6 22 7 9 8 7 9 8 10 6 11 23 12 24 13
REMARK SMILES IDX 33 14 25 15 31 16 26 17 29 18 34 19 32 21 27 23 28 24 30 26
REMARK SMILES IDX 5 28 10 30 11 31 12 32 13 33 14 34 15 35 19 36 16 37 18 38
REMARK SMILES IDX 17 39
REMARK H PARENT 34 20 32 22 28 25 30 27 5 29
REMARK Flexibility Score: inf
ROOT
ATOM      1  C   UNL     1      11.310  56.952  33.029  1.00  0.00     0.046 C 
ATOM      2  C   UNL     1      12.334  55.879  33.412  1.00  0.00     0.104 C 
ATOM      3  C   UNL     1      12.432  55.739  34.979  1.00  0.00     0.104 C 
ATOM      4  C   UNL     1      13.570  54.685  35.192  1.00  0.00     0.175 C 
ATOM      5  C   UNL     1      14.823  55.062  34.339  1.00  0.00     0.070 C 
ATOM      6  C   UNL     1      14.802  56.520  33.865  1.00  0.00     0.050 C 
ATOM      7  C   UNL     1      13.783  56.074  32.806  1.00  0.00     0.115 C 
ATOM      8  C   UNL     1      14.299  54.639  32.969  1.00  0.00     0.096 C 
ATOM      9  C   UNL     1      13.069  53.774  33.234  1.00  0.00     0.267 C 
ATOM     10  O   UNL     1      11.940  54.597  32.956  1.00  0.00    -0.342 OA
ATOM     11  O   UNL     1      13.094  53.482  34.622  1.00  0.00    -0.320 OA
ENDROOT
BRANCH   7  12
ATOM     12  O   UNL     1      13.970  56.760  31.570  1.00  0.00    -0.339 OA
BRANCH  12  13
ATOM     13  C   UNL     1      13.692  58.155  31.602  1.00  0.00     0.282 C 
ATOM     14  C   UNL     1      13.130  58.603  30.230  1.00  0.00     0.202 C 
ATOM     15  O   UNL     1      14.859  58.901  31.918  1.00  0.00    -0.341 OA
ATOM     16  C   UNL     1      14.202  58.509  29.129  1.00  0.00     0.179 C 
ATOM     17  C   UNL     1      15.911  58.678  30.989  1.00  0.00     0.178 C 
ATOM     18  C   UNL     1      15.511  59.182  29.580  1.00  0.00     0.177 C 
BRANCH  14  19
ATOM     19  O   UNL     1      12.580  59.897  30.301  1.00  0.00    -0.385 OA
ATOM     20  H   UNL     1      11.655  59.823  30.649  1.00  0.00     0.211 HD
ENDBRANCH  14  19
BRANCH  16  21
ATOM     21  O   UNL     1      13.722  59.113  27.954  1.00  0.00    -0.387 OA
ATOM     22  H   UNL     1      13.035  59.775  28.231  1.00  0.00     0.211 HD
ENDBRANCH  16  21
BRANCH  17  23
ATOM     23  C   UNL     1      17.160  59.418  31.483  1.00  0.00     0.191 C 
BRANCH  23  24
ATOM     24  O   UNL     1      18.294  58.618  31.293  1.00  0.00    -0.394 OA
ATOM     25  H   UNL     1      17.978  57.797  30.833  1.00  0.00     0.210 HD
ENDBRANCH  23  24
ENDBRANCH  17  23
BRANCH  18  26
ATOM     26  O   UNL     1      16.534  58.945  28.644  1.00  0.00    -0.387 OA
ATOM     27  H   UNL     1      17.067  59.780  28.561  1.00  0.00     0.211 HD
ENDBRANCH  18  26
ENDBRANCH  12  13
ENDBRANCH   7  12
BRANCH   4  28
ATOM     28  O   UNL     1      13.872  54.528  36.552  1.00  0.00    -0.365 OA
ATOM     29  H   UNL     1      14.524  55.240  36.784  1.00  0.00     0.214 HD
ENDBRANCH   4  28
BRANCH   8  30
ATOM     30  C   UNL     1      15.390  54.076  32.037  1.00  0.00     0.249 C 
BRANCH  30  31
ATOM     31  O   UNL     1      15.318  52.655  31.985  1.00  0.00    -0.461 OA
BRANCH  31  32
ATOM     32  C   UNL     1      15.389  51.931  30.791  1.00  0.00     0.338 C 
ATOM     33  O   UNL     1      15.367  52.536  29.682  1.00  0.00    -0.246 OA
BRANCH  32  34
ATOM     34  C   UNL     1      15.483  50.457  30.834  1.00  0.00     0.060 A 
ATOM     35  C   UNL     1      14.524  49.708  31.541  1.00  0.00     0.015 A 
ATOM     36  C   UNL     1      16.520  49.781  30.167  1.00  0.00     0.015 A 
ATOM     37  C   UNL     1      14.602  48.312  31.575  1.00  0.00     0.001 A 
ATOM     38  C   UNL     1      16.594  48.385  30.205  1.00  0.00     0.001 A 
ATOM     39  C   UNL     1      15.636  47.651  30.908  1.00  0.00     0.000 A 
ENDBRANCH  32  34
ENDBRANCH  31  32
ENDBRANCH  30  31
ENDBRANCH   8  30
TORSDOF 12
ENDMDL
MODEL 9
REMARK VINA RESULT:    -5.296      4.107      8.040
REMARK INTER + INTRA:          -9.116
REMARK INTER:                  -8.022
REMARK INTRA:                  -1.094
REMARK UNBOUND:                -0.879
REMARK SMILES C[C@@]12C[C@@]3(O)O[C@@H](O1)[C@]1(COC(=O)c4ccccc4)[C@H]3C[C@@]12O[C@H]1O[C@H](CO)[C@@H](O)[C@H](O)[C@@H]1O
REMARK SMILES IDX 1 1 2 2 3 3 4 4 20 5 21 6 22 7 9 8 7 9 8 10 6 11 23 12 24 13
REMARK SMILES IDX 33 14 25 15 31 16 26 17 29 18 34 19 32 21 27 23 28 24 30 26
REMARK SMILES IDX 5 28 10 30 11 31 12 32 13 33 14 34 15 35 19 36 16 37 18 38
REMARK SMILES IDX 17 39
REMARK H PARENT 34 20 32 22 28 25 30 27 5 29
REMARK Flexibility Score: inf
ROOT
ATOM      1  C   UNL     1      14.677  53.000  34.659  1.00  0.00     0.046 C 
ATOM      2  C   UNL     1      13.859  54.231  34.255  1.00  0.00     0.104 C 
ATOM      3  C   UNL     1      12.810  54.591  35.375  1.00  0.00     0.104 C 
ATOM      4  C   UNL     1      12.012  55.794  34.769  1.00  0.00     0.175 C 
ATOM      5  C   UNL     1      11.552  55.461  33.315  1.00  0.00     0.070 C 
ATOM      6  C   UNL     1      11.609  53.960  33.003  1.00  0.00     0.050 C 
ATOM      7  C   UNL     1      13.128  54.133  32.856  1.00  0.00     0.115 C 
ATOM      8  C   UNL     1      12.896  55.628  32.609  1.00  0.00     0.096 C 
ATOM      9  C   UNL     1      13.801  56.366  33.592  1.00  0.00     0.267 C 
ATOM     10  O   UNL     1      14.676  55.382  34.137  1.00  0.00    -0.342 OA
ATOM     11  O   UNL     1      12.948  56.843  34.620  1.00  0.00    -0.320 OA
ENDROOT
BRANCH   7  12
ATOM     12  O   UNL     1      13.655  53.314  31.813  1.00  0.00    -0.339 OA
BRANCH  12  13
ATOM     13  C   UNL     1      15.031  53.519  31.519  1.00  0.00     0.282 C 
ATOM     14  C   UNL     1      15.172  54.167  30.119  1.00  0.00     0.202 C 
ATOM     15  O   UNL     1      15.750  52.294  31.563  1.00  0.00    -0.341 OA
ATOM     16  C   UNL     1      14.741  53.194  29.006  1.00  0.00     0.179 C 
ATOM     17  C   UNL     1      15.238  51.333  30.649  1.00  0.00     0.178 C 
ATOM     18  C   UNL     1      15.412  51.821  29.190  1.00  0.00     0.177 C 
BRANCH  14  19
ATOM     19  O   UNL     1      16.478  54.644  29.905  1.00  0.00    -0.385 OA
ATOM     20  H   UNL     1      16.454  55.635  29.918  1.00  0.00     0.211 HD
ENDBRANCH  14  19
BRANCH  16  21
ATOM     21  O   UNL     1      15.074  53.737  27.754  1.00  0.00    -0.387 OA
ATOM     22  H   UNL     1      14.324  53.523  27.139  1.00  0.00     0.211 HD
ENDBRANCH  16  21
BRANCH  17  23
ATOM     23  C   UNL     1      15.988  50.013  30.862  1.00  0.00     0.191 C 
BRANCH  23  24
ATOM     24  O   UNL     1      17.018  49.894  29.920  1.00  0.00    -0.394 OA
ATOM     25  H   UNL     1      17.555  49.106  30.195  1.00  0.00     0.210 HD
ENDBRANCH  23  24
ENDBRANCH  17  23
BRANCH  18  26
ATOM     26  O   UNL     1      14.886  50.891  28.275  1.00  0.00    -0.387 OA
ATOM     27  H   UNL     1      14.041  51.268  27.912  1.00  0.00     0.211 HD
ENDBRANCH  18  26
ENDBRANCH  12  13
ENDBRANCH   7  12
BRANCH   4  28
ATOM     28  O   UNL     1      10.946  56.169  35.598  1.00  0.00    -0.365 OA
ATOM     29  H   UNL     1      11.345  56.505  36.443  1.00  0.00     0.214 HD
ENDBRANCH   4  28
BRANCH   8  30
ATOM     30  C   UNL     1      12.776  56.188  31.177  1.00  0.00     0.249 C 
BRANCH  30  31
ATOM     31  O   UNL     1      13.355  57.487  31.099  1.00  0.00    -0.461 OA
BRANCH  31  32
ATOM     32  C   UNL     1      14.637  57.721  30.592  1.00  0.00     0.338 C 
ATOM     33  O   UNL     1      14.903  57.439  29.390  1.00  0.00    -0.246 OA
BRANCH  32  34
ATOM     34  C   UNL     1      15.678  58.291  31.472  1.00  0.00     0.060 A 
ATOM     35  C   UNL     1      16.957  57.706  31.526  1.00  0.00     0.015 A 
ATOM     36  C   UNL     1      15.413  59.426  32.259  1.00  0.00     0.015 A 
ATOM     37  C   UNL     1      17.949  58.250  32.348  1.00  0.00     0.001 A 
ATOM     38  C   UNL     1      16.408  59.964  33.081  1.00  0.00     0.001 A 
ATOM     39  C   UNL     1      17.675  59.377  33.125  1.00  0.00     0.000 A 
ENDBRANCH  32  34
ENDBRANCH  31  32
ENDBRANCH  30  31
ENDBRANCH   8  30
TORSDOF 12
ENDMDL
