MODEL 1
REMARK VINA RESULT:    -4.084      0.000      0.000
REMARK INTER + INTRA:          -4.985
REMARK INTER:                  -4.919
REMARK INTRA:                  -0.066
REMARK UNBOUND:                -0.066
REMARK SMILES OCCc1ccc(O)c(O)c1
REMARK SMILES IDX 3 1 4 2 5 3 6 4 7 5 11 6 9 7 8 8 10 10 2 12 1 13
REMARK H PARENT 8 9 10 11 1 14
REMARK Flexibility Score: inf
ROOT
ATOM      1  C   UNL     1      43.442  18.636  -3.199  1.00  0.00     0.064 C 
ENDROOT
BRANCH   1   2
ATOM      2  C   UNL     1      42.428  19.310  -2.312  1.00  0.00    -0.042 A 
ATOM      3  C   UNL     1      42.804  20.398  -1.509  1.00  0.00     0.008 A 
ATOM      4  C   UNL     1      41.872  21.006  -0.664  1.00  0.00     0.050 A 
ATOM      5  C   UNL     1      40.556  20.528  -0.604  1.00  0.00     0.157 A 
ATOM      6  C   UNL     1      41.111  18.826  -2.241  1.00  0.00     0.054 A 
ATOM      7  C   UNL     1      40.176  19.431  -1.395  1.00  0.00     0.157 A 
BRANCH   5   8
ATOM      8  O   UNL     1      39.628  21.136   0.241  1.00  0.00    -0.504 OA
ATOM      9  H   UNL     1      38.648  20.876   0.228  1.00  0.00     0.293 HD
ENDBRANCH   5   8
BRANCH   7  10
ATOM     10  O   UNL     1      38.875  18.928  -1.354  1.00  0.00    -0.504 OA
ATOM     11  H   UNL     1      38.398  18.742  -0.480  1.00  0.00     0.293 HD
ENDBRANCH   7  10
ENDBRANCH   1   2
BRANCH   1  12
ATOM     12  C   UNL     1      43.591  17.153  -2.848  1.00  0.00     0.161 C 
BRANCH  12  13
ATOM     13  O   UNL     1      44.878  16.880  -2.364  1.00  0.00    -0.396 OA
ATOM     14  H   UNL     1      44.844  17.004  -1.380  1.00  0.00     0.210 HD
ENDBRANCH  12  13
ENDBRANCH   1  12
TORSDOF 5
ENDMDL
MODEL 2
REMARK VINA RESULT:    -4.053      2.574      2.884
REMARK INTER + INTRA:          -4.948
REMARK INTER:                  -4.861
REMARK INTRA:                  -0.087
REMARK UNBOUND:                -0.066
REMARK SMILES OCCc1ccc(O)c(O)c1
REMARK SMILES IDX 3 1 4 2 5 3 6 4 7 5 11 6 9 7 8 8 10 10 2 12 1 13
REMARK H PARENT 8 9 10 11 1 14
REMARK Flexibility Score: inf
ROOT
ATOM      1  C   UNL     1      44.018  19.766  -4.594  1.00  0.00     0.064 C 
ENDROOT
BRANCH   1   2
ATOM      2  C   UNL     1      43.151  19.724  -3.364  1.00  0.00    -0.042 A 
ATOM      3  C   UNL     1      42.617  20.909  -2.834  1.00  0.00     0.008 A 
ATOM      4  C   UNL     1      41.835  20.876  -1.676  1.00  0.00     0.050 A 
ATOM      5  C   UNL     1      41.585  19.658  -1.028  1.00  0.00     0.157 A 
ATOM      6  C   UNL     1      42.907  18.507  -2.706  1.00  0.00     0.054 A 
ATOM      7  C   UNL     1      42.127  18.469  -1.546  1.00  0.00     0.157 A 
BRANCH   5   8
ATOM      8  O   UNL     1      40.805  19.627   0.127  1.00  0.00    -0.504 OA
ATOM      9  H   UNL     1      39.901  19.168   0.145  1.00  0.00     0.293 HD
ENDBRANCH   5   8
BRANCH   7  10
ATOM     10  O   UNL     1      41.900  17.243  -0.921  1.00  0.00    -0.504 OA
ATOM     11  H   UNL     1      42.594  16.805  -0.328  1.00  0.00     0.293 HD
ENDBRANCH   7  10
ENDBRANCH   1   2
BRANCH   1  12
ATOM     12  C   UNL     1      43.584  20.887  -5.543  1.00  0.00     0.161 C 
BRANCH  12  13
ATOM     13  O   UNL     1      44.678  21.684  -5.909  1.00  0.00    -0.396 OA
ATOM     14  H   UNL     1      44.514  22.585  -5.525  1.00  0.00     0.210 HD
ENDBRANCH  12  13
ENDBRANCH   1  12
TORSDOF 5
ENDMDL
MODEL 3
REMARK VINA RESULT:    -4.023      7.523      9.323
REMARK INTER + INTRA:          -4.912
REMARK INTER:                  -4.834
REMARK INTRA:                  -0.078
REMARK UNBOUND:                -0.066
REMARK SMILES OCCc1ccc(O)c(O)c1
REMARK SMILES IDX 3 1 4 2 5 3 6 4 7 5 11 6 9 7 8 8 10 10 2 12 1 13
REMARK H PARENT 8 9 10 11 1 14
REMARK Flexibility Score: inf
ROOT
ATOM      1  C   UNL     1      49.107  11.252  -2.641  1.00  0.00     0.064 C 
ENDROOT
BRANCH   1   2
ATOM      2  C   UNL     1      48.861  12.670  -3.085  1.00  0.00    -0.042 A 
ATOM      3  C   UNL     1      49.819  13.344  -3.857  1.00  0.00     0.008 A 
ATOM      4  C   UNL     1      49.606  14.669  -4.246  1.00  0.00     0.050 A 
ATOM      5  C   UNL     1      48.437  15.339  -3.860  1.00  0.00     0.157 A 
ATOM      6  C   UNL     1      47.695  13.347  -2.690  1.00  0.00     0.054 A 
ATOM      7  C   UNL     1      47.478  14.674  -3.076  1.00  0.00     0.157 A 
BRANCH   5   8
ATOM      8  O   UNL     1      48.226  16.661  -4.249  1.00  0.00    -0.504 OA
ATOM      9  H   UNL     1      48.725  17.070  -5.032  1.00  0.00     0.293 HD
ENDBRANCH   5   8
BRANCH   7  10
ATOM     10  O   UNL     1      46.308  15.315  -2.671  1.00  0.00    -0.504 OA
ATOM     11  H   UNL     1      45.393  15.010  -2.980  1.00  0.00     0.293 HD
ENDBRANCH   7  10
ENDBRANCH   1   2
BRANCH   1  12
ATOM     12  C   UNL     1      48.660  11.037  -1.191  1.00  0.00     0.161 C 
BRANCH  12  13
ATOM     13  O   UNL     1      49.767  10.896  -0.343  1.00  0.00    -0.396 OA
ATOM     14  H   UNL     1      50.561  11.197  -0.858  1.00  0.00     0.210 HD
ENDBRANCH  12  13
ENDBRANCH   1  12
TORSDOF 5
ENDMDL
MODEL 4
REMARK VINA RESULT:    -3.985      1.636      4.417
REMARK INTER + INTRA:          -4.866
REMARK INTER:                  -4.784
REMARK INTRA:                  -0.082
REMARK UNBOUND:                -0.066
REMARK SMILES OCCc1ccc(O)c(O)c1
REMARK SMILES IDX 3 1 4 2 5 3 6 4 7 5 11 6 9 7 8 8 10 10 2 12 1 13
REMARK H PARENT 8 9 10 11 1 14
REMARK Flexibility Score: inf
ROOT
ATOM      1  C   UNL     1      41.826  20.541  -2.056  1.00  0.00     0.064 C 
ENDROOT
BRANCH   1   2
ATOM      2  C   UNL     1      42.284  19.110  -2.142  1.00  0.00    -0.042 A 
ATOM      3  C   UNL     1      43.455  18.783  -2.843  1.00  0.00     0.008 A 
ATOM      4  C   UNL     1      43.867  17.452  -2.947  1.00  0.00     0.050 A 
ATOM      5  C   UNL     1      43.108  16.430  -2.361  1.00  0.00     0.157 A 
ATOM      6  C   UNL     1      41.520  18.082  -1.564  1.00  0.00     0.054 A 
ATOM      7  C   UNL     1      41.928  16.748  -1.667  1.00  0.00     0.157 A 
BRANCH   5   8
ATOM      8  O   UNL     1      43.521  15.103  -2.467  1.00  0.00    -0.504 OA
ATOM      9  H   UNL     1      44.433  14.858  -2.835  1.00  0.00     0.293 HD
ENDBRANCH   5   8
BRANCH   7  10
ATOM     10  O   UNL     1      41.148  15.753  -1.077  1.00  0.00    -0.504 OA
ATOM     11  H   UNL     1      41.300  14.770  -1.263  1.00  0.00     0.293 HD
ENDBRANCH   7  10
ENDBRANCH   1   2
BRANCH   1  12
ATOM     12  C   UNL     1      41.672  20.991  -0.600  1.00  0.00     0.161 C 
BRANCH  12  13
ATOM     13  O   UNL     1      40.347  21.354  -0.325  1.00  0.00    -0.396 OA
ATOM     14  H   UNL     1      39.769  20.683  -0.774  1.00  0.00     0.210 HD
ENDBRANCH  12  13
ENDBRANCH   1  12
TORSDOF 5
ENDMDL
MODEL 5
REMARK VINA RESULT:    -3.957      1.489      4.503
REMARK INTER + INTRA:          -4.833
REMARK INTER:                  -4.769
REMARK INTRA:                  -0.063
REMARK UNBOUND:                -0.066
REMARK SMILES OCCc1ccc(O)c(O)c1
REMARK SMILES IDX 3 1 4 2 5 3 6 4 7 5 11 6 9 7 8 8 10 10 2 12 1 13
REMARK H PARENT 8 9 10 11 1 14
REMARK Flexibility Score: inf
ROOT
ATOM      1  C   UNL     1      41.185  21.032  -0.572  1.00  0.00     0.064 C 
ENDROOT
BRANCH   1   2
ATOM      2  C   UNL     1      41.840  19.873  -1.276  1.00  0.00    -0.042 A 
ATOM      3  C   UNL     1      42.776  20.104  -2.296  1.00  0.00     0.008 A 
ATOM      4  C   UNL     1      43.364  19.030  -2.969  1.00  0.00     0.050 A 
ATOM      5  C   UNL     1      43.018  17.713  -2.638  1.00  0.00     0.157 A 
ATOM      6  C   UNL     1      41.486  18.553  -0.953  1.00  0.00     0.054 A 
ATOM      7  C   UNL     1      42.072  17.475  -1.625  1.00  0.00     0.157 A 
BRANCH   5   8
ATOM      8  O   UNL     1      43.606  16.643  -3.311  1.00  0.00    -0.504 OA
ATOM      9  H   UNL     1      43.106  16.127  -4.026  1.00  0.00     0.293 HD
ENDBRANCH   5   8
BRANCH   7  10
ATOM     10  O   UNL     1      41.702  16.176  -1.276  1.00  0.00    -0.504 OA
ATOM     11  H   UNL     1      40.737  15.870  -1.287  1.00  0.00     0.293 HD
ENDBRANCH   7  10
ENDBRANCH   1   2
BRANCH   1  12
ATOM     12  C   UNL     1      39.759  20.683  -0.134  1.00  0.00     0.161 C 
BRANCH  12  13
ATOM     13  O   UNL     1      39.051  21.838   0.228  1.00  0.00    -0.396 OA
ATOM     14  H   UNL     1      38.851  22.325  -0.614  1.00  0.00     0.210 HD
ENDBRANCH  12  13
ENDBRANCH   1  12
TORSDOF 5
ENDMDL
MODEL 6
REMARK VINA RESULT:    -3.952      8.230     10.260
REMARK INTER + INTRA:          -4.827
REMARK INTER:                  -4.738
REMARK INTRA:                  -0.088
REMARK UNBOUND:                -0.066
REMARK SMILES OCCc1ccc(O)c(O)c1
REMARK SMILES IDX 3 1 4 2 5 3 6 4 7 5 11 6 9 7 8 8 10 10 2 12 1 13
REMARK H PARENT 8 9 10 11 1 14
REMARK Flexibility Score: inf
ROOT
ATOM      1  C   UNL     1      52.165  15.679  -5.687  1.00  0.00     0.064 C 
ENDROOT
BRANCH   1   2
ATOM      2  C   UNL     1      50.948  15.210  -4.936  1.00  0.00    -0.042 A 
ATOM      3  C   UNL     1      50.854  13.879  -4.504  1.00  0.00     0.008 A 
ATOM      4  C   UNL     1      49.712  13.434  -3.831  1.00  0.00     0.050 A 
ATOM      5  C   UNL     1      48.647  14.313  -3.591  1.00  0.00     0.157 A 
ATOM      6  C   UNL     1      49.874  16.086  -4.703  1.00  0.00     0.054 A 
ATOM      7  C   UNL     1      48.729  15.645  -4.032  1.00  0.00     0.157 A 
BRANCH   5   8
ATOM      8  O   UNL     1      47.509  13.867  -2.920  1.00  0.00    -0.504 OA
ATOM      9  H   UNL     1      47.549  13.101  -2.257  1.00  0.00     0.293 HD
ENDBRANCH   5   8
BRANCH   7  10
ATOM     10  O   UNL     1      47.684  16.542  -3.813  1.00  0.00    -0.504 OA
ATOM     11  H   UNL     1      47.848  17.520  -3.606  1.00  0.00     0.293 HD
ENDBRANCH   7  10
ENDBRANCH   1   2
BRANCH   1  12
ATOM     12  C   UNL     1      53.053  14.501  -6.100  1.00  0.00     0.161 C 
BRANCH  12  13
ATOM     13  O   UNL     1      54.387  14.728  -5.734  1.00  0.00    -0.396 OA
ATOM     14  H   UNL     1      54.650  13.978  -5.138  1.00  0.00     0.210 HD
ENDBRANCH  12  13
ENDBRANCH   1  12
TORSDOF 5
ENDMDL
MODEL 7
REMARK VINA RESULT:    -3.937      1.618      1.921
REMARK INTER + INTRA:          -4.808
REMARK INTER:                  -4.721
REMARK INTRA:                  -0.087
REMARK UNBOUND:                -0.066
REMARK SMILES OCCc1ccc(O)c(O)c1
REMARK SMILES IDX 3 1 4 2 5 3 6 4 7 5 11 6 9 7 8 8 10 10 2 12 1 13
REMARK H PARENT 8 9 10 11 1 14
REMARK Flexibility Score: inf
ROOT
ATOM      1  C   UNL     1      44.107  18.087  -4.355  1.00  0.00     0.064 C 
ENDROOT
BRANCH   1   2
ATOM      2  C   UNL     1      43.384  18.970  -3.373  1.00  0.00    -0.042 A 
ATOM      3  C   UNL     1      43.291  20.352  -3.601  1.00  0.00     0.008 A 
ATOM      4  C   UNL     1      42.644  21.177  -2.676  1.00  0.00     0.050 A 
ATOM      5  C   UNL     1      42.092  20.633  -1.509  1.00  0.00     0.157 A 
ATOM      6  C   UNL     1      42.839  18.429  -2.197  1.00  0.00     0.054 A 
ATOM      7  C   UNL     1      42.192  19.251  -1.268  1.00  0.00     0.157 A 
BRANCH   5   8
ATOM      8  O   UNL     1      41.448  21.458  -0.588  1.00  0.00    -0.504 OA
ATOM      9  H   UNL     1      40.801  22.181  -0.884  1.00  0.00     0.293 HD
ENDBRANCH   5   8
BRANCH   7  10
ATOM     10  O   UNL     1      41.658  18.681  -0.114  1.00  0.00    -0.504 OA
ATOM     11  H   UNL     1      42.223  18.491   0.704  1.00  0.00     0.293 HD
ENDBRANCH   7  10
ENDBRANCH   1   2
BRANCH   1  12
ATOM     12  C   UNL     1      44.424  16.718  -3.745  1.00  0.00     0.161 C 
BRANCH  12  13
ATOM     13  O   UNL     1      45.726  16.693  -3.225  1.00  0.00    -0.396 OA
ATOM     14  H   UNL     1      45.659  16.978  -2.276  1.00  0.00     0.210 HD
ENDBRANCH  12  13
ENDBRANCH   1  12
TORSDOF 5
ENDMDL
MODEL 8
REMARK VINA RESULT:    -3.885      8.002      9.850
REMARK INTER + INTRA:          -4.745
REMARK INTER:                  -4.677
REMARK INTRA:                  -0.069
REMARK UNBOUND:                -0.066
REMARK SMILES OCCc1ccc(O)c(O)c1
REMARK SMILES IDX 3 1 4 2 5 3 6 4 7 5 11 6 9 7 8 8 10 10 2 12 1 13
REMARK H PARENT 8 9 10 11 1 14
REMARK Flexibility Score: inf
ROOT
ATOM      1  C   UNL     1      49.079  11.449  -2.660  1.00  0.00     0.064 C 
ENDROOT
BRANCH   1   2
ATOM      2  C   UNL     1      48.935  12.875  -3.125  1.00  0.00    -0.042 A 
ATOM      3  C   UNL     1      47.768  13.598  -2.834  1.00  0.00     0.008 A 
ATOM      4  C   UNL     1      47.621  14.912  -3.288  1.00  0.00     0.050 A 
ATOM      5  C   UNL     1      48.634  15.514  -4.047  1.00  0.00     0.157 A 
ATOM      6  C   UNL     1      49.944  13.477  -3.894  1.00  0.00     0.054 A 
ATOM      7  C   UNL     1      49.800  14.791  -4.352  1.00  0.00     0.157 A 
BRANCH   5   8
ATOM      8  O   UNL     1      48.485  16.824  -4.500  1.00  0.00    -0.504 OA
ATOM      9  H   UNL     1      47.701  17.099  -5.081  1.00  0.00     0.293 HD
ENDBRANCH   5   8
BRANCH   7  10
ATOM     10  O   UNL     1      50.824  15.360  -5.110  1.00  0.00    -0.504 OA
ATOM     11  H   UNL     1      51.636  14.831  -5.401  1.00  0.00     0.293 HD
ENDBRANCH   7  10
ENDBRANCH   1   2
BRANCH   1  12
ATOM     12  C   UNL     1      48.648  11.294  -1.198  1.00  0.00     0.161 C 
BRANCH  12  13
ATOM     13  O   UNL     1      49.733  10.915  -0.395  1.00  0.00    -0.396 OA
ATOM     14  H   UNL     1      49.366  10.333   0.322  1.00  0.00     0.210 HD
ENDBRANCH  12  13
ENDBRANCH   1  12
TORSDOF 5
ENDMDL
MODEL 9
REMARK VINA RESULT:    -3.877      5.514      9.117
REMARK INTER + INTRA:          -4.736
REMARK INTER:                  -4.649
REMARK INTRA:                  -0.088
REMARK UNBOUND:                -0.066
REMARK SMILES OCCc1ccc(O)c(O)c1
REMARK SMILES IDX 3 1 4 2 5 3 6 4 7 5 11 6 9 7 8 8 10 10 2 12 1 13
REMARK H PARENT 8 9 10 11 1 14
REMARK Flexibility Score: inf
ROOT
ATOM      1  C   UNL     1      46.302  16.439  -4.126  1.00  0.00     0.064 C 
ENDROOT
BRANCH   1   2
ATOM      2  C   UNL     1      47.645  15.757  -4.112  1.00  0.00    -0.042 A 
ATOM      3  C   UNL     1      48.729  16.317  -4.805  1.00  0.00     0.008 A 
ATOM      4  C   UNL     1      49.968  15.671  -4.817  1.00  0.00     0.050 A 
ATOM      5  C   UNL     1      50.136  14.452  -4.145  1.00  0.00     0.157 A 
ATOM      6  C   UNL     1      47.812  14.530  -3.449  1.00  0.00     0.054 A 
ATOM      7  C   UNL     1      49.051  13.879  -3.460  1.00  0.00     0.157 A 
BRANCH   5   8
ATOM      8  O   UNL     1      51.373  13.810  -4.159  1.00  0.00    -0.504 OA
ATOM      9  H   UNL     1      51.768  13.436  -5.015  1.00  0.00     0.293 HD
ENDBRANCH   5   8
BRANCH   7  10
ATOM     10  O   UNL     1      49.184  12.665  -2.787  1.00  0.00    -0.504 OA
ATOM     11  H   UNL     1      49.153  11.776  -3.269  1.00  0.00     0.293 HD
ENDBRANCH   7  10
ENDBRANCH   1   2
BRANCH   1  12
ATOM     12  C   UNL     1      45.325  15.764  -3.159  1.00  0.00     0.161 C 
BRANCH  12  13
ATOM     13  O   UNL     1      44.941  16.646  -2.139  1.00  0.00    -0.396 OA
ATOM     14  H   UNL     1      44.110  16.275  -1.740  1.00  0.00     0.210 HD
ENDBRANCH  12  13
ENDBRANCH   1  12
TORSDOF 5
ENDMDL
