MODEL 1
REMARK VINA RESULT:    -4.467      0.000      0.000
REMARK INTER + INTRA:          -7.428
REMARK INTER:                  -6.817
REMARK INTRA:                  -0.610
REMARK UNBOUND:                -0.610
REMARK SMILES O=C([O-])CCCCCCCCC(=O)[O-]
REMARK SMILES IDX 7 1 6 2 5 3 4 4 2 5 1 6 3 7 8 8 9 9 10 10 11 11 12 12 13 13
REMARK SMILES IDX 14 14
REMARK H PARENT
REMARK Flexibility Score: inf
ROOT
ATOM      1  C   UNL     1     -20.554  11.047  18.769  1.00  0.00     0.000 C 
ENDROOT
BRANCH   1   2
ATOM      2  C   UNL     1     -20.561   9.813  17.859  1.00  0.00     0.000 C 
BRANCH   2   3
ATOM      3  C   UNL     1     -19.180   9.142  17.832  1.00  0.00     0.006 C 
BRANCH   3   4
ATOM      4  C   UNL     1     -19.222   7.705  18.372  1.00  0.00     0.053 C 
BRANCH   4   5
ATOM      5  C   UNL     1     -17.903   7.286  18.943  1.00  0.00     0.041 C 
ATOM      6  O   UNL     1     -17.857   6.650  20.029  1.00  0.00    -0.550 OA
ATOM      7  O   UNL     1     -16.727   7.566  18.259  1.00  0.00    -0.550 OA
ENDBRANCH   4   5
ENDBRANCH   3   4
ENDBRANCH   2   3
ENDBRANCH   1   2
BRANCH   1   8
ATOM      8  C   UNL     1     -19.321  11.922  18.497  1.00  0.00     0.000 C 
BRANCH   8   9
ATOM      9  C   UNL     1     -19.588  13.029  17.460  1.00  0.00     0.000 C 
BRANCH   9  10
ATOM     10  C   UNL     1     -18.718  12.956  16.189  1.00  0.00     0.006 C 
BRANCH  10  11
ATOM     11  C   UNL     1     -19.113  11.841  15.208  1.00  0.00     0.053 C 
BRANCH  11  12
ATOM     12  C   UNL     1     -19.015  12.289  13.782  1.00  0.00     0.041 C 
ATOM     13  O   UNL     1     -19.355  13.458  13.461  1.00  0.00    -0.550 OA
ATOM     14  O   UNL     1     -18.579  11.405  12.803  1.00  0.00    -0.550 OA
ENDBRANCH  11  12
ENDBRANCH  10  11
ENDBRANCH   9  10
ENDBRANCH   8   9
ENDBRANCH   1   8
TORSDOF 9
ENDMDL
MODEL 2
REMARK VINA RESULT:    -4.340      0.404      6.014
REMARK INTER + INTRA:          -7.234
REMARK INTER:                  -6.671
REMARK INTRA:                  -0.562
REMARK UNBOUND:                -0.610
REMARK SMILES O=C([O-])CCCCCCCCC(=O)[O-]
REMARK SMILES IDX 7 1 6 2 5 3 4 4 2 5 1 6 3 7 8 8 9 9 10 10 11 11 12 12 13 13
REMARK SMILES IDX 14 14
REMARK H PARENT
REMARK Flexibility Score: inf
ROOT
ATOM      1  C   UNL     1     -19.112  12.328  18.348  1.00  0.00     0.000 C 
ENDROOT
BRANCH   1   2
ATOM      2  C   UNL     1     -19.616  13.173  17.171  1.00  0.00     0.000 C 
BRANCH   2   3
ATOM      3  C   UNL     1     -18.559  13.253  16.060  1.00  0.00     0.006 C 
BRANCH   3   4
ATOM      4  C   UNL     1     -18.489  11.964  15.231  1.00  0.00     0.053 C 
BRANCH   4   5
ATOM      5  C   UNL     1     -19.011  12.165  13.842  1.00  0.00     0.041 C 
ATOM      6  O   UNL     1     -19.803  13.113  13.595  1.00  0.00    -0.550 OA
ATOM      7  O   UNL     1     -18.597  11.329  12.814  1.00  0.00    -0.550 OA
ENDBRANCH   4   5
ENDBRANCH   3   4
ENDBRANCH   2   3
ENDBRANCH   1   2
BRANCH   1   8
ATOM      8  C   UNL     1     -20.140  11.253  18.732  1.00  0.00     0.000 C 
BRANCH   8   9
ATOM      9  C   UNL     1     -20.075  10.010  17.825  1.00  0.00     0.000 C 
BRANCH   9  10
ATOM     10  C   UNL     1     -18.773   9.191  17.931  1.00  0.00     0.006 C 
BRANCH  10  11
ATOM     11  C   UNL     1     -18.960   7.762  18.466  1.00  0.00     0.053 C 
BRANCH  11  12
ATOM     12  C   UNL     1     -17.661   7.149  18.891  1.00  0.00     0.041 C 
ATOM     13  O   UNL     1     -16.615   7.352  18.219  1.00  0.00    -0.550 OA
ATOM     14  O   UNL     1     -17.612   6.329  20.010  1.00  0.00    -0.550 OA
ENDBRANCH  11  12
ENDBRANCH  10  11
ENDBRANCH   9  10
ENDBRANCH   8   9
ENDBRANCH   1   8
TORSDOF 9
ENDMDL
MODEL 3
REMARK VINA RESULT:    -4.198      5.649      8.852
REMARK INTER + INTRA:          -7.017
REMARK INTER:                  -6.549
REMARK INTRA:                  -0.468
REMARK UNBOUND:                -0.610
REMARK SMILES O=C([O-])CCCCCCCCC(=O)[O-]
REMARK SMILES IDX 7 1 6 2 5 3 4 4 2 5 1 6 3 7 8 8 9 9 10 10 11 11 12 12 13 13
REMARK SMILES IDX 14 14
REMARK H PARENT
REMARK Flexibility Score: inf
ROOT
ATOM      1  C   UNL     1     -14.945   3.633  15.524  1.00  0.00     0.000 C 
ENDROOT
BRANCH   1   2
ATOM      2  C   UNL     1     -13.525   4.154  15.774  1.00  0.00     0.000 C 
BRANCH   2   3
ATOM      3  C   UNL     1     -13.081   5.102  14.649  1.00  0.00     0.006 C 
BRANCH   3   4
ATOM      4  C   UNL     1     -13.931   4.936  13.382  1.00  0.00     0.053 C 
BRANCH   4   5
ATOM      5  C   UNL     1     -13.083   4.700  12.170  1.00  0.00     0.041 C 
ATOM      6  O   UNL     1     -11.974   4.115  12.278  1.00  0.00    -0.550 OA
ATOM      7  O   UNL     1     -13.534   5.096  10.917  1.00  0.00    -0.550 OA
ENDBRANCH   4   5
ENDBRANCH   3   4
ENDBRANCH   2   3
ENDBRANCH   1   2
BRANCH   1   8
ATOM      8  C   UNL     1     -15.694   3.422  16.848  1.00  0.00     0.000 C 
BRANCH   8   9
ATOM      9  C   UNL     1     -15.124   4.268  18.001  1.00  0.00     0.000 C 
BRANCH   9  10
ATOM     10  C   UNL     1     -16.045   4.405  19.229  1.00  0.00     0.006 C 
BRANCH  10  11
ATOM     11  C   UNL     1     -17.430   5.000  18.925  1.00  0.00     0.053 C 
BRANCH  11  12
ATOM     12  C   UNL     1     -17.476   6.474  19.193  1.00  0.00     0.041 C 
ATOM     13  O   UNL     1     -18.181   6.925  20.132  1.00  0.00    -0.550 OA
ATOM     14  O   UNL     1     -16.764   7.350  18.383  1.00  0.00    -0.550 OA
ENDBRANCH  11  12
ENDBRANCH  10  11
ENDBRANCH   9  10
ENDBRANCH   8   9
ENDBRANCH   1   8
TORSDOF 9
ENDMDL
MODEL 4
REMARK VINA RESULT:    -4.156      8.843     11.044
REMARK INTER + INTRA:          -6.952
REMARK INTER:                  -5.864
REMARK INTRA:                  -1.089
REMARK UNBOUND:                -0.610
REMARK SMILES O=C([O-])CCCCCCCCC(=O)[O-]
REMARK SMILES IDX 7 1 6 2 5 3 4 4 2 5 1 6 3 7 8 8 9 9 10 10 11 11 12 12 13 13
REMARK SMILES IDX 14 14
REMARK H PARENT
REMARK Flexibility Score: inf
ROOT
ATOM      1  C   UNL     1     -14.177   4.923  14.681  1.00  0.00     0.000 C 
ENDROOT
BRANCH   1   2
ATOM      2  C   UNL     1     -12.730   4.746  14.208  1.00  0.00     0.000 C 
BRANCH   2   3
ATOM      3  C   UNL     1     -12.676   4.457  12.700  1.00  0.00     0.006 C 
BRANCH   3   4
ATOM      4  C   UNL     1     -13.889   5.030  11.956  1.00  0.00     0.053 C 
BRANCH   4   5
ATOM      5  C   UNL     1     -14.345   4.125  10.853  1.00  0.00     0.041 C 
ATOM      6  O   UNL     1     -13.530   3.736   9.976  1.00  0.00    -0.550 OA
ATOM      7  O   UNL     1     -15.661   3.683  10.814  1.00  0.00    -0.550 OA
ENDBRANCH   4   5
ENDBRANCH   3   4
ENDBRANCH   2   3
ENDBRANCH   1   2
BRANCH   1   8
ATOM      8  C   UNL     1     -14.701   3.636  15.337  1.00  0.00     0.000 C 
BRANCH   8   9
ATOM      9  C   UNL     1     -15.534   2.769  14.376  1.00  0.00     0.000 C 
BRANCH   9  10
ATOM     10  C   UNL     1     -15.089   1.296  14.273  1.00  0.00     0.006 C 
BRANCH  10  11
ATOM     11  C   UNL     1     -14.452   0.914  12.927  1.00  0.00     0.053 C 
BRANCH  11  12
ATOM     12  C   UNL     1     -12.956   0.933  12.991  1.00  0.00     0.041 C 
ATOM     13  O   UNL     1     -12.278   1.064  11.938  1.00  0.00    -0.550 OA
ATOM     14  O   UNL     1     -12.310   0.773  14.210  1.00  0.00    -0.550 OA
ENDBRANCH  11  12
ENDBRANCH  10  11
ENDBRANCH   9  10
ENDBRANCH   8   9
ENDBRANCH   1   8
TORSDOF 9
ENDMDL
MODEL 5
REMARK VINA RESULT:    -4.116      2.842      5.283
REMARK INTER + INTRA:          -6.891
REMARK INTER:                  -6.251
REMARK INTRA:                  -0.641
REMARK UNBOUND:                -0.610
REMARK SMILES O=C([O-])CCCCCCCCC(=O)[O-]
REMARK SMILES IDX 7 1 6 2 5 3 4 4 2 5 1 6 3 7 8 8 9 9 10 10 11 11 12 12 13 13
REMARK SMILES IDX 14 14
REMARK H PARENT
REMARK Flexibility Score: inf
ROOT
ATOM      1  C   UNL     1     -19.234  13.426  17.243  1.00  0.00     0.000 C 
ENDROOT
BRANCH   1   2
ATOM      2  C   UNL     1     -18.607  12.967  15.922  1.00  0.00     0.000 C 
BRANCH   2   3
ATOM      3  C   UNL     1     -19.597  12.119  15.109  1.00  0.00     0.006 C 
BRANCH   3   4
ATOM      4  C   UNL     1     -19.014  10.752  14.728  1.00  0.00     0.053 C 
BRANCH   4   5
ATOM      5  C   UNL     1     -18.187  10.826  13.481  1.00  0.00     0.041 C 
ATOM      6  O   UNL     1     -16.931  10.826  13.555  1.00  0.00    -0.550 OA
ATOM      7  O   UNL     1     -18.804  10.861  12.237  1.00  0.00    -0.550 OA
ENDBRANCH   4   5
ENDBRANCH   3   4
ENDBRANCH   2   3
ENDBRANCH   1   2
BRANCH   1   8
ATOM      8  C   UNL     1     -18.754  12.552  18.412  1.00  0.00     0.000 C 
BRANCH   8   9
ATOM      9  C   UNL     1     -19.864  11.652  18.984  1.00  0.00     0.000 C 
BRANCH   9  10
ATOM     10  C   UNL     1     -19.970  10.255  18.341  1.00  0.00     0.006 C 
BRANCH  10  11
ATOM     11  C   UNL     1     -21.402   9.825  17.984  1.00  0.00     0.053 C 
BRANCH  11  12
ATOM     12  C   UNL     1     -22.418  10.828  18.438  1.00  0.00     0.041 C 
ATOM     13  O   UNL     1     -22.665  11.842  17.733  1.00  0.00    -0.550 OA
ATOM     14  O   UNL     1     -23.067  10.659  19.654  1.00  0.00    -0.550 OA
ENDBRANCH  11  12
ENDBRANCH  10  11
ENDBRANCH   9  10
ENDBRANCH   8   9
ENDBRANCH   1   8
TORSDOF 9
ENDMDL
MODEL 6
REMARK VINA RESULT:    -4.097      1.595      5.324
REMARK INTER + INTRA:          -6.862
REMARK INTER:                  -6.124
REMARK INTRA:                  -0.738
REMARK UNBOUND:                -0.610
REMARK SMILES O=C([O-])CCCCCCCCC(=O)[O-]
REMARK SMILES IDX 7 1 6 2 5 3 4 4 2 5 1 6 3 7 8 8 9 9 10 10 11 11 12 12 13 13
REMARK SMILES IDX 14 14
REMARK H PARENT
REMARK Flexibility Score: inf
ROOT
ATOM      1  C   UNL     1     -19.408  13.376  16.564  1.00  0.00     0.000 C 
ENDROOT
BRANCH   1   2
ATOM      2  C   UNL     1     -18.293  13.568  15.528  1.00  0.00     0.000 C 
BRANCH   2   3
ATOM      3  C   UNL     1     -18.005  12.256  14.783  1.00  0.00     0.006 C 
BRANCH   3   4
ATOM      4  C   UNL     1     -19.261  11.679  14.116  1.00  0.00     0.053 C 
BRANCH   4   5
ATOM      5  C   UNL     1     -18.960  11.095  12.770  1.00  0.00     0.041 C 
ATOM      6  O   UNL     1     -17.778  10.786  12.465  1.00  0.00    -0.550 OA
ATOM      7  O   UNL     1     -19.989  10.860  11.867  1.00  0.00    -0.550 OA
ENDBRANCH   4   5
ENDBRANCH   3   4
ENDBRANCH   2   3
ENDBRANCH   1   2
BRANCH   1   8
ATOM      8  C   UNL     1     -18.822  13.134  17.963  1.00  0.00     0.000 C 
BRANCH   8   9
ATOM      9  C   UNL     1     -19.413  11.892  18.655  1.00  0.00     0.000 C 
BRANCH   9  10
ATOM     10  C   UNL     1     -20.394  11.071  17.795  1.00  0.00     0.006 C 
BRANCH  10  11
ATOM     11  C   UNL     1     -20.333   9.553  18.032  1.00  0.00     0.053 C 
BRANCH  11  12
ATOM     12  C   UNL     1     -19.164   8.924  17.338  1.00  0.00     0.041 C 
ATOM     13  O   UNL     1     -18.206   8.456  18.007  1.00  0.00    -0.550 OA
ATOM     14  O   UNL     1     -19.119   8.885  15.950  1.00  0.00    -0.550 OA
ENDBRANCH  11  12
ENDBRANCH  10  11
ENDBRANCH   9  10
ENDBRANCH   8   9
ENDBRANCH   1   8
TORSDOF 9
ENDMDL
MODEL 7
REMARK VINA RESULT:    -4.068      1.863      2.872
REMARK INTER + INTRA:          -6.818
REMARK INTER:                  -5.829
REMARK INTRA:                  -0.989
REMARK UNBOUND:                -0.610
REMARK SMILES O=C([O-])CCCCCCCCC(=O)[O-]
REMARK SMILES IDX 7 1 6 2 5 3 4 4 2 5 1 6 3 7 8 8 9 9 10 10 11 11 12 12 13 13
REMARK SMILES IDX 14 14
REMARK H PARENT
REMARK Flexibility Score: inf
ROOT
ATOM      1  C   UNL     1     -19.432  13.734  17.543  1.00  0.00     0.000 C 
ENDROOT
BRANCH   1   2
ATOM      2  C   UNL     1     -19.050  12.356  18.097  1.00  0.00     0.000 C 
BRANCH   2   3
ATOM      3  C   UNL     1     -20.294  11.472  18.276  1.00  0.00     0.006 C 
BRANCH   3   4
ATOM      4  C   UNL     1     -20.449  10.452  17.139  1.00  0.00     0.053 C 
BRANCH   4   5
ATOM      5  C   UNL     1     -19.379   9.406  17.179  1.00  0.00     0.041 C 
ATOM      6  O   UNL     1     -18.729   9.125  16.138  1.00  0.00    -0.550 OA
ATOM      7  O   UNL     1     -19.076   8.765  18.374  1.00  0.00    -0.550 OA
ENDBRANCH   4   5
ENDBRANCH   3   4
ENDBRANCH   2   3
ENDBRANCH   1   2
BRANCH   1   8
ATOM      8  C   UNL     1     -19.207  13.798  16.025  1.00  0.00     0.000 C 
BRANCH   8   9
ATOM      9  C   UNL     1     -17.794  13.350  15.609  1.00  0.00     0.000 C 
BRANCH   9  10
ATOM     10  C   UNL     1     -17.750  12.209  14.573  1.00  0.00     0.006 C 
BRANCH  10  11
ATOM     11  C   UNL     1     -19.109  11.869  13.939  1.00  0.00     0.053 C 
BRANCH  11  12
ATOM     12  C   UNL     1     -19.005  10.732  12.970  1.00  0.00     0.041 C 
ATOM     13  O   UNL     1     -19.853   9.801  12.993  1.00  0.00    -0.550 OA
ATOM     14  O   UNL     1     -17.953  10.683  12.064  1.00  0.00    -0.550 OA
ENDBRANCH  11  12
ENDBRANCH  10  11
ENDBRANCH   9  10
ENDBRANCH   8   9
ENDBRANCH   1   8
TORSDOF 9
ENDMDL
MODEL 8
REMARK VINA RESULT:    -4.064      1.370      2.096
REMARK INTER + INTRA:          -6.812
REMARK INTER:                  -6.094
REMARK INTRA:                  -0.718
REMARK UNBOUND:                -0.610
REMARK SMILES O=C([O-])CCCCCCCCC(=O)[O-]
REMARK SMILES IDX 7 1 6 2 5 3 4 4 2 5 1 6 3 7 8 8 9 9 10 10 11 11 12 12 13 13
REMARK SMILES IDX 14 14
REMARK H PARENT
REMARK Flexibility Score: inf
ROOT
ATOM      1  C   UNL     1     -20.981   9.491  17.566  1.00  0.00     0.000 C 
ENDROOT
BRANCH   1   2
ATOM      2  C   UNL     1     -19.528   9.008  17.478  1.00  0.00     0.000 C 
BRANCH   2   3
ATOM      3  C   UNL     1     -19.352   7.664  18.201  1.00  0.00     0.006 C 
BRANCH   3   4
ATOM      4  C   UNL     1     -18.112   7.650  19.106  1.00  0.00     0.053 C 
BRANCH   4   5
ATOM      5  C   UNL     1     -17.449   6.307  19.121  1.00  0.00     0.041 C 
ATOM      6  O   UNL     1     -17.393   5.617  18.069  1.00  0.00    -0.550 OA
ATOM      7  O   UNL     1     -16.862   5.834  20.287  1.00  0.00    -0.550 OA
ENDBRANCH   4   5
ENDBRANCH   3   4
ENDBRANCH   2   3
ENDBRANCH   1   2
BRANCH   1   8
ATOM      8  C   UNL     1     -21.045  10.963  18.001  1.00  0.00     0.000 C 
BRANCH   8   9
ATOM      9  C   UNL     1     -19.778  11.424  18.744  1.00  0.00     0.000 C 
BRANCH   9  10
ATOM     10  C   UNL     1     -19.036  12.610  18.096  1.00  0.00     0.006 C 
BRANCH  10  11
ATOM     11  C   UNL     1     -19.505  12.956  16.674  1.00  0.00     0.053 C 
BRANCH  11  12
ATOM     12  C   UNL     1     -18.527  12.499  15.635  1.00  0.00     0.041 C 
ATOM     13  O   UNL     1     -18.694  11.397  15.050  1.00  0.00    -0.550 OA
ATOM     14  O   UNL     1     -17.415  13.275  15.338  1.00  0.00    -0.550 OA
ENDBRANCH  11  12
ENDBRANCH  10  11
ENDBRANCH   9  10
ENDBRANCH   8   9
ENDBRANCH   1   8
TORSDOF 9
ENDMDL
MODEL 9
REMARK VINA RESULT:    -4.044      3.284      4.225
REMARK INTER + INTRA:          -6.781
REMARK INTER:                  -5.858
REMARK INTRA:                  -0.924
REMARK UNBOUND:                -0.610
REMARK SMILES O=C([O-])CCCCCCCCC(=O)[O-]
REMARK SMILES IDX 7 1 6 2 5 3 4 4 2 5 1 6 3 7 8 8 9 9 10 10 11 11 12 12 13 13
REMARK SMILES IDX 14 14
REMARK H PARENT
REMARK Flexibility Score: inf
ROOT
ATOM      1  C   UNL     1     -20.160  10.934  17.142  1.00  0.00     0.000 C 
ENDROOT
BRANCH   1   2
ATOM      2  C   UNL     1     -19.424   9.708  16.588  1.00  0.00     0.000 C 
BRANCH   2   3
ATOM      3  C   UNL     1     -18.753  10.030  15.244  1.00  0.00     0.006 C 
BRANCH   3   4
ATOM      4  C   UNL     1     -19.773  10.168  14.105  1.00  0.00     0.053 C 
BRANCH   4   5
ATOM      5  C   UNL     1     -19.141  10.694  12.853  1.00  0.00     0.041 C 
ATOM      6  O   UNL     1     -17.949  11.097  12.866  1.00  0.00    -0.550 OA
ATOM      7  O   UNL     1     -19.859  10.708  11.664  1.00  0.00    -0.550 OA
ENDBRANCH   4   5
ENDBRANCH   3   4
ENDBRANCH   2   3
ENDBRANCH   1   2
BRANCH   1   8
ATOM      8  C   UNL     1     -19.277  11.701  18.136  1.00  0.00     0.000 C 
BRANCH   8   9
ATOM      9  C   UNL     1     -19.131  13.193  17.783  1.00  0.00     0.000 C 
BRANCH   9  10
ATOM     10  C   UNL     1     -19.562  13.570  16.351  1.00  0.00     0.006 C 
BRANCH  10  11
ATOM     11  C   UNL     1     -18.401  13.716  15.354  1.00  0.00     0.053 C 
BRANCH  11  12
ATOM     12  C   UNL     1     -18.746  14.640  14.226  1.00  0.00     0.041 C 
ATOM     13  O   UNL     1     -18.378  15.843  14.259  1.00  0.00    -0.550 OA
ATOM     14  O   UNL     1     -19.500  14.178  13.155  1.00  0.00    -0.550 OA
ENDBRANCH  11  12
ENDBRANCH  10  11
ENDBRANCH   9  10
ENDBRANCH   8   9
ENDBRANCH   1   8
TORSDOF 9
ENDMDL
