MODEL 1
REMARK VINA RESULT:    -5.604      0.000      0.000
REMARK INTER + INTRA:          -7.781
REMARK INTER:                  -6.915
REMARK INTRA:                  -0.866
REMARK UNBOUND:                -0.866
REMARK SMILES CC(C)=CCC[C@@H](C)[C@@H]1C=CC(C)=CC1
REMARK SMILES IDX 6 1 7 2 8 3 9 4 13 5 12 6 14 7 11 8 15 9 10 10 5 11 4 12
REMARK SMILES IDX 2 13 1 14 3 15
REMARK H PARENT
REMARK Flexibility Score: inf
ROOT
ATOM      1  C   UNL     1      10.487   5.519  26.627  1.00  0.00     0.008 C 
ENDROOT
BRANCH   1   2
ATOM      2  C   UNL     1      11.617   6.405  27.225  1.00  0.00    -0.007 C 
ATOM      3  C   UNL     1      12.671   5.525  27.931  1.00  0.00     0.008 C 
BRANCH   2   4
ATOM      4  C   UNL     1      12.308   7.307  26.148  1.00  0.00     0.018 C 
ATOM      5  C   UNL     1      14.295   8.680  22.536  1.00  0.00     0.044 C 
ATOM      6  C   UNL     1      13.698   7.979  23.719  1.00  0.00    -0.055 C 
ATOM      7  C   UNL     1      14.405   7.840  24.850  1.00  0.00    -0.023 C 
ATOM      8  C   UNL     1      12.304   7.489  23.665  1.00  0.00    -0.001 C 
ATOM      9  C   UNL     1      13.836   7.082  26.022  1.00  0.00     0.035 C 
ATOM     10  C   UNL     1      11.668   7.114  24.780  1.00  0.00    -0.023 C 
ENDBRANCH   2   4
ENDBRANCH   1   2
BRANCH   1  11
ATOM     11  C   UNL     1       9.350   5.181  27.617  1.00  0.00     0.027 C 
BRANCH  11  12
ATOM     12  C   UNL     1       9.063   6.316  28.573  1.00  0.00    -0.028 C 
ATOM     13  C   UNL     1       9.225   6.244  29.913  1.00  0.00    -0.080 C 
ATOM     14  C   UNL     1       9.676   4.976  30.601  1.00  0.00     0.039 C 
ATOM     15  C   UNL     1       8.914   7.466  30.739  1.00  0.00     0.039 C 
ENDBRANCH  11  12
ENDBRANCH   1  11
TORSDOF 4
ENDMDL
MODEL 2
REMARK VINA RESULT:    -5.483     12.288     14.738
REMARK INTER + INTRA:          -7.632
REMARK INTER:                  -6.766
REMARK INTRA:                  -0.866
REMARK UNBOUND:                -0.866
REMARK SMILES CC(C)=CCC[C@@H](C)[C@@H]1C=CC(C)=CC1
REMARK SMILES IDX 6 1 7 2 8 3 9 4 13 5 12 6 14 7 11 8 15 9 10 10 5 11 4 12
REMARK SMILES IDX 2 13 1 14 3 15
REMARK H PARENT
REMARK Flexibility Score: inf
ROOT
ATOM      1  C   UNL     1       5.925   6.387  15.376  1.00  0.00     0.008 C 
ENDROOT
BRANCH   1   2
ATOM      2  C   UNL     1       5.045   7.444  14.649  1.00  0.00    -0.007 C 
ATOM      3  C   UNL     1       4.121   6.755  13.620  1.00  0.00     0.008 C 
BRANCH   2   4
ATOM      4  C   UNL     1       4.193   8.304  15.641  1.00  0.00     0.018 C 
ATOM      5  C   UNL     1       1.448   9.518  18.783  1.00  0.00     0.044 C 
ATOM      6  C   UNL     1       2.265   8.883  17.698  1.00  0.00    -0.055 C 
ATOM      7  C   UNL     1       1.896   9.004  16.414  1.00  0.00    -0.023 C 
ATOM      8  C   UNL     1       3.516   8.169  18.033  1.00  0.00    -0.001 C 
ATOM      9  C   UNL     1       2.676   8.317  15.324  1.00  0.00     0.035 C 
ATOM     10  C   UNL     1       4.391   7.839  17.077  1.00  0.00    -0.023 C 
ENDBRANCH   2   4
ENDBRANCH   1   2
BRANCH   1  11
ATOM     11  C   UNL     1       7.219   6.007  14.624  1.00  0.00     0.027 C 
BRANCH  11  12
ATOM     12  C   UNL     1       7.850   7.192  13.929  1.00  0.00    -0.028 C 
ATOM     13  C   UNL     1       7.925   7.340  12.588  1.00  0.00    -0.080 C 
ATOM     14  C   UNL     1       7.411   6.286  11.634  1.00  0.00     0.039 C 
ATOM     15  C   UNL     1       8.568   8.587  12.039  1.00  0.00     0.039 C 
ENDBRANCH  11  12
ENDBRANCH   1  11
TORSDOF 4
ENDMDL
MODEL 3
REMARK VINA RESULT:    -5.345      1.813      2.896
REMARK INTER + INTRA:          -7.461
REMARK INTER:                  -6.833
REMARK INTRA:                  -0.628
REMARK UNBOUND:                -0.866
REMARK SMILES CC(C)=CCC[C@@H](C)[C@@H]1C=CC(C)=CC1
REMARK SMILES IDX 6 1 7 2 8 3 9 4 13 5 12 6 14 7 11 8 15 9 10 10 5 11 4 12
REMARK SMILES IDX 2 13 1 14 3 15
REMARK H PARENT
REMARK Flexibility Score: inf
ROOT
ATOM      1  C   UNL     1      12.937   6.176  27.042  1.00  0.00     0.008 C 
ENDROOT
BRANCH   1   2
ATOM      2  C   UNL     1      12.935   7.049  25.755  1.00  0.00    -0.007 C 
ATOM      3  C   UNL     1      11.736   8.023  25.771  1.00  0.00     0.008 C 
BRANCH   2   4
ATOM      4  C   UNL     1      14.269   7.845  25.565  1.00  0.00     0.018 C 
ATOM      5  C   UNL     1      18.417   8.871  24.778  1.00  0.00     0.044 C 
ATOM      6  C   UNL     1      17.074   8.285  25.094  1.00  0.00    -0.055 C 
ATOM      7  C   UNL     1      16.628   8.260  26.359  1.00  0.00    -0.023 C 
ATOM      8  C   UNL     1      16.208   7.785  24.005  1.00  0.00    -0.001 C 
ATOM      9  C   UNL     1      15.307   7.617  26.693  1.00  0.00     0.035 C 
ATOM     10  C   UNL     1      14.917   7.517  24.227  1.00  0.00    -0.023 C 
ENDBRANCH   2   4
ENDBRANCH   1   2
BRANCH   1  11
ATOM     11  C   UNL     1      11.711   5.248  27.186  1.00  0.00     0.027 C 
BRANCH  11  12
ATOM     12  C   UNL     1      11.158   5.240  28.592  1.00  0.00    -0.028 C 
ATOM     13  C   UNL     1       9.933   5.697  28.934  1.00  0.00    -0.080 C 
ATOM     14  C   UNL     1       8.997   6.317  27.921  1.00  0.00     0.039 C 
ATOM     15  C   UNL     1       9.510   5.607  30.377  1.00  0.00     0.039 C 
ENDBRANCH  11  12
ENDBRANCH   1  11
TORSDOF 4
ENDMDL
MODEL 4
REMARK VINA RESULT:    -5.328      1.521      3.176
REMARK INTER + INTRA:          -7.440
REMARK INTER:                  -6.732
REMARK INTRA:                  -0.708
REMARK UNBOUND:                -0.866
REMARK SMILES CC(C)=CCC[C@@H](C)[C@@H]1C=CC(C)=CC1
REMARK SMILES IDX 6 1 7 2 8 3 9 4 13 5 12 6 14 7 11 8 15 9 10 10 5 11 4 12
REMARK SMILES IDX 2 13 1 14 3 15
REMARK H PARENT
REMARK Flexibility Score: inf
ROOT
ATOM      1  C   UNL     1      11.782   7.800  26.364  1.00  0.00     0.008 C 
ENDROOT
BRANCH   1   2
ATOM      2  C   UNL     1      12.283   6.876  25.218  1.00  0.00    -0.007 C 
ATOM      3  C   UNL     1      11.563   7.225  23.896  1.00  0.00     0.008 C 
BRANCH   2   4
ATOM      4  C   UNL     1      13.834   6.951  25.018  1.00  0.00     0.018 C 
ATOM      5  C   UNL     1      17.949   8.344  24.944  1.00  0.00     0.044 C 
ATOM      6  C   UNL     1      16.468   8.109  24.972  1.00  0.00    -0.055 C 
ATOM      7  C   UNL     1      15.773   8.040  23.827  1.00  0.00    -0.023 C 
ATOM      8  C   UNL     1      15.776   7.890  26.260  1.00  0.00    -0.001 C 
ATOM      9  C   UNL     1      14.277   7.866  23.848  1.00  0.00     0.035 C 
ATOM     10  C   UNL     1      14.527   7.412  26.292  1.00  0.00    -0.023 C 
ENDBRANCH   2   4
ENDBRANCH   1   2
BRANCH   1  11
ATOM     11  C   UNL     1      10.968   7.074  27.459  1.00  0.00     0.027 C 
BRANCH  11  12
ATOM     12  C   UNL     1      10.677   5.635  27.101  1.00  0.00    -0.028 C 
ATOM     13  C   UNL     1       9.948   4.791  27.864  1.00  0.00    -0.080 C 
ATOM     14  C   UNL     1       9.380   5.206  29.202  1.00  0.00     0.039 C 
ATOM     15  C   UNL     1       9.725   3.386  27.367  1.00  0.00     0.039 C 
ENDBRANCH  11  12
ENDBRANCH   1  11
TORSDOF 4
ENDMDL
MODEL 5
REMARK VINA RESULT:    -5.280     11.685     13.330
REMARK INTER + INTRA:          -7.382
REMARK INTER:                  -6.568
REMARK INTRA:                  -0.814
REMARK UNBOUND:                -0.866
REMARK SMILES CC(C)=CCC[C@@H](C)[C@@H]1C=CC(C)=CC1
REMARK SMILES IDX 6 1 7 2 8 3 9 4 13 5 12 6 14 7 11 8 15 9 10 10 5 11 4 12
REMARK SMILES IDX 2 13 1 14 3 15
REMARK H PARENT
REMARK Flexibility Score: inf
ROOT
ATOM      1  C   UNL     1       2.739   8.092  15.653  1.00  0.00     0.008 C 
ENDROOT
BRANCH   1   2
ATOM      2  C   UNL     1       4.067   7.396  16.067  1.00  0.00    -0.007 C 
ATOM      3  C   UNL     1       3.792   5.948  16.529  1.00  0.00     0.008 C 
BRANCH   2   4
ATOM      4  C   UNL     1       5.131   7.398  14.918  1.00  0.00     0.018 C 
ATOM      5  C   UNL     1       7.710   6.169  11.644  1.00  0.00     0.044 C 
ATOM      6  C   UNL     1       6.809   6.347  12.830  1.00  0.00    -0.055 C 
ATOM      7  C   UNL     1       7.329   6.509  14.055  1.00  0.00    -0.023 C 
ATOM      8  C   UNL     1       5.343   6.406  12.645  1.00  0.00    -0.001 C 
ATOM      9  C   UNL     1       6.431   6.626  15.260  1.00  0.00     0.035 C 
ATOM     10  C   UNL     1       4.547   6.833  13.631  1.00  0.00    -0.023 C 
ENDBRANCH   2   4
ENDBRANCH   1   2
BRANCH   1  11
ATOM     11  C   UNL     1       2.381   9.335  16.496  1.00  0.00     0.027 C 
BRANCH  11  12
ATOM     12  C   UNL     1       3.003   9.296  17.873  1.00  0.00    -0.028 C 
ATOM     13  C   UNL     1       2.442   8.696  18.947  1.00  0.00    -0.080 C 
ATOM     14  C   UNL     1       1.086   8.032  18.878  1.00  0.00     0.039 C 
ATOM     15  C   UNL     1       3.190   8.723  20.255  1.00  0.00     0.039 C 
ENDBRANCH  11  12
ENDBRANCH   1  11
TORSDOF 4
ENDMDL
MODEL 6
REMARK VINA RESULT:    -5.276     12.159     14.711
REMARK INTER + INTRA:          -7.376
REMARK INTER:                  -6.748
REMARK INTRA:                  -0.628
REMARK UNBOUND:                -0.866
REMARK SMILES CC(C)=CCC[C@@H](C)[C@@H]1C=CC(C)=CC1
REMARK SMILES IDX 6 1 7 2 8 3 9 4 13 5 12 6 14 7 11 8 15 9 10 10 5 11 4 12
REMARK SMILES IDX 2 13 1 14 3 15
REMARK H PARENT
REMARK Flexibility Score: inf
ROOT
ATOM      1  C   UNL     1       4.707   7.140  16.506  1.00  0.00     0.008 C 
ENDROOT
BRANCH   1   2
ATOM      2  C   UNL     1       3.966   8.167  15.602  1.00  0.00    -0.007 C 
ATOM      3  C   UNL     1       3.407   7.467  14.344  1.00  0.00     0.008 C 
BRANCH   2   4
ATOM      4  C   UNL     1       2.814   8.912  16.357  1.00  0.00     0.018 C 
ATOM      5  C   UNL     1      -0.835   9.773  18.553  1.00  0.00     0.044 C 
ATOM      6  C   UNL     1       0.307   9.263  17.726  1.00  0.00    -0.055 C 
ATOM      7  C   UNL     1       0.371   9.540  16.416  1.00  0.00    -0.023 C 
ATOM      8  C   UNL     1       1.402   8.500  18.365  1.00  0.00    -0.001 C 
ATOM      9  C   UNL     1       1.482   8.979  15.567  1.00  0.00     0.035 C 
ATOM     10  C   UNL     1       2.549   8.277  17.714  1.00  0.00    -0.023 C 
ENDBRANCH   2   4
ENDBRANCH   1   2
BRANCH   1  11
ATOM     11  C   UNL     1       6.237   7.100  16.305  1.00  0.00     0.027 C 
BRANCH  11  12
ATOM     12  C   UNL     1       6.646   6.181  15.177  1.00  0.00    -0.028 C 
ATOM     13  C   UNL     1       7.577   6.484  14.244  1.00  0.00    -0.080 C 
ATOM     14  C   UNL     1       8.280   7.822  14.217  1.00  0.00     0.039 C 
ATOM     15  C   UNL     1       7.893   5.458  13.188  1.00  0.00     0.039 C 
ENDBRANCH  11  12
ENDBRANCH   1  11
TORSDOF 4
ENDMDL
MODEL 7
REMARK VINA RESULT:    -5.223      1.390      2.282
REMARK INTER + INTRA:          -7.310
REMARK INTER:                  -6.609
REMARK INTRA:                  -0.701
REMARK UNBOUND:                -0.866
REMARK SMILES CC(C)=CCC[C@@H](C)[C@@H]1C=CC(C)=CC1
REMARK SMILES IDX 6 1 7 2 8 3 9 4 13 5 12 6 14 7 11 8 15 9 10 10 5 11 4 12
REMARK SMILES IDX 2 13 1 14 3 15
REMARK H PARENT
REMARK Flexibility Score: inf
ROOT
ATOM      1  C   UNL     1      11.455   6.016  26.891  1.00  0.00     0.008 C 
ENDROOT
BRANCH   1   2
ATOM      2  C   UNL     1      11.295   7.359  26.124  1.00  0.00    -0.007 C 
ATOM      3  C   UNL     1      10.881   8.485  27.096  1.00  0.00     0.008 C 
BRANCH   2   4
ATOM      4  C   UNL     1      12.594   7.769  25.352  1.00  0.00     0.018 C 
ATOM      5  C   UNL     1      16.521   9.355  24.380  1.00  0.00     0.044 C 
ATOM      6  C   UNL     1      15.174   8.966  24.912  1.00  0.00    -0.055 C 
ATOM      7  C   UNL     1      14.078   9.638  24.532  1.00  0.00    -0.023 C 
ATOM      8  C   UNL     1      15.040   7.800  25.812  1.00  0.00    -0.001 C 
ATOM      9  C   UNL     1      12.729   9.294  25.109  1.00  0.00     0.035 C 
ATOM     10  C   UNL     1      13.839   7.274  26.074  1.00  0.00    -0.023 C 
ENDBRANCH   2   4
ENDBRANCH   1   2
BRANCH   1  11
ATOM     11  C   UNL     1      10.122   5.362  27.317  1.00  0.00     0.027 C 
BRANCH  11  12
ATOM     12  C   UNL     1      10.192   4.762  28.702  1.00  0.00    -0.028 C 
ATOM     13  C   UNL     1       9.684   5.342  29.812  1.00  0.00    -0.080 C 
ATOM     14  C   UNL     1       9.022   6.700  29.776  1.00  0.00     0.039 C 
ATOM     15  C   UNL     1       9.814   4.614  31.125  1.00  0.00     0.039 C 
ENDBRANCH  11  12
ENDBRANCH   1  11
TORSDOF 4
ENDMDL
MODEL 8
REMARK VINA RESULT:    -5.207      2.177      6.824
REMARK INTER + INTRA:          -7.291
REMARK INTER:                  -6.287
REMARK INTRA:                  -1.004
REMARK UNBOUND:                -0.866
REMARK SMILES CC(C)=CCC[C@@H](C)[C@@H]1C=CC(C)=CC1
REMARK SMILES IDX 6 1 7 2 8 3 9 4 13 5 12 6 14 7 11 8 15 9 10 10 5 11 4 12
REMARK SMILES IDX 2 13 1 14 3 15
REMARK H PARENT
REMARK Flexibility Score: inf
ROOT
ATOM      1  C   UNL     1      14.429   9.788  24.404  1.00  0.00     0.008 C 
ENDROOT
BRANCH   1   2
ATOM      2  C   UNL     1      13.436   8.777  23.764  1.00  0.00    -0.007 C 
ATOM      3  C   UNL     1      14.016   8.218  22.446  1.00  0.00     0.008 C 
BRANCH   2   4
ATOM      4  C   UNL     1      13.069   7.600  24.728  1.00  0.00     0.018 C 
ATOM      5  C   UNL     1      11.675   5.318  28.153  1.00  0.00     0.044 C 
ATOM      6  C   UNL     1      12.177   6.297  27.134  1.00  0.00    -0.055 C 
ATOM      7  C   UNL     1      13.494   6.446  26.932  1.00  0.00    -0.023 C 
ATOM      8  C   UNL     1      11.219   7.060  26.304  1.00  0.00    -0.001 C 
ATOM      9  C   UNL     1      14.008   7.472  25.955  1.00  0.00     0.035 C 
ATOM     10  C   UNL     1      11.633   7.721  25.218  1.00  0.00    -0.023 C 
ENDBRANCH   2   4
ENDBRANCH   1   2
BRANCH   1  11
ATOM     11  C   UNL     1      15.722  10.014  23.591  1.00  0.00     0.027 C 
BRANCH  11  12
ATOM     12  C   UNL     1      16.958  10.005  24.461  1.00  0.00    -0.028 C 
ATOM     13  C   UNL     1      17.701   8.905  24.720  1.00  0.00    -0.080 C 
ATOM     14  C   UNL     1      17.327   7.541  24.188  1.00  0.00     0.039 C 
ATOM     15  C   UNL     1      18.920   9.053  25.593  1.00  0.00     0.039 C 
ENDBRANCH  11  12
ENDBRANCH   1  11
TORSDOF 4
ENDMDL
MODEL 9
REMARK VINA RESULT:    -5.193      1.542      2.905
REMARK INTER + INTRA:          -7.274
REMARK INTER:                  -6.431
REMARK INTRA:                  -0.843
REMARK UNBOUND:                -0.866
REMARK SMILES CC(C)=CCC[C@@H](C)[C@@H]1C=CC(C)=CC1
REMARK SMILES IDX 6 1 7 2 8 3 9 4 13 5 12 6 14 7 11 8 15 9 10 10 5 11 4 12
REMARK SMILES IDX 2 13 1 14 3 15
REMARK H PARENT
REMARK Flexibility Score: inf
ROOT
ATOM      1  C   UNL     1      13.398   5.993  25.875  1.00  0.00     0.008 C 
ENDROOT
BRANCH   1   2
ATOM      2  C   UNL     1      13.606   7.519  25.660  1.00  0.00    -0.007 C 
ATOM      3  C   UNL     1      15.105   7.876  25.770  1.00  0.00     0.008 C 
BRANCH   2   4
ATOM      4  C   UNL     1      13.037   8.017  24.290  1.00  0.00     0.018 C 
ATOM      5  C   UNL     1      11.736   8.186  20.148  1.00  0.00     0.044 C 
ATOM      6  C   UNL     1      12.326   7.932  21.502  1.00  0.00    -0.055 C 
ATOM      7  C   UNL     1      13.483   8.510  21.856  1.00  0.00    -0.023 C 
ATOM      8  C   UNL     1      11.603   7.089  22.480  1.00  0.00    -0.001 C 
ATOM      9  C   UNL     1      14.113   8.210  23.191  1.00  0.00     0.035 C 
ATOM     10  C   UNL     1      11.964   7.073  23.767  1.00  0.00    -0.023 C 
ENDBRANCH   2   4
ENDBRANCH   1   2
BRANCH   1  11
ATOM     11  C   UNL     1      12.702   5.624  27.203  1.00  0.00     0.027 C 
BRANCH  11  12
ATOM     12  C   UNL     1      11.392   6.355  27.388  1.00  0.00    -0.028 C 
ATOM     13  C   UNL     1      10.186   5.750  27.472  1.00  0.00    -0.080 C 
ATOM     14  C   UNL     1      10.028   4.253  27.339  1.00  0.00     0.039 C 
ATOM     15  C   UNL     1       8.965   6.610  27.675  1.00  0.00     0.039 C 
ENDBRANCH  11  12
ENDBRANCH   1  11
TORSDOF 4
ENDMDL
