MODEL 1
REMARK VINA RESULT:    -3.234      0.000      0.000
REMARK INTER + INTRA:          -4.128
REMARK INTER:                  -3.990
REMARK INTRA:                  -0.138
REMARK UNBOUND:                -0.138
REMARK SMILES CCCCCC(=O)[O-]
REMARK SMILES IDX 4 1 5 2 6 3 7 4 8 5 3 6 2 7 1 8
REMARK H PARENT
REMARK Flexibility Score: inf
ROOT
ATOM      1  C   UNL     1      38.462  -7.702  11.619  1.00  0.00     0.006 C 
ENDROOT
BRANCH   1   2
ATOM      2  C   UNL     1      37.360  -8.174  12.571  1.00  0.00     0.053 C 
BRANCH   2   3
ATOM      3  C   UNL     1      36.517  -7.018  13.011  1.00  0.00     0.041 C 
ATOM      4  O   UNL     1      36.978  -6.169  13.819  1.00  0.00    -0.550 OA
ATOM      5  O   UNL     1      35.205  -6.906  12.569  1.00  0.00    -0.550 OA
ENDBRANCH   2   3
ENDBRANCH   1   2
BRANCH   1   6
ATOM      6  C   UNL     1      37.886  -7.369  10.235  1.00  0.00     0.000 C 
BRANCH   6   7
ATOM      7  C   UNL     1      38.919  -6.706   9.310  1.00  0.00    -0.003 C 
ATOM      8  C   UNL     1      40.340  -6.771   9.867  1.00  0.00     0.004 C 
ENDBRANCH   6   7
ENDBRANCH   1   6
TORSDOF 4
ENDMDL
MODEL 2
REMARK VINA RESULT:    -3.231      2.828      4.288
REMARK INTER + INTRA:          -4.124
REMARK INTER:                  -3.966
REMARK INTRA:                  -0.158
REMARK UNBOUND:                -0.138
REMARK SMILES CCCCCC(=O)[O-]
REMARK SMILES IDX 4 1 5 2 6 3 7 4 8 5 3 6 2 7 1 8
REMARK H PARENT
REMARK Flexibility Score: inf
ROOT
ATOM      1  C   UNL     1      37.358  -7.752  11.013  1.00  0.00     0.006 C 
ENDROOT
BRANCH   1   2
ATOM      2  C   UNL     1      38.244  -7.057   9.975  1.00  0.00     0.053 C 
BRANCH   2   3
ATOM      3  C   UNL     1      39.660  -7.525  10.096  1.00  0.00     0.041 C 
ATOM      4  O   UNL     1      40.598  -6.689  10.189  1.00  0.00    -0.550 OA
ATOM      5  O   UNL     1      39.950  -8.883  10.055  1.00  0.00    -0.550 OA
ENDBRANCH   2   3
ENDBRANCH   1   2
BRANCH   1   6
ATOM      6  C   UNL     1      37.802  -7.396  12.439  1.00  0.00     0.000 C 
BRANCH   6   7
ATOM      7  C   UNL     1      36.735  -6.602  13.208  1.00  0.00    -0.003 C 
ATOM      8  C   UNL     1      35.310  -6.978  12.802  1.00  0.00     0.004 C 
ENDBRANCH   6   7
ENDBRANCH   1   6
TORSDOF 4
ENDMDL
MODEL 3
REMARK VINA RESULT:    -3.231      2.586      4.118
REMARK INTER + INTRA:          -4.124
REMARK INTER:                  -3.988
REMARK INTRA:                  -0.136
REMARK UNBOUND:                -0.138
REMARK SMILES CCCCCC(=O)[O-]
REMARK SMILES IDX 4 1 5 2 6 3 7 4 8 5 3 6 2 7 1 8
REMARK H PARENT
REMARK Flexibility Score: inf
ROOT
ATOM      1  C   UNL     1      36.856  -7.810  11.141  1.00  0.00     0.006 C 
ENDROOT
BRANCH   1   2
ATOM      2  C   UNL     1      38.344  -7.619  11.451  1.00  0.00     0.053 C 
BRANCH   2   3
ATOM      3  C   UNL     1      39.058  -7.047  10.267  1.00  0.00     0.041 C 
ATOM      4  O   UNL     1      40.312  -6.933  10.276  1.00  0.00    -0.550 OA
ATOM      5  O   UNL     1      38.334  -6.592   9.172  1.00  0.00    -0.550 OA
ENDBRANCH   2   3
ENDBRANCH   1   2
BRANCH   1   6
ATOM      6  C   UNL     1      35.987  -7.342  12.317  1.00  0.00     0.000 C 
BRANCH   6   7
ATOM      7  C   UNL     1      36.789  -6.561  13.370  1.00  0.00    -0.003 C 
ATOM      8  C   UNL     1      36.115  -6.550  14.741  1.00  0.00     0.004 C 
ENDBRANCH   6   7
ENDBRANCH   1   6
TORSDOF 4
ENDMDL
MODEL 4
REMARK VINA RESULT:    -3.217      0.961      1.195
REMARK INTER + INTRA:          -4.107
REMARK INTER:                  -3.944
REMARK INTRA:                  -0.163
REMARK UNBOUND:                -0.138
REMARK SMILES CCCCCC(=O)[O-]
REMARK SMILES IDX 4 1 5 2 6 3 7 4 8 5 3 6 2 7 1 8
REMARK H PARENT
REMARK Flexibility Score: inf
ROOT
ATOM      1  C   UNL     1      38.210  -7.811  11.695  1.00  0.00     0.006 C 
ENDROOT
BRANCH   1   2
ATOM      2  C   UNL     1      37.404  -7.050  12.752  1.00  0.00     0.053 C 
BRANCH   2   3
ATOM      3  C   UNL     1      35.981  -7.511  12.758  1.00  0.00     0.041 C 
ATOM      4  O   UNL     1      35.043  -6.670  12.751  1.00  0.00    -0.550 OA
ATOM      5  O   UNL     1      35.688  -8.867  12.823  1.00  0.00    -0.550 OA
ENDBRANCH   2   3
ENDBRANCH   1   2
BRANCH   1   6
ATOM      6  C   UNL     1      37.768  -7.415  10.279  1.00  0.00     0.000 C 
BRANCH   6   7
ATOM      7  C   UNL     1      38.910  -6.804   9.454  1.00  0.00    -0.003 C 
ATOM      8  C   UNL     1      40.282  -7.017  10.092  1.00  0.00     0.004 C 
ENDBRANCH   6   7
ENDBRANCH   1   6
TORSDOF 4
ENDMDL
MODEL 5
REMARK VINA RESULT:    -3.180      3.598      4.865
REMARK INTER + INTRA:          -4.061
REMARK INTER:                  -3.889
REMARK INTRA:                  -0.172
REMARK UNBOUND:                -0.138
REMARK SMILES CCCCCC(=O)[O-]
REMARK SMILES IDX 4 1 5 2 6 3 7 4 8 5 3 6 2 7 1 8
REMARK H PARENT
REMARK Flexibility Score: inf
ROOT
ATOM      1  C   UNL     1      38.823  -6.611   9.496  1.00  0.00     0.006 C 
ENDROOT
BRANCH   1   2
ATOM      2  C   UNL     1      40.264  -6.872   9.946  1.00  0.00     0.053 C 
BRANCH   2   3
ATOM      3  C   UNL     1      40.891  -7.938   9.103  1.00  0.00     0.041 C 
ATOM      4  O   UNL     1      40.689  -9.153   9.364  1.00  0.00    -0.550 OA
ATOM      5  O   UNL     1      41.741  -7.590   8.060  1.00  0.00    -0.550 OA
ENDBRANCH   2   3
ENDBRANCH   1   2
BRANCH   1   6
ATOM      6  C   UNL     1      37.827  -7.378  10.378  1.00  0.00     0.000 C 
BRANCH   6   7
ATOM      7  C   UNL     1      38.336  -7.570  11.815  1.00  0.00    -0.003 C 
ATOM      8  C   UNL     1      37.371  -7.019  12.864  1.00  0.00     0.004 C 
ENDBRANCH   6   7
ENDBRANCH   1   6
TORSDOF 4
ENDMDL
MODEL 6
REMARK VINA RESULT:    -3.036      8.433      9.880
REMARK INTER + INTRA:          -3.883
REMARK INTER:                  -3.773
REMARK INTRA:                  -0.111
REMARK UNBOUND:                -0.138
REMARK SMILES CCCCCC(=O)[O-]
REMARK SMILES IDX 4 1 5 2 6 3 7 4 8 5 3 6 2 7 1 8
REMARK H PARENT
REMARK Flexibility Score: inf
ROOT
ATOM      1  C   UNL     1      39.883  -4.788   1.931  1.00  0.00     0.006 C 
ENDROOT
BRANCH   1   2
ATOM      2  C   UNL     1      40.693  -4.738   3.229  1.00  0.00     0.053 C 
BRANCH   2   3
ATOM      3  C   UNL     1      40.869  -6.113   3.792  1.00  0.00     0.041 C 
ATOM      4  O   UNL     1      40.468  -6.378   4.956  1.00  0.00    -0.550 OA
ATOM      5  O   UNL     1      41.522  -7.089   3.050  1.00  0.00    -0.550 OA
ENDBRANCH   2   3
ENDBRANCH   1   2
BRANCH   1   6
ATOM      6  C   UNL     1      38.670  -3.850   2.005  1.00  0.00     0.000 C 
BRANCH   6   7
ATOM      7  C   UNL     1      39.000  -2.511   2.681  1.00  0.00    -0.003 C 
ATOM      8  C   UNL     1      39.021  -1.341   1.698  1.00  0.00     0.004 C 
ENDBRANCH   6   7
ENDBRANCH   1   6
TORSDOF 4
ENDMDL
MODEL 7
REMARK VINA RESULT:    -2.990      9.512     10.243
REMARK INTER + INTRA:          -3.826
REMARK INTER:                  -3.654
REMARK INTRA:                  -0.172
REMARK UNBOUND:                -0.138
REMARK SMILES CCCCCC(=O)[O-]
REMARK SMILES IDX 4 1 5 2 6 3 7 4 8 5 3 6 2 7 1 8
REMARK H PARENT
REMARK Flexibility Score: inf
ROOT
ATOM      1  C   UNL     1      41.036  -4.379   3.370  1.00  0.00     0.006 C 
ENDROOT
BRANCH   1   2
ATOM      2  C   UNL     1      40.581  -3.577   2.147  1.00  0.00     0.053 C 
BRANCH   2   3
ATOM      3  C   UNL     1      39.127  -3.239   2.253  1.00  0.00     0.041 C 
ATOM      4  O   UNL     1      38.762  -2.182   2.832  1.00  0.00    -0.550 OA
ATOM      5  O   UNL     1      38.172  -4.117   1.756  1.00  0.00    -0.550 OA
ENDBRANCH   2   3
ENDBRANCH   1   2
BRANCH   1   6
ATOM      6  C   UNL     1      40.838  -5.885   3.142  1.00  0.00     0.000 C 
BRANCH   6   7
ATOM      7  C   UNL     1      41.633  -6.409   1.936  1.00  0.00    -0.003 C 
ATOM      8  C   UNL     1      40.759  -7.156   0.930  1.00  0.00     0.004 C 
ENDBRANCH   6   7
ENDBRANCH   1   6
TORSDOF 4
ENDMDL
MODEL 8
REMARK VINA RESULT:    -2.974      4.663      6.054
REMARK INTER + INTRA:          -3.807
REMARK INTER:                  -3.675
REMARK INTRA:                  -0.132
REMARK UNBOUND:                -0.138
REMARK SMILES CCCCCC(=O)[O-]
REMARK SMILES IDX 4 1 5 2 6 3 7 4 8 5 3 6 2 7 1 8
REMARK H PARENT
REMARK Flexibility Score: inf
ROOT
ATOM      1  C   UNL     1      42.114  -8.123   7.033  1.00  0.00     0.006 C 
ENDROOT
BRANCH   1   2
ATOM      2  C   UNL     1      41.562  -8.291   8.452  1.00  0.00     0.053 C 
BRANCH   2   3
ATOM      3  C   UNL     1      40.650  -7.156   8.798  1.00  0.00     0.041 C 
ATOM      4  O   UNL     1      40.562  -6.754   9.988  1.00  0.00    -0.550 OA
ATOM      5  O   UNL     1      39.859  -6.575   7.815  1.00  0.00    -0.550 OA
ENDBRANCH   2   3
ENDBRANCH   1   2
BRANCH   1   6
ATOM      6  C   UNL     1      43.618  -7.812   7.064  1.00  0.00     0.000 C 
BRANCH   6   7
ATOM      7  C   UNL     1      44.385  -8.708   8.049  1.00  0.00    -0.003 C 
ATOM      8  C   UNL     1      45.070  -9.890   7.364  1.00  0.00     0.004 C 
ENDBRANCH   6   7
ENDBRANCH   1   6
TORSDOF 4
ENDMDL
MODEL 9
REMARK VINA RESULT:    -2.968      3.568      4.924
REMARK INTER + INTRA:          -3.799
REMARK INTER:                  -3.692
REMARK INTRA:                  -0.107
REMARK UNBOUND:                -0.138
REMARK SMILES CCCCCC(=O)[O-]
REMARK SMILES IDX 4 1 5 2 6 3 7 4 8 5 3 6 2 7 1 8
REMARK H PARENT
REMARK Flexibility Score: inf
ROOT
ATOM      1  C   UNL     1      34.547  -7.855  14.070  1.00  0.00     0.006 C 
ENDROOT
BRANCH   1   2
ATOM      2  C   UNL     1      33.731  -8.836  14.916  1.00  0.00     0.053 C 
BRANCH   2   3
ATOM      3  C   UNL     1      32.342  -8.320  15.123  1.00  0.00     0.041 C 
ATOM      4  O   UNL     1      32.125  -7.399  15.954  1.00  0.00    -0.550 OA
ATOM      5  O   UNL     1      31.278  -8.891  14.436  1.00  0.00    -0.550 OA
ENDBRANCH   2   3
ENDBRANCH   1   2
BRANCH   1   6
ATOM      6  C   UNL     1      35.493  -7.026  14.952  1.00  0.00     0.000 C 
BRANCH   6   7
ATOM      7  C   UNL     1      36.537  -6.253  14.133  1.00  0.00    -0.003 C 
ATOM      8  C   UNL     1      37.066  -7.051  12.942  1.00  0.00     0.004 C 
ENDBRANCH   6   7
ENDBRANCH   1   6
TORSDOF 4
ENDMDL
