MODEL 1
REMARK VINA RESULT:     0.506      0.000      0.000
REMARK INTER + INTRA:           0.450
REMARK INTER:                   0.772
REMARK INTRA:                  -0.322
REMARK UNBOUND:                -0.322
REMARK SMILES O=C([O-])CCCCCCCCC(=O)[O-]
REMARK SMILES IDX 7 1 6 2 5 3 4 4 2 5 1 6 3 7 8 8 9 9 10 10 11 11 12 12 13 13
REMARK SMILES IDX 14 14
REMARK H PARENT
REMARK Flexibility Score: inf
ROOT
ATOM      1  C   UNL     1     -31.510  19.817 -10.146  1.00  0.00     0.000 C 
ENDROOT
BRANCH   1   2
ATOM      2  C   UNL     1     -32.338  21.070 -10.463  1.00  0.00     0.000 C 
BRANCH   2   3
ATOM      3  C   UNL     1     -31.491  22.353 -10.535  1.00  0.00     0.006 C 
BRANCH   3   4
ATOM      4  C   UNL     1     -31.888  23.423  -9.502  1.00  0.00     0.053 C 
BRANCH   4   5
ATOM      5  C   UNL     1     -33.290  23.916  -9.694  1.00  0.00     0.041 C 
ATOM      6  O   UNL     1     -33.738  24.112 -10.854  1.00  0.00    -0.550 OA
ATOM      7  O   UNL     1     -34.114  24.124  -8.596  1.00  0.00    -0.550 OA
ENDBRANCH   4   5
ENDBRANCH   3   4
ENDBRANCH   2   3
ENDBRANCH   1   2
BRANCH   1   8
ATOM      8  C   UNL     1     -32.272  18.541 -10.535  1.00  0.00     0.000 C 
BRANCH   8   9
ATOM      9  C   UNL     1     -31.428  17.269 -10.361  1.00  0.00     0.000 C 
BRANCH   9  10
ATOM     10  C   UNL     1     -29.919  17.535 -10.496  1.00  0.00     0.006 C 
BRANCH  10  11
ATOM     11  C   UNL     1     -29.232  16.520 -11.418  1.00  0.00     0.053 C 
BRANCH  11  12
ATOM     12  C   UNL     1     -28.875  17.123 -12.743  1.00  0.00     0.041 C 
ATOM     13  O   UNL     1     -28.569  18.342 -12.822  1.00  0.00    -0.550 OA
ATOM     14  O   UNL     1     -28.908  16.345 -13.893  1.00  0.00    -0.550 OA
ENDBRANCH  11  12
ENDBRANCH  10  11
ENDBRANCH   9  10
ENDBRANCH   8   9
ENDBRANCH   1   8
TORSDOF 9
ENDMDL
MODEL 2
REMARK VINA RESULT:     0.635      0.950      1.514
REMARK INTER + INTRA:           0.647
REMARK INTER:                   0.961
REMARK INTRA:                  -0.314
REMARK UNBOUND:                -0.322
REMARK SMILES O=C([O-])CCCCCCCCC(=O)[O-]
REMARK SMILES IDX 7 1 6 2 5 3 4 4 2 5 1 6 3 7 8 8 9 9 10 10 11 11 12 12 13 13
REMARK SMILES IDX 14 14
REMARK H PARENT
REMARK Flexibility Score: inf
ROOT
ATOM      1  C   UNL     1     -32.613  19.142 -10.649  1.00  0.00     0.000 C 
ENDROOT
BRANCH   1   2
ATOM      2  C   UNL     1     -32.562  20.539 -10.013  1.00  0.00     0.000 C 
BRANCH   2   3
ATOM      3  C   UNL     1     -31.296  21.329 -10.389  1.00  0.00     0.006 C 
BRANCH   3   4
ATOM      4  C   UNL     1     -31.576  22.746 -10.919  1.00  0.00     0.053 C 
BRANCH   4   5
ATOM      5  C   UNL     1     -32.353  23.581  -9.946  1.00  0.00     0.041 C 
ATOM      6  O   UNL     1     -31.769  24.125  -8.972  1.00  0.00    -0.550 OA
ATOM      7  O   UNL     1     -33.713  23.789 -10.134  1.00  0.00    -0.550 OA
ENDBRANCH   4   5
ENDBRANCH   3   4
ENDBRANCH   2   3
ENDBRANCH   1   2
BRANCH   1   8
ATOM      8  C   UNL     1     -31.322  18.361 -10.363  1.00  0.00     0.000 C 
BRANCH   8   9
ATOM      9  C   UNL     1     -31.540  16.840 -10.342  1.00  0.00     0.000 C 
BRANCH   9  10
ATOM     10  C   UNL     1     -30.432  16.072 -11.082  1.00  0.00     0.006 C 
BRANCH  10  11
ATOM     11  C   UNL     1     -29.126  16.872 -11.160  1.00  0.00     0.053 C 
BRANCH  11  12
ATOM     12  C   UNL     1     -28.844  17.344 -12.554  1.00  0.00     0.041 C 
ATOM     13  O   UNL     1     -28.892  16.537 -13.518  1.00  0.00    -0.550 OA
ATOM     14  O   UNL     1     -28.502  18.671 -12.783  1.00  0.00    -0.550 OA
ENDBRANCH  11  12
ENDBRANCH  10  11
ENDBRANCH   9  10
ENDBRANCH   8   9
ENDBRANCH   1   8
TORSDOF 9
ENDMDL
MODEL 3
REMARK VINA RESULT:     0.658      0.942      6.741
REMARK INTER + INTRA:           0.683
REMARK INTER:                   0.906
REMARK INTRA:                  -0.223
REMARK UNBOUND:                -0.322
REMARK SMILES O=C([O-])CCCCCCCCC(=O)[O-]
REMARK SMILES IDX 7 1 6 2 5 3 4 4 2 5 1 6 3 7 8 8 9 9 10 10 11 11 12 12 13 13
REMARK SMILES IDX 14 14
REMARK H PARENT
REMARK Flexibility Score: inf
ROOT
ATOM      1  C   UNL     1     -31.342  18.522 -10.364  1.00  0.00     0.000 C 
ENDROOT
BRANCH   1   2
ATOM      2  C   UNL     1     -31.538  16.999 -10.334  1.00  0.00     0.000 C 
BRANCH   2   3
ATOM      3  C   UNL     1     -30.377  16.226 -10.985  1.00  0.00     0.006 C 
BRANCH   3   4
ATOM      4  C   UNL     1     -29.101  17.063 -11.180  1.00  0.00     0.053 C 
BRANCH   4   5
ATOM      5  C   UNL     1     -28.849  17.404 -12.617  1.00  0.00     0.041 C 
ATOM      6  O   UNL     1     -28.464  18.560 -12.935  1.00  0.00    -0.550 OA
ATOM      7  O   UNL     1     -29.004  16.438 -13.602  1.00  0.00    -0.550 OA
ENDBRANCH   4   5
ENDBRANCH   3   4
ENDBRANCH   2   3
ENDBRANCH   1   2
BRANCH   1   8
ATOM      8  C   UNL     1     -32.694  19.250 -10.359  1.00  0.00     0.000 C 
BRANCH   8   9
ATOM      9  C   UNL     1     -32.565  20.739  -9.999  1.00  0.00     0.000 C 
BRANCH   9  10
ATOM     10  C   UNL     1     -31.215  21.338 -10.430  1.00  0.00     0.006 C 
BRANCH  10  11
ATOM     11  C   UNL     1     -31.348  22.795 -10.889  1.00  0.00     0.053 C 
BRANCH  11  12
ATOM     12  C   UNL     1     -32.222  23.591  -9.969  1.00  0.00     0.041 C 
ATOM     13  O   UNL     1     -31.737  24.124  -8.937  1.00  0.00    -0.550 OA
ATOM     14  O   UNL     1     -33.579  23.721 -10.238  1.00  0.00    -0.550 OA
ENDBRANCH  11  12
ENDBRANCH  10  11
ENDBRANCH   9  10
ENDBRANCH   8   9
ENDBRANCH   1   8
TORSDOF 9
ENDMDL
MODEL 4
REMARK VINA RESULT:     2.972      1.207      7.135
REMARK INTER + INTRA:           4.214
REMARK INTER:                   4.682
REMARK INTRA:                  -0.468
REMARK UNBOUND:                -0.322
REMARK SMILES O=C([O-])CCCCCCCCC(=O)[O-]
REMARK SMILES IDX 7 1 6 2 5 3 4 4 2 5 1 6 3 7 8 8 9 9 10 10 11 11 12 12 13 13
REMARK SMILES IDX 14 14
REMARK H PARENT
REMARK Flexibility Score: inf
ROOT
ATOM      1  C   UNL     1     -31.130  18.741 -10.293  1.00  0.00     0.000 C 
ENDROOT
BRANCH   1   2
ATOM      2  C   UNL     1     -31.005  17.277 -10.742  1.00  0.00     0.000 C 
BRANCH   2   3
ATOM      3  C   UNL     1     -29.545  16.798 -10.842  1.00  0.00     0.006 C 
BRANCH   3   4
ATOM      4  C   UNL     1     -29.281  15.836 -12.013  1.00  0.00     0.053 C 
BRANCH   4   5
ATOM      5  C   UNL     1     -28.927  16.555 -13.280  1.00  0.00     0.041 C 
ATOM      6  O   UNL     1     -28.597  17.770 -13.247  1.00  0.00    -0.550 OA
ATOM      7  O   UNL     1     -28.925  15.877 -14.491  1.00  0.00    -0.550 OA
ENDBRANCH   4   5
ENDBRANCH   3   4
ENDBRANCH   2   3
ENDBRANCH   1   2
BRANCH   1   8
ATOM      8  C   UNL     1     -29.787  19.474 -10.430  1.00  0.00     0.000 C 
BRANCH   8   9
ATOM      9  C   UNL     1     -29.933  20.866 -11.066  1.00  0.00     0.000 C 
BRANCH   9  10
ATOM     10  C   UNL     1     -30.659  21.864 -10.148  1.00  0.00     0.006 C 
BRANCH  10  11
ATOM     11  C   UNL     1     -32.036  22.258 -10.696  1.00  0.00     0.053 C 
BRANCH  11  12
ATOM     12  C   UNL     1     -32.619  23.421  -9.952  1.00  0.00     0.041 C 
ATOM     13  O   UNL     1     -33.807  23.779 -10.166  1.00  0.00    -0.550 OA
ATOM     14  O   UNL     1     -31.841  24.125  -9.042  1.00  0.00    -0.550 OA
ENDBRANCH  11  12
ENDBRANCH  10  11
ENDBRANCH   9  10
ENDBRANCH   8   9
ENDBRANCH   1   8
TORSDOF 9
ENDMDL
