MODEL 1
REMARK VINA RESULT:    -3.635      0.000      0.000
REMARK INTER + INTRA:          -5.901
REMARK INTER:                  -4.910
REMARK INTRA:                  -0.991
REMARK UNBOUND:                -0.991
REMARK SMILES O=C[C@H](O)[C@@H](O)[C@@H](O)CO
REMARK SMILES IDX 7 1 9 2 10 3 5 5 3 6 2 7 1 8 4 9 6 11 8 13
REMARK H PARENT 10 4 4 10 6 12 8 14
REMARK Flexibility Score: inf
ROOT
ATOM      1  C   UNL     1      13.571  37.830  25.843  1.00  0.00     0.171 C 
ENDROOT
BRANCH   1   2
ATOM      2  C   UNL     1      15.012  37.338  26.064  1.00  0.00     0.190 C 
BRANCH   2   3
ATOM      3  O   UNL     1      15.043  36.334  27.040  1.00  0.00    -0.394 OA
ATOM      4  H   UNL     1      15.084  36.801  27.915  1.00  0.00     0.210 HD
ENDBRANCH   2   3
ENDBRANCH   1   2
BRANCH   1   5
ATOM      5  C   UNL     1      12.933  38.523  27.075  1.00  0.00     0.181 C 
BRANCH   5   6
ATOM      6  C   UNL     1      12.079  37.573  27.965  1.00  0.00     0.209 C 
BRANCH   6   7
ATOM      7  C   UNL     1      12.614  37.475  29.371  1.00  0.00     0.258 C 
ATOM      8  O   UNL     1      13.596  36.792  29.612  1.00  0.00    -0.300 OA
ENDBRANCH   6   7
BRANCH   6   9
ATOM      9  O   UNL     1      12.024  36.282  27.409  1.00  0.00    -0.383 OA
ATOM     10  H   UNL     1      11.426  35.733  27.982  1.00  0.00     0.211 HD
ENDBRANCH   6   9
ENDBRANCH   5   6
BRANCH   5  11
ATOM     11  O   UNL     1      13.979  39.063  27.846  1.00  0.00    -0.387 OA
ATOM     12  H   UNL     1      14.829  38.876  27.367  1.00  0.00     0.211 HD
ENDBRANCH   5  11
ENDBRANCH   1   5
BRANCH   1  13
ATOM     13  O   UNL     1      13.528  38.695  24.736  1.00  0.00    -0.388 OA
ATOM     14  H   UNL     1      12.576  38.772  24.464  1.00  0.00     0.211 HD
ENDBRANCH   1  13
TORSDOF 8
ENDMDL
MODEL 2
REMARK VINA RESULT:    -3.628      1.563      3.560
REMARK INTER + INTRA:          -5.891
REMARK INTER:                  -5.624
REMARK INTRA:                  -0.268
REMARK UNBOUND:                -0.991
REMARK SMILES O=C[C@H](O)[C@@H](O)[C@@H](O)CO
REMARK SMILES IDX 7 1 9 2 10 3 5 5 3 6 2 7 1 8 4 9 6 11 8 13
REMARK H PARENT 10 4 4 10 6 12 8 14
REMARK Flexibility Score: inf
ROOT
ATOM      1  C   UNL     1      13.827  36.874  26.526  1.00  0.00     0.171 C 
ENDROOT
BRANCH   1   2
ATOM      2  C   UNL     1      12.727  36.929  27.600  1.00  0.00     0.190 C 
BRANCH   2   3
ATOM      3  O   UNL     1      12.448  35.643  28.081  1.00  0.00    -0.394 OA
ATOM      4  H   UNL     1      11.775  35.760  28.801  1.00  0.00     0.210 HD
ENDBRANCH   2   3
ENDBRANCH   1   2
BRANCH   1   5
ATOM      5  C   UNL     1      14.093  38.224  25.810  1.00  0.00     0.181 C 
BRANCH   5   6
ATOM      6  C   UNL     1      15.537  38.772  26.004  1.00  0.00     0.209 C 
BRANCH   6   7
ATOM      7  C   UNL     1      15.661  39.630  27.237  1.00  0.00     0.258 C 
ATOM      8  O   UNL     1      15.919  39.124  28.318  1.00  0.00    -0.300 OA
ENDBRANCH   6   7
BRANCH   6   9
ATOM      9  O   UNL     1      15.941  39.522  24.885  1.00  0.00    -0.383 OA
ATOM     10  H   UNL     1      16.933  39.576  24.901  1.00  0.00     0.211 HD
ENDBRANCH   6   9
ENDBRANCH   5   6
BRANCH   5  11
ATOM     11  O   UNL     1      13.852  38.030  24.437  1.00  0.00    -0.387 OA
ATOM     12  H   UNL     1      13.968  38.907  23.987  1.00  0.00     0.211 HD
ENDBRANCH   5  11
ENDBRANCH   1   5
BRANCH   1  13
ATOM     13  O   UNL     1      15.021  36.393  27.090  1.00  0.00    -0.388 OA
ATOM     14  H   UNL     1      15.050  36.717  28.029  1.00  0.00     0.211 HD
ENDBRANCH   1  13
TORSDOF 8
ENDMDL
MODEL 3
REMARK VINA RESULT:    -3.610      1.345      3.602
REMARK INTER + INTRA:          -5.867
REMARK INTER:                  -4.860
REMARK INTRA:                  -1.007
REMARK UNBOUND:                -0.991
REMARK SMILES O=C[C@H](O)[C@@H](O)[C@@H](O)CO
REMARK SMILES IDX 7 1 9 2 10 3 5 5 3 6 2 7 1 8 4 9 6 11 8 13
REMARK H PARENT 10 4 4 10 6 12 8 14
REMARK Flexibility Score: inf
ROOT
ATOM      1  C   UNL     1      12.792  36.840  27.221  1.00  0.00     0.171 C 
ENDROOT
BRANCH   1   2
ATOM      2  C   UNL     1      12.272  38.035  28.038  1.00  0.00     0.190 C 
BRANCH   2   3
ATOM      3  O   UNL     1      12.381  39.219  27.297  1.00  0.00    -0.394 OA
ATOM      4  H   UNL     1      12.528  39.945  27.959  1.00  0.00     0.210 HD
ENDBRANCH   2   3
ENDBRANCH   1   2
BRANCH   1   5
ATOM      5  C   UNL     1      14.321  36.856  26.962  1.00  0.00     0.181 C 
BRANCH   5   6
ATOM      6  C   UNL     1      14.724  37.462  25.586  1.00  0.00     0.209 C 
BRANCH   6   7
ATOM      7  C   UNL     1      15.534  38.724  25.734  1.00  0.00     0.258 C 
ATOM      8  O   UNL     1      14.992  39.773  26.045  1.00  0.00    -0.300 OA
ENDBRANCH   6   7
BRANCH   6   9
ATOM      9  O   UNL     1      13.585  37.740  24.809  1.00  0.00    -0.383 OA
ATOM     10  H   UNL     1      13.535  37.053  24.093  1.00  0.00     0.211 HD
ENDBRANCH   6   9
ENDBRANCH   5   6
BRANCH   5  11
ATOM     11  O   UNL     1      14.917  37.608  27.991  1.00  0.00    -0.387 OA
ATOM     12  H   UNL     1      15.143  36.981  28.727  1.00  0.00     0.211 HD
ENDBRANCH   5  11
ENDBRANCH   1   5
BRANCH   1  13
ATOM     13  O   UNL     1      12.429  35.638  27.854  1.00  0.00    -0.388 OA
ATOM     14  H   UNL     1      11.465  35.491  27.668  1.00  0.00     0.211 HD
ENDBRANCH   1  13
TORSDOF 8
ENDMDL
MODEL 4
REMARK VINA RESULT:    -3.542      0.985      1.793
REMARK INTER + INTRA:          -5.776
REMARK INTER:                  -5.242
REMARK INTRA:                  -0.534
REMARK UNBOUND:                -0.991
REMARK SMILES O=C[C@H](O)[C@@H](O)[C@@H](O)CO
REMARK SMILES IDX 7 1 9 2 10 3 5 5 3 6 2 7 1 8 4 9 6 11 8 13
REMARK H PARENT 10 4 4 10 6 12 8 14
REMARK Flexibility Score: inf
ROOT
ATOM      1  C   UNL     1      14.429  37.643  26.823  1.00  0.00     0.171 C 
ENDROOT
BRANCH   1   2
ATOM      2  C   UNL     1      14.935  38.151  25.462  1.00  0.00     0.190 C 
BRANCH   2   3
ATOM      3  O   UNL     1      13.955  37.976  24.477  1.00  0.00    -0.394 OA
ATOM      4  H   UNL     1      13.290  37.346  24.860  1.00  0.00     0.210 HD
ENDBRANCH   2   3
ENDBRANCH   1   2
BRANCH   1   5
ATOM      5  C   UNL     1      12.888  37.686  26.991  1.00  0.00     0.181 C 
BRANCH   5   6
ATOM      6  C   UNL     1      12.375  37.029  28.306  1.00  0.00     0.209 C 
BRANCH   6   7
ATOM      7  C   UNL     1      13.084  37.561  29.524  1.00  0.00     0.258 C 
ATOM      8  O   UNL     1      13.959  36.904  30.066  1.00  0.00    -0.300 OA
ENDBRANCH   6   7
BRANCH   6   9
ATOM      9  O   UNL     1      12.533  35.632  28.260  1.00  0.00    -0.383 OA
ATOM     10  H   UNL     1      12.145  35.258  29.095  1.00  0.00     0.211 HD
ENDBRANCH   6   9
ENDBRANCH   5   6
BRANCH   5  11
ATOM     11  O   UNL     1      12.498  39.038  26.967  1.00  0.00    -0.387 OA
ATOM     12  H   UNL     1      12.636  39.372  26.042  1.00  0.00     0.211 HD
ENDBRANCH   5  11
ENDBRANCH   1   5
BRANCH   1  13
ATOM     13  O   UNL     1      14.896  36.337  27.047  1.00  0.00    -0.388 OA
ATOM     14  H   UNL     1      14.120  35.800  27.357  1.00  0.00     0.211 HD
ENDBRANCH   1  13
TORSDOF 8
ENDMDL
MODEL 5
REMARK VINA RESULT:    -3.541      1.387      2.538
REMARK INTER + INTRA:          -5.774
REMARK INTER:                  -4.771
REMARK INTRA:                  -1.004
REMARK UNBOUND:                -0.991
REMARK SMILES O=C[C@H](O)[C@@H](O)[C@@H](O)CO
REMARK SMILES IDX 7 1 9 2 10 3 5 5 3 6 2 7 1 8 4 9 6 11 8 13
REMARK H PARENT 10 4 4 10 6 12 8 14
REMARK Flexibility Score: inf
ROOT
ATOM      1  C   UNL     1      13.469  37.811  26.178  1.00  0.00     0.171 C 
ENDROOT
BRANCH   1   2
ATOM      2  C   UNL     1      12.463  36.735  26.620  1.00  0.00     0.190 C 
BRANCH   2   3
ATOM      3  O   UNL     1      12.102  36.921  27.960  1.00  0.00    -0.394 OA
ATOM      4  H   UNL     1      11.954  37.896  28.073  1.00  0.00     0.210 HD
ENDBRANCH   2   3
ENDBRANCH   1   2
BRANCH   1   5
ATOM      5  C   UNL     1      14.873  37.681  26.825  1.00  0.00     0.181 C 
BRANCH   5   6
ATOM      6  C   UNL     1      15.087  38.598  28.065  1.00  0.00     0.209 C 
BRANCH   6   7
ATOM      7  C   UNL     1      15.307  37.807  29.328  1.00  0.00     0.258 C 
ATOM      8  O   UNL     1      14.364  37.289  29.906  1.00  0.00    -0.300 OA
ENDBRANCH   6   7
BRANCH   6   9
ATOM      9  O   UNL     1      13.985  39.453  28.249  1.00  0.00    -0.383 OA
ATOM     10  H   UNL     1      13.484  39.130  29.044  1.00  0.00     0.211 HD
ENDBRANCH   6   9
ENDBRANCH   5   6
BRANCH   5  11
ATOM     11  O   UNL     1      15.038  36.337  27.210  1.00  0.00    -0.387 OA
ATOM     12  H   UNL     1      14.143  35.984  27.453  1.00  0.00     0.211 HD
ENDBRANCH   5  11
ENDBRANCH   1   5
BRANCH   1  13
ATOM     13  O   UNL     1      13.589  37.804  24.778  1.00  0.00    -0.388 OA
ATOM     14  H   UNL     1      12.681  37.965  24.407  1.00  0.00     0.211 HD
ENDBRANCH   1  13
TORSDOF 8
ENDMDL
MODEL 6
REMARK VINA RESULT:    -3.504      2.015      3.469
REMARK INTER + INTRA:          -5.725
REMARK INTER:                  -5.203
REMARK INTRA:                  -0.522
REMARK UNBOUND:                -0.991
REMARK SMILES O=C[C@H](O)[C@@H](O)[C@@H](O)CO
REMARK SMILES IDX 7 1 9 2 10 3 5 5 3 6 2 7 1 8 4 9 6 11 8 13
REMARK H PARENT 10 4 4 10 6 12 8 14
REMARK Flexibility Score: inf
ROOT
ATOM      1  C   UNL     1      14.865  38.157  28.613  1.00  0.00     0.171 C 
ENDROOT
BRANCH   1   2
ATOM      2  C   UNL     1      16.312  37.800  28.994  1.00  0.00     0.190 C 
BRANCH   2   3
ATOM      3  O   UNL     1      16.481  37.851  30.383  1.00  0.00    -0.394 OA
ATOM      4  H   UNL     1      17.397  38.199  30.537  1.00  0.00     0.210 HD
ENDBRANCH   2   3
ENDBRANCH   1   2
BRANCH   1   5
ATOM      5  C   UNL     1      14.105  37.034  27.860  1.00  0.00     0.181 C 
BRANCH   5   6
ATOM      6  C   UNL     1      12.981  37.553  26.915  1.00  0.00     0.209 C 
BRANCH   6   7
ATOM      7  C   UNL     1      13.534  38.220  25.683  1.00  0.00     0.258 C 
ATOM      8  O   UNL     1      14.024  37.552  24.786  1.00  0.00    -0.300 OA
ENDBRANCH   6   7
BRANCH   6   9
ATOM      9  O   UNL     1      12.143  38.461  27.588  1.00  0.00    -0.383 OA
ATOM     10  H   UNL     1      12.701  39.234  27.867  1.00  0.00     0.211 HD
ENDBRANCH   6   9
ENDBRANCH   5   6
BRANCH   5  11
ATOM     11  O   UNL     1      15.050  36.317  27.103  1.00  0.00    -0.387 OA
ATOM     12  H   UNL     1      15.251  36.853  26.292  1.00  0.00     0.211 HD
ENDBRANCH   5  11
ENDBRANCH   1   5
BRANCH   1  13
ATOM     13  O   UNL     1      14.148  38.528  29.763  1.00  0.00    -0.388 OA
ATOM     14  H   UNL     1      13.262  38.858  29.459  1.00  0.00     0.211 HD
ENDBRANCH   1  13
TORSDOF 8
ENDMDL
MODEL 7
REMARK VINA RESULT:    -3.491      1.394      1.894
REMARK INTER + INTRA:          -5.707
REMARK INTER:                  -4.702
REMARK INTRA:                  -1.004
REMARK UNBOUND:                -0.991
REMARK SMILES O=C[C@H](O)[C@@H](O)[C@@H](O)CO
REMARK SMILES IDX 7 1 9 2 10 3 5 5 3 6 2 7 1 8 4 9 6 11 8 13
REMARK H PARENT 10 4 4 10 6 12 8 14
REMARK Flexibility Score: inf
ROOT
ATOM      1  C   UNL     1      14.559  38.600  25.548  1.00  0.00     0.171 C 
ENDROOT
BRANCH   1   2
ATOM      2  C   UNL     1      15.259  39.755  26.284  1.00  0.00     0.190 C 
BRANCH   2   3
ATOM      3  O   UNL     1      15.838  39.298  27.475  1.00  0.00    -0.394 OA
ATOM      4  H   UNL     1      15.736  40.036  28.131  1.00  0.00     0.210 HD
ENDBRANCH   2   3
ENDBRANCH   1   2
BRANCH   1   5
ATOM      5  C   UNL     1      13.323  38.024  26.285  1.00  0.00     0.181 C 
BRANCH   5   6
ATOM      6  C   UNL     1      13.627  36.760  27.142  1.00  0.00     0.209 C 
BRANCH   6   7
ATOM      7  C   UNL     1      13.344  36.981  28.605  1.00  0.00     0.258 C 
ATOM      8  O   UNL     1      14.134  37.599  29.301  1.00  0.00    -0.300 OA
ENDBRANCH   6   7
BRANCH   6   9
ATOM      9  O   UNL     1      14.968  36.366  26.992  1.00  0.00    -0.383 OA
ATOM     10  H   UNL     1      15.289  36.716  26.119  1.00  0.00     0.211 HD
ENDBRANCH   6   9
ENDBRANCH   5   6
BRANCH   5  11
ATOM     11  O   UNL     1      12.819  39.038  27.121  1.00  0.00    -0.387 OA
ATOM     12  H   UNL     1      13.471  39.169  27.858  1.00  0.00     0.211 HD
ENDBRANCH   5  11
ENDBRANCH   1   5
BRANCH   1  13
ATOM     13  O   UNL     1      14.192  39.012  24.255  1.00  0.00    -0.388 OA
ATOM     14  H   UNL     1      13.806  39.924  24.340  1.00  0.00     0.211 HD
ENDBRANCH   1  13
TORSDOF 8
ENDMDL
MODEL 8
REMARK VINA RESULT:    -3.439      1.384      2.602
REMARK INTER + INTRA:          -5.637
REMARK INTER:                  -5.180
REMARK INTRA:                  -0.457
REMARK UNBOUND:                -0.991
REMARK SMILES O=C[C@H](O)[C@@H](O)[C@@H](O)CO
REMARK SMILES IDX 7 1 9 2 10 3 5 5 3 6 2 7 1 8 4 9 6 11 8 13
REMARK H PARENT 10 4 4 10 6 12 8 14
REMARK Flexibility Score: inf
ROOT
ATOM      1  C   UNL     1      14.984  37.901  25.401  1.00  0.00     0.171 C 
ENDROOT
BRANCH   1   2
ATOM      2  C   UNL     1      15.311  39.350  25.002  1.00  0.00     0.190 C 
BRANCH   2   3
ATOM      3  O   UNL     1      14.441  39.792  23.998  1.00  0.00    -0.394 OA
ATOM      4  H   UNL     1      14.984  39.847  23.168  1.00  0.00     0.210 HD
ENDBRANCH   2   3
ENDBRANCH   1   2
BRANCH   1   5
ATOM      5  C   UNL     1      14.827  37.674  26.927  1.00  0.00     0.181 C 
BRANCH   5   6
ATOM      6  C   UNL     1      13.483  38.200  27.511  1.00  0.00     0.209 C 
BRANCH   6   7
ATOM      7  C   UNL     1      12.524  37.082  27.828  1.00  0.00     0.258 C 
ATOM      8  O   UNL     1      12.147  36.323  26.949  1.00  0.00    -0.300 OA
ENDBRANCH   6   7
BRANCH   6   9
ATOM      9  O   UNL     1      12.864  39.091  26.617  1.00  0.00    -0.383 OA
ATOM     10  H   UNL     1      11.977  39.329  26.996  1.00  0.00     0.211 HD
ENDBRANCH   6   9
ENDBRANCH   5   6
BRANCH   5  11
ATOM     11  O   UNL     1      14.924  36.290  27.161  1.00  0.00    -0.387 OA
ATOM     12  H   UNL     1      15.558  36.158  27.913  1.00  0.00     0.211 HD
ENDBRANCH   5  11
ENDBRANCH   1   5
BRANCH   1  13
ATOM     13  O   UNL     1      13.822  37.475  24.735  1.00  0.00    -0.388 OA
ATOM     14  H   UNL     1      13.550  38.211  24.125  1.00  0.00     0.211 HD
ENDBRANCH   1  13
TORSDOF 8
ENDMDL
MODEL 9
REMARK VINA RESULT:    -3.427      1.997      3.220
REMARK INTER + INTRA:          -5.621
REMARK INTER:                  -4.865
REMARK INTRA:                  -0.755
REMARK UNBOUND:                -0.991
REMARK SMILES O=C[C@H](O)[C@@H](O)[C@@H](O)CO
REMARK SMILES IDX 7 1 9 2 10 3 5 5 3 6 2 7 1 8 4 9 6 11 8 13
REMARK H PARENT 10 4 4 10 6 12 8 14
REMARK Flexibility Score: inf
ROOT
ATOM      1  C   UNL     1      14.005  37.187  27.506  1.00  0.00     0.171 C 
ENDROOT
BRANCH   1   2
ATOM      2  C   UNL     1      12.663  36.783  26.872  1.00  0.00     0.190 C 
BRANCH   2   3
ATOM      3  O   UNL     1      12.119  35.678  27.538  1.00  0.00    -0.394 OA
ATOM      4  H   UNL     1      12.789  34.951  27.458  1.00  0.00     0.210 HD
ENDBRANCH   2   3
ENDBRANCH   1   2
BRANCH   1   5
ATOM      5  C   UNL     1      14.026  37.131  29.055  1.00  0.00     0.181 C 
BRANCH   5   6
ATOM      6  C   UNL     1      15.174  37.959  29.705  1.00  0.00     0.209 C 
BRANCH   6   7
ATOM      7  C   UNL     1      15.070  39.427  29.385  1.00  0.00     0.258 C 
ATOM      8  O   UNL     1      14.240  40.125  29.947  1.00  0.00    -0.300 OA
ENDBRANCH   6   7
BRANCH   6   9
ATOM      9  O   UNL     1      16.430  37.488  29.282  1.00  0.00    -0.383 OA
ATOM     10  H   UNL     1      16.789  36.902  30.000  1.00  0.00     0.211 HD
ENDBRANCH   6   9
ENDBRANCH   5   6
BRANCH   5  11
ATOM     11  O   UNL     1      12.788  37.620  29.513  1.00  0.00    -0.387 OA
ATOM     12  H   UNL     1      12.943  38.530  29.879  1.00  0.00     0.211 HD
ENDBRANCH   5  11
ENDBRANCH   1   5
BRANCH   1  13
ATOM     13  O   UNL     1      15.037  36.386  26.987  1.00  0.00    -0.388 OA
ATOM     14  H   UNL     1      15.513  36.930  26.306  1.00  0.00     0.211 HD
ENDBRANCH   1  13
TORSDOF 8
ENDMDL
