MODEL 1
REMARK VINA RESULT:    -3.925      0.000      0.000
REMARK INTER + INTRA:          -4.040
REMARK INTER:                  -4.040
REMARK INTRA:                   0.000
REMARK UNBOUND:                 0.000
REMARK SMILES Nc1ncnc2nc[nH]c12
REMARK SMILES IDX 8 1 7 2 6 3 5 4 4 5 3 6 2 7 10 8 9 9 1 11
REMARK H PARENT 9 10 1 12 1 13
REMARK Flexibility Score: inf
ROOT
ATOM      1  C   UNL     1     -22.132 -58.257  14.860  1.00  0.00     0.199 A 
ATOM      2  N   UNL     1     -21.451 -59.410  15.110  1.00  0.00    -0.217 NA
ATOM      3  C   UNL     1     -21.466 -60.016  13.912  1.00  0.00     0.182 A 
ATOM      4  N   UNL     1     -20.917 -61.215  13.606  1.00  0.00    -0.215 NA
ATOM      5  C   UNL     1     -21.035 -61.671  12.322  1.00  0.00     0.226 A 
ATOM      6  N   UNL     1     -21.693 -60.927  11.377  1.00  0.00    -0.217 NA
ATOM      7  C   UNL     1     -22.249 -59.716  11.684  1.00  0.00     0.152 A 
ATOM      8  C   UNL     1     -22.120 -59.266  12.995  1.00  0.00     0.127 A 
ATOM      9  N   UNL     1     -22.553 -58.140  13.575  1.00  0.00    -0.340 N 
ATOM     10  H   UNL     1     -23.089 -57.351  13.152  1.00  0.00     0.168 HD
ENDROOT
BRANCH   7  11
ATOM     11  N   UNL     1     -22.930 -58.957  10.683  1.00  0.00    -0.382 N 
ATOM     12  H   UNL     1     -23.971 -58.902  10.658  1.00  0.00     0.158 HD
ATOM     13  H   UNL     1     -22.384 -58.442   9.956  1.00  0.00     0.158 HD
ENDBRANCH   7  11
TORSDOF 1
ENDMDL
MODEL 2
REMARK VINA RESULT:    -3.794      1.042      3.081
REMARK INTER + INTRA:          -3.905
REMARK INTER:                  -3.905
REMARK INTRA:                   0.000
REMARK UNBOUND:                 0.000
REMARK SMILES Nc1ncnc2nc[nH]c12
REMARK SMILES IDX 8 1 7 2 6 3 5 4 4 5 3 6 2 7 10 8 9 9 1 11
REMARK H PARENT 9 10 1 12 1 13
REMARK Flexibility Score: inf
ROOT
ATOM      1  C   UNL     1     -22.368 -60.030   9.886  1.00  0.00     0.199 A 
ATOM      2  N   UNL     1     -21.732 -61.150  10.326  1.00  0.00    -0.217 NA
ATOM      3  C   UNL     1     -21.630 -60.921  11.645  1.00  0.00     0.182 A 
ATOM      4  N   UNL     1     -21.066 -61.739  12.566  1.00  0.00    -0.215 NA
ATOM      5  C   UNL     1     -21.057 -61.331  13.871  1.00  0.00     0.226 A 
ATOM      6  N   UNL     1     -21.604 -60.126  14.229  1.00  0.00    -0.217 NA
ATOM      7  C   UNL     1     -22.173 -59.299  13.300  1.00  0.00     0.152 A 
ATOM      8  C   UNL     1     -22.175 -59.728  11.976  1.00  0.00     0.127 A 
ATOM      9  N   UNL     1     -22.653 -59.141  10.872  1.00  0.00    -0.340 N 
ATOM     10  H   UNL     1     -23.133 -58.220  10.777  1.00  0.00     0.168 HD
ENDROOT
BRANCH   7  11
ATOM     11  N   UNL     1     -22.738 -58.047  13.695  1.00  0.00    -0.382 N 
ATOM     12  H   UNL     1     -22.136 -57.245  13.978  1.00  0.00     0.158 HD
ATOM     13  H   UNL     1     -23.775 -57.922  13.704  1.00  0.00     0.158 HD
ENDBRANCH   7  11
TORSDOF 1
ENDMDL
MODEL 3
REMARK VINA RESULT:    -3.450      0.958      2.964
REMARK INTER + INTRA:          -3.551
REMARK INTER:                  -3.551
REMARK INTRA:                   0.000
REMARK UNBOUND:                 0.000
REMARK SMILES Nc1ncnc2nc[nH]c12
REMARK SMILES IDX 8 1 7 2 6 3 5 4 4 5 3 6 2 7 10 8 9 9 1 11
REMARK H PARENT 9 10 1 12 1 13
REMARK Flexibility Score: inf
ROOT
ATOM      1  C   UNL     1     -20.730 -62.612  11.886  1.00  0.00     0.199 A 
ATOM      2  N   UNL     1     -20.553 -62.276  13.193  1.00  0.00    -0.217 NA
ATOM      3  C   UNL     1     -21.142 -61.071  13.260  1.00  0.00     0.182 A 
ATOM      4  N   UNL     1     -21.248 -60.283  14.357  1.00  0.00    -0.215 NA
ATOM      5  C   UNL     1     -21.888 -59.081  14.228  1.00  0.00     0.226 A 
ATOM      6  N   UNL     1     -22.404 -58.692  13.019  1.00  0.00    -0.217 NA
ATOM      7  C   UNL     1     -22.298 -59.486  11.911  1.00  0.00     0.152 A 
ATOM      8  C   UNL     1     -21.645 -60.706  12.058  1.00  0.00     0.127 A 
ATOM      9  N   UNL     1     -21.395 -61.673  11.166  1.00  0.00    -0.340 N 
ATOM     10  H   UNL     1     -21.646 -61.709  10.153  1.00  0.00     0.168 HD
ENDROOT
BRANCH   7  11
ATOM     11  N   UNL     1     -22.845 -59.061  10.661  1.00  0.00    -0.382 N 
ATOM     12  H   UNL     1     -22.884 -59.702   9.839  1.00  0.00     0.158 HD
ATOM     13  H   UNL     1     -23.217 -58.091  10.557  1.00  0.00     0.158 HD
ENDBRANCH   7  11
TORSDOF 1
ENDMDL
MODEL 4
REMARK VINA RESULT:    -3.408      1.216      3.722
REMARK INTER + INTRA:          -3.508
REMARK INTER:                  -3.508
REMARK INTRA:                   0.000
REMARK UNBOUND:                 0.000
REMARK SMILES Nc1ncnc2nc[nH]c12
REMARK SMILES IDX 8 1 7 2 6 3 5 4 4 5 3 6 2 7 10 8 9 9 1 11
REMARK H PARENT 9 10 1 12 1 13
REMARK Flexibility Score: inf
ROOT
ATOM      1  C   UNL     1     -21.880 -60.509   9.875  1.00  0.00     0.199 A 
ATOM      2  N   UNL     1     -22.118 -59.362  10.569  1.00  0.00    -0.217 NA
ATOM      3  C   UNL     1     -22.019 -59.773  11.843  1.00  0.00     0.182 A 
ATOM      4  N   UNL     1     -22.172 -59.012  12.952  1.00  0.00    -0.215 NA
ATOM      5  C   UNL     1     -22.033 -59.614  14.173  1.00  0.00     0.226 A 
ATOM      6  N   UNL     1     -21.748 -60.952  14.261  1.00  0.00    -0.217 NA
ATOM      7  C   UNL     1     -21.594 -61.722  13.142  1.00  0.00     0.152 A 
ATOM      8  C   UNL     1     -21.738 -61.095  11.908  1.00  0.00     0.127 A 
ATOM      9  N   UNL     1     -21.644 -61.586  10.666  1.00  0.00    -0.340 N 
ATOM     10  H   UNL     1     -21.438 -62.563  10.363  1.00  0.00     0.168 HD
ENDROOT
BRANCH   7  11
ATOM     11  N   UNL     1     -21.296 -63.115  13.258  1.00  0.00    -0.382 N 
ATOM     12  H   UNL     1     -20.434 -63.523  12.837  1.00  0.00     0.158 HD
ATOM     13  H   UNL     1     -21.948 -63.748  13.773  1.00  0.00     0.158 HD
ENDBRANCH   7  11
TORSDOF 1
ENDMDL
MODEL 5
REMARK VINA RESULT:    -3.405      1.959      2.859
REMARK INTER + INTRA:          -3.504
REMARK INTER:                  -3.504
REMARK INTRA:                   0.000
REMARK UNBOUND:                 0.000
REMARK SMILES Nc1ncnc2nc[nH]c12
REMARK SMILES IDX 8 1 7 2 6 3 5 4 4 5 3 6 2 7 10 8 9 9 1 11
REMARK H PARENT 9 10 1 12 1 13
REMARK Flexibility Score: inf
ROOT
ATOM      1  C   UNL     1     -18.576 -59.575  11.103  1.00  0.00     0.199 A 
ATOM      2  N   UNL     1     -18.569 -59.979  12.403  1.00  0.00    -0.217 NA
ATOM      3  C   UNL     1     -19.875 -59.961  12.714  1.00  0.00     0.182 A 
ATOM      4  N   UNL     1     -20.425 -60.284  13.909  1.00  0.00    -0.215 NA
ATOM      5  C   UNL     1     -21.785 -60.205  14.036  1.00  0.00     0.226 A 
ATOM      6  N   UNL     1     -22.561 -59.808  12.977  1.00  0.00    -0.217 NA
ATOM      7  C   UNL     1     -22.007 -59.482  11.770  1.00  0.00     0.152 A 
ATOM      8  C   UNL     1     -20.622 -59.568  11.657  1.00  0.00     0.127 A 
ATOM      9  N   UNL     1     -19.817 -59.317  10.618  1.00  0.00    -0.340 N 
ATOM     10  H   UNL     1     -20.069 -58.997   9.657  1.00  0.00     0.168 HD
ENDROOT
BRANCH   7  11
ATOM     11  N   UNL     1     -22.835 -59.073  10.680  1.00  0.00    -0.382 N 
ATOM     12  H   UNL     1     -23.363 -59.767  10.109  1.00  0.00     0.158 HD
ATOM     13  H   UNL     1     -22.923 -58.059  10.443  1.00  0.00     0.158 HD
ENDBRANCH   7  11
TORSDOF 1
ENDMDL
MODEL 6
REMARK VINA RESULT:    -3.303      2.275      3.699
REMARK INTER + INTRA:          -3.400
REMARK INTER:                  -3.400
REMARK INTRA:                   0.000
REMARK UNBOUND:                 0.000
REMARK SMILES Nc1ncnc2nc[nH]c12
REMARK SMILES IDX 8 1 7 2 6 3 5 4 4 5 3 6 2 7 10 8 9 9 1 11
REMARK H PARENT 9 10 1 12 1 13
REMARK Flexibility Score: inf
ROOT
ATOM      1  C   UNL     1     -18.743 -58.541  16.725  1.00  0.00     0.199 A 
ATOM      2  N   UNL     1     -18.519 -58.886  15.427  1.00  0.00    -0.217 NA
ATOM      3  C   UNL     1     -19.748 -58.801  14.893  1.00  0.00     0.182 A 
ATOM      4  N   UNL     1     -20.088 -59.047  13.606  1.00  0.00    -0.215 NA
ATOM      5  C   UNL     1     -21.401 -58.905  13.246  1.00  0.00     0.226 A 
ATOM      6  N   UNL     1     -22.339 -58.526  14.172  1.00  0.00    -0.217 NA
ATOM      7  C   UNL     1     -21.997 -58.278  15.472  1.00  0.00     0.152 A 
ATOM      8  C   UNL     1     -20.658 -58.425  15.822  1.00  0.00     0.127 A 
ATOM      9  N   UNL     1     -20.042 -58.254  16.997  1.00  0.00    -0.340 N 
ATOM     10  H   UNL     1     -20.450 -57.967  17.914  1.00  0.00     0.168 HD
ENDROOT
BRANCH   7  11
ATOM     11  N   UNL     1     -22.992 -57.883  16.419  1.00  0.00    -0.382 N 
ATOM     12  H   UNL     1     -22.740 -57.360  17.285  1.00  0.00     0.158 HD
ATOM     13  H   UNL     1     -23.996 -58.117  16.250  1.00  0.00     0.158 HD
ENDBRANCH   7  11
TORSDOF 1
ENDMDL
MODEL 7
REMARK VINA RESULT:    -3.113      1.317      2.888
REMARK INTER + INTRA:          -3.204
REMARK INTER:                  -3.204
REMARK INTRA:                   0.000
REMARK UNBOUND:                 0.000
REMARK SMILES Nc1ncnc2nc[nH]c12
REMARK SMILES IDX 8 1 7 2 6 3 5 4 4 5 3 6 2 7 10 8 9 9 1 11
REMARK H PARENT 9 10 1 12 1 13
REMARK Flexibility Score: inf
ROOT
ATOM      1  C   UNL     1     -21.260 -62.295  13.762  1.00  0.00     0.199 A 
ATOM      2  N   UNL     1     -21.092 -62.603  12.447  1.00  0.00    -0.217 NA
ATOM      3  C   UNL     1     -21.487 -61.474  11.837  1.00  0.00     0.182 A 
ATOM      4  N   UNL     1     -21.519 -61.244  10.503  1.00  0.00    -0.215 NA
ATOM      5  C   UNL     1     -21.955 -60.023  10.068  1.00  0.00     0.226 A 
ATOM      6  N   UNL     1     -22.349 -59.064  10.966  1.00  0.00    -0.217 NA
ATOM      7  C   UNL     1     -22.318 -59.294  12.313  1.00  0.00     0.152 A 
ATOM      8  C   UNL     1     -21.871 -60.541  12.740  1.00  0.00     0.127 A 
ATOM      9  N   UNL     1     -21.734 -61.042  13.974  1.00  0.00    -0.340 N 
ATOM     10  H   UNL     1     -21.940 -60.586  14.890  1.00  0.00     0.168 HD
ENDROOT
BRANCH   7  11
ATOM     11  N   UNL     1     -22.732 -58.280  13.230  1.00  0.00    -0.382 N 
ATOM     12  H   UNL     1     -22.132 -57.997  14.034  1.00  0.00     0.158 HD
ATOM     13  H   UNL     1     -23.653 -57.804  13.102  1.00  0.00     0.158 HD
ENDBRANCH   7  11
TORSDOF 1
ENDMDL
MODEL 8
REMARK VINA RESULT:    -3.045      2.153      2.969
REMARK INTER + INTRA:          -3.134
REMARK INTER:                  -3.134
REMARK INTRA:                   0.000
REMARK UNBOUND:                 0.000
REMARK SMILES Nc1ncnc2nc[nH]c12
REMARK SMILES IDX 8 1 7 2 6 3 5 4 4 5 3 6 2 7 10 8 9 9 1 11
REMARK H PARENT 9 10 1 12 1 13
REMARK Flexibility Score: inf
ROOT
ATOM      1  C   UNL     1     -18.355 -58.687  12.688  1.00  0.00     0.199 A 
ATOM      2  N   UNL     1     -18.618 -59.545  11.664  1.00  0.00    -0.217 NA
ATOM      3  C   UNL     1     -19.950 -59.694  11.753  1.00  0.00     0.182 A 
ATOM      4  N   UNL     1     -20.732 -60.458  10.955  1.00  0.00    -0.215 NA
ATOM      5  C   UNL     1     -22.078 -60.483  11.201  1.00  0.00     0.226 A 
ATOM      6  N   UNL     1     -22.610 -59.750  12.231  1.00  0.00    -0.217 NA
ATOM      7  C   UNL     1     -21.822 -58.979  13.038  1.00  0.00     0.152 A 
ATOM      8  C   UNL     1     -20.455 -58.964  12.774  1.00  0.00     0.127 A 
ATOM      9  N   UNL     1     -19.458 -58.313  13.385  1.00  0.00    -0.340 N 
ATOM     10  H   UNL     1     -19.503 -57.668  14.204  1.00  0.00     0.168 HD
ENDROOT
BRANCH   7  11
ATOM     11  N   UNL     1     -22.399 -58.223  14.105  1.00  0.00    -0.382 N 
ATOM     12  H   UNL     1     -22.646 -58.669  15.015  1.00  0.00     0.158 HD
ATOM     13  H   UNL     1     -22.580 -57.202  13.984  1.00  0.00     0.158 HD
ENDBRANCH   7  11
TORSDOF 1
ENDMDL
