MODEL 1
REMARK VINA RESULT:    -5.071      0.000      0.000
REMARK INTER + INTRA:          -5.071
REMARK INTER:                  -5.071
REMARK INTRA:                   0.000
REMARK UNBOUND:                 0.000
REMARK SMILES O=c1ccc2ccccc2o1
REMARK SMILES IDX 7 1 8 2 9 3 10 4 5 5 6 6 4 7 3 8 2 9 1 10 11 11
REMARK H PARENT
REMARK Flexibility Score: inf
ROOT
ATOM      1  C   UNL     1      12.786  18.988  25.088  1.00  0.00     0.001 A 
ATOM      2  C   UNL     1      12.072  19.390  26.223  1.00  0.00     0.004 A 
ATOM      3  C   UNL     1      11.128  18.534  26.800  1.00  0.00     0.048 A 
ATOM      4  C   UNL     1      10.895  17.271  26.244  1.00  0.00     0.138 A 
ATOM      5  C   UNL     1      11.615  16.865  25.098  1.00  0.00     0.018 A 
ATOM      6  C   UNL     1      12.561  17.729  24.524  1.00  0.00     0.012 A 
ATOM      7  C   UNL     1      11.362  15.598  24.564  1.00  0.00     0.019 A 
ATOM      8  C   UNL     1      10.412  14.778  25.172  1.00  0.00     0.094 A 
ATOM      9  C   UNL     1       9.737  15.245  26.305  1.00  0.00     0.336 A 
ATOM     10  O   UNL     1       8.875  14.520  26.868  1.00  0.00    -0.246 OA
ATOM     11  O   UNL     1       9.996  16.457  26.793  1.00  0.00    -0.423 OA
ENDROOT
TORSDOF 0
ENDMDL
MODEL 2
REMARK VINA RESULT:    -4.937      1.390      2.213
REMARK INTER + INTRA:          -4.937
REMARK INTER:                  -4.937
REMARK INTRA:                   0.000
REMARK UNBOUND:                 0.000
REMARK SMILES O=c1ccc2ccccc2o1
REMARK SMILES IDX 7 1 8 2 9 3 10 4 5 5 6 6 4 7 3 8 2 9 1 10 11 11
REMARK H PARENT
REMARK Flexibility Score: inf
ROOT
ATOM      1  C   UNL     1      11.937  19.438  26.338  1.00  0.00     0.001 A 
ATOM      2  C   UNL     1      12.620  19.201  25.140  1.00  0.00     0.004 A 
ATOM      3  C   UNL     1      12.479  17.976  24.480  1.00  0.00     0.048 A 
ATOM      4  C   UNL     1      11.653  16.982  25.016  1.00  0.00     0.138 A 
ATOM      5  C   UNL     1      10.964  17.220  26.226  1.00  0.00     0.018 A 
ATOM      6  C   UNL     1      11.110  18.452  26.884  1.00  0.00     0.012 A 
ATOM      7  C   UNL     1      10.146  16.210  26.739  1.00  0.00     0.019 A 
ATOM      8  C   UNL     1      10.034  15.003  26.047  1.00  0.00     0.094 A 
ATOM      9  C   UNL     1      10.746  14.837  24.854  1.00  0.00     0.336 A 
ATOM     10  O   UNL     1      10.659  13.756  24.215  1.00  0.00    -0.246 OA
ATOM     11  O   UNL     1      11.519  15.816  24.388  1.00  0.00    -0.423 OA
ENDROOT
TORSDOF 0
ENDMDL
MODEL 3
REMARK VINA RESULT:    -4.620     11.551     12.740
REMARK INTER + INTRA:          -4.620
REMARK INTER:                  -4.620
REMARK INTRA:                   0.000
REMARK UNBOUND:                 0.000
REMARK SMILES O=c1ccc2ccccc2o1
REMARK SMILES IDX 7 1 8 2 9 3 10 4 5 5 6 6 4 7 3 8 2 9 1 10 11 11
REMARK H PARENT
REMARK Flexibility Score: inf
ROOT
ATOM      1  C   UNL     1      16.803  12.254  19.235  1.00  0.00     0.001 A 
ATOM      2  C   UNL     1      15.650  12.118  18.453  1.00  0.00     0.004 A 
ATOM      3  C   UNL     1      15.743  12.108  17.058  1.00  0.00     0.048 A 
ATOM      4  C   UNL     1      16.991  12.236  16.438  1.00  0.00     0.138 A 
ATOM      5  C   UNL     1      18.155  12.376  17.226  1.00  0.00     0.018 A 
ATOM      6  C   UNL     1      18.055  12.384  18.626  1.00  0.00     0.012 A 
ATOM      7  C   UNL     1      19.388  12.502  16.580  1.00  0.00     0.019 A 
ATOM      8  C   UNL     1      19.434  12.487  15.185  1.00  0.00     0.094 A 
ATOM      9  C   UNL     1      18.240  12.346  14.469  1.00  0.00     0.336 A 
ATOM     10  O   UNL     1      18.260  12.331  13.210  1.00  0.00    -0.246 OA
ATOM     11  O   UNL     1      17.079  12.228  15.109  1.00  0.00    -0.423 OA
ENDROOT
TORSDOF 0
ENDMDL
MODEL 4
REMARK VINA RESULT:    -4.469     10.915     12.073
REMARK INTER + INTRA:          -4.469
REMARK INTER:                  -4.469
REMARK INTRA:                   0.000
REMARK UNBOUND:                 0.000
REMARK SMILES O=c1ccc2ccccc2o1
REMARK SMILES IDX 7 1 8 2 9 3 10 4 5 5 6 6 4 7 3 8 2 9 1 10 11 11
REMARK H PARENT
REMARK Flexibility Score: inf
ROOT
ATOM      1  C   UNL     1      18.148  12.265  14.284  1.00  0.00     0.001 A 
ATOM      2  C   UNL     1      19.338  12.467  14.993  1.00  0.00     0.004 A 
ATOM      3  C   UNL     1      19.324  12.526  16.390  1.00  0.00     0.048 A 
ATOM      4  C   UNL     1      18.118  12.384  17.085  1.00  0.00     0.138 A 
ATOM      5  C   UNL     1      16.916  12.181  16.370  1.00  0.00     0.018 A 
ATOM      6  C   UNL     1      16.937  12.122  14.968  1.00  0.00     0.012 A 
ATOM      7  C   UNL     1      15.726  12.042  17.091  1.00  0.00     0.019 A 
ATOM      8  C   UNL     1      15.758  12.108  18.484  1.00  0.00     0.094 A 
ATOM      9  C   UNL     1      16.985  12.311  19.125  1.00  0.00     0.336 A 
ATOM     10  O   UNL     1      17.036  12.374  20.382  1.00  0.00    -0.246 OA
ATOM     11  O   UNL     1      18.104  12.441  18.415  1.00  0.00    -0.423 OA
ENDROOT
TORSDOF 0
ENDMDL
MODEL 5
REMARK VINA RESULT:    -4.444     10.752     11.871
REMARK INTER + INTRA:          -4.444
REMARK INTER:                  -4.444
REMARK INTRA:                   0.000
REMARK UNBOUND:                 0.000
REMARK SMILES O=c1ccc2ccccc2o1
REMARK SMILES IDX 7 1 8 2 9 3 10 4 5 5 6 6 4 7 3 8 2 9 1 10 11 11
REMARK H PARENT
REMARK Flexibility Score: inf
ROOT
ATOM      1  C   UNL     1      19.832  12.350  16.216  1.00  0.00     0.001 A 
ATOM      2  C   UNL     1      19.039  12.354  15.062  1.00  0.00     0.004 A 
ATOM      3  C   UNL     1      17.646  12.291  15.165  1.00  0.00     0.048 A 
ATOM      4  C   UNL     1      17.039  12.225  16.424  1.00  0.00     0.138 A 
ATOM      5  C   UNL     1      17.838  12.220  17.589  1.00  0.00     0.018 A 
ATOM      6  C   UNL     1      19.235  12.283  17.479  1.00  0.00     0.012 A 
ATOM      7  C   UNL     1      17.204  12.153  18.833  1.00  0.00     0.019 A 
ATOM      8  C   UNL     1      15.811  12.091  18.889  1.00  0.00     0.094 A 
ATOM      9  C   UNL     1      15.084  12.100  17.694  1.00  0.00     0.336 A 
ATOM     10  O   UNL     1      13.826  12.045  17.722  1.00  0.00    -0.246 OA
ATOM     11  O   UNL     1      15.712  12.164  16.522  1.00  0.00    -0.423 OA
ENDROOT
TORSDOF 0
ENDMDL
MODEL 6
REMARK VINA RESULT:    -4.220     13.111     14.162
REMARK INTER + INTRA:          -4.220
REMARK INTER:                  -4.220
REMARK INTRA:                   0.000
REMARK UNBOUND:                 0.000
REMARK SMILES O=c1ccc2ccccc2o1
REMARK SMILES IDX 7 1 8 2 9 3 10 4 5 5 6 6 4 7 3 8 2 9 1 10 11 11
REMARK H PARENT
REMARK Flexibility Score: inf
ROOT
ATOM      1  C   UNL     1      12.623  14.641  10.173  1.00  0.00     0.001 A 
ATOM      2  C   UNL     1      11.375  15.215  10.443  1.00  0.00     0.004 A 
ATOM      3  C   UNL     1      10.542  14.660  11.420  1.00  0.00     0.048 A 
ATOM      4  C   UNL     1      10.954  13.528  12.131  1.00  0.00     0.138 A 
ATOM      5  C   UNL     1      12.213  12.947  11.858  1.00  0.00     0.018 A 
ATOM      6  C   UNL     1      13.045  13.509  10.877  1.00  0.00     0.012 A 
ATOM      7  C   UNL     1      12.599  11.816  12.584  1.00  0.00     0.019 A 
ATOM      8  C   UNL     1      11.736  11.296  13.549  1.00  0.00     0.094 A 
ATOM      9  C   UNL     1      10.504  11.923  13.766  1.00  0.00     0.336 A 
ATOM     10  O   UNL     1       9.711  11.469  14.632  1.00  0.00    -0.246 OA
ATOM     11  O   UNL     1      10.161  12.999  13.061  1.00  0.00    -0.423 OA
ENDROOT
TORSDOF 0
ENDMDL
MODEL 7
REMARK VINA RESULT:    -4.183      8.981     10.196
REMARK INTER + INTRA:          -4.183
REMARK INTER:                  -4.183
REMARK INTRA:                   0.000
REMARK UNBOUND:                 0.000
REMARK SMILES O=c1ccc2ccccc2o1
REMARK SMILES IDX 7 1 8 2 9 3 10 4 5 5 6 6 4 7 3 8 2 9 1 10 11 11
REMARK H PARENT
REMARK Flexibility Score: inf
ROOT
ATOM      1  C   UNL     1      10.785   8.938  21.433  1.00  0.00     0.001 A 
ATOM      2  C   UNL     1       9.834   8.154  20.768  1.00  0.00     0.004 A 
ATOM      3  C   UNL     1       9.328   8.561  19.530  1.00  0.00     0.048 A 
ATOM      4  C   UNL     1       9.771   9.755  18.950  1.00  0.00     0.138 A 
ATOM      5  C   UNL     1      10.729  10.547  19.621  1.00  0.00     0.018 A 
ATOM      6  C   UNL     1      11.234  10.133  20.863  1.00  0.00     0.012 A 
ATOM      7  C   UNL     1      11.153  11.735  19.018  1.00  0.00     0.019 A 
ATOM      8  C   UNL     1      10.621  12.103  17.782  1.00  0.00     0.094 A 
ATOM      9  C   UNL     1       9.675  11.269  17.176  1.00  0.00     0.336 A 
ATOM     10  O   UNL     1       9.183  11.583  16.060  1.00  0.00    -0.246 OA
ATOM     11  O   UNL     1       9.288  10.143  17.771  1.00  0.00    -0.423 OA
ENDROOT
TORSDOF 0
ENDMDL
MODEL 8
REMARK VINA RESULT:    -4.067     14.470     15.716
REMARK INTER + INTRA:          -4.067
REMARK INTER:                  -4.067
REMARK INTRA:                   0.000
REMARK UNBOUND:                 0.000
REMARK SMILES O=c1ccc2ccccc2o1
REMARK SMILES IDX 7 1 8 2 9 3 10 4 5 5 6 6 4 7 3 8 2 9 1 10 11 11
REMARK H PARENT
REMARK Flexibility Score: inf
ROOT
ATOM      1  C   UNL     1      11.068  10.145  12.136  1.00  0.00     0.001 A 
ATOM      2  C   UNL     1      11.895  10.101  11.007  1.00  0.00     0.004 A 
ATOM      3  C   UNL     1      12.218  11.278  10.325  1.00  0.00     0.048 A 
ATOM      4  C   UNL     1      11.715  12.506  10.769  1.00  0.00     0.138 A 
ATOM      5  C   UNL     1      10.879  12.552  11.908  1.00  0.00     0.018 A 
ATOM      6  C   UNL     1      10.559  11.367  12.588  1.00  0.00     0.012 A 
ATOM      7  C   UNL     1      10.391  13.792  12.329  1.00  0.00     0.019 A 
ATOM      8  C   UNL     1      10.739  14.941  11.618  1.00  0.00     0.094 A 
ATOM      9  C   UNL     1      11.571  14.820  10.499  1.00  0.00     0.336 A 
ATOM     10  O   UNL     1      11.897  15.845   9.844  1.00  0.00    -0.246 OA
ATOM     11  O   UNL     1      12.022  13.627  10.119  1.00  0.00    -0.423 OA
ENDROOT
TORSDOF 0
ENDMDL
