MODEL 1
REMARK VINA RESULT:    -5.203      0.000      0.000
REMARK INTER + INTRA:          -8.656
REMARK INTER:                  -7.940
REMARK INTRA:                  -0.715
REMARK UNBOUND:                -0.715
REMARK SMILES O=C([O-])CCCCCCCCC(=O)[O-]
REMARK SMILES IDX 7 1 6 2 5 3 4 4 2 5 1 6 3 7 8 8 9 9 10 10 11 11 12 12 13 13
REMARK SMILES IDX 14 14
REMARK H PARENT
REMARK Flexibility Score: inf
ROOT
ATOM      1  C   UNL     1       4.607 -33.824  22.518  1.00  0.00     0.000 C 
ENDROOT
BRANCH   1   2
ATOM      2  C   UNL     1       6.009 -34.441  22.654  1.00  0.00     0.000 C 
BRANCH   2   3
ATOM      3  C   UNL     1       6.023 -35.692  23.550  1.00  0.00     0.006 C 
BRANCH   3   4
ATOM      4  C   UNL     1       5.021 -36.754  23.077  1.00  0.00     0.053 C 
BRANCH   4   5
ATOM      5  C   UNL     1       4.693 -37.731  24.163  1.00  0.00     0.041 C 
ATOM      6  O   UNL     1       4.656 -38.965  23.915  1.00  0.00    -0.550 OA
ATOM      7  O   UNL     1       4.463 -37.283  25.458  1.00  0.00    -0.550 OA
ENDBRANCH   4   5
ENDBRANCH   3   4
ENDBRANCH   2   3
ENDBRANCH   1   2
BRANCH   1   8
ATOM      8  C   UNL     1       4.101 -33.829  21.066  1.00  0.00     0.000 C 
BRANCH   8   9
ATOM      9  C   UNL     1       5.146 -34.362  20.069  1.00  0.00     0.000 C 
BRANCH   9  10
ATOM     10  C   UNL     1       4.589 -35.285  18.965  1.00  0.00     0.006 C 
BRANCH  10  11
ATOM     11  C   UNL     1       3.948 -36.583  19.481  1.00  0.00     0.053 C 
BRANCH  11  12
ATOM     12  C   UNL     1       2.989 -37.168  18.490  1.00  0.00     0.041 C 
ATOM     13  O   UNL     1       3.157 -36.976  17.256  1.00  0.00    -0.550 OA
ATOM     14  O   UNL     1       1.891 -37.897  18.930  1.00  0.00    -0.550 OA
ENDBRANCH  11  12
ENDBRANCH  10  11
ENDBRANCH   9  10
ENDBRANCH   8   9
ENDBRANCH   1   8
TORSDOF 9
ENDMDL
MODEL 2
REMARK VINA RESULT:    -5.180      0.775      5.340
REMARK INTER + INTRA:          -8.621
REMARK INTER:                  -8.117
REMARK INTRA:                  -0.505
REMARK UNBOUND:                -0.715
REMARK SMILES O=C([O-])CCCCCCCCC(=O)[O-]
REMARK SMILES IDX 7 1 6 2 5 3 4 4 2 5 1 6 3 7 8 8 9 9 10 10 11 11 12 12 13 13
REMARK SMILES IDX 14 14
REMARK H PARENT
REMARK Flexibility Score: inf
ROOT
ATOM      1  C   UNL     1       4.283 -34.691  21.308  1.00  0.00     0.000 C 
ENDROOT
BRANCH   1   2
ATOM      2  C   UNL     1       4.963 -34.525  19.939  1.00  0.00     0.000 C 
BRANCH   2   3
ATOM      3  C   UNL     1       4.301 -35.373  18.840  1.00  0.00     0.006 C 
BRANCH   3   4
ATOM      4  C   UNL     1       3.833 -36.737  19.365  1.00  0.00     0.053 C 
BRANCH   4   5
ATOM      5  C   UNL     1       2.799 -37.350  18.472  1.00  0.00     0.041 C 
ATOM      6  O   UNL     1       1.744 -37.831  18.963  1.00  0.00    -0.550 OA
ATOM      7  O   UNL     1       2.983 -37.358  17.095  1.00  0.00    -0.550 OA
ENDBRANCH   4   5
ENDBRANCH   3   4
ENDBRANCH   2   3
ENDBRANCH   1   2
BRANCH   1   8
ATOM      8  C   UNL     1       4.574 -33.515  22.257  1.00  0.00     0.000 C 
BRANCH   8   9
ATOM      9  C   UNL     1       5.671 -33.837  23.289  1.00  0.00     0.000 C 
BRANCH   9  10
ATOM     10  C   UNL     1       6.116 -35.313  23.337  1.00  0.00     0.006 C 
BRANCH  10  11
ATOM     11  C   UNL     1       5.959 -35.982  24.713  1.00  0.00     0.053 C 
BRANCH  11  12
ATOM     12  C   UNL     1       4.879 -37.020  24.712  1.00  0.00     0.041 C 
ATOM     13  O   UNL     1       4.564 -37.606  23.643  1.00  0.00    -0.550 OA
ATOM     14  O   UNL     1       4.197 -37.315  25.886  1.00  0.00    -0.550 OA
ENDBRANCH  11  12
ENDBRANCH  10  11
ENDBRANCH   9  10
ENDBRANCH   8   9
ENDBRANCH   1   8
TORSDOF 9
ENDMDL
MODEL 3
REMARK VINA RESULT:    -5.046      1.357      1.809
REMARK INTER + INTRA:          -8.417
REMARK INTER:                  -7.944
REMARK INTRA:                  -0.473
REMARK UNBOUND:                -0.715
REMARK SMILES O=C([O-])CCCCCCCCC(=O)[O-]
REMARK SMILES IDX 7 1 6 2 5 3 4 4 2 5 1 6 3 7 8 8 9 9 10 10 11 11 12 12 13 13
REMARK SMILES IDX 14 14
REMARK H PARENT
REMARK Flexibility Score: inf
ROOT
ATOM      1  C   UNL     1       4.337 -34.140  21.469  1.00  0.00     0.000 C 
ENDROOT
BRANCH   1   2
ATOM      2  C   UNL     1       5.000 -33.964  22.845  1.00  0.00     0.000 C 
BRANCH   2   3
ATOM      3  C   UNL     1       6.100 -35.006  23.112  1.00  0.00     0.006 C 
BRANCH   3   4
ATOM      4  C   UNL     1       5.962 -35.650  24.499  1.00  0.00     0.053 C 
BRANCH   4   5
ATOM      5  C   UNL     1       4.978 -36.779  24.491  1.00  0.00     0.041 C 
ATOM      6  O   UNL     1       4.768 -37.428  23.433  1.00  0.00    -0.550 OA
ATOM      7  O   UNL     1       4.319 -37.137  25.660  1.00  0.00    -0.550 OA
ENDBRANCH   4   5
ENDBRANCH   3   4
ENDBRANCH   2   3
ENDBRANCH   1   2
BRANCH   1   8
ATOM      8  C   UNL     1       5.103 -35.126  20.569  1.00  0.00     0.000 C 
BRANCH   8   9
ATOM      9  C   UNL     1       4.197 -36.220  19.973  1.00  0.00     0.000 C 
BRANCH   9  10
ATOM     10  C   UNL     1       3.825 -36.027  18.488  1.00  0.00     0.006 C 
BRANCH  10  11
ATOM     11  C   UNL     1       2.956 -37.149  17.897  1.00  0.00     0.053 C 
BRANCH  11  12
ATOM     12  C   UNL     1       2.675 -36.934  16.442  1.00  0.00     0.041 C 
ATOM     13  O   UNL     1       1.841 -36.063  16.080  1.00  0.00    -0.550 OA
ATOM     14  O   UNL     1       3.310 -37.718  15.487  1.00  0.00    -0.550 OA
ENDBRANCH  11  12
ENDBRANCH  10  11
ENDBRANCH   9  10
ENDBRANCH   8   9
ENDBRANCH   1   8
TORSDOF 9
ENDMDL
MODEL 4
REMARK VINA RESULT:    -4.870      2.328      3.626
REMARK INTER + INTRA:          -8.147
REMARK INTER:                  -7.339
REMARK INTRA:                  -0.808
REMARK UNBOUND:                -0.715
REMARK SMILES O=C([O-])CCCCCCCCC(=O)[O-]
REMARK SMILES IDX 7 1 6 2 5 3 4 4 2 5 1 6 3 7 8 8 9 9 10 10 11 11 12 12 13 13
REMARK SMILES IDX 14 14
REMARK H PARENT
REMARK Flexibility Score: inf
ROOT
ATOM      1  C   UNL     1       4.826 -37.391  24.222  1.00  0.00     0.000 C 
ENDROOT
BRANCH   1   2
ATOM      2  C   UNL     1       5.841 -36.369  23.683  1.00  0.00     0.000 C 
BRANCH   2   3
ATOM      3  C   UNL     1       5.182 -35.045  23.259  1.00  0.00     0.006 C 
BRANCH   3   4
ATOM      4  C   UNL     1       5.722 -34.534  21.916  1.00  0.00     0.053 C 
BRANCH   4   5
ATOM      5  C   UNL     1       4.629 -33.987  21.051  1.00  0.00     0.041 C 
ATOM      6  O   UNL     1       4.773 -33.944  19.801  1.00  0.00    -0.550 OA
ATOM      7  O   UNL     1       3.437 -33.558  21.621  1.00  0.00    -0.550 OA
ENDBRANCH   4   5
ENDBRANCH   3   4
ENDBRANCH   2   3
ENDBRANCH   1   2
BRANCH   1   8
ATOM      8  C   UNL     1       4.701 -38.629  23.317  1.00  0.00     0.000 C 
BRANCH   8   9
ATOM      9  C   UNL     1       5.110 -38.350  21.859  1.00  0.00     0.000 C 
BRANCH   9  10
ATOM     10  C   UNL     1       3.975 -37.851  20.942  1.00  0.00     0.006 C 
BRANCH  10  11
ATOM     11  C   UNL     1       4.439 -37.357  19.562  1.00  0.00     0.053 C 
BRANCH  11  12
ATOM     12  C   UNL     1       3.288 -37.127  18.632  1.00  0.00     0.041 C 
ATOM     13  O   UNL     1       3.413 -36.348  17.650  1.00  0.00    -0.550 OA
ATOM     14  O   UNL     1       2.067 -37.745  18.869  1.00  0.00    -0.550 OA
ENDBRANCH  11  12
ENDBRANCH  10  11
ENDBRANCH   9  10
ENDBRANCH   8   9
ENDBRANCH   1   8
TORSDOF 9
ENDMDL
MODEL 5
REMARK VINA RESULT:    -4.715      2.311      5.185
REMARK INTER + INTRA:          -7.911
REMARK INTER:                  -7.125
REMARK INTRA:                  -0.786
REMARK UNBOUND:                -0.715
REMARK SMILES O=C([O-])CCCCCCCCC(=O)[O-]
REMARK SMILES IDX 7 1 6 2 5 3 4 4 2 5 1 6 3 7 8 8 9 9 10 10 11 11 12 12 13 13
REMARK SMILES IDX 14 14
REMARK H PARENT
REMARK Flexibility Score: inf
ROOT
ATOM      1  C   UNL     1       4.372 -37.814  22.017  1.00  0.00     0.000 C 
ENDROOT
BRANCH   1   2
ATOM      2  C   UNL     1       5.397 -38.023  20.890  1.00  0.00     0.000 C 
BRANCH   2   3
ATOM      3  C   UNL     1       4.846 -37.636  19.507  1.00  0.00     0.006 C 
BRANCH   3   4
ATOM      4  C   UNL     1       3.477 -36.949  19.601  1.00  0.00     0.053 C 
BRANCH   4   5
ATOM      5  C   UNL     1       2.549 -37.410  18.519  1.00  0.00     0.041 C 
ATOM      6  O   UNL     1       1.367 -37.741  18.797  1.00  0.00    -0.550 OA
ATOM      7  O   UNL     1       2.980 -37.440  17.198  1.00  0.00    -0.550 OA
ENDBRANCH   4   5
ENDBRANCH   3   4
ENDBRANCH   2   3
ENDBRANCH   1   2
BRANCH   1   8
ATOM      8  C   UNL     1       5.022 -37.816  23.411  1.00  0.00     0.000 C 
BRANCH   8   9
ATOM      9  C   UNL     1       4.999 -36.431  24.085  1.00  0.00     0.000 C 
BRANCH   9  10
ATOM     10  C   UNL     1       5.945 -35.383  23.464  1.00  0.00     0.006 C 
BRANCH  10  11
ATOM     11  C   UNL     1       5.283 -34.033  23.147  1.00  0.00     0.053 C 
BRANCH  11  12
ATOM     12  C   UNL     1       4.689 -34.008  21.772  1.00  0.00     0.041 C 
ATOM     13  O   UNL     1       5.390 -34.323  20.774  1.00  0.00    -0.550 OA
ATOM     14  O   UNL     1       3.373 -33.603  21.590  1.00  0.00    -0.550 OA
ENDBRANCH  11  12
ENDBRANCH  10  11
ENDBRANCH   9  10
ENDBRANCH   8   9
ENDBRANCH   1   8
TORSDOF 9
ENDMDL
MODEL 6
REMARK VINA RESULT:    -4.607      2.471      3.776
REMARK INTER + INTRA:          -7.747
REMARK INTER:                  -7.032
REMARK INTRA:                  -0.715
REMARK UNBOUND:                -0.715
REMARK SMILES O=C([O-])CCCCCCCCC(=O)[O-]
REMARK SMILES IDX 7 1 6 2 5 3 4 4 2 5 1 6 3 7 8 8 9 9 10 10 11 11 12 12 13 13
REMARK SMILES IDX 14 14
REMARK H PARENT
REMARK Flexibility Score: inf
ROOT
ATOM      1  C   UNL     1       5.125 -37.935  19.890  1.00  0.00     0.000 C 
ENDROOT
BRANCH   1   2
ATOM      2  C   UNL     1       5.404 -38.502  21.292  1.00  0.00     0.000 C 
BRANCH   2   3
ATOM      3  C   UNL     1       4.356 -38.063  22.329  1.00  0.00     0.006 C 
BRANCH   3   4
ATOM      4  C   UNL     1       4.731 -38.502  23.751  1.00  0.00     0.053 C 
BRANCH   4   5
ATOM      5  C   UNL     1       4.953 -37.327  24.654  1.00  0.00     0.041 C 
ATOM      6  O   UNL     1       5.760 -36.420  24.325  1.00  0.00    -0.550 OA
ATOM      7  O   UNL     1       4.242 -37.218  25.843  1.00  0.00    -0.550 OA
ENDBRANCH   4   5
ENDBRANCH   3   4
ENDBRANCH   2   3
ENDBRANCH   1   2
BRANCH   1   8
ATOM      8  C   UNL     1       4.112 -36.777  19.914  1.00  0.00     0.000 C 
BRANCH   8   9
ATOM      9  C   UNL     1       4.511 -35.612  18.990  1.00  0.00     0.000 C 
BRANCH   9  10
ATOM     10  C   UNL     1       5.354 -34.505  19.655  1.00  0.00     0.006 C 
BRANCH  10  11
ATOM     11  C   UNL     1       5.642 -34.731  21.148  1.00  0.00     0.053 C 
BRANCH  11  12
ATOM     12  C   UNL     1       4.842 -33.813  22.019  1.00  0.00     0.041 C 
ATOM     13  O   UNL     1       3.663 -33.505  21.701  1.00  0.00    -0.550 OA
ATOM     14  O   UNL     1       5.409 -33.269  23.165  1.00  0.00    -0.550 OA
ENDBRANCH  11  12
ENDBRANCH  10  11
ENDBRANCH   9  10
ENDBRANCH   8   9
ENDBRANCH   1   8
TORSDOF 9
ENDMDL
MODEL 7
REMARK VINA RESULT:    -4.596      1.645      6.518
REMARK INTER + INTRA:          -7.729
REMARK INTER:                  -7.479
REMARK INTRA:                  -0.250
REMARK UNBOUND:                -0.715
REMARK SMILES O=C([O-])CCCCCCCCC(=O)[O-]
REMARK SMILES IDX 7 1 6 2 5 3 4 4 2 5 1 6 3 7 8 8 9 9 10 10 11 11 12 12 13 13
REMARK SMILES IDX 14 14
REMARK H PARENT
REMARK Flexibility Score: inf
ROOT
ATOM      1  C   UNL     1       4.036 -35.717  19.539  1.00  0.00     0.000 C 
ENDROOT
BRANCH   1   2
ATOM      2  C   UNL     1       3.867 -37.098  18.884  1.00  0.00     0.000 C 
BRANCH   2   3
ATOM      3  C   UNL     1       2.775 -37.112  17.801  1.00  0.00     0.006 C 
BRANCH   3   4
ATOM      4  C   UNL     1       3.099 -36.161  16.640  1.00  0.00     0.053 C 
BRANCH   4   5
ATOM      5  C   UNL     1       2.920 -36.828  15.311  1.00  0.00     0.041 C 
ATOM      6  O   UNL     1       2.150 -36.327  14.450  1.00  0.00    -0.550 OA
ATOM      7  O   UNL     1       3.631 -37.983  15.010  1.00  0.00    -0.550 OA
ENDBRANCH   4   5
ENDBRANCH   3   4
ENDBRANCH   2   3
ENDBRANCH   1   2
BRANCH   1   8
ATOM      8  C   UNL     1       5.470 -35.477  20.043  1.00  0.00     0.000 C 
BRANCH   8   9
ATOM      9  C   UNL     1       5.519 -34.621  21.322  1.00  0.00     0.000 C 
BRANCH   9  10
ATOM     10  C   UNL     1       5.665 -35.413  22.638  1.00  0.00     0.006 C 
BRANCH  10  11
ATOM     11  C   UNL     1       4.810 -36.688  22.713  1.00  0.00     0.053 C 
BRANCH  11  12
ATOM     12  C   UNL     1       4.816 -37.287  24.086  1.00  0.00     0.041 C 
ATOM     13  O   UNL     1       4.995 -36.556  25.095  1.00  0.00    -0.550 OA
ATOM     14  O   UNL     1       4.656 -38.658  24.248  1.00  0.00    -0.550 OA
ENDBRANCH  11  12
ENDBRANCH  10  11
ENDBRANCH   9  10
ENDBRANCH   8   9
ENDBRANCH   1   8
TORSDOF 9
ENDMDL
MODEL 8
REMARK VINA RESULT:    -4.450      1.496      2.217
REMARK INTER + INTRA:          -7.507
REMARK INTER:                  -6.932
REMARK INTRA:                  -0.575
REMARK UNBOUND:                -0.715
REMARK SMILES O=C([O-])CCCCCCCCC(=O)[O-]
REMARK SMILES IDX 7 1 6 2 5 3 4 4 2 5 1 6 3 7 8 8 9 9 10 10 11 11 12 12 13 13
REMARK SMILES IDX 14 14
REMARK H PARENT
REMARK Flexibility Score: inf
ROOT
ATOM      1  C   UNL     1       6.125 -34.721  23.724  1.00  0.00     0.000 C 
ENDROOT
BRANCH   1   2
ATOM      2  C   UNL     1       5.984 -36.023  24.531  1.00  0.00     0.000 C 
BRANCH   2   3
ATOM      3  C   UNL     1       4.664 -36.759  24.244  1.00  0.00     0.006 C 
BRANCH   3   4
ATOM      4  C   UNL     1       4.853 -38.281  24.180  1.00  0.00     0.053 C 
BRANCH   4   5
ATOM      5  C   UNL     1       4.809 -38.787  22.771  1.00  0.00     0.041 C 
ATOM      6  O   UNL     1       5.197 -39.956  22.506  1.00  0.00    -0.550 OA
ATOM      7  O   UNL     1       4.309 -37.981  21.756  1.00  0.00    -0.550 OA
ENDBRANCH   4   5
ENDBRANCH   3   4
ENDBRANCH   2   3
ENDBRANCH   1   2
BRANCH   1   8
ATOM      8  C   UNL     1       5.924 -34.940  22.215  1.00  0.00     0.000 C 
BRANCH   8   9
ATOM      9  C   UNL     1       4.710 -34.176  21.655  1.00  0.00     0.000 C 
BRANCH   9  10
ATOM     10  C   UNL     1       4.610 -34.137  20.116  1.00  0.00     0.006 C 
BRANCH  10  11
ATOM     11  C   UNL     1       4.972 -35.459  19.420  1.00  0.00     0.053 C 
BRANCH  11  12
ATOM     12  C   UNL     1       3.847 -35.976  18.576  1.00  0.00     0.041 C 
ATOM     13  O   UNL     1       3.025 -36.802  19.054  1.00  0.00    -0.550 OA
ATOM     14  O   UNL     1       3.726 -35.570  17.253  1.00  0.00    -0.550 OA
ENDBRANCH  11  12
ENDBRANCH  10  11
ENDBRANCH   9  10
ENDBRANCH   8   9
ENDBRANCH   1   8
TORSDOF 9
ENDMDL
MODEL 9
REMARK VINA RESULT:    -4.405      2.425      5.501
REMARK INTER + INTRA:          -7.438
REMARK INTER:                  -6.833
REMARK INTRA:                  -0.605
REMARK UNBOUND:                -0.715
REMARK SMILES O=C([O-])CCCCCCCCC(=O)[O-]
REMARK SMILES IDX 7 1 6 2 5 3 4 4 2 5 1 6 3 7 8 8 9 9 10 10 11 11 12 12 13 13
REMARK SMILES IDX 14 14
REMARK H PARENT
REMARK Flexibility Score: inf
ROOT
ATOM      1  C   UNL     1       4.045 -37.599  19.638  1.00  0.00     0.000 C 
ENDROOT
BRANCH   1   2
ATOM      2  C   UNL     1       4.001 -36.168  19.077  1.00  0.00     0.000 C 
BRANCH   2   3
ATOM      3  C   UNL     1       5.186 -35.308  19.549  1.00  0.00     0.006 C 
BRANCH   3   4
ATOM      4  C   UNL     1       4.749 -33.893  19.953  1.00  0.00     0.053 C 
BRANCH   4   5
ATOM      5  C   UNL     1       4.344 -33.827  21.393  1.00  0.00     0.041 C 
ATOM      6  O   UNL     1       3.160 -33.536  21.705  1.00  0.00    -0.550 OA
ATOM      7  O   UNL     1       5.266 -34.120  22.390  1.00  0.00    -0.550 OA
ENDBRANCH   4   5
ENDBRANCH   3   4
ENDBRANCH   2   3
ENDBRANCH   1   2
BRANCH   1   8
ATOM      8  C   UNL     1       4.835 -37.690  20.955  1.00  0.00     0.000 C 
BRANCH   8   9
ATOM      9  C   UNL     1       4.206 -38.668  21.965  1.00  0.00     0.000 C 
BRANCH   9  10
ATOM     10  C   UNL     1       4.552 -38.399  23.443  1.00  0.00     0.006 C 
BRANCH  10  11
ATOM     11  C   UNL     1       5.534 -37.238  23.668  1.00  0.00     0.053 C 
BRANCH  11  12
ATOM     12  C   UNL     1       5.306 -36.557  24.983  1.00  0.00     0.041 C 
ATOM     13  O   UNL     1       6.023 -35.578  25.321  1.00  0.00    -0.550 OA
ATOM     14  O   UNL     1       4.325 -37.023  25.848  1.00  0.00    -0.550 OA
ENDBRANCH  11  12
ENDBRANCH  10  11
ENDBRANCH   9  10
ENDBRANCH   8   9
ENDBRANCH   1   8
TORSDOF 9
ENDMDL
