MODEL 1
REMARK VINA RESULT:    -5.174      0.000      0.000
REMARK INTER + INTRA:          -6.347
REMARK INTER:                  -6.081
REMARK INTRA:                  -0.266
REMARK UNBOUND:                -0.266
REMARK SMILES O=c1cc(-c2ccc(O)c(O)c2)oc2cc(O)cc(O)c12
REMARK SMILES IDX 4 1 3 2 2 3 1 4 21 5 19 6 18 7 16 8 15 9 14 10 13 11 5 12
REMARK SMILES IDX 6 13 7 14 8 15 12 16 10 17 9 18 11 20 20 22 17 24
REMARK H PARENT 9 19 11 21 20 23 17 25
REMARK Flexibility Score: inf
ROOT
ATOM      1  C   UNL     1       8.415  10.316   7.206  1.00  0.00     0.138 A 
ATOM      2  C   UNL     1       8.661  11.668   7.500  1.00  0.00     0.100 A 
ATOM      3  C   UNL     1       7.596  12.503   7.842  1.00  0.00     0.197 A 
ATOM      4  O   UNL     1       7.827  13.714   8.102  1.00  0.00    -0.289 OA
ATOM      5  C   UNL     1       6.289  11.979   7.883  1.00  0.00     0.107 A 
ATOM      6  C   UNL     1       5.154  12.754   8.221  1.00  0.00     0.134 A 
ATOM      7  C   UNL     1       3.883  12.158   8.235  1.00  0.00     0.093 A 
ATOM      8  C   UNL     1       3.727  10.807   7.919  1.00  0.00     0.123 A 
ATOM      9  C   UNL     1       4.845  10.036   7.584  1.00  0.00     0.094 A 
ATOM     10  C   UNL     1       6.119  10.609   7.565  1.00  0.00     0.146 A 
ATOM     11  O   UNL     1       7.166   9.856   7.246  1.00  0.00    -0.456 OA
ENDROOT
BRANCH   1  12
ATOM     12  C   UNL     1       9.509   9.383   6.837  1.00  0.00     0.021 A 
ATOM     13  C   UNL     1       9.774   8.220   7.584  1.00  0.00     0.016 A 
ATOM     14  C   UNL     1      10.804   7.355   7.208  1.00  0.00     0.051 A 
ATOM     15  C   UNL     1      11.581   7.628   6.078  1.00  0.00     0.157 A 
ATOM     16  C   UNL     1      10.285   9.646   5.694  1.00  0.00     0.062 A 
ATOM     17  C   UNL     1      11.321   8.778   5.315  1.00  0.00     0.158 A 
BRANCH  15  18
ATOM     18  O   UNL     1      12.602   6.747   5.728  1.00  0.00    -0.504 OA
ATOM     19  H   UNL     1      13.307   6.448   6.392  1.00  0.00     0.293 HD
ENDBRANCH  15  18
BRANCH  17  20
ATOM     20  O   UNL     1      12.088   9.055   4.185  1.00  0.00    -0.504 OA
ATOM     21  H   UNL     1      12.830   8.435   3.882  1.00  0.00     0.293 HD
ENDBRANCH  17  20
ENDBRANCH   1  12
BRANCH   6  22
ATOM     22  O   UNL     1       5.278  14.107   8.542  1.00  0.00    -0.507 OA
ATOM     23  H   UNL     1       4.599  14.582   9.124  1.00  0.00     0.293 HD
ENDBRANCH   6  22
BRANCH   8  24
ATOM     24  O   UNL     1       2.454  10.240   7.939  1.00  0.00    -0.508 OA
ATOM     25  H   UNL     1       1.763  10.514   8.628  1.00  0.00     0.293 HD
ENDBRANCH   8  24
TORSDOF 5
ENDMDL
MODEL 2
REMARK VINA RESULT:    -5.006      2.219      2.826
REMARK INTER + INTRA:          -6.150
REMARK INTER:                  -5.886
REMARK INTRA:                  -0.264
REMARK UNBOUND:                -0.266
REMARK SMILES O=c1cc(-c2ccc(O)c(O)c2)oc2cc(O)cc(O)c12
REMARK SMILES IDX 4 1 3 2 2 3 1 4 21 5 19 6 18 7 16 8 15 9 14 10 13 11 5 12
REMARK SMILES IDX 6 13 7 14 8 15 12 16 10 17 9 18 11 20 20 22 17 24
REMARK H PARENT 9 19 11 21 20 23 17 25
REMARK Flexibility Score: inf
ROOT
ATOM      1  C   UNL     1       7.940  11.245   7.919  1.00  0.00     0.138 A 
ATOM      2  C   UNL     1       8.499  11.479   9.187  1.00  0.00     0.100 A 
ATOM      3  C   UNL     1       8.006  12.520   9.975  1.00  0.00     0.197 A 
ATOM      4  O   UNL     1       8.516  12.722  11.110  1.00  0.00    -0.289 OA
ATOM      5  C   UNL     1       6.958  13.325   9.486  1.00  0.00     0.107 A 
ATOM      6  C   UNL     1       6.399  14.398  10.219  1.00  0.00     0.134 A 
ATOM      7  C   UNL     1       5.359  15.156   9.660  1.00  0.00     0.093 A 
ATOM      8  C   UNL     1       4.869  14.861   8.385  1.00  0.00     0.123 A 
ATOM      9  C   UNL     1       5.417  13.801   7.656  1.00  0.00     0.094 A 
ATOM     10  C   UNL     1       6.453  13.033   8.196  1.00  0.00     0.146 A 
ATOM     11  O   UNL     1       6.956  12.030   7.484  1.00  0.00    -0.456 OA
ENDROOT
BRANCH   1  12
ATOM     12  C   UNL     1       8.424  10.152   7.038  1.00  0.00     0.021 A 
ATOM     13  C   UNL     1       7.667   8.986   6.821  1.00  0.00     0.016 A 
ATOM     14  C   UNL     1       8.144   7.978   5.980  1.00  0.00     0.051 A 
ATOM     15  C   UNL     1       9.376   8.117   5.335  1.00  0.00     0.157 A 
ATOM     16  C   UNL     1       9.657  10.293   6.378  1.00  0.00     0.062 A 
ATOM     17  C   UNL     1      10.138   9.281   5.532  1.00  0.00     0.158 A 
BRANCH  15  18
ATOM     18  O   UNL     1       9.826   7.094   4.503  1.00  0.00    -0.504 OA
ATOM     19  H   UNL     1       9.192   6.538   3.941  1.00  0.00     0.293 HD
ENDBRANCH  15  18
BRANCH  17  20
ATOM     20  O   UNL     1      11.365   9.428   4.890  1.00  0.00    -0.504 OA
ATOM     21  H   UNL     1      12.184   8.908   5.183  1.00  0.00     0.293 HD
ENDBRANCH  17  20
ENDBRANCH   1  12
BRANCH   6  22
ATOM     22  O   UNL     1       6.868  14.717  11.494  1.00  0.00    -0.507 OA
ATOM     23  H   UNL     1       6.477  14.294  12.328  1.00  0.00     0.293 HD
ENDBRANCH   6  22
BRANCH   8  24
ATOM     24  O   UNL     1       3.836  15.630   7.852  1.00  0.00    -0.508 OA
ATOM     25  H   UNL     1       2.944  15.720   8.326  1.00  0.00     0.293 HD
ENDBRANCH   8  24
TORSDOF 5
ENDMDL
MODEL 3
REMARK VINA RESULT:    -4.938      1.581      7.239
REMARK INTER + INTRA:          -6.069
REMARK INTER:                  -5.802
REMARK INTRA:                  -0.268
REMARK UNBOUND:                -0.266
REMARK SMILES O=c1cc(-c2ccc(O)c(O)c2)oc2cc(O)cc(O)c12
REMARK SMILES IDX 4 1 3 2 2 3 1 4 21 5 19 6 18 7 16 8 15 9 14 10 13 11 5 12
REMARK SMILES IDX 6 13 7 14 8 15 12 16 10 17 9 18 11 20 20 22 17 24
REMARK H PARENT 9 19 11 21 20 23 17 25
REMARK Flexibility Score: inf
ROOT
ATOM      1  C   UNL     1       7.082  10.666   7.772  1.00  0.00     0.138 A 
ATOM      2  C   UNL     1       7.164   9.689   8.778  1.00  0.00     0.100 A 
ATOM      3  C   UNL     1       8.206   8.761   8.753  1.00  0.00     0.197 A 
ATOM      4  O   UNL     1       8.270   7.888   9.660  1.00  0.00    -0.289 OA
ATOM      5  C   UNL     1       9.158   8.814   7.715  1.00  0.00     0.107 A 
ATOM      6  C   UNL     1      10.244   7.913   7.615  1.00  0.00     0.134 A 
ATOM      7  C   UNL     1      11.148   8.028   6.546  1.00  0.00     0.093 A 
ATOM      8  C   UNL     1      10.984   9.025   5.581  1.00  0.00     0.123 A 
ATOM      9  C   UNL     1       9.912   9.918   5.675  1.00  0.00     0.094 A 
ATOM     10  C   UNL     1       9.002   9.820   6.732  1.00  0.00     0.146 A 
ATOM     11  O   UNL     1       7.993  10.682   6.801  1.00  0.00    -0.456 OA
ENDROOT
BRANCH   1  12
ATOM     12  C   UNL     1       5.996  11.678   7.749  1.00  0.00     0.021 A 
ATOM     13  C   UNL     1       6.271  13.058   7.709  1.00  0.00     0.016 A 
ATOM     14  C   UNL     1       5.229  13.987   7.680  1.00  0.00     0.051 A 
ATOM     15  C   UNL     1       3.898  13.560   7.680  1.00  0.00     0.157 A 
ATOM     16  C   UNL     1       4.656  11.253   7.737  1.00  0.00     0.062 A 
ATOM     17  C   UNL     1       3.608  12.186   7.707  1.00  0.00     0.158 A 
BRANCH  15  18
ATOM     18  O   UNL     1       2.880  14.511   7.651  1.00  0.00    -0.504 OA
ATOM     19  H   UNL     1       2.135  14.483   6.964  1.00  0.00     0.293 HD
ENDBRANCH  15  18
BRANCH  17  20
ATOM     20  O   UNL     1       2.284  11.752   7.704  1.00  0.00    -0.504 OA
ATOM     21  H   UNL     1       1.789  11.550   8.564  1.00  0.00     0.293 HD
ENDBRANCH  17  20
ENDBRANCH   1  12
BRANCH   6  22
ATOM     22  O   UNL     1      10.434   6.907   8.563  1.00  0.00    -0.507 OA
ATOM     23  H   UNL     1      10.843   6.013   8.319  1.00  0.00     0.293 HD
ENDBRANCH   6  22
BRANCH   8  24
ATOM     24  O   UNL     1      11.895   9.117   4.530  1.00  0.00    -0.508 OA
ATOM     25  H   UNL     1      12.825   8.722   4.599  1.00  0.00     0.293 HD
ENDBRANCH   8  24
TORSDOF 5
ENDMDL
MODEL 4
REMARK VINA RESULT:    -4.734      2.245      7.201
REMARK INTER + INTRA:          -5.830
REMARK INTER:                  -5.548
REMARK INTRA:                  -0.282
REMARK UNBOUND:                -0.266
REMARK SMILES O=c1cc(-c2ccc(O)c(O)c2)oc2cc(O)cc(O)c12
REMARK SMILES IDX 4 1 3 2 2 3 1 4 21 5 19 6 18 7 16 8 15 9 14 10 13 11 5 12
REMARK SMILES IDX 6 13 7 14 8 15 12 16 10 17 9 18 11 20 20 22 17 24
REMARK H PARENT 9 19 11 21 20 23 17 25
REMARK Flexibility Score: inf
ROOT
ATOM      1  C   UNL     1       8.058  11.213   8.399  1.00  0.00     0.138 A 
ATOM      2  C   UNL     1       8.281  10.287   9.431  1.00  0.00     0.100 A 
ATOM      3  C   UNL     1       9.079   9.167   9.190  1.00  0.00     0.197 A 
ATOM      4  O   UNL     1       9.272   8.341  10.122  1.00  0.00    -0.289 OA
ATOM      5  C   UNL     1       9.645   8.980   7.913  1.00  0.00     0.107 A 
ATOM      6  C   UNL     1      10.466   7.875   7.585  1.00  0.00     0.134 A 
ATOM      7  C   UNL     1      10.989   7.758   6.287  1.00  0.00     0.093 A 
ATOM      8  C   UNL     1      10.707   8.722   5.316  1.00  0.00     0.123 A 
ATOM      9  C   UNL     1       9.896   9.817   5.636  1.00  0.00     0.094 A 
ATOM     10  C   UNL     1       9.367   9.953   6.922  1.00  0.00     0.146 A 
ATOM     11  O   UNL     1       8.601  11.002   7.201  1.00  0.00    -0.456 OA
ENDROOT
BRANCH   1  12
ATOM     12  C   UNL     1       7.219  12.422   8.598  1.00  0.00     0.021 A 
ATOM     13  C   UNL     1       6.380  12.916   7.582  1.00  0.00     0.016 A 
ATOM     14  C   UNL     1       5.594  14.050   7.801  1.00  0.00     0.051 A 
ATOM     15  C   UNL     1       5.623  14.704   9.036  1.00  0.00     0.157 A 
ATOM     16  C   UNL     1       7.234  13.076   9.843  1.00  0.00     0.062 A 
ATOM     17  C   UNL     1       6.446  14.216  10.064  1.00  0.00     0.158 A 
BRANCH  15  18
ATOM     18  O   UNL     1       4.828  15.834   9.224  1.00  0.00    -0.504 OA
ATOM     19  H   UNL     1       5.206  16.773   9.177  1.00  0.00     0.293 HD
ENDBRANCH  15  18
BRANCH  17  20
ATOM     20  O   UNL     1       6.477  14.860  11.299  1.00  0.00    -0.504 OA
ATOM     21  H   UNL     1       7.065  14.531  12.055  1.00  0.00     0.293 HD
ENDBRANCH  17  20
ENDBRANCH   1  12
BRANCH   6  22
ATOM     22  O   UNL     1      10.765   6.896   8.532  1.00  0.00    -0.507 OA
ATOM     23  H   UNL     1      10.319   6.879   9.442  1.00  0.00     0.293 HD
ENDBRANCH   6  22
BRANCH   8  24
ATOM     24  O   UNL     1      11.238   8.582   4.036  1.00  0.00    -0.508 OA
ATOM     25  H   UNL     1      10.915   7.858   3.405  1.00  0.00     0.293 HD
ENDBRANCH   8  24
TORSDOF 5
ENDMDL
MODEL 5
REMARK VINA RESULT:    -4.720      0.711      1.538
REMARK INTER + INTRA:          -5.813
REMARK INTER:                  -5.543
REMARK INTRA:                  -0.270
REMARK UNBOUND:                -0.266
REMARK SMILES O=c1cc(-c2ccc(O)c(O)c2)oc2cc(O)cc(O)c12
REMARK SMILES IDX 4 1 3 2 2 3 1 4 21 5 19 6 18 7 16 8 15 9 14 10 13 11 5 12
REMARK SMILES IDX 6 13 7 14 8 15 12 16 10 17 9 18 11 20 20 22 17 24
REMARK H PARENT 9 19 11 21 20 23 17 25
REMARK Flexibility Score: inf
ROOT
ATOM      1  C   UNL     1       8.404  10.294   7.230  1.00  0.00     0.138 A 
ATOM      2  C   UNL     1       8.684  11.645   7.496  1.00  0.00     0.100 A 
ATOM      3  C   UNL     1       7.639  12.517   7.805  1.00  0.00     0.197 A 
ATOM      4  O   UNL     1       7.902  13.727   8.041  1.00  0.00    -0.289 OA
ATOM      5  C   UNL     1       6.317  12.031   7.840  1.00  0.00     0.107 A 
ATOM      6  C   UNL     1       5.201  12.846   8.145  1.00  0.00     0.134 A 
ATOM      7  C   UNL     1       3.913  12.286   8.155  1.00  0.00     0.093 A 
ATOM      8  C   UNL     1       3.723  10.933   7.866  1.00  0.00     0.123 A 
ATOM      9  C   UNL     1       4.823  10.123   7.565  1.00  0.00     0.094 A 
ATOM     10  C   UNL     1       6.113  10.660   7.551  1.00  0.00     0.146 A 
ATOM     11  O   UNL     1       7.142   9.870   7.263  1.00  0.00    -0.456 OA
ENDROOT
BRANCH   1  12
ATOM     12  C   UNL     1       9.476   9.322   6.897  1.00  0.00     0.021 A 
ATOM     13  C   UNL     1      10.134   9.344   5.653  1.00  0.00     0.016 A 
ATOM     14  C   UNL     1      11.145   8.423   5.370  1.00  0.00     0.051 A 
ATOM     15  C   UNL     1      11.523   7.471   6.322  1.00  0.00     0.157 A 
ATOM     16  C   UNL     1       9.868   8.371   7.855  1.00  0.00     0.062 A 
ATOM     17  C   UNL     1      10.884   7.445   7.572  1.00  0.00     0.158 A 
BRANCH  15  18
ATOM     18  O   UNL     1      12.535   6.565   6.010  1.00  0.00    -0.504 OA
ATOM     19  H   UNL     1      12.619   5.670   6.477  1.00  0.00     0.293 HD
ENDBRANCH  15  18
BRANCH  17  20
ATOM     20  O   UNL     1      11.257   6.501   8.527  1.00  0.00    -0.504 OA
ATOM     21  H   UNL     1      11.278   5.511   8.316  1.00  0.00     0.293 HD
ENDBRANCH  17  20
ENDBRANCH   1  12
BRANCH   6  22
ATOM     22  O   UNL     1       5.359  14.201   8.436  1.00  0.00    -0.507 OA
ATOM     23  H   UNL     1       4.657  14.723   8.948  1.00  0.00     0.293 HD
ENDBRANCH   6  22
BRANCH   8  24
ATOM     24  O   UNL     1       2.435  10.403   7.882  1.00  0.00    -0.508 OA
ATOM     25  H   UNL     1       2.233   9.489   7.492  1.00  0.00     0.293 HD
ENDBRANCH   8  24
TORSDOF 5
ENDMDL
MODEL 6
REMARK VINA RESULT:    -4.695      2.745      3.710
REMARK INTER + INTRA:          -5.784
REMARK INTER:                  -5.519
REMARK INTRA:                  -0.265
REMARK UNBOUND:                -0.266
REMARK SMILES O=c1cc(-c2ccc(O)c(O)c2)oc2cc(O)cc(O)c12
REMARK SMILES IDX 4 1 3 2 2 3 1 4 21 5 19 6 18 7 16 8 15 9 14 10 13 11 5 12
REMARK SMILES IDX 6 13 7 14 8 15 12 16 10 17 9 18 11 20 20 22 17 24
REMARK H PARENT 9 19 11 21 20 23 17 25
REMARK Flexibility Score: inf
ROOT
ATOM      1  C   UNL     1       7.852  11.368   8.133  1.00  0.00     0.138 A 
ATOM      2  C   UNL     1       7.006  12.402   7.700  1.00  0.00     0.100 A 
ATOM      3  C   UNL     1       6.612  13.391   8.603  1.00  0.00     0.197 A 
ATOM      4  O   UNL     1       5.852  14.314   8.205  1.00  0.00    -0.289 OA
ATOM      5  C   UNL     1       7.064  13.334   9.937  1.00  0.00     0.107 A 
ATOM      6  C   UNL     1       6.713  14.295  10.914  1.00  0.00     0.134 A 
ATOM      7  C   UNL     1       7.201  14.165  12.224  1.00  0.00     0.093 A 
ATOM      8  C   UNL     1       8.030  13.097  12.571  1.00  0.00     0.123 A 
ATOM      9  C   UNL     1       8.380  12.144  11.609  1.00  0.00     0.094 A 
ATOM     10  C   UNL     1       7.906  12.255  10.299  1.00  0.00     0.146 A 
ATOM     11  O   UNL     1       8.254  11.339   9.402  1.00  0.00    -0.456 OA
ENDROOT
BRANCH   1  12
ATOM     12  C   UNL     1       8.304  10.290   7.217  1.00  0.00     0.021 A 
ATOM     13  C   UNL     1       7.523   9.142   6.982  1.00  0.00     0.016 A 
ATOM     14  C   UNL     1       7.969   8.148   6.108  1.00  0.00     0.051 A 
ATOM     15  C   UNL     1       9.193   8.283   5.447  1.00  0.00     0.157 A 
ATOM     16  C   UNL     1       9.529  10.426   6.540  1.00  0.00     0.062 A 
ATOM     17  C   UNL     1       9.978   9.428   5.662  1.00  0.00     0.158 A 
BRANCH  15  18
ATOM     18  O   UNL     1       9.612   7.274   4.582  1.00  0.00    -0.504 OA
ATOM     19  H   UNL     1       9.108   6.400   4.489  1.00  0.00     0.293 HD
ENDBRANCH  15  18
BRANCH  17  20
ATOM     20  O   UNL     1      11.198   9.571   5.004  1.00  0.00    -0.504 OA
ATOM     21  H   UNL     1      11.486   8.931   4.273  1.00  0.00     0.293 HD
ENDBRANCH  17  20
ENDBRANCH   1  12
BRANCH   6  22
ATOM     22  O   UNL     1       5.886  15.374  10.597  1.00  0.00    -0.507 OA
ATOM     23  H   UNL     1       4.934  15.241  10.279  1.00  0.00     0.293 HD
ENDBRANCH   6  22
BRANCH   8  24
ATOM     24  O   UNL     1       8.501  12.990  13.879  1.00  0.00    -0.508 OA
ATOM     25  H   UNL     1       7.909  12.652  14.629  1.00  0.00     0.293 HD
ENDBRANCH   8  24
TORSDOF 5
ENDMDL
MODEL 7
REMARK VINA RESULT:    -4.645     11.061     12.091
REMARK INTER + INTRA:          -5.726
REMARK INTER:                  -5.433
REMARK INTRA:                  -0.293
REMARK UNBOUND:                -0.266
REMARK SMILES O=c1cc(-c2ccc(O)c(O)c2)oc2cc(O)cc(O)c12
REMARK SMILES IDX 4 1 3 2 2 3 1 4 21 5 19 6 18 7 16 8 15 9 14 10 13 11 5 12
REMARK SMILES IDX 6 13 7 14 8 15 12 16 10 17 9 18 11 20 20 22 17 24
REMARK H PARENT 9 19 11 21 20 23 17 25
REMARK Flexibility Score: inf
ROOT
ATOM      1  C   UNL     1      14.704  13.031  -1.546  1.00  0.00     0.138 A 
ATOM      2  C   UNL     1      13.619  12.187  -1.836  1.00  0.00     0.100 A 
ATOM      3  C   UNL     1      12.493  12.709  -2.475  1.00  0.00     0.197 A 
ATOM      4  O   UNL     1      11.525  11.943  -2.730  1.00  0.00    -0.289 OA
ATOM      5  C   UNL     1      12.459  14.076  -2.816  1.00  0.00     0.107 A 
ATOM      6  C   UNL     1      11.359  14.684  -3.466  1.00  0.00     0.134 A 
ATOM      7  C   UNL     1      11.400  16.054  -3.768  1.00  0.00     0.093 A 
ATOM      8  C   UNL     1      12.517  16.823  -3.433  1.00  0.00     0.123 A 
ATOM      9  C   UNL     1      13.607  16.227  -2.791  1.00  0.00     0.094 A 
ATOM     10  C   UNL     1      13.587  14.864  -2.483  1.00  0.00     0.146 A 
ATOM     11  O   UNL     1      14.635  14.320  -1.875  1.00  0.00    -0.456 OA
ENDROOT
BRANCH   1  12
ATOM     12  C   UNL     1      15.926  12.531  -0.868  1.00  0.00     0.021 A 
ATOM     13  C   UNL     1      17.103  13.301  -0.802  1.00  0.00     0.016 A 
ATOM     14  C   UNL     1      18.236  12.808  -0.149  1.00  0.00     0.051 A 
ATOM     15  C   UNL     1      18.214  11.548   0.454  1.00  0.00     0.157 A 
ATOM     16  C   UNL     1      15.906  11.269  -0.249  1.00  0.00     0.062 A 
ATOM     17  C   UNL     1      17.043  10.773   0.407  1.00  0.00     0.158 A 
BRANCH  15  18
ATOM     18  O   UNL     1      19.360  11.083   1.097  1.00  0.00    -0.504 OA
ATOM     19  H   UNL     1      20.032  11.711   1.521  1.00  0.00     0.293 HD
ENDBRANCH  15  18
BRANCH  17  20
ATOM     20  O   UNL     1      17.012   9.517   1.010  1.00  0.00    -0.504 OA
ATOM     21  H   UNL     1      16.283   8.846   0.801  1.00  0.00     0.293 HD
ENDBRANCH  17  20
ENDBRANCH   1  12
BRANCH   6  22
ATOM     22  O   UNL     1      10.229  13.942  -3.812  1.00  0.00    -0.507 OA
ATOM     23  H   UNL     1      10.263  13.214  -4.517  1.00  0.00     0.293 HD
ENDBRANCH   6  22
BRANCH   8  24
ATOM     24  O   UNL     1      12.532  18.182  -3.743  1.00  0.00    -0.508 OA
ATOM     25  H   UNL     1      13.013  18.533  -4.563  1.00  0.00     0.293 HD
ENDBRANCH   8  24
TORSDOF 5
ENDMDL
MODEL 8
REMARK VINA RESULT:    -4.645      1.097      2.648
REMARK INTER + INTRA:          -5.726
REMARK INTER:                  -5.444
REMARK INTRA:                  -0.282
REMARK UNBOUND:                -0.266
REMARK SMILES O=c1cc(-c2ccc(O)c(O)c2)oc2cc(O)cc(O)c12
REMARK SMILES IDX 4 1 3 2 2 3 1 4 21 5 19 6 18 7 16 8 15 9 14 10 13 11 5 12
REMARK SMILES IDX 6 13 7 14 8 15 12 16 10 17 9 18 11 20 20 22 17 24
REMARK H PARENT 9 19 11 21 20 23 17 25
REMARK Flexibility Score: inf
ROOT
ATOM      1  C   UNL     1       7.766   9.838   7.236  1.00  0.00     0.138 A 
ATOM      2  C   UNL     1       6.504   9.223   7.221  1.00  0.00     0.100 A 
ATOM      3  C   UNL     1       5.370   9.973   7.535  1.00  0.00     0.197 A 
ATOM      4  O   UNL     1       4.241   9.411   7.520  1.00  0.00    -0.289 OA
ATOM      5  C   UNL     1       5.508  11.335   7.868  1.00  0.00     0.107 A 
ATOM      6  C   UNL     1       4.412  12.167   8.198  1.00  0.00     0.134 A 
ATOM      7  C   UNL     1       4.633  13.514   8.523  1.00  0.00     0.093 A 
ATOM      8  C   UNL     1       5.927  14.042   8.524  1.00  0.00     0.123 A 
ATOM      9  C   UNL     1       7.014  13.224   8.199  1.00  0.00     0.094 A 
ATOM     10  C   UNL     1       6.814  11.881   7.871  1.00  0.00     0.146 A 
ATOM     11  O   UNL     1       7.863  11.125   7.564  1.00  0.00    -0.456 OA
ENDROOT
BRANCH   1  12
ATOM     12  C   UNL     1       9.007   9.089   6.911  1.00  0.00     0.021 A 
ATOM     13  C   UNL     1       9.362   7.912   7.595  1.00  0.00     0.016 A 
ATOM     14  C   UNL     1      10.530   7.223   7.261  1.00  0.00     0.051 A 
ATOM     15  C   UNL     1      11.359   7.689   6.237  1.00  0.00     0.157 A 
ATOM     16  C   UNL     1       9.838   9.546   5.872  1.00  0.00     0.062 A 
ATOM     17  C   UNL     1      11.012   8.855   5.536  1.00  0.00     0.158 A 
BRANCH  15  18
ATOM     18  O   UNL     1      12.519   6.980   5.927  1.00  0.00    -0.504 OA
ATOM     19  H   UNL     1      12.595   5.981   6.074  1.00  0.00     0.293 HD
ENDBRANCH  15  18
BRANCH  17  20
ATOM     20  O   UNL     1      11.831   9.324   4.511  1.00  0.00    -0.504 OA
ATOM     21  H   UNL     1      12.622   8.787   4.176  1.00  0.00     0.293 HD
ENDBRANCH  17  20
ENDBRANCH   1  12
BRANCH   6  22
ATOM     22  O   UNL     1       3.108  11.668   8.206  1.00  0.00    -0.507 OA
ATOM     23  H   UNL     1       2.481  11.801   7.421  1.00  0.00     0.293 HD
ENDBRANCH   6  22
BRANCH   8  24
ATOM     24  O   UNL     1       6.120  15.383   8.852  1.00  0.00    -0.508 OA
ATOM     25  H   UNL     1       6.597  15.657   9.703  1.00  0.00     0.293 HD
ENDBRANCH   8  24
TORSDOF 5
ENDMDL
MODEL 9
REMARK VINA RESULT:    -4.564      3.330      4.412
REMARK INTER + INTRA:          -5.630
REMARK INTER:                  -5.365
REMARK INTRA:                  -0.265
REMARK UNBOUND:                -0.266
REMARK SMILES O=c1cc(-c2ccc(O)c(O)c2)oc2cc(O)cc(O)c12
REMARK SMILES IDX 4 1 3 2 2 3 1 4 21 5 19 6 18 7 16 8 15 9 14 10 13 11 5 12
REMARK SMILES IDX 6 13 7 14 8 15 12 16 10 17 9 18 11 20 20 22 17 24
REMARK H PARENT 9 19 11 21 20 23 17 25
REMARK Flexibility Score: inf
ROOT
ATOM      1  C   UNL     1       8.478   9.416   7.367  1.00  0.00     0.138 A 
ATOM      2  C   UNL     1       8.295  10.809   7.390  1.00  0.00     0.100 A 
ATOM      3  C   UNL     1       8.500  11.510   8.580  1.00  0.00     0.197 A 
ATOM      4  O   UNL     1       8.332  12.759   8.590  1.00  0.00    -0.289 OA
ATOM      5  C   UNL     1       8.882  10.809   9.741  1.00  0.00     0.107 A 
ATOM      6  C   UNL     1       9.111  11.442  10.986  1.00  0.00     0.134 A 
ATOM      7  C   UNL     1       9.485  10.672  12.099  1.00  0.00     0.093 A 
ATOM      8  C   UNL     1       9.633   9.288  11.989  1.00  0.00     0.123 A 
ATOM      9  C   UNL     1       9.409   8.658  10.761  1.00  0.00     0.094 A 
ATOM     10  C   UNL     1       9.037   9.406   9.641  1.00  0.00     0.146 A 
ATOM     11  O   UNL     1       8.831   8.784   8.485  1.00  0.00    -0.456 OA
ENDROOT
BRANCH   1  12
ATOM     12  C   UNL     1       8.274   8.620   6.130  1.00  0.00     0.021 A 
ATOM     13  C   UNL     1       7.290   7.617   6.050  1.00  0.00     0.016 A 
ATOM     14  C   UNL     1       7.115   6.889   4.870  1.00  0.00     0.051 A 
ATOM     15  C   UNL     1       7.908   7.154   3.750  1.00  0.00     0.157 A 
ATOM     16  C   UNL     1       9.061   8.890   4.997  1.00  0.00     0.062 A 
ATOM     17  C   UNL     1       8.886   8.160   3.811  1.00  0.00     0.158 A 
BRANCH  15  18
ATOM     18  O   UNL     1       7.710   6.410   2.588  1.00  0.00    -0.504 OA
ATOM     19  H   UNL     1       7.912   5.419   2.541  1.00  0.00     0.293 HD
ENDBRANCH  15  18
BRANCH  17  20
ATOM     20  O   UNL     1       9.678   8.432   2.698  1.00  0.00    -0.504 OA
ATOM     21  H   UNL     1      10.501   9.019   2.762  1.00  0.00     0.293 HD
ENDBRANCH  17  20
ENDBRANCH   1  12
BRANCH   6  22
ATOM     22  O   UNL     1       8.970  12.823  11.127  1.00  0.00    -0.507 OA
ATOM     23  H   UNL     1       8.098  13.243  11.427  1.00  0.00     0.293 HD
ENDBRANCH   6  22
BRANCH   8  24
ATOM     24  O   UNL     1      10.005   8.547  13.110  1.00  0.00    -0.508 OA
ATOM     25  H   UNL     1       9.330   8.285  13.819  1.00  0.00     0.293 HD
ENDBRANCH   8  24
TORSDOF 5
ENDMDL
