MODEL 1
REMARK VINA RESULT:    -5.588      0.000      0.000
REMARK INTER + INTRA:          -9.905
REMARK INTER:                  -8.528
REMARK INTRA:                  -1.376
REMARK UNBOUND:                -1.376
REMARK SMILES CC(=O)CCC=C(C)CCC=C(C)CCC=C(C)C
REMARK SMILES IDX 10 1 11 2 12 3 13 4 14 5 15 6 16 7 18 8 17 9 19 10 9 11 7 12
REMARK SMILES IDX 6 13 8 14 5 15 4 16 2 17 3 18 1 19
REMARK H PARENT
REMARK Flexibility Score: inf
ROOT
ATOM      1  C   UNL     1       8.776  22.517  56.674  1.00  0.00     0.032 C 
ENDROOT
BRANCH   1   2
ATOM      2  C   UNL     1       9.832  21.536  57.119  1.00  0.00    -0.028 C 
ATOM      3  C   UNL     1       9.758  20.197  56.933  1.00  0.00    -0.077 C 
ATOM      4  C   UNL     1       8.545  19.542  56.318  1.00  0.00     0.039 C 
BRANCH   3   5
ATOM      5  C   UNL     1      10.892  19.318  57.418  1.00  0.00     0.034 C 
BRANCH   5   6
ATOM      6  C   UNL     1      10.428  18.346  58.512  1.00  0.00     0.032 C 
BRANCH   6   7
ATOM      7  C   UNL     1      10.206  19.044  59.833  1.00  0.00    -0.028 C 
ATOM      8  C   UNL     1       8.961  19.816  61.805  1.00  0.00     0.039 C 
ATOM      9  C   UNL     1       9.015  19.127  60.465  1.00  0.00    -0.080 C 
ATOM     10  C   UNL     1       7.746  18.572  59.862  1.00  0.00     0.039 C 
ENDBRANCH   6   7
ENDBRANCH   5   6
ENDBRANCH   3   5
ENDBRANCH   1   2
BRANCH   1  11
ATOM     11  C   UNL     1       9.097  23.067  55.280  1.00  0.00     0.034 C 
BRANCH  11  12
ATOM     12  C   UNL     1       8.079  24.106  54.867  1.00  0.00    -0.077 C 
ATOM     13  C   UNL     1       7.959  25.237  55.599  1.00  0.00    -0.028 C 
ATOM     14  C   UNL     1       7.206  23.839  53.662  1.00  0.00     0.039 C 
BRANCH  13  15
ATOM     15  C   UNL     1       7.010  26.369  55.281  1.00  0.00     0.035 C 
BRANCH  15  16
ATOM     16  C   UNL     1       5.692  26.254  56.060  1.00  0.00     0.079 C 
BRANCH  16  17
ATOM     17  C   UNL     1       4.507  26.131  55.136  1.00  0.00     0.130 C 
ATOM     18  O   UNL     1       3.445  25.707  55.570  1.00  0.00    -0.300 OA
ATOM     19  C   UNL     1       4.596  26.532  53.694  1.00  0.00     0.087 C 
ENDBRANCH  16  17
ENDBRANCH  15  16
ENDBRANCH  13  15
ENDBRANCH  11  12
ENDBRANCH   1  11
TORSDOF 9
ENDMDL
MODEL 2
REMARK VINA RESULT:    -5.504      5.370      7.750
REMARK INTER + INTRA:          -9.776
REMARK INTER:                  -8.307
REMARK INTRA:                  -1.469
REMARK UNBOUND:                -1.376
REMARK SMILES CC(=O)CCC=C(C)CCC=C(C)CCC=C(C)C
REMARK SMILES IDX 10 1 11 2 12 3 13 4 14 5 15 6 16 7 18 8 17 9 19 10 9 11 7 12
REMARK SMILES IDX 6 13 8 14 5 15 4 16 2 17 3 18 1 19
REMARK H PARENT
REMARK Flexibility Score: inf
ROOT
ATOM      1  C   UNL     1      14.095  19.494  57.225  1.00  0.00     0.032 C 
ENDROOT
BRANCH   1   2
ATOM      2  C   UNL     1      13.103  18.814  58.134  1.00  0.00    -0.028 C 
ATOM      3  C   UNL     1      11.760  18.968  58.053  1.00  0.00    -0.077 C 
ATOM      4  C   UNL     1      11.124  19.919  57.068  1.00  0.00     0.039 C 
BRANCH   3   5
ATOM      5  C   UNL     1      10.868  18.220  59.022  1.00  0.00     0.034 C 
BRANCH   5   6
ATOM      6  C   UNL     1       9.904  19.166  59.752  1.00  0.00     0.032 C 
BRANCH   6   7
ATOM      7  C   UNL     1       8.545  18.539  59.957  1.00  0.00    -0.028 C 
ATOM      8  C   UNL     1       6.244  17.885  59.395  1.00  0.00     0.039 C 
ATOM      9  C   UNL     1       7.528  18.606  59.070  1.00  0.00    -0.080 C 
ATOM     10  C   UNL     1       7.635  19.391  57.784  1.00  0.00     0.039 C 
ENDBRANCH   6   7
ENDBRANCH   5   6
ENDBRANCH   3   5
ENDBRANCH   1   2
BRANCH   1  11
ATOM     11  C   UNL     1      14.853  18.465  56.380  1.00  0.00     0.034 C 
BRANCH  11  12
ATOM     12  C   UNL     1      14.154  18.234  55.060  1.00  0.00    -0.077 C 
ATOM     13  C   UNL     1      13.516  17.060  54.850  1.00  0.00    -0.028 C 
ATOM     14  C   UNL     1      14.210  19.312  54.002  1.00  0.00     0.039 C 
BRANCH  13  15
ATOM     15  C   UNL     1      12.752  16.711  53.595  1.00  0.00     0.035 C 
BRANCH  15  16
ATOM     16  C   UNL     1      11.235  16.854  53.783  1.00  0.00     0.079 C 
BRANCH  16  17
ATOM     17  C   UNL     1      10.539  15.518  53.740  1.00  0.00     0.130 C 
ATOM     18  O   UNL     1       9.538  15.337  54.419  1.00  0.00    -0.300 OA
ATOM     19  C   UNL     1      11.039  14.404  52.869  1.00  0.00     0.087 C 
ENDBRANCH  16  17
ENDBRANCH  15  16
ENDBRANCH  13  15
ENDBRANCH  11  12
ENDBRANCH   1  11
TORSDOF 9
ENDMDL
MODEL 3
REMARK VINA RESULT:    -5.492      3.590      8.581
REMARK INTER + INTRA:          -9.757
REMARK INTER:                  -9.020
REMARK INTRA:                  -0.738
REMARK UNBOUND:                -1.376
REMARK SMILES CC(=O)CCC=C(C)CCC=C(C)CCC=C(C)C
REMARK SMILES IDX 10 1 11 2 12 3 13 4 14 5 15 6 16 7 18 8 17 9 19 10 9 11 7 12
REMARK SMILES IDX 6 13 8 14 5 15 4 16 2 17 3 18 1 19
REMARK H PARENT
REMARK Flexibility Score: inf
ROOT
ATOM      1  C   UNL     1       9.747  22.156  56.619  1.00  0.00     0.032 C 
ENDROOT
BRANCH   1   2
ATOM      2  C   UNL     1       8.618  23.079  56.238  1.00  0.00    -0.028 C 
ATOM      3  C   UNL     1       8.450  23.613  55.005  1.00  0.00    -0.077 C 
ATOM      4  C   UNL     1       9.448  23.389  53.895  1.00  0.00     0.039 C 
BRANCH   3   5
ATOM      5  C   UNL     1       7.267  24.522  54.746  1.00  0.00     0.034 C 
BRANCH   5   6
ATOM      6  C   UNL     1       7.497  25.931  55.308  1.00  0.00     0.032 C 
BRANCH   6   7
ATOM      7  C   UNL     1       6.491  26.285  56.378  1.00  0.00    -0.028 C 
ATOM      8  C   UNL     1       4.342  27.027  57.309  1.00  0.00     0.039 C 
ATOM      9  C   UNL     1       5.253  26.768  56.136  1.00  0.00    -0.080 C 
ATOM     10  C   UNL     1       4.770  27.072  54.738  1.00  0.00     0.039 C 
ENDBRANCH   6   7
ENDBRANCH   5   6
ENDBRANCH   3   5
ENDBRANCH   1   2
BRANCH   1  11
ATOM     11  C   UNL     1       9.425  21.409  57.918  1.00  0.00     0.034 C 
BRANCH  11  12
ATOM     12  C   UNL     1      10.208  20.119  58.004  1.00  0.00    -0.077 C 
ATOM     13  C   UNL     1      11.462  20.076  57.502  1.00  0.00    -0.028 C 
ATOM     14  C   UNL     1       9.554  18.905  58.625  1.00  0.00     0.039 C 
BRANCH  13  15
ATOM     15  C   UNL     1      12.365  18.866  57.550  1.00  0.00     0.035 C 
BRANCH  15  16
ATOM     16  C   UNL     1      13.385  18.859  56.403  1.00  0.00     0.079 C 
BRANCH  16  17
ATOM     17  C   UNL     1      14.766  19.231  56.880  1.00  0.00     0.130 C 
ATOM     18  O   UNL     1      14.941  19.517  58.056  1.00  0.00    -0.300 OA
ATOM     19  C   UNL     1      15.938  19.242  55.944  1.00  0.00     0.087 C 
ENDBRANCH  16  17
ENDBRANCH  15  16
ENDBRANCH  13  15
ENDBRANCH  11  12
ENDBRANCH   1  11
TORSDOF 9
ENDMDL
MODEL 4
REMARK VINA RESULT:    -5.479      4.694      6.908
REMARK INTER + INTRA:          -9.737
REMARK INTER:                  -7.380
REMARK INTRA:                  -2.357
REMARK UNBOUND:                -1.376
REMARK SMILES CC(=O)CCC=C(C)CCC=C(C)CCC=C(C)C
REMARK SMILES IDX 10 1 11 2 12 3 13 4 14 5 15 6 16 7 18 8 17 9 19 10 9 11 7 12
REMARK SMILES IDX 6 13 8 14 5 15 4 16 2 17 3 18 1 19
REMARK H PARENT
REMARK Flexibility Score: inf
ROOT
ATOM      1  C   UNL     1      10.529  21.199  58.113  1.00  0.00     0.032 C 
ENDROOT
BRANCH   1   2
ATOM      2  C   UNL     1       9.470  20.501  58.929  1.00  0.00    -0.028 C 
ATOM      3  C   UNL     1       9.603  19.260  59.453  1.00  0.00    -0.077 C 
ATOM      4  C   UNL     1      10.824  18.410  59.194  1.00  0.00     0.039 C 
BRANCH   3   5
ATOM      5  C   UNL     1       8.467  18.672  60.264  1.00  0.00     0.034 C 
BRANCH   5   6
ATOM      6  C   UNL     1       7.163  18.616  59.458  1.00  0.00     0.032 C 
BRANCH   6   7
ATOM      7  C   UNL     1       7.353  17.940  58.121  1.00  0.00    -0.028 C 
ATOM      8  C   UNL     1       7.371  17.726  55.673  1.00  0.00     0.039 C 
ATOM      9  C   UNL     1       7.081  18.511  56.927  1.00  0.00    -0.080 C 
ATOM     10  C   UNL     1       6.482  19.893  56.817  1.00  0.00     0.039 C 
ENDBRANCH   6   7
ENDBRANCH   5   6
ENDBRANCH   3   5
ENDBRANCH   1   2
BRANCH   1  11
ATOM     11  C   UNL     1       9.937  21.751  56.812  1.00  0.00     0.034 C 
BRANCH  11  12
ATOM     12  C   UNL     1      10.025  20.725  55.705  1.00  0.00    -0.077 C 
ATOM     13  C   UNL     1      10.892  19.694  55.831  1.00  0.00    -0.028 C 
ATOM     14  C   UNL     1       9.160  20.895  54.477  1.00  0.00     0.039 C 
BRANCH  13  15
ATOM     15  C   UNL     1      11.058  18.584  54.820  1.00  0.00     0.035 C 
BRANCH  15  16
ATOM     16  C   UNL     1      12.425  18.636  54.123  1.00  0.00     0.079 C 
BRANCH  16  17
ATOM     17  C   UNL     1      13.434  17.748  54.807  1.00  0.00     0.130 C 
ATOM     18  O   UNL     1      13.467  16.556  54.540  1.00  0.00    -0.300 OA
ATOM     19  C   UNL     1      14.413  18.300  55.800  1.00  0.00     0.087 C 
ENDBRANCH  16  17
ENDBRANCH  15  16
ENDBRANCH  13  15
ENDBRANCH  11  12
ENDBRANCH   1  11
TORSDOF 9
ENDMDL
MODEL 5
REMARK VINA RESULT:    -5.433      1.614      2.837
REMARK INTER + INTRA:          -9.668
REMARK INTER:                  -8.361
REMARK INTRA:                  -1.307
REMARK UNBOUND:                -1.376
REMARK SMILES CC(=O)CCC=C(C)CCC=C(C)CCC=C(C)C
REMARK SMILES IDX 10 1 11 2 12 3 13 4 14 5 15 6 16 7 18 8 17 9 19 10 9 11 7 12
REMARK SMILES IDX 6 13 8 14 5 15 4 16 2 17 3 18 1 19
REMARK H PARENT
REMARK Flexibility Score: inf
ROOT
ATOM      1  C   UNL     1       9.453  21.659  56.354  1.00  0.00     0.032 C 
ENDROOT
BRANCH   1   2
ATOM      2  C   UNL     1      10.061  21.007  57.569  1.00  0.00    -0.028 C 
ATOM      3  C   UNL     1       9.801  19.739  57.967  1.00  0.00    -0.077 C 
ATOM      4  C   UNL     1       8.793  18.870  57.255  1.00  0.00     0.039 C 
BRANCH   3   5
ATOM      5  C   UNL     1      10.485  19.195  59.204  1.00  0.00     0.034 C 
BRANCH   5   6
ATOM      6  C   UNL     1      11.531  18.128  58.853  1.00  0.00     0.032 C 
BRANCH   6   7
ATOM      7  C   UNL     1      12.922  18.709  58.759  1.00  0.00    -0.028 C 
ATOM      8  C   UNL     1      14.927  19.619  57.669  1.00  0.00     0.039 C 
ATOM      9  C   UNL     1      13.556  18.995  57.600  1.00  0.00    -0.080 C 
ATOM     10  C   UNL     1      12.944  18.689  56.254  1.00  0.00     0.039 C 
ENDBRANCH   6   7
ENDBRANCH   5   6
ENDBRANCH   3   5
ENDBRANCH   1   2
BRANCH   1  11
ATOM     11  C   UNL     1       8.340  22.633  56.758  1.00  0.00     0.034 C 
BRANCH  11  12
ATOM     12  C   UNL     1       8.272  23.799  55.798  1.00  0.00    -0.077 C 
ATOM     13  C   UNL     1       7.534  24.882  56.130  1.00  0.00    -0.028 C 
ATOM     14  C   UNL     1       9.011  23.709  54.482  1.00  0.00     0.039 C 
BRANCH  13  15
ATOM     15  C   UNL     1       7.406  26.125  55.282  1.00  0.00     0.035 C 
BRANCH  15  16
ATOM     16  C   UNL     1       5.977  26.687  55.292  1.00  0.00     0.079 C 
BRANCH  16  17
ATOM     17  C   UNL     1       5.041  25.847  54.461  1.00  0.00     0.130 C 
ATOM     18  O   UNL     1       3.961  25.509  54.923  1.00  0.00    -0.300 OA
ATOM     19  C   UNL     1       5.400  25.426  53.066  1.00  0.00     0.087 C 
ENDBRANCH  16  17
ENDBRANCH  15  16
ENDBRANCH  13  15
ENDBRANCH  11  12
ENDBRANCH   1  11
TORSDOF 9
ENDMDL
MODEL 6
REMARK VINA RESULT:    -5.409      0.978      1.387
REMARK INTER + INTRA:          -9.632
REMARK INTER:                  -8.764
REMARK INTRA:                  -0.868
REMARK UNBOUND:                -1.376
REMARK SMILES CC(=O)CCC=C(C)CCC=C(C)CCC=C(C)C
REMARK SMILES IDX 10 1 11 2 12 3 13 4 14 5 15 6 16 7 18 8 17 9 19 10 9 11 7 12
REMARK SMILES IDX 6 13 8 14 5 15 4 16 2 17 3 18 1 19
REMARK H PARENT
REMARK Flexibility Score: inf
ROOT
ATOM      1  C   UNL     1       9.728  21.503  55.674  1.00  0.00     0.032 C 
ENDROOT
BRANCH   1   2
ATOM      2  C   UNL     1      10.500  20.680  56.674  1.00  0.00    -0.028 C 
ATOM      3  C   UNL     1      10.634  19.334  56.616  1.00  0.00    -0.077 C 
ATOM      4  C   UNL     1       9.940  18.507  55.560  1.00  0.00     0.039 C 
BRANCH   3   5
ATOM      5  C   UNL     1      11.446  18.623  57.678  1.00  0.00     0.034 C 
BRANCH   5   6
ATOM      6  C   UNL     1      10.798  18.745  59.065  1.00  0.00     0.032 C 
BRANCH   6   7
ATOM      7  C   UNL     1       9.320  18.433  59.028  1.00  0.00    -0.028 C 
ATOM      8  C   UNL     1       6.974  18.498  59.752  1.00  0.00     0.039 C 
ATOM      9  C   UNL     1       8.426  18.847  59.952  1.00  0.00    -0.080 C 
ATOM     10  C   UNL     1       8.842  19.625  61.178  1.00  0.00     0.039 C 
ENDBRANCH   6   7
ENDBRANCH   5   6
ENDBRANCH   3   5
ENDBRANCH   1   2
BRANCH   1  11
ATOM     11  C   UNL     1       8.774  22.469  56.386  1.00  0.00     0.034 C 
BRANCH  11  12
ATOM     12  C   UNL     1       8.483  23.672  55.517  1.00  0.00    -0.077 C 
ATOM     13  C   UNL     1       7.687  24.653  55.999  1.00  0.00    -0.028 C 
ATOM     14  C   UNL     1       9.068  23.729  54.124  1.00  0.00     0.039 C 
BRANCH  13  15
ATOM     15  C   UNL     1       7.342  25.921  55.253  1.00  0.00     0.035 C 
BRANCH  15  16
ATOM     16  C   UNL     1       6.053  26.568  55.779  1.00  0.00     0.079 C 
BRANCH  16  17
ATOM     17  C   UNL     1       4.891  26.336  54.846  1.00  0.00     0.130 C 
ATOM     18  O   UNL     1       3.749  26.495  55.253  1.00  0.00    -0.300 OA
ATOM     19  C   UNL     1       5.105  25.928  53.419  1.00  0.00     0.087 C 
ENDBRANCH  16  17
ENDBRANCH  15  16
ENDBRANCH  13  15
ENDBRANCH  11  12
ENDBRANCH   1  11
TORSDOF 9
ENDMDL
MODEL 7
REMARK VINA RESULT:    -5.371      2.111      4.339
REMARK INTER + INTRA:          -9.573
REMARK INTER:                  -7.696
REMARK INTRA:                  -1.877
REMARK UNBOUND:                -1.376
REMARK SMILES CC(=O)CCC=C(C)CCC=C(C)CCC=C(C)C
REMARK SMILES IDX 10 1 11 2 12 3 13 4 14 5 15 6 16 7 18 8 17 9 19 10 9 11 7 12
REMARK SMILES IDX 6 13 8 14 5 15 4 16 2 17 3 18 1 19
REMARK H PARENT
REMARK Flexibility Score: inf
ROOT
ATOM      1  C   UNL     1       7.246  26.177  55.250  1.00  0.00     0.032 C 
ENDROOT
BRANCH   1   2
ATOM      2  C   UNL     1       7.436  24.918  56.057  1.00  0.00    -0.028 C 
ATOM      3  C   UNL     1       8.202  23.870  55.672  1.00  0.00    -0.077 C 
ATOM      4  C   UNL     1       8.889  23.836  54.328  1.00  0.00     0.039 C 
BRANCH   3   5
ATOM      5  C   UNL     1       8.319  22.663  56.579  1.00  0.00     0.034 C 
BRANCH   5   6
ATOM      6  C   UNL     1       9.757  22.129  56.631  1.00  0.00     0.032 C 
BRANCH   6   7
ATOM      7  C   UNL     1       9.980  21.223  57.819  1.00  0.00    -0.028 C 
ATOM      8  C   UNL     1      10.185  19.102  59.043  1.00  0.00     0.039 C 
ATOM      9  C   UNL     1       9.883  19.875  57.784  1.00  0.00    -0.080 C 
ATOM     10  C   UNL     1       9.465  19.133  56.538  1.00  0.00     0.039 C 
ENDBRANCH   6   7
ENDBRANCH   5   6
ENDBRANCH   3   5
ENDBRANCH   1   2
BRANCH   1  11
ATOM     11  C   UNL     1       5.759  26.435  54.986  1.00  0.00     0.034 C 
BRANCH  11  12
ATOM     12  C   UNL     1       5.170  25.344  54.121  1.00  0.00    -0.077 C 
ATOM     13  C   UNL     1       5.581  25.228  52.838  1.00  0.00    -0.028 C 
ATOM     14  C   UNL     1       4.118  24.430  54.708  1.00  0.00     0.039 C 
BRANCH  13  15
ATOM     15  C   UNL     1       5.102  24.167  51.876  1.00  0.00     0.035 C 
BRANCH  15  16
ATOM     16  C   UNL     1       6.139  23.052  51.681  1.00  0.00     0.079 C 
BRANCH  16  17
ATOM     17  C   UNL     1       5.707  21.766  52.337  1.00  0.00     0.130 C 
ATOM     18  O   UNL     1       5.025  20.968  51.709  1.00  0.00    -0.300 OA
ATOM     19  C   UNL     1       6.109  21.433  53.743  1.00  0.00     0.087 C 
ENDBRANCH  16  17
ENDBRANCH  15  16
ENDBRANCH  13  15
ENDBRANCH  11  12
ENDBRANCH   1  11
TORSDOF 9
ENDMDL
MODEL 8
REMARK VINA RESULT:    -5.353      4.287      6.445
REMARK INTER + INTRA:          -9.546
REMARK INTER:                  -7.814
REMARK INTRA:                  -1.732
REMARK UNBOUND:                -1.376
REMARK SMILES CC(=O)CCC=C(C)CCC=C(C)CCC=C(C)C
REMARK SMILES IDX 10 1 11 2 12 3 13 4 14 5 15 6 16 7 18 8 17 9 19 10 9 11 7 12
REMARK SMILES IDX 6 13 8 14 5 15 4 16 2 17 3 18 1 19
REMARK H PARENT
REMARK Flexibility Score: inf
ROOT
ATOM      1  C   UNL     1       7.676  18.826  60.097  1.00  0.00     0.032 C 
ENDROOT
BRANCH   1   2
ATOM      2  C   UNL     1       9.082  18.339  59.849  1.00  0.00    -0.028 C 
ATOM      3  C   UNL     1      10.046  19.064  59.236  1.00  0.00    -0.077 C 
ATOM      4  C   UNL     1       9.770  20.432  58.659  1.00  0.00     0.039 C 
BRANCH   3   5
ATOM      5  C   UNL     1      11.424  18.463  59.055  1.00  0.00     0.034 C 
BRANCH   5   6
ATOM      6  C   UNL     1      12.043  18.856  57.706  1.00  0.00     0.032 C 
BRANCH   6   7
ATOM      7  C   UNL     1      13.475  19.313  57.853  1.00  0.00    -0.028 C 
ATOM      8  C   UNL     1      15.822  19.649  57.210  1.00  0.00     0.039 C 
ATOM      9  C   UNL     1      14.450  19.085  56.945  1.00  0.00    -0.080 C 
ATOM     10  C   UNL     1      14.207  18.272  55.696  1.00  0.00     0.039 C 
ENDBRANCH   6   7
ENDBRANCH   5   6
ENDBRANCH   3   5
ENDBRANCH   1   2
BRANCH   1  11
ATOM     11  C   UNL     1       6.677  18.083  59.203  1.00  0.00     0.034 C 
BRANCH  11  12
ATOM     12  C   UNL     1       6.807  18.531  57.765  1.00  0.00    -0.077 C 
ATOM     13  C   UNL     1       7.529  17.778  56.904  1.00  0.00    -0.028 C 
ATOM     14  C   UNL     1       6.148  19.823  57.337  1.00  0.00     0.039 C 
BRANCH  13  15
ATOM     15  C   UNL     1       7.712  18.090  55.438  1.00  0.00     0.035 C 
BRANCH  15  16
ATOM     16  C   UNL     1       9.193  18.119  55.034  1.00  0.00     0.079 C 
BRANCH  16  17
ATOM     17  C   UNL     1       9.663  19.520  54.738  1.00  0.00     0.130 C 
ATOM     18  O   UNL     1      10.828  19.712  54.421  1.00  0.00    -0.300 OA
ATOM     19  C   UNL     1       8.726  20.690  54.809  1.00  0.00     0.087 C 
ENDBRANCH  16  17
ENDBRANCH  15  16
ENDBRANCH  13  15
ENDBRANCH  11  12
ENDBRANCH   1  11
TORSDOF 9
ENDMDL
MODEL 9
REMARK VINA RESULT:    -5.321      2.559      5.349
REMARK INTER + INTRA:          -9.497
REMARK INTER:                  -8.134
REMARK INTRA:                  -1.363
REMARK UNBOUND:                -1.376
REMARK SMILES CC(=O)CCC=C(C)CCC=C(C)CCC=C(C)C
REMARK SMILES IDX 10 1 11 2 12 3 13 4 14 5 15 6 16 7 18 8 17 9 19 10 9 11 7 12
REMARK SMILES IDX 6 13 8 14 5 15 4 16 2 17 3 18 1 19
REMARK H PARENT
REMARK Flexibility Score: inf
ROOT
ATOM      1  C   UNL     1       7.685  18.831  59.991  1.00  0.00     0.032 C 
ENDROOT
BRANCH   1   2
ATOM      2  C   UNL     1       9.097  18.347  59.776  1.00  0.00    -0.028 C 
ATOM      3  C   UNL     1      10.079  19.084  59.208  1.00  0.00    -0.077 C 
ATOM      4  C   UNL     1       9.823  20.465  58.654  1.00  0.00     0.039 C 
BRANCH   3   5
ATOM      5  C   UNL     1      11.462  18.486  59.057  1.00  0.00     0.034 C 
BRANCH   5   6
ATOM      6  C   UNL     1      12.090  18.841  57.702  1.00  0.00     0.032 C 
BRANCH   6   7
ATOM      7  C   UNL     1      13.514  19.325  57.849  1.00  0.00    -0.028 C 
ATOM      8  C   UNL     1      15.867  19.659  57.228  1.00  0.00     0.039 C 
ATOM      9  C   UNL     1      14.507  19.063  56.971  1.00  0.00    -0.080 C 
ATOM     10  C   UNL     1      14.298  18.180  55.763  1.00  0.00     0.039 C 
ENDBRANCH   6   7
ENDBRANCH   5   6
ENDBRANCH   3   5
ENDBRANCH   1   2
BRANCH   1  11
ATOM     11  C   UNL     1       6.710  18.092  59.068  1.00  0.00     0.034 C 
BRANCH  11  12
ATOM     12  C   UNL     1       6.825  18.600  57.648  1.00  0.00    -0.077 C 
ATOM     13  C   UNL     1       6.288  19.800  57.334  1.00  0.00    -0.028 C 
ATOM     14  C   UNL     1       7.515  17.738  56.616  1.00  0.00     0.039 C 
BRANCH  13  15
ATOM     15  C   UNL     1       6.359  20.441  55.968  1.00  0.00     0.035 C 
BRANCH  15  16
ATOM     16  C   UNL     1       6.044  21.942  56.016  1.00  0.00     0.079 C 
BRANCH  16  17
ATOM     17  C   UNL     1       7.153  22.765  55.410  1.00  0.00     0.130 C 
ATOM     18  O   UNL     1       6.901  23.537  54.496  1.00  0.00    -0.300 OA
ATOM     19  C   UNL     1       8.562  22.668  55.914  1.00  0.00     0.087 C 
ENDBRANCH  16  17
ENDBRANCH  15  16
ENDBRANCH  13  15
ENDBRANCH  11  12
ENDBRANCH   1  11
TORSDOF 9
ENDMDL
