MODEL 1
REMARK VINA RESULT:    -3.071      0.000      0.000
REMARK INTER + INTRA:          -4.368
REMARK INTER:                  -4.058
REMARK INTRA:                  -0.310
REMARK UNBOUND:                -0.310
REMARK SMILES C=CCC[C@@H](O)CCC
REMARK SMILES IDX 4 1 5 2 7 3 8 4 9 5 6 6 3 8 2 9 1 10
REMARK H PARENT 6 7
REMARK Flexibility Score: inf
ROOT
ATOM      1  C   UNL     1     -38.480  21.861   5.115  1.00  0.00     0.036 C 
ENDROOT
BRANCH   1   2
ATOM      2  C   UNL     1     -38.528  21.711   6.646  1.00  0.00     0.114 C 
BRANCH   2   3
ATOM      3  C   UNL     1     -37.763  22.864   7.318  1.00  0.00     0.031 C 
BRANCH   3   4
ATOM      4  C   UNL     1     -36.422  22.392   7.896  1.00  0.00    -0.001 C 
ATOM      5  C   UNL     1     -35.248  22.995   7.130  1.00  0.00     0.004 C 
ENDBRANCH   3   4
ENDBRANCH   2   3
BRANCH   2   6
ATOM      6  O   UNL     1     -37.945  20.488   7.023  1.00  0.00    -0.393 OA
ATOM      7  H   UNL     1     -38.418  20.177   7.838  1.00  0.00     0.210 HD
ENDBRANCH   2   6
ENDBRANCH   1   2
BRANCH   1   8
ATOM      8  C   UNL     1     -37.978  23.248   4.691  1.00  0.00     0.029 C 
BRANCH   8   9
ATOM      9  C   UNL     1     -39.125  24.180   4.410  1.00  0.00    -0.035 C 
ATOM     10  C   UNL     1     -39.011  25.503   4.563  1.00  0.00     0.004 C 
ENDBRANCH   8   9
ENDBRANCH   1   8
TORSDOF 6
ENDMDL
MODEL 2
REMARK VINA RESULT:    -2.918      1.978      4.028
REMARK INTER + INTRA:          -4.166
REMARK INTER:                  -4.003
REMARK INTRA:                  -0.163
REMARK UNBOUND:                -0.310
REMARK SMILES C=CCC[C@@H](O)CCC
REMARK SMILES IDX 4 1 5 2 7 3 8 4 9 5 6 6 3 8 2 9 1 10
REMARK H PARENT 6 7
REMARK Flexibility Score: inf
ROOT
ATOM      1  C   UNL     1     -37.109  23.387   7.167  1.00  0.00     0.036 C 
ENDROOT
BRANCH   1   2
ATOM      2  C   UNL     1     -38.544  23.938   7.098  1.00  0.00     0.114 C 
BRANCH   2   3
ATOM      3  C   UNL     1     -38.950  24.184   5.634  1.00  0.00     0.031 C 
BRANCH   3   4
ATOM      4  C   UNL     1     -38.274  23.185   4.684  1.00  0.00    -0.001 C 
ATOM      5  C   UNL     1     -39.125  21.931   4.508  1.00  0.00     0.004 C 
ENDBRANCH   3   4
ENDBRANCH   2   3
BRANCH   2   6
ATOM      6  O   UNL     1     -38.623  25.150   7.808  1.00  0.00    -0.393 OA
ATOM      7  H   UNL     1     -37.843  25.700   7.537  1.00  0.00     0.210 HD
ENDBRANCH   2   6
ENDBRANCH   1   2
BRANCH   1   8
ATOM      8  C   UNL     1     -37.063  21.989   7.800  1.00  0.00     0.029 C 
BRANCH   8   9
ATOM      9  C   UNL     1     -38.445  21.493   8.125  1.00  0.00    -0.035 C 
ATOM     10  C   UNL     1     -39.041  20.543   7.398  1.00  0.00     0.004 C 
ENDBRANCH   8   9
ENDBRANCH   1   8
TORSDOF 6
ENDMDL
MODEL 3
REMARK VINA RESULT:    -2.692      2.157      3.684
REMARK INTER + INTRA:          -3.867
REMARK INTER:                  -3.339
REMARK INTRA:                  -0.529
REMARK UNBOUND:                -0.310
REMARK SMILES C=CCC[C@@H](O)CCC
REMARK SMILES IDX 4 1 5 2 7 3 8 4 9 5 6 6 3 8 2 9 1 10
REMARK H PARENT 6 7
REMARK Flexibility Score: inf
ROOT
ATOM      1  C   UNL     1     -37.841  21.529   5.384  1.00  0.00     0.036 C 
ENDROOT
BRANCH   1   2
ATOM      2  C   UNL     1     -37.746  23.049   5.161  1.00  0.00     0.114 C 
BRANCH   2   3
ATOM      3  C   UNL     1     -39.125  23.703   5.358  1.00  0.00     0.031 C 
BRANCH   3   4
ATOM      4  C   UNL     1     -39.082  24.802   6.429  1.00  0.00    -0.001 C 
ATOM      5  C   UNL     1     -38.176  24.405   7.591  1.00  0.00     0.004 C 
ENDBRANCH   3   4
ENDBRANCH   2   3
BRANCH   2   6
ATOM      6  O   UNL     1     -37.294  23.312   3.855  1.00  0.00    -0.393 OA
ATOM      7  H   UNL     1     -37.820  22.735   3.242  1.00  0.00     0.210 HD
ENDBRANCH   2   6
ENDBRANCH   1   2
BRANCH   1   8
ATOM      8  C   UNL     1     -39.119  21.140   6.139  1.00  0.00     0.029 C 
BRANCH   8   9
ATOM      9  C   UNL     1     -38.802  20.627   7.517  1.00  0.00    -0.035 C 
ATOM     10  C   UNL     1     -37.617  20.843   8.094  1.00  0.00     0.004 C 
ENDBRANCH   8   9
ENDBRANCH   1   8
TORSDOF 6
ENDMDL
MODEL 4
REMARK VINA RESULT:    -2.531     19.631     20.979
REMARK INTER + INTRA:          -3.655
REMARK INTER:                  -3.408
REMARK INTRA:                  -0.247
REMARK UNBOUND:                -0.310
REMARK SMILES C=CCC[C@@H](O)CCC
REMARK SMILES IDX 4 1 5 2 7 3 8 4 9 5 6 6 3 8 2 9 1 10
REMARK H PARENT 6 7
REMARK Flexibility Score: inf
ROOT
ATOM      1  C   UNL     1     -35.716  35.541 -10.617  1.00  0.00     0.036 C 
ENDROOT
BRANCH   1   2
ATOM      2  C   UNL     1     -36.168  34.089 -10.377  1.00  0.00     0.114 C 
BRANCH   2   3
ATOM      3  C   UNL     1     -37.642  34.056  -9.939  1.00  0.00     0.031 C 
BRANCH   3   4
ATOM      4  C   UNL     1     -38.303  35.435 -10.068  1.00  0.00    -0.001 C 
ATOM      5  C   UNL     1     -39.009  35.831  -8.776  1.00  0.00     0.004 C 
ENDBRANCH   3   4
ENDBRANCH   2   3
BRANCH   2   6
ATOM      6  O   UNL     1     -35.375  33.504  -9.374  1.00  0.00    -0.393 OA
ATOM      7  H   UNL     1     -35.642  33.916  -8.512  1.00  0.00     0.210 HD
ENDBRANCH   2   6
ENDBRANCH   1   2
BRANCH   1   8
ATOM      8  C   UNL     1     -34.801  35.661 -11.843  1.00  0.00     0.029 C 
BRANCH   8   9
ATOM      9  C   UNL     1     -33.360  35.802 -11.434  1.00  0.00    -0.035 C 
ATOM     10  C   UNL     1     -32.372  35.225 -12.125  1.00  0.00     0.004 C 
ENDBRANCH   8   9
ENDBRANCH   1   8
TORSDOF 6
ENDMDL
MODEL 5
REMARK VINA RESULT:    -2.064      1.780      4.089
REMARK INTER + INTRA:          -3.039
REMARK INTER:                  -3.515
REMARK INTRA:                   0.476
REMARK UNBOUND:                -0.310
REMARK SMILES C=CCC[C@@H](O)CCC
REMARK SMILES IDX 4 1 5 2 7 3 8 4 9 5 6 6 3 8 2 9 1 10
REMARK H PARENT 6 7
REMARK Flexibility Score: inf
ROOT
ATOM      1  C   UNL     1     -37.090  22.328   8.040  1.00  0.00     0.036 C 
ENDROOT
BRANCH   1   2
ATOM      2  C   UNL     1     -36.615  23.087   6.788  1.00  0.00     0.114 C 
BRANCH   2   3
ATOM      3  C   UNL     1     -37.448  22.670   5.564  1.00  0.00     0.031 C 
BRANCH   3   4
ATOM      4  C   UNL     1     -38.812  23.373   5.542  1.00  0.00    -0.001 C 
ATOM      5  C   UNL     1     -38.893  24.383   4.401  1.00  0.00     0.004 C 
ENDBRANCH   3   4
ENDBRANCH   2   3
BRANCH   2   6
ATOM      6  O   UNL     1     -35.260  22.801   6.544  1.00  0.00    -0.393 OA
ATOM      7  H   UNL     1     -35.054  23.120   5.627  1.00  0.00     0.210 HD
ENDBRANCH   2   6
ENDBRANCH   1   2
BRANCH   1   8
ATOM      8  C   UNL     1     -38.621  22.265   8.125  1.00  0.00     0.029 C 
BRANCH   8   9
ATOM      9  C   UNL     1     -39.109  20.842   8.119  1.00  0.00    -0.035 C 
ATOM     10  C   UNL     1     -38.263  19.808   8.061  1.00  0.00     0.004 C 
ENDBRANCH   8   9
ENDBRANCH   1   8
TORSDOF 6
ENDMDL
MODEL 6
REMARK VINA RESULT:    -1.983      1.132      1.709
REMARK INTER + INTRA:          -2.930
REMARK INTER:                  -2.484
REMARK INTRA:                  -0.446
REMARK UNBOUND:                -0.310
REMARK SMILES C=CCC[C@@H](O)CCC
REMARK SMILES IDX 4 1 5 2 7 3 8 4 9 5 6 6 3 8 2 9 1 10
REMARK H PARENT 6 7
REMARK Flexibility Score: inf
ROOT
ATOM      1  C   UNL     1     -39.071  22.327   7.306  1.00  0.00     0.036 C 
ENDROOT
BRANCH   1   2
ATOM      2  C   UNL     1     -37.864  21.835   8.124  1.00  0.00     0.114 C 
BRANCH   2   3
ATOM      3  C   UNL     1     -36.751  22.897   8.123  1.00  0.00     0.031 C 
BRANCH   3   4
ATOM      4  C   UNL     1     -35.394  22.294   7.735  1.00  0.00    -0.001 C 
ATOM      5  C   UNL     1     -34.763  23.059   6.575  1.00  0.00     0.004 C 
ENDBRANCH   3   4
ENDBRANCH   2   3
BRANCH   2   6
ATOM      6  O   UNL     1     -37.365  20.644   7.566  1.00  0.00    -0.393 OA
ATOM      7  H   UNL     1     -36.722  20.901   6.854  1.00  0.00     0.210 HD
ENDBRANCH   2   6
ENDBRANCH   1   2
BRANCH   1   8
ATOM      8  C   UNL     1     -39.125  23.860   7.231  1.00  0.00     0.029 C 
BRANCH   8   9
ATOM      9  C   UNL     1     -38.978  24.341   5.814  1.00  0.00    -0.035 C 
ATOM     10  C   UNL     1     -38.580  23.527   4.831  1.00  0.00     0.004 C 
ENDBRANCH   8   9
ENDBRANCH   1   8
TORSDOF 6
ENDMDL
MODEL 7
REMARK VINA RESULT:    -1.794      1.379      3.700
REMARK INTER + INTRA:          -2.681
REMARK INTER:                  -2.595
REMARK INTRA:                  -0.086
REMARK UNBOUND:                -0.310
REMARK SMILES C=CCC[C@@H](O)CCC
REMARK SMILES IDX 4 1 5 2 7 3 8 4 9 5 6 6 3 8 2 9 1 10
REMARK H PARENT 6 7
REMARK Flexibility Score: inf
ROOT
ATOM      1  C   UNL     1     -37.672  21.573   7.688  1.00  0.00     0.036 C 
ENDROOT
BRANCH   1   2
ATOM      2  C   UNL     1     -38.977  22.044   7.022  1.00  0.00     0.114 C 
BRANCH   2   3
ATOM      3  C   UNL     1     -38.969  21.688   5.525  1.00  0.00     0.031 C 
BRANCH   3   4
ATOM      4  C   UNL     1     -37.971  22.553   4.742  1.00  0.00    -0.001 C 
ATOM      5  C   UNL     1     -38.610  23.865   4.297  1.00  0.00     0.004 C 
ENDBRANCH   3   4
ENDBRANCH   2   3
BRANCH   2   6
ATOM      6  O   UNL     1     -39.108  23.437   7.163  1.00  0.00    -0.393 OA
ATOM      7  H   UNL     1     -40.053  23.665   6.961  1.00  0.00     0.210 HD
ENDBRANCH   2   6
ENDBRANCH   1   2
BRANCH   1   8
ATOM      8  C   UNL     1     -36.794  22.754   8.125  1.00  0.00     0.029 C 
BRANCH   8   9
ATOM      9  C   UNL     1     -35.377  22.584   7.651  1.00  0.00    -0.035 C 
ATOM     10  C   UNL     1     -34.874  23.319   6.655  1.00  0.00     0.004 C 
ENDBRANCH   8   9
ENDBRANCH   1   8
TORSDOF 6
ENDMDL
MODEL 8
REMARK VINA RESULT:    -1.722      1.368      3.596
REMARK INTER + INTRA:          -2.586
REMARK INTER:                  -2.400
REMARK INTRA:                  -0.185
REMARK UNBOUND:                -0.310
REMARK SMILES C=CCC[C@@H](O)CCC
REMARK SMILES IDX 4 1 5 2 7 3 8 4 9 5 6 6 3 8 2 9 1 10
REMARK H PARENT 6 7
REMARK Flexibility Score: inf
ROOT
ATOM      1  C   UNL     1     -38.145  21.243   7.135  1.00  0.00     0.036 C 
ENDROOT
BRANCH   1   2
ATOM      2  C   UNL     1     -37.965  21.738   5.689  1.00  0.00     0.114 C 
BRANCH   2   3
ATOM      3  C   UNL     1     -39.125  22.670   5.298  1.00  0.00     0.031 C 
BRANCH   3   4
ATOM      4  C   UNL     1     -38.805  24.137   5.619  1.00  0.00    -0.001 C 
ATOM      5  C   UNL     1     -38.918  24.411   7.115  1.00  0.00     0.004 C 
ENDBRANCH   3   4
ENDBRANCH   2   3
BRANCH   2   6
ATOM      6  O   UNL     1     -37.938  20.641   4.810  1.00  0.00    -0.393 OA
ATOM      7  H   UNL     1     -37.395  20.909   4.024  1.00  0.00     0.210 HD
ENDBRANCH   2   6
ENDBRANCH   1   2
BRANCH   1   8
ATOM      8  C   UNL     1     -36.916  21.548   8.002  1.00  0.00     0.029 C 
BRANCH   8   9
ATOM      9  C   UNL     1     -35.974  22.487   7.299  1.00  0.00    -0.035 C 
ATOM     10  C   UNL     1     -34.917  23.021   7.920  1.00  0.00     0.004 C 
ENDBRANCH   8   9
ENDBRANCH   1   8
TORSDOF 6
ENDMDL
MODEL 9
REMARK VINA RESULT:    -1.012     19.895     21.566
REMARK INTER + INTRA:          -1.648
REMARK INTER:                  -1.458
REMARK INTRA:                  -0.190
REMARK UNBOUND:                -0.310
REMARK SMILES C=CCC[C@@H](O)CCC
REMARK SMILES IDX 4 1 5 2 7 3 8 4 9 5 6 6 3 8 2 9 1 10
REMARK H PARENT 6 7
REMARK Flexibility Score: inf
ROOT
ATOM      1  C   UNL     1     -34.800  34.115 -11.719  1.00  0.00     0.036 C 
ENDROOT
BRANCH   1   2
ATOM      2  C   UNL     1     -35.460  35.365 -11.111  1.00  0.00     0.114 C 
BRANCH   2   3
ATOM      3  C   UNL     1     -36.495  34.957 -10.048  1.00  0.00     0.031 C 
BRANCH   3   4
ATOM      4  C   UNL     1     -37.189  33.636 -10.412  1.00  0.00    -0.001 C 
ATOM      5  C   UNL     1     -38.632  33.617  -9.917  1.00  0.00     0.004 C 
ENDBRANCH   3   4
ENDBRANCH   2   3
BRANCH   2   6
ATOM      6  O   UNL     1     -36.102  36.104 -12.120  1.00  0.00    -0.393 OA
ATOM      7  H   UNL     1     -35.747  35.782 -12.990  1.00  0.00     0.210 HD
ENDBRANCH   2   6
ENDBRANCH   1   2
BRANCH   1   8
ATOM      8  C   UNL     1     -33.279  34.274 -11.843  1.00  0.00     0.029 C 
BRANCH   8   9
ATOM      9  C   UNL     1     -32.868  35.714 -11.700  1.00  0.00    -0.035 C 
ATOM     10  C   UNL     1     -31.609  36.112 -11.905  1.00  0.00     0.004 C 
ENDBRANCH   8   9
ENDBRANCH   1   8
TORSDOF 6
ENDMDL
