MODEL 1
REMARK VINA RESULT:    -3.320      0.000      0.000
REMARK INTER + INTRA:          -3.773
REMARK INTER:                  -3.708
REMARK INTRA:                  -0.065
REMARK UNBOUND:                -0.065
REMARK SMILES CCCC(=O)[O-]
REMARK SMILES IDX 3 1 4 2 5 3 6 4 2 5 1 6
REMARK H PARENT
REMARK Flexibility Score: inf
ROOT
ATOM      1  C   UNL     1     -30.848 -20.332 -24.985  1.00  0.00     0.052 C 
ENDROOT
BRANCH   1   2
ATOM      2  C   UNL     1     -30.110 -21.118 -23.945  1.00  0.00     0.041 C 
ATOM      3  O   UNL     1     -28.851 -21.144 -23.944  1.00  0.00    -0.550 OA
ATOM      4  O   UNL     1     -30.815 -21.849 -22.997  1.00  0.00    -0.550 OA
ENDBRANCH   1   2
BRANCH   1   5
ATOM      5  C   UNL     1     -30.371 -20.677 -26.401  1.00  0.00     0.003 C 
ATOM      6  C   UNL     1     -30.756 -22.097 -26.815  1.00  0.00     0.004 C 
ENDBRANCH   1   5
TORSDOF 2
ENDMDL
MODEL 2
REMARK VINA RESULT:    -3.226      1.302      1.639
REMARK INTER + INTRA:          -3.668
REMARK INTER:                  -3.651
REMARK INTRA:                  -0.016
REMARK UNBOUND:                -0.065
REMARK SMILES CCCC(=O)[O-]
REMARK SMILES IDX 3 1 4 2 5 3 6 4 2 5 1 6
REMARK H PARENT
REMARK Flexibility Score: inf
ROOT
ATOM      1  C   UNL     1     -29.762 -20.999 -24.223  1.00  0.00     0.052 C 
ENDROOT
BRANCH   1   2
ATOM      2  C   UNL     1     -30.576 -21.273 -22.995  1.00  0.00     0.041 C 
ATOM      3  O   UNL     1     -30.188 -22.125 -22.153  1.00  0.00    -0.550 OA
ATOM      4  O   UNL     1     -31.781 -20.610 -22.798  1.00  0.00    -0.550 OA
ENDBRANCH   1   2
BRANCH   1   5
ATOM      5  C   UNL     1     -30.507 -20.090 -25.206  1.00  0.00     0.003 C 
ATOM      6  C   UNL     1     -30.375 -20.565 -26.653  1.00  0.00     0.004 C 
ENDBRANCH   1   5
TORSDOF 2
ENDMDL
MODEL 3
REMARK VINA RESULT:    -3.153      2.052      3.049
REMARK INTER + INTRA:          -3.587
REMARK INTER:                  -3.517
REMARK INTRA:                  -0.070
REMARK UNBOUND:                -0.065
REMARK SMILES CCCC(=O)[O-]
REMARK SMILES IDX 3 1 4 2 5 3 6 4 2 5 1 6
REMARK H PARENT
REMARK Flexibility Score: inf
ROOT
ATOM      1  C   UNL     1     -29.716 -21.028 -24.187  1.00  0.00     0.052 C 
ENDROOT
BRANCH   1   2
ATOM      2  C   UNL     1     -30.493 -20.941 -25.465  1.00  0.00     0.041 C 
ATOM      3  O   UNL     1     -30.669 -19.828 -26.027  1.00  0.00    -0.550 OA
ATOM      4  O   UNL     1     -31.053 -22.087 -26.018  1.00  0.00    -0.550 OA
ENDBRANCH   1   2
BRANCH   1   5
ATOM      5  C   UNL     1     -30.583 -21.536 -23.029  1.00  0.00     0.003 C 
ATOM      6  C   UNL     1     -31.737 -20.587 -22.707  1.00  0.00     0.004 C 
ENDBRANCH   1   5
TORSDOF 2
ENDMDL
MODEL 4
REMARK VINA RESULT:    -3.092      1.993      3.131
REMARK INTER + INTRA:          -3.519
REMARK INTER:                  -3.464
REMARK INTRA:                  -0.054
REMARK UNBOUND:                -0.065
REMARK SMILES CCCC(=O)[O-]
REMARK SMILES IDX 3 1 4 2 5 3 6 4 2 5 1 6
REMARK H PARENT
REMARK Flexibility Score: inf
ROOT
ATOM      1  C   UNL     1     -31.295 -20.730 -23.283  1.00  0.00     0.052 C 
ENDROOT
BRANCH   1   2
ATOM      2  C   UNL     1     -30.863 -20.675 -24.716  1.00  0.00     0.041 C 
ATOM      3  O   UNL     1     -30.398 -19.609 -25.198  1.00  0.00    -0.550 OA
ATOM      4  O   UNL     1     -31.004 -21.794 -25.528  1.00  0.00    -0.550 OA
ENDBRANCH   1   2
BRANCH   1   5
ATOM      5  C   UNL     1     -30.643 -21.900 -22.538  1.00  0.00     0.003 C 
ATOM      6  C   UNL     1     -29.216 -21.584 -22.092  1.00  0.00     0.004 C 
ENDBRANCH   1   5
TORSDOF 2
ENDMDL
MODEL 5
REMARK VINA RESULT:    -2.948      2.549      3.462
REMARK INTER + INTRA:          -3.358
REMARK INTER:                  -3.317
REMARK INTRA:                  -0.041
REMARK UNBOUND:                -0.065
REMARK SMILES CCCC(=O)[O-]
REMARK SMILES IDX 3 1 4 2 5 3 6 4 2 5 1 6
REMARK H PARENT
REMARK Flexibility Score: inf
ROOT
ATOM      1  C   UNL     1     -30.276 -22.125 -22.244  1.00  0.00     0.052 C 
ENDROOT
BRANCH   1   2
ATOM      2  C   UNL     1     -31.096 -21.235 -23.125  1.00  0.00     0.041 C 
ATOM      3  O   UNL     1     -30.969 -21.287 -24.377  1.00  0.00    -0.550 OA
ATOM      4  O   UNL     1     -31.980 -20.322 -22.562  1.00  0.00    -0.550 OA
ENDBRANCH   1   2
BRANCH   1   5
ATOM      5  C   UNL     1     -29.028 -21.407 -21.717  1.00  0.00     0.003 C 
ATOM      6  C   UNL     1     -27.821 -21.586 -22.637  1.00  0.00     0.004 C 
ENDBRANCH   1   5
TORSDOF 2
ENDMDL
MODEL 6
REMARK VINA RESULT:    -2.093      3.555      5.123
REMARK INTER + INTRA:          -2.403
REMARK INTER:                  -2.396
REMARK INTRA:                  -0.006
REMARK UNBOUND:                -0.065
REMARK SMILES CCCC(=O)[O-]
REMARK SMILES IDX 3 1 4 2 5 3 6 4 2 5 1 6
REMARK H PARENT
REMARK Flexibility Score: inf
ROOT
ATOM      1  C   UNL     1     -29.165 -22.125 -20.729  1.00  0.00     0.052 C 
ENDROOT
BRANCH   1   2
ATOM      2  C   UNL     1     -29.334 -21.413 -22.036  1.00  0.00     0.041 C 
ATOM      3  O   UNL     1     -28.349 -21.257 -22.806  1.00  0.00    -0.550 OA
ATOM      4  O   UNL     1     -30.572 -20.891 -22.389  1.00  0.00    -0.550 OA
ENDBRANCH   1   2
BRANCH   1   5
ATOM      5  C   UNL     1     -28.270 -21.337 -19.765  1.00  0.00     0.003 C 
ATOM      6  C   UNL     1     -27.972 -22.113 -18.483  1.00  0.00     0.004 C 
ENDBRANCH   1   5
TORSDOF 2
ENDMDL
MODEL 7
REMARK VINA RESULT:    -1.611      4.431      5.354
REMARK INTER + INTRA:          -1.864
REMARK INTER:                  -1.826
REMARK INTRA:                  -0.038
REMARK UNBOUND:                -0.065
REMARK SMILES CCCC(=O)[O-]
REMARK SMILES IDX 3 1 4 2 5 3 6 4 2 5 1 6
REMARK H PARENT
REMARK Flexibility Score: inf
ROOT
ATOM      1  C   UNL     1     -28.238 -21.139 -20.221  1.00  0.00     0.052 C 
ENDROOT
BRANCH   1   2
ATOM      2  C   UNL     1     -28.414 -21.770 -18.875  1.00  0.00     0.041 C 
ATOM      3  O   UNL     1     -27.413 -22.010 -18.150  1.00  0.00    -0.550 OA
ATOM      4  O   UNL     1     -29.684 -22.125 -18.434  1.00  0.00    -0.550 OA
ENDBRANCH   1   2
BRANCH   1   5
ATOM      5  C   UNL     1     -28.553 -22.123 -21.354  1.00  0.00     0.003 C 
ATOM      6  C   UNL     1     -29.859 -21.783 -22.073  1.00  0.00     0.004 C 
ENDBRANCH   1   5
TORSDOF 2
ENDMDL
MODEL 8
REMARK VINA RESULT:    -0.925     16.027     16.936
REMARK INTER + INTRA:          -1.098
REMARK INTER:                  -1.166
REMARK INTRA:                   0.068
REMARK UNBOUND:                -0.065
REMARK SMILES CCCC(=O)[O-]
REMARK SMILES IDX 3 1 4 2 5 3 6 4 2 5 1 6
REMARK H PARENT
REMARK Flexibility Score: inf
ROOT
ATOM      1  C   UNL     1     -20.816 -17.757 -12.222  1.00  0.00     0.052 C 
ENDROOT
BRANCH   1   2
ATOM      2  C   UNL     1     -21.219 -19.004 -11.498  1.00  0.00     0.041 C 
ATOM      3  O   UNL     1     -21.414 -18.982 -10.254  1.00  0.00    -0.550 OA
ATOM      4  O   UNL     1     -21.346 -20.201 -12.192  1.00  0.00    -0.550 OA
ENDBRANCH   1   2
BRANCH   1   5
ATOM      5  C   UNL     1     -19.877 -16.889 -11.377  1.00  0.00     0.003 C 
ATOM      6  C   UNL     1     -20.629 -15.826 -10.577  1.00  0.00     0.004 C 
ENDBRANCH   1   5
TORSDOF 2
ENDMDL
