MODEL 1
REMARK VINA RESULT:    -4.747      0.000      0.000
REMARK INTER + INTRA:          -6.332
REMARK INTER:                  -6.134
REMARK INTRA:                  -0.198
REMARK UNBOUND:                -0.198
REMARK SMILES CCCCCCC(=O)[O-]
REMARK SMILES IDX 5 1 6 2 7 3 8 4 9 5 4 6 3 7 2 8 1 9
REMARK H PARENT
REMARK Flexibility Score: inf
ROOT
ATOM      1  C   UNL     1      51.765  20.989  51.134  1.00  0.00     0.006 C 
ENDROOT
BRANCH   1   2
ATOM      2  C   UNL     1      50.758  21.214  49.999  1.00  0.00     0.053 C 
BRANCH   2   3
ATOM      3  C   UNL     1      49.705  20.153  50.019  1.00  0.00     0.041 C 
ATOM      4  O   UNL     1      48.512  20.439  49.735  1.00  0.00    -0.550 OA
ATOM      5  O   UNL     1      50.049  18.837  50.303  1.00  0.00    -0.550 OA
ENDBRANCH   2   3
ENDBRANCH   1   2
BRANCH   1   6
ATOM      6  C   UNL     1      53.223  21.072  50.655  1.00  0.00     0.000 C 
BRANCH   6   7
ATOM      7  C   UNL     1      53.470  20.269  49.366  1.00  0.00    -0.000 C 
BRANCH   7   8
ATOM      8  C   UNL     1      54.951  20.246  48.960  1.00  0.00    -0.003 C 
ATOM      9  C   UNL     1      55.320  21.383  48.008  1.00  0.00     0.004 C 
ENDBRANCH   7   8
ENDBRANCH   6   7
ENDBRANCH   1   6
TORSDOF 5
ENDMDL
MODEL 2
REMARK VINA RESULT:    -4.718      0.301      1.089
REMARK INTER + INTRA:          -6.295
REMARK INTER:                  -6.076
REMARK INTRA:                  -0.218
REMARK UNBOUND:                -0.198
REMARK SMILES CCCCCCC(=O)[O-]
REMARK SMILES IDX 5 1 6 2 7 3 8 4 9 5 4 6 3 7 2 8 1 9
REMARK H PARENT
REMARK Flexibility Score: inf
ROOT
ATOM      1  C   UNL     1      51.717  21.248  51.041  1.00  0.00     0.006 C 
ENDROOT
BRANCH   1   2
ATOM      2  C   UNL     1      50.807  20.985  49.835  1.00  0.00     0.053 C 
BRANCH   2   3
ATOM      3  C   UNL     1      49.743  19.996  50.190  1.00  0.00     0.041 C 
ATOM      4  O   UNL     1      50.018  18.769  50.261  1.00  0.00    -0.550 OA
ATOM      5  O   UNL     1      48.459  20.433  50.489  1.00  0.00    -0.550 OA
ENDBRANCH   2   3
ENDBRANCH   1   2
BRANCH   1   6
ATOM      6  C   UNL     1      53.202  21.013  50.723  1.00  0.00     0.000 C 
BRANCH   6   7
ATOM      7  C   UNL     1      53.412  20.271  49.391  1.00  0.00    -0.000 C 
BRANCH   7   8
ATOM      8  C   UNL     1      54.887  20.236  48.962  1.00  0.00    -0.003 C 
ATOM      9  C   UNL     1      55.253  21.376  48.013  1.00  0.00     0.004 C 
ENDBRANCH   7   8
ENDBRANCH   6   7
ENDBRANCH   1   6
TORSDOF 5
ENDMDL
MODEL 3
REMARK VINA RESULT:    -4.229      2.576      3.185
REMARK INTER + INTRA:          -5.663
REMARK INTER:                  -5.495
REMARK INTRA:                  -0.169
REMARK UNBOUND:                -0.198
REMARK SMILES CCCCCCC(=O)[O-]
REMARK SMILES IDX 5 1 6 2 7 3 8 4 9 5 4 6 3 7 2 8 1 9
REMARK H PARENT
REMARK Flexibility Score: inf
ROOT
ATOM      1  C   UNL     1      51.456  20.960  51.080  1.00  0.00     0.006 C 
ENDROOT
BRANCH   1   2
ATOM      2  C   UNL     1      52.282  21.845  52.022  1.00  0.00     0.053 C 
BRANCH   2   3
ATOM      3  C   UNL     1      52.271  21.284  53.408  1.00  0.00     0.041 C 
ATOM      4  O   UNL     1      53.354  21.041  54.002  1.00  0.00    -0.550 OA
ATOM      5  O   UNL     1      51.064  21.074  54.063  1.00  0.00    -0.550 OA
ENDBRANCH   2   3
ENDBRANCH   1   2
BRANCH   1   6
ATOM      6  C   UNL     1      52.242  20.532  49.831  1.00  0.00     0.000 C 
BRANCH   6   7
ATOM      7  C   UNL     1      53.761  20.724  49.992  1.00  0.00    -0.000 C 
BRANCH   7   8
ATOM      8  C   UNL     1      54.551  20.216  48.777  1.00  0.00    -0.003 C 
ATOM      9  C   UNL     1      55.294  21.333  48.046  1.00  0.00     0.004 C 
ENDBRANCH   7   8
ENDBRANCH   6   7
ENDBRANCH   1   6
TORSDOF 5
ENDMDL
MODEL 4
REMARK VINA RESULT:    -4.186      3.091      4.783
REMARK INTER + INTRA:          -5.607
REMARK INTER:                  -5.380
REMARK INTRA:                  -0.228
REMARK UNBOUND:                -0.198
REMARK SMILES CCCCCCC(=O)[O-]
REMARK SMILES IDX 5 1 6 2 7 3 8 4 9 5 4 6 3 7 2 8 1 9
REMARK H PARENT
REMARK Flexibility Score: inf
ROOT
ATOM      1  C   UNL     1      53.401  21.125  50.629  1.00  0.00     0.006 C 
ENDROOT
BRANCH   1   2
ATOM      2  C   UNL     1      53.526  20.254  49.373  1.00  0.00     0.053 C 
BRANCH   2   3
ATOM      3  C   UNL     1      54.879  20.417  48.757  1.00  0.00     0.041 C 
ATOM      4  O   UNL     1      55.139  21.431  48.057  1.00  0.00    -0.550 OA
ATOM      5  O   UNL     1      55.870  19.473  48.996  1.00  0.00    -0.550 OA
ENDBRANCH   2   3
ENDBRANCH   1   2
BRANCH   1   6
ATOM      6  C   UNL     1      51.940  21.360  51.043  1.00  0.00     0.000 C 
BRANCH   6   7
ATOM      7  C   UNL     1      50.957  21.175  49.874  1.00  0.00    -0.000 C 
BRANCH   7   8
ATOM      8  C   UNL     1      49.637  20.523  50.311  1.00  0.00    -0.003 C 
ATOM      9  C   UNL     1      49.599  19.021  50.032  1.00  0.00     0.004 C 
ENDBRANCH   7   8
ENDBRANCH   6   7
ENDBRANCH   1   6
TORSDOF 5
ENDMDL
MODEL 5
REMARK VINA RESULT:    -4.182      2.442      2.774
REMARK INTER + INTRA:          -5.602
REMARK INTER:                  -5.412
REMARK INTRA:                  -0.189
REMARK UNBOUND:                -0.198
REMARK SMILES CCCCCCC(=O)[O-]
REMARK SMILES IDX 5 1 6 2 7 3 8 4 9 5 4 6 3 7 2 8 1 9
REMARK H PARENT
REMARK Flexibility Score: inf
ROOT
ATOM      1  C   UNL     1      51.319  20.685  50.676  1.00  0.00     0.006 C 
ENDROOT
BRANCH   1   2
ATOM      2  C   UNL     1      51.968  21.141  51.988  1.00  0.00     0.053 C 
BRANCH   2   3
ATOM      3  C   UNL     1      51.402  22.457  52.420  1.00  0.00     0.041 C 
ATOM      4  O   UNL     1      50.696  23.134  51.627  1.00  0.00    -0.550 OA
ATOM      5  O   UNL     1      51.616  22.915  53.714  1.00  0.00    -0.550 OA
ENDBRANCH   2   3
ENDBRANCH   1   2
BRANCH   1   6
ATOM      6  C   UNL     1      52.333  20.557  49.528  1.00  0.00     0.000 C 
BRANCH   6   7
ATOM      7  C   UNL     1      53.791  20.625  50.017  1.00  0.00    -0.000 C 
BRANCH   7   8
ATOM      8  C   UNL     1      54.793  20.175  48.943  1.00  0.00    -0.003 C 
ATOM      9  C   UNL     1      55.235  21.319  48.032  1.00  0.00     0.004 C 
ENDBRANCH   7   8
ENDBRANCH   6   7
ENDBRANCH   1   6
TORSDOF 5
ENDMDL
MODEL 6
REMARK VINA RESULT:    -4.154      1.496      1.826
REMARK INTER + INTRA:          -5.565
REMARK INTER:                  -5.474
REMARK INTRA:                  -0.091
REMARK UNBOUND:                -0.198
REMARK SMILES CCCCCCC(=O)[O-]
REMARK SMILES IDX 5 1 6 2 7 3 8 4 9 5 4 6 3 7 2 8 1 9
REMARK H PARENT
REMARK Flexibility Score: inf
ROOT
ATOM      1  C   UNL     1      51.072  21.055  49.894  1.00  0.00     0.006 C 
ENDROOT
BRANCH   1   2
ATOM      2  C   UNL     1      49.827  20.423  50.530  1.00  0.00     0.053 C 
BRANCH   2   3
ATOM      3  C   UNL     1      48.980  21.473  51.174  1.00  0.00     0.041 C 
ATOM      4  O   UNL     1      47.728  21.450  51.036  1.00  0.00    -0.550 OA
ATOM      5  O   UNL     1      49.567  22.451  51.968  1.00  0.00    -0.550 OA
ENDBRANCH   2   3
ENDBRANCH   1   2
BRANCH   1   6
ATOM      6  C   UNL     1      52.276  20.101  49.875  1.00  0.00     0.000 C 
BRANCH   6   7
ATOM      7  C   UNL     1      53.622  20.846  49.901  1.00  0.00    -0.000 C 
BRANCH   7   8
ATOM      8  C   UNL     1      54.622  20.292  48.875  1.00  0.00    -0.003 C 
ATOM      9  C   UNL     1      55.296  21.391  48.054  1.00  0.00     0.004 C 
ENDBRANCH   7   8
ENDBRANCH   6   7
ENDBRANCH   1   6
TORSDOF 5
ENDMDL
MODEL 7
REMARK VINA RESULT:    -4.119      3.122      3.487
REMARK INTER + INTRA:          -5.521
REMARK INTER:                  -5.372
REMARK INTRA:                  -0.149
REMARK UNBOUND:                -0.198
REMARK SMILES CCCCCCC(=O)[O-]
REMARK SMILES IDX 5 1 6 2 7 3 8 4 9 5 4 6 3 7 2 8 1 9
REMARK H PARENT
REMARK Flexibility Score: inf
ROOT
ATOM      1  C   UNL     1      51.957  21.526  51.375  1.00  0.00     0.006 C 
ENDROOT
BRANCH   1   2
ATOM      2  C   UNL     1      51.730  21.022  52.806  1.00  0.00     0.053 C 
BRANCH   2   3
ATOM      3  C   UNL     1      52.654  21.715  53.756  1.00  0.00     0.041 C 
ATOM      4  O   UNL     1      52.489  22.934  54.025  1.00  0.00    -0.550 OA
ATOM      5  O   UNL     1      53.670  21.003  54.383  1.00  0.00    -0.550 OA
ENDBRANCH   2   3
ENDBRANCH   1   2
BRANCH   1   6
ATOM      6  C   UNL     1      53.371  21.218  50.858  1.00  0.00     0.000 C 
BRANCH   6   7
ATOM      7  C   UNL     1      53.359  20.470  49.513  1.00  0.00    -0.000 C 
BRANCH   7   8
ATOM      8  C   UNL     1      54.772  20.202  48.974  1.00  0.00    -0.003 C 
ATOM      9  C   UNL     1      55.248  21.281  48.002  1.00  0.00     0.004 C 
ENDBRANCH   7   8
ENDBRANCH   6   7
ENDBRANCH   1   6
TORSDOF 5
ENDMDL
MODEL 8
REMARK VINA RESULT:    -3.676      1.509      3.112
REMARK INTER + INTRA:          -4.948
REMARK INTER:                  -4.635
REMARK INTRA:                  -0.313
REMARK UNBOUND:                -0.198
REMARK SMILES CCCCCCC(=O)[O-]
REMARK SMILES IDX 5 1 6 2 7 3 8 4 9 5 4 6 3 7 2 8 1 9
REMARK H PARENT
REMARK Flexibility Score: inf
ROOT
ATOM      1  C   UNL     1      52.162  20.358  49.830  1.00  0.00     0.006 C 
ENDROOT
BRANCH   1   2
ATOM      2  C   UNL     1      50.825  21.096  49.965  1.00  0.00     0.053 C 
BRANCH   2   3
ATOM      3  C   UNL     1      49.696  20.119  50.052  1.00  0.00     0.041 C 
ATOM      4  O   UNL     1      49.925  18.907  50.304  1.00  0.00    -0.550 OA
ATOM      5  O   UNL     1      48.385  20.555  49.902  1.00  0.00    -0.550 OA
ENDBRANCH   2   3
ENDBRANCH   1   2
BRANCH   1   6
ATOM      6  C   UNL     1      53.319  21.101  50.517  1.00  0.00     0.000 C 
BRANCH   6   7
ATOM      7  C   UNL     1      52.839  22.029  51.647  1.00  0.00    -0.000 C 
BRANCH   7   8
ATOM      8  C   UNL     1      53.056  21.420  53.041  1.00  0.00    -0.003 C 
ATOM      9  C   UNL     1      51.799  20.750  53.594  1.00  0.00     0.004 C 
ENDBRANCH   7   8
ENDBRANCH   6   7
ENDBRANCH   1   6
TORSDOF 5
ENDMDL
MODEL 9
REMARK VINA RESULT:    -3.669      3.058      4.785
REMARK INTER + INTRA:          -4.940
REMARK INTER:                  -4.722
REMARK INTRA:                  -0.217
REMARK UNBOUND:                -0.198
REMARK SMILES CCCCCCC(=O)[O-]
REMARK SMILES IDX 5 1 6 2 7 3 8 4 9 5 4 6 3 7 2 8 1 9
REMARK H PARENT
REMARK Flexibility Score: inf
ROOT
ATOM      1  C   UNL     1      52.497  20.677  49.919  1.00  0.00     0.006 C 
ENDROOT
BRANCH   1   2
ATOM      2  C   UNL     1      54.025  20.812  49.957  1.00  0.00     0.053 C 
BRANCH   2   3
ATOM      3  C   UNL     1      54.616  20.421  48.640  1.00  0.00     0.041 C 
ATOM      4  O   UNL     1      54.670  19.209  48.304  1.00  0.00    -0.550 OA
ATOM      5  O   UNL     1      55.066  21.400  47.762  1.00  0.00    -0.550 OA
ENDBRANCH   2   3
ENDBRANCH   1   2
BRANCH   1   6
ATOM      6  C   UNL     1      51.825  21.203  51.196  1.00  0.00     0.000 C 
BRANCH   6   7
ATOM      7  C   UNL     1      52.779  22.041  52.065  1.00  0.00    -0.000 C 
BRANCH   7   8
ATOM      8  C   UNL     1      52.945  21.468  53.480  1.00  0.00    -0.003 C 
ATOM      9  C   UNL     1      51.751  20.621  53.918  1.00  0.00     0.004 C 
ENDBRANCH   7   8
ENDBRANCH   6   7
ENDBRANCH   1   6
TORSDOF 5
ENDMDL
