MODEL 1
REMARK VINA RESULT:    -3.583      0.000      0.000
REMARK INTER + INTRA:          -3.658
REMARK INTER:                  -4.421
REMARK INTRA:                   0.763
REMARK UNBOUND:                 0.763
REMARK SMILES CC1=CC=CC(C)(C)CC1=O
REMARK SMILES IDX 1 1 2 2 3 3 10 4 11 5 9 6 4 8 5 9 6 10 7 11 8 12
REMARK H PARENT
REMARK Flexibility Score: 80.00
ROOT
ATOM      1  C   UNL     1       4.835   4.371 110.125  1.00  0.00     0.048 C 
ATOM      2  C   UNL     1       4.578   4.718 108.678  1.00  0.00    -0.008 C 
ATOM      3  C   UNL     1       3.620   5.632 108.414  1.00  0.00     0.007 C 
ENDROOT
BRANCH   2   4
ATOM      4  C   UNL     1       5.351   3.970 107.656  1.00  0.00     0.159 C 
ATOM      5  O   UNL     1       6.030   2.969 108.019  1.00  0.00    -0.295 OA
BRANCH   4   6
ATOM      6  C   UNL     1       5.383   4.343 106.206  1.00  0.00     0.091 CG0
ATOM      7  G   UNL     1       3.987   4.337 105.544  1.00  0.00     0.000 G0
ENDBRANCH   4   6
ENDBRANCH   2   4
BRANCH   3   8
ATOM      8  C   UNL     1       3.130   6.150 107.114  1.00  0.00    -0.003 C 
ATOM      9  C   UNL     1       3.263   5.621 105.892  1.00  0.00    -0.020 C 
BRANCH   9  10
ATOM     10  C   UNL     1       3.991   4.345 105.539  1.00  0.00    -0.010 CG0
ATOM     11  C   UNL     1       3.134   3.121 105.938  1.00  0.00     0.016 C 
ATOM     12  C   UNL     1       4.191   4.308 104.007  1.00  0.00     0.016 C 
ATOM     13  G   UNL     1       5.385   4.340 106.206  1.00  0.00     0.000 G0
ENDBRANCH   9  10
ENDBRANCH   3   8
TORSDOF 0
ENDMDL
MODEL 2
REMARK VINA RESULT:    -3.498      1.001      1.362
REMARK INTER + INTRA:          -3.554
REMARK INTER:                  -4.299
REMARK INTRA:                   0.745
REMARK UNBOUND:                 0.763
REMARK SMILES CC1=CC=CC(C)(C)CC1=O
REMARK SMILES IDX 1 1 2 2 3 3 10 4 11 5 9 6 4 8 5 9 6 10 7 11 8 12
REMARK H PARENT
REMARK Flexibility Score: 80.00
ROOT
ATOM      1  C   UNL     1       6.465   2.911 109.792  1.00  0.00     0.048 C 
ATOM      2  C   UNL     1       5.632   3.787 108.888  1.00  0.00    -0.008 C 
ATOM      3  C   UNL     1       4.616   4.478 109.449  1.00  0.00     0.007 C 
ENDROOT
BRANCH   2   4
ATOM      4  C   UNL     1       5.951   3.761 107.439  1.00  0.00     0.159 C 
ATOM      5  O   UNL     1       6.724   2.864 107.003  1.00  0.00    -0.295 OA
BRANCH   4   6
ATOM      6  C   UNL     1       5.413   4.755 106.455  1.00  0.00     0.091 CG0
ATOM      7  G   UNL     1       3.872   4.743 106.358  1.00  0.00     0.000 G0
ENDBRANCH   4   6
ENDBRANCH   2   4
BRANCH   3   8
ATOM      8  C   UNL     1       3.622   5.384 108.825  1.00  0.00    -0.003 C 
ATOM      9  C   UNL     1       3.282   5.505 107.536  1.00  0.00    -0.020 C 
BRANCH   9  10
ATOM     10  C   UNL     1       3.872   4.738 106.377  1.00  0.00    -0.010 CG0
ATOM     11  C   UNL     1       3.285   3.307 106.337  1.00  0.00     0.016 C 
ATOM     12  C   UNL     1       3.471   5.453 105.067  1.00  0.00     0.016 C 
ATOM     13  G   UNL     1       5.414   4.746 106.477  1.00  0.00     0.000 G0
ENDBRANCH   9  10
ENDBRANCH   3   8
TORSDOF 0
ENDMDL
MODEL 3
REMARK VINA RESULT:    -3.446      1.928      3.054
REMARK INTER + INTRA:          -3.489
REMARK INTER:                  -4.245
REMARK INTRA:                   0.756
REMARK UNBOUND:                 0.763
REMARK SMILES CC1=CC=CC(C)(C)CC1=O
REMARK SMILES IDX 1 1 2 2 3 3 10 4 11 5 9 6 4 8 5 9 6 10 7 11 8 12
REMARK H PARENT
REMARK Flexibility Score: 80.00
ROOT
ATOM      1  C   UNL     1       3.092   6.957 107.848  1.00  0.00     0.048 C 
ATOM      2  C   UNL     1       3.475   5.498 107.775  1.00  0.00    -0.008 C 
ATOM      3  C   UNL     1       4.422   5.057 108.632  1.00  0.00     0.007 C 
ENDROOT
BRANCH   2   4
ATOM      4  C   UNL     1       2.833   4.683 106.715  1.00  0.00     0.159 C 
ATOM      5  O   UNL     1       2.172   5.268 105.814  1.00  0.00    -0.295 OA
BRANCH   4   6
ATOM      6  C   UNL     1       2.914   3.187 106.659  1.00  0.00     0.091 CG0
ATOM      7  G   UNL     1       4.361   2.659 106.549  1.00  0.00     0.000 G0
ENDBRANCH   4   6
ENDBRANCH   2   4
BRANCH   3   8
ATOM      8  C   UNL     1       5.018   3.707 108.779  1.00  0.00    -0.003 C 
ATOM      9  C   UNL     1       5.015   2.685 107.915  1.00  0.00    -0.020 C 
BRANCH   9  10
ATOM     10  C   UNL     1       4.357   2.660 106.555  1.00  0.00    -0.010 CG0
ATOM     11  C   UNL     1       5.210   3.459 105.542  1.00  0.00     0.016 C 
ATOM     12  C   UNL     1       4.294   1.193 106.073  1.00  0.00     0.016 C 
ATOM     13  G   UNL     1       2.911   3.192 106.666  1.00  0.00     0.000 G0
ENDBRANCH   9  10
ENDBRANCH   3   8
TORSDOF 0
ENDMDL
MODEL 4
REMARK VINA RESULT:    -3.384      2.040      3.067
REMARK INTER + INTRA:          -3.412
REMARK INTER:                  -4.172
REMARK INTRA:                   0.759
REMARK UNBOUND:                 0.763
REMARK SMILES CC1=CC=CC(C)(C)CC1=O
REMARK SMILES IDX 1 1 2 2 3 3 10 4 11 5 9 6 4 8 5 9 6 10 7 11 8 12
REMARK H PARENT
REMARK Flexibility Score: 80.00
ROOT
ATOM      1  C   UNL     1       6.198   0.544 109.249  1.00  0.00     0.048 C 
ATOM      2  C   UNL     1       5.299   1.652 108.755  1.00  0.00    -0.008 C 
ATOM      3  C   UNL     1       4.315   1.322 107.891  1.00  0.00     0.007 C 
ENDROOT
BRANCH   2   4
ATOM      4  C   UNL     1       5.618   3.031 109.201  1.00  0.00     0.159 C 
ATOM      5  O   UNL     1       6.713   3.241 109.793  1.00  0.00    -0.295 OA
BRANCH   4   6
ATOM      6  C   UNL     1       4.700   4.198 109.002  1.00  0.00     0.091 CG0
ATOM      7  G   UNL     1       4.364   4.462 107.517  1.00  0.00     0.000 G0
ENDBRANCH   4   6
ENDBRANCH   2   4
BRANCH   3   8
ATOM      8  C   UNL     1       3.307   2.179 107.222  1.00  0.00    -0.003 C 
ATOM      9  C   UNL     1       3.316   3.505 107.039  1.00  0.00    -0.020 C 
BRANCH   9  10
ATOM     10  C   UNL     1       4.378   4.470 107.513  1.00  0.00    -0.010 CG0
ATOM     11  C   UNL     1       5.622   4.376 106.598  1.00  0.00     0.016 C 
ATOM     12  C   UNL     1       3.814   5.905 107.403  1.00  0.00     0.016 C 
ATOM     13  G   UNL     1       4.708   4.195 108.997  1.00  0.00     0.000 G0
ENDBRANCH   9  10
ENDBRANCH   3   8
TORSDOF 0
ENDMDL
MODEL 5
REMARK VINA RESULT:    -3.383      2.190      3.987
REMARK INTER + INTRA:          -3.412
REMARK INTER:                  -4.170
REMARK INTRA:                   0.759
REMARK UNBOUND:                 0.763
REMARK SMILES CC1=CC=CC(C)(C)CC1=O
REMARK SMILES IDX 1 1 2 2 3 3 10 4 11 5 9 6 4 8 5 9 6 10 7 11 8 12
REMARK H PARENT
REMARK Flexibility Score: 80.00
ROOT
ATOM      1  C   UNL     1       2.487   4.488 106.620  1.00  0.00     0.048 C 
ATOM      2  C   UNL     1       3.603   3.566 107.051  1.00  0.00    -0.008 C 
ATOM      3  C   UNL     1       3.304   2.260 107.224  1.00  0.00     0.007 C 
ENDROOT
BRANCH   2   4
ATOM      4  C   UNL     1       4.924   4.185 107.324  1.00  0.00     0.159 C 
ATOM      5  O   UNL     1       5.005   5.443 107.389  1.00  0.00    -0.295 OA
BRANCH   4   6
ATOM      6  C   UNL     1       6.183   3.396 107.516  1.00  0.00     0.091 CG0
ATOM      7  G   UNL     1       6.109   2.412 108.704  1.00  0.00     0.000 G0
ENDBRANCH   4   6
ENDBRANCH   2   4
BRANCH   3   8
ATOM      8  C   UNL     1       4.166   1.137 107.661  1.00  0.00    -0.003 C 
ATOM      9  C   UNL     1       5.343   1.174 108.298  1.00  0.00    -0.020 C 
BRANCH   9  10
ATOM     10  C   UNL     1       6.104   2.414 108.706  1.00  0.00    -0.010 CG0
ATOM     11  C   UNL     1       5.452   3.043 109.960  1.00  0.00     0.016 C 
ATOM     12  C   UNL     1       7.546   1.998 109.077  1.00  0.00     0.016 C 
ATOM     13  G   UNL     1       6.177   3.396 107.516  1.00  0.00     0.000 G0
ENDBRANCH   9  10
ENDBRANCH   3   8
TORSDOF 0
ENDMDL
MODEL 6
REMARK VINA RESULT:    -3.242      2.699      4.116
REMARK INTER + INTRA:          -3.238
REMARK INTER:                  -3.982
REMARK INTRA:                   0.745
REMARK UNBOUND:                 0.763
REMARK SMILES CC1=CC=CC(C)(C)CC1=O
REMARK SMILES IDX 1 1 2 2 3 3 10 4 11 5 9 6 4 8 5 9 6 10 7 11 8 12
REMARK H PARENT
REMARK Flexibility Score: 80.00
ROOT
ATOM      1  C   UNL     1       3.998   5.541 108.234  1.00  0.00     0.048 C 
ATOM      2  C   UNL     1       4.945   4.367 108.147  1.00  0.00    -0.008 C 
ATOM      3  C   UNL     1       5.209   3.865 106.921  1.00  0.00     0.007 C 
ENDROOT
BRANCH   2   4
ATOM      4  C   UNL     1       5.450   3.811 109.426  1.00  0.00     0.159 C 
ATOM      5  O   UNL     1       4.919   4.189 110.507  1.00  0.00    -0.295 OA
BRANCH   4   6
ATOM      6  C   UNL     1       6.576   2.826 109.512  1.00  0.00     0.091 CG0
ATOM      7  G   UNL     1       6.291   1.508 108.759  1.00  0.00     0.000 G0
ENDBRANCH   4   6
ENDBRANCH   2   4
BRANCH   3   8
ATOM      8  C   UNL     1       6.062   2.720 106.525  1.00  0.00    -0.003 C 
ATOM      9  C   UNL     1       6.521   1.710 107.276  1.00  0.00    -0.020 C 
BRANCH   9  10
ATOM     10  C   UNL     1       6.290   1.514 108.756  1.00  0.00    -0.010 CG0
ATOM     11  C   UNL     1       4.861   0.974 109.000  1.00  0.00     0.016 C 
ATOM     12  C   UNL     1       7.293   0.456 109.268  1.00  0.00     0.016 C 
ATOM     13  G   UNL     1       6.562   2.838 109.505  1.00  0.00     0.000 G0
ENDBRANCH   9  10
ENDBRANCH   3   8
TORSDOF 0
ENDMDL
MODEL 7
REMARK VINA RESULT:    -3.228      1.926      3.854
REMARK INTER + INTRA:          -3.220
REMARK INTER:                  -3.979
REMARK INTRA:                   0.759
REMARK UNBOUND:                 0.763
REMARK SMILES CC1=CC=CC(C)(C)CC1=O
REMARK SMILES IDX 1 1 2 2 3 3 10 4 11 5 9 6 4 8 5 9 6 10 7 11 8 12
REMARK H PARENT
REMARK Flexibility Score: 80.00
ROOT
ATOM      1  C   UNL     1       3.099   5.881 103.451  1.00  0.00     0.048 C 
ATOM      2  C   UNL     1       3.896   5.454 104.661  1.00  0.00    -0.008 C 
ATOM      3  C   UNL     1       5.113   4.908 104.448  1.00  0.00     0.007 C 
ENDROOT
BRANCH   2   4
ATOM      4  C   UNL     1       3.243   5.599 105.985  1.00  0.00     0.159 C 
ATOM      5  O   UNL     1       2.011   5.868 106.030  1.00  0.00    -0.295 OA
BRANCH   4   6
ATOM      6  C   UNL     1       3.973   5.458 107.287  1.00  0.00     0.091 CG0
ATOM      7  G   UNL     1       4.643   4.078 107.462  1.00  0.00     0.000 G0
ENDBRANCH   4   6
ENDBRANCH   2   4
BRANCH   3   8
ATOM      8  C   UNL     1       6.101   4.377 105.417  1.00  0.00    -0.003 C 
ATOM      9  C   UNL     1       5.918   4.006 106.691  1.00  0.00    -0.020 C 
BRANCH   9  10
ATOM     10  C   UNL     1       4.624   4.072 107.468  1.00  0.00    -0.010 CG0
ATOM     11  C   UNL     1       3.691   2.915 107.039  1.00  0.00     0.016 C 
ATOM     12  C   UNL     1       4.950   3.890 108.968  1.00  0.00     0.016 C 
ATOM     13  G   UNL     1       3.975   5.461 107.282  1.00  0.00     0.000 G0
ENDBRANCH   9  10
ENDBRANCH   3   8
TORSDOF 0
ENDMDL
MODEL 8
REMARK VINA RESULT:    -3.224      1.466      2.477
REMARK INTER + INTRA:          -3.215
REMARK INTER:                  -3.971
REMARK INTRA:                   0.756
REMARK UNBOUND:                 0.763
REMARK SMILES CC1=CC=CC(C)(C)CC1=O
REMARK SMILES IDX 1 1 2 2 3 3 10 4 11 5 9 6 4 8 5 9 6 10 7 11 8 12
REMARK H PARENT
REMARK Flexibility Score: 80.00
ROOT
ATOM      1  C   UNL     1       2.906   7.287 107.701  1.00  0.00     0.048 C 
ATOM      2  C   UNL     1       3.474   6.064 107.021  1.00  0.00    -0.008 C 
ATOM      3  C   UNL     1       3.199   5.894 105.710  1.00  0.00     0.007 C 
ENDROOT
BRANCH   2   4
ATOM      4  C   UNL     1       4.226   5.107 107.869  1.00  0.00     0.159 C 
ATOM      5  O   UNL     1       4.175   5.235 109.124  1.00  0.00    -0.295 OA
BRANCH   4   6
ATOM      6  C   UNL     1       5.064   3.994 107.317  1.00  0.00     0.091 CG0
ATOM      7  G   UNL     1       4.257   2.991 106.463  1.00  0.00     0.000 G0
ENDBRANCH   4   6
ENDBRANCH   2   4
BRANCH   3   8
ATOM      8  C   UNL     1       3.586   4.796 104.791  1.00  0.00    -0.003 C 
ATOM      9  C   UNL     1       4.018   3.563 105.084  1.00  0.00    -0.020 C 
BRANCH   9  10
ATOM     10  C   UNL     1       4.243   2.996 106.466  1.00  0.00    -0.010 CG0
ATOM     11  C   UNL     1       2.888   2.626 107.112  1.00  0.00     0.016 C 
ATOM     12  C   UNL     1       5.075   1.700 106.328  1.00  0.00     0.016 C 
ATOM     13  G   UNL     1       5.054   3.999 107.315  1.00  0.00     0.000 G0
ENDBRANCH   9  10
ENDBRANCH   3   8
TORSDOF 0
ENDMDL
MODEL 9
REMARK VINA RESULT:    -3.184      2.560      3.936
REMARK INTER + INTRA:          -3.166
REMARK INTER:                  -3.915
REMARK INTRA:                   0.749
REMARK UNBOUND:                 0.763
REMARK SMILES CC1=CC=CC(C)(C)CC1=O
REMARK SMILES IDX 1 1 2 2 3 3 10 4 11 5 9 6 4 8 5 9 6 10 7 11 8 12
REMARK H PARENT
REMARK Flexibility Score: 80.00
ROOT
ATOM      1  C   UNL     1       2.527   4.570 106.678  1.00  0.00     0.048 C 
ATOM      2  C   UNL     1       3.530   3.797 107.501  1.00  0.00    -0.008 C 
ATOM      3  C   UNL     1       4.311   4.496 108.354  1.00  0.00     0.007 C 
ENDROOT
BRANCH   2   4
ATOM      4  C   UNL     1       3.629   2.338 107.251  1.00  0.00     0.159 C 
ATOM      5  O   UNL     1       3.040   1.851 106.246  1.00  0.00    -0.295 OA
BRANCH   4   6
ATOM      6  C   UNL     1       4.383   1.395 108.140  1.00  0.00     0.091 CG0
ATOM      7  G   UNL     1       5.884   1.740 108.258  1.00  0.00     0.000 G0
ENDBRANCH   4   6
ENDBRANCH   2   4
BRANCH   3   8
ATOM      8  C   UNL     1       5.387   4.028 109.259  1.00  0.00    -0.003 C 
ATOM      9  C   UNL     1       6.072   2.878 109.233  1.00  0.00    -0.020 C 
BRANCH   9  10
ATOM     10  C   UNL     1       5.881   1.741 108.256  1.00  0.00    -0.010 CG0
ATOM     11  C   UNL     1       6.524   2.100 106.896  1.00  0.00     0.016 C 
ATOM     12  C   UNL     1       6.607   0.496 108.813  1.00  0.00     0.016 C 
ATOM     13  G   UNL     1       4.378   1.407 108.134  1.00  0.00     0.000 G0
ENDBRANCH   9  10
ENDBRANCH   3   8
TORSDOF 0
ENDMDL
