MODEL 1
REMARK VINA RESULT:    -6.533      0.000      0.000
REMARK INTER + INTRA:         -11.286
REMARK INTER:                  -9.971
REMARK INTRA:                  -1.316
REMARK UNBOUND:                -1.316
REMARK SMILES CC(=O)CCC=C(C)CCC=C(C)CCC=C(C)C
REMARK SMILES IDX 10 1 11 2 12 3 13 4 14 5 15 6 16 7 18 8 17 9 19 10 9 11 7 12
REMARK SMILES IDX 6 13 8 14 5 15 4 16 2 17 3 18 1 19
REMARK H PARENT
REMARK Flexibility Score: inf
ROOT
ATOM      1  C   UNL     1     -12.529 -18.745  31.968  1.00  0.00     0.032 C 
ENDROOT
BRANCH   1   2
ATOM      2  C   UNL     1     -13.513 -17.603  31.985  1.00  0.00    -0.028 C 
ATOM      3  C   UNL     1     -13.169 -16.299  31.873  1.00  0.00    -0.077 C 
ATOM      4  C   UNL     1     -11.742 -15.870  31.623  1.00  0.00     0.039 C 
BRANCH   3   5
ATOM      5  C   UNL     1     -14.247 -15.241  31.991  1.00  0.00     0.034 C 
BRANCH   5   6
ATOM      6  C   UNL     1     -14.381 -14.719  33.430  1.00  0.00     0.032 C 
BRANCH   6   7
ATOM      7  C   UNL     1     -13.175 -15.068  34.269  1.00  0.00    -0.028 C 
ATOM      8  C   UNL     1     -11.457 -14.735  36.019  1.00  0.00     0.039 C 
ATOM      9  C   UNL     1     -12.692 -14.301  35.272  1.00  0.00    -0.080 C 
ATOM     10  C   UNL     1     -13.384 -13.038  35.721  1.00  0.00     0.039 C 
ENDBRANCH   6   7
ENDBRANCH   5   6
ENDBRANCH   3   5
ENDBRANCH   1   2
BRANCH   1  11
ATOM     11  C   UNL     1     -12.965 -19.817  30.964  1.00  0.00     0.034 C 
BRANCH  11  12
ATOM     12  C   UNL     1     -12.916 -19.281  29.549  1.00  0.00    -0.077 C 
ATOM     13  C   UNL     1     -11.884 -18.489  29.183  1.00  0.00    -0.028 C 
ATOM     14  C   UNL     1     -14.013 -19.662  28.583  1.00  0.00     0.039 C 
BRANCH  13  15
ATOM     15  C   UNL     1     -11.730 -17.862  27.820  1.00  0.00     0.035 C 
BRANCH  15  16
ATOM     16  C   UNL     1     -11.757 -16.333  27.919  1.00  0.00     0.079 C 
BRANCH  16  17
ATOM     17  C   UNL     1     -13.121 -15.800  27.568  1.00  0.00     0.130 C 
ATOM     18  O   UNL     1     -13.729 -16.280  26.622  1.00  0.00    -0.300 OA
ATOM     19  C   UNL     1     -13.760 -14.700  28.363  1.00  0.00     0.087 C 
ENDBRANCH  16  17
ENDBRANCH  15  16
ENDBRANCH  13  15
ENDBRANCH  11  12
ENDBRANCH   1  11
TORSDOF 9
ENDMDL
MODEL 2
REMARK VINA RESULT:    -6.411      3.040      7.175
REMARK INTER + INTRA:         -11.100
REMARK INTER:                  -9.600
REMARK INTRA:                  -1.500
REMARK UNBOUND:                -1.316
REMARK SMILES CC(=O)CCC=C(C)CCC=C(C)CCC=C(C)C
REMARK SMILES IDX 10 1 11 2 12 3 13 4 14 5 15 6 16 7 18 8 17 9 19 10 9 11 7 12
REMARK SMILES IDX 6 13 8 14 5 15 4 16 2 17 3 18 1 19
REMARK H PARENT
REMARK Flexibility Score: inf
ROOT
ATOM      1  C   UNL     1     -13.423 -16.243  32.910  1.00  0.00     0.032 C 
ENDROOT
BRANCH   1   2
ATOM      2  C   UNL     1     -13.258 -16.083  31.420  1.00  0.00    -0.028 C 
ATOM      3  C   UNL     1     -12.065 -16.084  30.781  1.00  0.00    -0.077 C 
ATOM      4  C   UNL     1     -10.768 -16.343  31.513  1.00  0.00     0.039 C 
BRANCH   3   5
ATOM      5  C   UNL     1     -12.030 -15.829  29.288  1.00  0.00     0.034 C 
BRANCH   5   6
ATOM      6  C   UNL     1     -11.595 -17.076  28.504  1.00  0.00     0.032 C 
BRANCH   6   7
ATOM      7  C   UNL     1     -12.746 -18.031  28.285  1.00  0.00    -0.028 C 
ATOM      8  C   UNL     1     -14.122 -20.050  28.676  1.00  0.00     0.039 C 
ATOM      9  C   UNL     1     -12.958 -19.153  29.009  1.00  0.00    -0.080 C 
ATOM     10  C   UNL     1     -12.097 -19.517  30.193  1.00  0.00     0.039 C 
ENDBRANCH   6   7
ENDBRANCH   5   6
ENDBRANCH   3   5
ENDBRANCH   1   2
BRANCH   1  11
ATOM     11  C   UNL     1     -14.019 -14.973  33.525  1.00  0.00     0.034 C 
BRANCH  11  12
ATOM     12  C   UNL     1     -13.081 -14.381  34.555  1.00  0.00    -0.077 C 
ATOM     13  C   UNL     1     -11.826 -14.874  34.659  1.00  0.00    -0.028 C 
ATOM     14  C   UNL     1     -13.568 -13.245  35.423  1.00  0.00     0.039 C 
BRANCH  13  15
ATOM     15  C   UNL     1     -10.804 -14.402  35.662  1.00  0.00     0.035 C 
BRANCH  15  16
ATOM     16  C   UNL     1      -9.925 -13.299  35.063  1.00  0.00     0.079 C 
BRANCH  16  17
ATOM     17  C   UNL     1     -10.263 -11.961  35.668  1.00  0.00     0.130 C 
ATOM     18  O   UNL     1     -10.804 -11.915  36.763  1.00  0.00    -0.300 OA
ATOM     19  C   UNL     1      -9.938 -10.679  34.960  1.00  0.00     0.087 C 
ENDBRANCH  16  17
ENDBRANCH  15  16
ENDBRANCH  13  15
ENDBRANCH  11  12
ENDBRANCH   1  11
TORSDOF 9
ENDMDL
MODEL 3
REMARK VINA RESULT:    -6.324      2.952      7.114
REMARK INTER + INTRA:         -10.967
REMARK INTER:                 -10.207
REMARK INTRA:                  -0.760
REMARK UNBOUND:                -1.316
REMARK SMILES CC(=O)CCC=C(C)CCC=C(C)CCC=C(C)C
REMARK SMILES IDX 10 1 11 2 12 3 13 4 14 5 15 6 16 7 18 8 17 9 19 10 9 11 7 12
REMARK SMILES IDX 6 13 8 14 5 15 4 16 2 17 3 18 1 19
REMARK H PARENT
REMARK Flexibility Score: inf
ROOT
ATOM      1  C   UNL     1     -14.379 -15.035  31.248  1.00  0.00     0.032 C 
ENDROOT
BRANCH   1   2
ATOM      2  C   UNL     1     -13.262 -15.550  30.376  1.00  0.00    -0.028 C 
ATOM      3  C   UNL     1     -13.146 -15.289  29.053  1.00  0.00    -0.077 C 
ATOM      4  C   UNL     1     -14.099 -14.361  28.336  1.00  0.00     0.039 C 
BRANCH   3   5
ATOM      5  C   UNL     1     -12.022 -15.938  28.271  1.00  0.00     0.034 C 
BRANCH   5   6
ATOM      6  C   UNL     1     -11.649 -17.315  28.841  1.00  0.00     0.032 C 
BRANCH   6   7
ATOM      7  C   UNL     1     -12.606 -18.391  28.383  1.00  0.00    -0.028 C 
ATOM      8  C   UNL     1     -14.104 -20.345  28.626  1.00  0.00     0.039 C 
ATOM      9  C   UNL     1     -13.192 -19.293  29.203  1.00  0.00    -0.080 C 
ATOM     10  C   UNL     1     -13.011 -19.253  30.699  1.00  0.00     0.039 C 
ENDBRANCH   6   7
ENDBRANCH   5   6
ENDBRANCH   3   5
ENDBRANCH   1   2
BRANCH   1  11
ATOM     11  C   UNL     1     -14.369 -15.739  32.608  1.00  0.00     0.034 C 
BRANCH  11  12
ATOM     12  C   UNL     1     -13.049 -15.523  33.317  1.00  0.00    -0.077 C 
ATOM     13  C   UNL     1     -13.017 -14.741  34.420  1.00  0.00    -0.028 C 
ATOM     14  C   UNL     1     -11.811 -16.202  32.783  1.00  0.00     0.039 C 
BRANCH  13  15
ATOM     15  C   UNL     1     -11.768 -14.416  35.200  1.00  0.00     0.035 C 
BRANCH  15  16
ATOM     16  C   UNL     1     -12.107 -14.097  36.660  1.00  0.00     0.079 C 
BRANCH  16  17
ATOM     17  C   UNL     1     -12.120 -12.609  36.890  1.00  0.00     0.130 C 
ATOM     18  O   UNL     1     -12.862 -12.139  37.741  1.00  0.00    -0.300 OA
ATOM     19  C   UNL     1     -11.232 -11.687  36.108  1.00  0.00     0.087 C 
ENDBRANCH  16  17
ENDBRANCH  15  16
ENDBRANCH  13  15
ENDBRANCH  11  12
ENDBRANCH   1  11
TORSDOF 9
ENDMDL
MODEL 4
REMARK VINA RESULT:    -6.277      1.915      3.539
REMARK INTER + INTRA:         -10.896
REMARK INTER:                  -9.625
REMARK INTRA:                  -1.270
REMARK UNBOUND:                -1.316
REMARK SMILES CC(=O)CCC=C(C)CCC=C(C)CCC=C(C)C
REMARK SMILES IDX 10 1 11 2 12 3 13 4 14 5 15 6 16 7 18 8 17 9 19 10 9 11 7 12
REMARK SMILES IDX 6 13 8 14 5 15 4 16 2 17 3 18 1 19
REMARK H PARENT
REMARK Flexibility Score: inf
ROOT
ATOM      1  C   UNL     1     -13.792 -16.070  32.828  1.00  0.00     0.032 C 
ENDROOT
BRANCH   1   2
ATOM      2  C   UNL     1     -12.542 -15.501  33.450  1.00  0.00    -0.028 C 
ATOM      3  C   UNL     1     -11.286 -15.884  33.122  1.00  0.00    -0.077 C 
ATOM      4  C   UNL     1     -11.018 -16.874  32.013  1.00  0.00     0.039 C 
BRANCH   3   5
ATOM      5  C   UNL     1     -10.115 -15.296  33.883  1.00  0.00     0.034 C 
BRANCH   5   6
ATOM      6  C   UNL     1     -10.504 -14.898  35.315  1.00  0.00     0.032 C 
BRANCH   6   7
ATOM      7  C   UNL     1     -10.318 -13.418  35.557  1.00  0.00    -0.028 C 
ATOM      8  C   UNL     1     -11.015 -11.100  36.069  1.00  0.00     0.039 C 
ATOM      9  C   UNL     1     -11.315 -12.565  35.887  1.00  0.00    -0.080 C 
ATOM     10  C   UNL     1     -12.724 -13.039  36.141  1.00  0.00     0.039 C 
ENDBRANCH   6   7
ENDBRANCH   5   6
ENDBRANCH   3   5
ENDBRANCH   1   2
BRANCH   1  11
ATOM     11  C   UNL     1     -14.684 -14.947  32.289  1.00  0.00     0.034 C 
BRANCH  11  12
ATOM     12  C   UNL     1     -14.448 -14.736  30.809  1.00  0.00    -0.077 C 
ATOM     13  C   UNL     1     -13.529 -15.500  30.175  1.00  0.00    -0.028 C 
ATOM     14  C   UNL     1     -15.258 -13.691  30.079  1.00  0.00     0.039 C 
BRANCH  13  15
ATOM     15  C   UNL     1     -13.171 -15.371  28.716  1.00  0.00     0.035 C 
BRANCH  15  16
ATOM     16  C   UNL     1     -11.762 -15.911  28.452  1.00  0.00     0.079 C 
BRANCH  16  17
ATOM     17  C   UNL     1     -11.819 -17.165  27.621  1.00  0.00     0.130 C 
ATOM     18  O   UNL     1     -12.323 -18.175  28.089  1.00  0.00    -0.300 OA
ATOM     19  C   UNL     1     -11.282 -17.201  26.220  1.00  0.00     0.087 C 
ENDBRANCH  16  17
ENDBRANCH  15  16
ENDBRANCH  13  15
ENDBRANCH  11  12
ENDBRANCH   1  11
TORSDOF 9
ENDMDL
MODEL 5
REMARK VINA RESULT:    -6.219      2.029      3.707
REMARK INTER + INTRA:         -10.807
REMARK INTER:                  -9.651
REMARK INTRA:                  -1.155
REMARK UNBOUND:                -1.316
REMARK SMILES CC(=O)CCC=C(C)CCC=C(C)CCC=C(C)C
REMARK SMILES IDX 10 1 11 2 12 3 13 4 14 5 15 6 16 7 18 8 17 9 19 10 9 11 7 12
REMARK SMILES IDX 6 13 8 14 5 15 4 16 2 17 3 18 1 19
REMARK H PARENT
REMARK Flexibility Score: inf
ROOT
ATOM      1  C   UNL     1     -13.616 -15.115  29.575  1.00  0.00     0.032 C 
ENDROOT
BRANCH   1   2
ATOM      2  C   UNL     1     -13.401 -15.672  30.960  1.00  0.00    -0.028 C 
ATOM      3  C   UNL     1     -14.133 -15.325  32.043  1.00  0.00    -0.077 C 
ATOM      4  C   UNL     1     -15.319 -14.394  31.939  1.00  0.00     0.039 C 
BRANCH   3   5
ATOM      5  C   UNL     1     -13.759 -15.893  33.398  1.00  0.00     0.034 C 
BRANCH   5   6
ATOM      6  C   UNL     1     -12.552 -15.167  34.009  1.00  0.00     0.032 C 
BRANCH   6   7
ATOM      7  C   UNL     1     -12.952 -14.296  35.177  1.00  0.00    -0.028 C 
ATOM      8  C   UNL     1     -12.609 -12.709  37.044  1.00  0.00     0.039 C 
ATOM      9  C   UNL     1     -12.101 -13.509  35.873  1.00  0.00    -0.080 C 
ATOM     10  C   UNL     1     -10.653 -13.352  35.481  1.00  0.00     0.039 C 
ENDBRANCH   6   7
ENDBRANCH   5   6
ENDBRANCH   3   5
ENDBRANCH   1   2
BRANCH   1  11
ATOM     11  C   UNL     1     -12.455 -15.500  28.653  1.00  0.00     0.034 C 
BRANCH  11  12
ATOM     12  C   UNL     1     -12.074 -16.952  28.843  1.00  0.00    -0.077 C 
ATOM     13  C   UNL     1     -13.035 -17.899  28.754  1.00  0.00    -0.028 C 
ATOM     14  C   UNL     1     -10.629 -17.303  29.109  1.00  0.00     0.039 C 
BRANCH  13  15
ATOM     15  C   UNL     1     -12.801 -19.375  28.955  1.00  0.00     0.035 C 
BRANCH  15  16
ATOM     16  C   UNL     1     -13.585 -19.890  30.166  1.00  0.00     0.079 C 
BRANCH  16  17
ATOM     17  C   UNL     1     -12.668 -20.104  31.342  1.00  0.00     0.130 C 
ATOM     18  O   UNL     1     -12.448 -21.240  31.734  1.00  0.00    -0.300 OA
ATOM     19  C   UNL     1     -12.005 -18.951  32.037  1.00  0.00     0.087 C 
ENDBRANCH  16  17
ENDBRANCH  15  16
ENDBRANCH  13  15
ENDBRANCH  11  12
ENDBRANCH   1  11
TORSDOF 9
ENDMDL
MODEL 6
REMARK VINA RESULT:    -6.214      2.969      6.783
REMARK INTER + INTRA:         -10.800
REMARK INTER:                  -9.160
REMARK INTRA:                  -1.640
REMARK UNBOUND:                -1.316
REMARK SMILES CC(=O)CCC=C(C)CCC=C(C)CCC=C(C)C
REMARK SMILES IDX 10 1 11 2 12 3 13 4 14 5 15 6 16 7 18 8 17 9 19 10 9 11 7 12
REMARK SMILES IDX 6 13 8 14 5 15 4 16 2 17 3 18 1 19
REMARK H PARENT
REMARK Flexibility Score: inf
ROOT
ATOM      1  C   UNL     1     -13.684 -17.198  32.506  1.00  0.00     0.032 C 
ENDROOT
BRANCH   1   2
ATOM      2  C   UNL     1     -13.579 -17.818  31.136  1.00  0.00    -0.028 C 
ATOM      3  C   UNL     1     -12.862 -18.931  30.856  1.00  0.00    -0.077 C 
ATOM      4  C   UNL     1     -12.160 -19.720  31.936  1.00  0.00     0.039 C 
BRANCH   3   5
ATOM      5  C   UNL     1     -12.768 -19.404  29.419  1.00  0.00     0.034 C 
BRANCH   5   6
ATOM      6  C   UNL     1     -12.521 -18.240  28.448  1.00  0.00     0.032 C 
BRANCH   6   7
ATOM      7  C   UNL     1     -11.319 -17.418  28.850  1.00  0.00    -0.028 C 
ATOM      8  C   UNL     1     -10.040 -15.353  29.324  1.00  0.00     0.039 C 
ATOM      9  C   UNL     1     -11.312 -16.069  28.947  1.00  0.00    -0.080 C 
ATOM     10  C   UNL     1     -12.558 -15.244  28.747  1.00  0.00     0.039 C 
ENDBRANCH   6   7
ENDBRANCH   5   6
ENDBRANCH   3   5
ENDBRANCH   1   2
BRANCH   1  11
ATOM     11  C   UNL     1     -13.232 -15.734  32.471  1.00  0.00     0.034 C 
BRANCH  11  12
ATOM     12  C   UNL     1     -12.004 -15.529  33.330  1.00  0.00    -0.077 C 
ATOM     13  C   UNL     1     -12.139 -14.937  34.539  1.00  0.00    -0.028 C 
ATOM     14  C   UNL     1     -10.665 -16.008  32.821  1.00  0.00     0.039 C 
BRANCH  13  15
ATOM     15  C   UNL     1     -10.997 -14.642  35.478  1.00  0.00     0.035 C 
BRANCH  15  16
ATOM     16  C   UNL     1     -11.521 -14.241  36.861  1.00  0.00     0.079 C 
BRANCH  16  17
ATOM     17  C   UNL     1     -11.894 -12.782  36.887  1.00  0.00     0.130 C 
ATOM     18  O   UNL     1     -12.905 -12.430  37.475  1.00  0.00    -0.300 OA
ATOM     19  C   UNL     1     -11.042 -11.744  36.217  1.00  0.00     0.087 C 
ENDBRANCH  16  17
ENDBRANCH  15  16
ENDBRANCH  13  15
ENDBRANCH  11  12
ENDBRANCH   1  11
TORSDOF 9
ENDMDL
MODEL 7
REMARK VINA RESULT:    -6.099      1.525      2.591
REMARK INTER + INTRA:         -10.624
REMARK INTER:                  -9.192
REMARK INTRA:                  -1.432
REMARK UNBOUND:                -1.316
REMARK SMILES CC(=O)CCC=C(C)CCC=C(C)CCC=C(C)C
REMARK SMILES IDX 10 1 11 2 12 3 13 4 14 5 15 6 16 7 18 8 17 9 19 10 9 11 7 12
REMARK SMILES IDX 6 13 8 14 5 15 4 16 2 17 3 18 1 19
REMARK H PARENT
REMARK Flexibility Score: inf
ROOT
ATOM      1  C   UNL     1     -13.315 -16.273  32.221  1.00  0.00     0.032 C 
ENDROOT
BRANCH   1   2
ATOM      2  C   UNL     1     -12.217 -15.839  33.158  1.00  0.00    -0.028 C 
ATOM      3  C   UNL     1     -10.924 -15.676  32.793  1.00  0.00    -0.077 C 
ATOM      4  C   UNL     1     -10.474 -15.831  31.358  1.00  0.00     0.039 C 
BRANCH   3   5
ATOM      5  C   UNL     1      -9.900 -15.319  33.851  1.00  0.00     0.034 C 
BRANCH   5   6
ATOM      6  C   UNL     1     -10.551 -15.085  35.223  1.00  0.00     0.032 C 
BRANCH   6   7
ATOM      7  C   UNL     1     -10.441 -13.642  35.657  1.00  0.00    -0.028 C 
ATOM      8  C   UNL     1     -11.265 -11.395  36.287  1.00  0.00     0.039 C 
ATOM      9  C   UNL     1     -11.497 -12.830  35.891  1.00  0.00    -0.080 C 
ATOM     10  C   UNL     1     -12.920 -13.328  35.830  1.00  0.00     0.039 C 
ENDBRANCH   6   7
ENDBRANCH   5   6
ENDBRANCH   3   5
ENDBRANCH   1   2
BRANCH   1  11
ATOM     11  C   UNL     1     -13.533 -17.787  32.310  1.00  0.00     0.034 C 
BRANCH  11  12
ATOM     12  C   UNL     1     -12.989 -18.483  31.081  1.00  0.00    -0.077 C 
ATOM     13  C   UNL     1     -12.889 -17.789  29.925  1.00  0.00    -0.028 C 
ATOM     14  C   UNL     1     -12.557 -19.926  31.187  1.00  0.00     0.039 C 
BRANCH  13  15
ATOM     15  C   UNL     1     -12.398 -18.368  28.622  1.00  0.00     0.035 C 
BRANCH  15  16
ATOM     16  C   UNL     1     -11.407 -17.416  27.943  1.00  0.00     0.079 C 
BRANCH  16  17
ATOM     17  C   UNL     1     -11.975 -16.889  26.652  1.00  0.00     0.130 C 
ATOM     18  O   UNL     1     -11.326 -16.996  25.622  1.00  0.00    -0.300 OA
ATOM     19  C   UNL     1     -13.329 -16.246  26.597  1.00  0.00     0.087 C 
ENDBRANCH  16  17
ENDBRANCH  15  16
ENDBRANCH  13  15
ENDBRANCH  11  12
ENDBRANCH   1  11
TORSDOF 9
ENDMDL
MODEL 8
REMARK VINA RESULT:    -6.073      1.605      2.386
REMARK INTER + INTRA:         -10.584
REMARK INTER:                  -9.032
REMARK INTRA:                  -1.552
REMARK UNBOUND:                -1.316
REMARK SMILES CC(=O)CCC=C(C)CCC=C(C)CCC=C(C)C
REMARK SMILES IDX 10 1 11 2 12 3 13 4 14 5 15 6 16 7 18 8 17 9 19 10 9 11 7 12
REMARK SMILES IDX 6 13 8 14 5 15 4 16 2 17 3 18 1 19
REMARK H PARENT
REMARK Flexibility Score: inf
ROOT
ATOM      1  C   UNL     1     -13.574 -17.975  31.862  1.00  0.00     0.032 C 
ENDROOT
BRANCH   1   2
ATOM      2  C   UNL     1     -13.927 -16.852  32.803  1.00  0.00    -0.028 C 
ATOM      3  C   UNL     1     -14.099 -15.564  32.422  1.00  0.00    -0.077 C 
ATOM      4  C   UNL     1     -14.040 -15.147  30.971  1.00  0.00     0.039 C 
BRANCH   3   5
ATOM      5  C   UNL     1     -14.368 -14.514  33.480  1.00  0.00     0.034 C 
BRANCH   5   6
ATOM      6  C   UNL     1     -13.547 -14.761  34.755  1.00  0.00     0.032 C 
BRANCH   6   7
ATOM      7  C   UNL     1     -13.176 -13.469  35.444  1.00  0.00    -0.028 C 
ATOM      8  C   UNL     1     -11.695 -11.867  36.611  1.00  0.00     0.039 C 
ATOM      9  C   UNL     1     -11.939 -13.177  35.908  1.00  0.00    -0.080 C 
ATOM     10  C   UNL     1     -10.764 -14.097  35.694  1.00  0.00     0.039 C 
ENDBRANCH   6   7
ENDBRANCH   5   6
ENDBRANCH   3   5
ENDBRANCH   1   2
BRANCH   1  11
ATOM     11  C   UNL     1     -12.113 -18.396  32.049  1.00  0.00     0.034 C 
BRANCH  11  12
ATOM     12  C   UNL     1     -11.195 -17.556  31.189  1.00  0.00    -0.077 C 
ATOM     13  C   UNL     1     -11.101 -17.829  29.868  1.00  0.00    -0.028 C 
ATOM     14  C   UNL     1     -10.425 -16.424  31.827  1.00  0.00     0.039 C 
BRANCH  13  15
ATOM     15  C   UNL     1     -10.202 -17.094  28.906  1.00  0.00     0.035 C 
BRANCH  15  16
ATOM     16  C   UNL     1     -10.992 -16.043  28.118  1.00  0.00     0.079 C 
BRANCH  16  17
ATOM     17  C   UNL     1     -11.778 -16.690  27.008  1.00  0.00     0.130 C 
ATOM     18  O   UNL     1     -11.203 -17.407  26.202  1.00  0.00    -0.300 OA
ATOM     19  C   UNL     1     -13.258 -16.484  26.876  1.00  0.00     0.087 C 
ENDBRANCH  16  17
ENDBRANCH  15  16
ENDBRANCH  13  15
ENDBRANCH  11  12
ENDBRANCH   1  11
TORSDOF 9
ENDMDL
MODEL 9
REMARK VINA RESULT:    -6.018      2.960      6.701
REMARK INTER + INTRA:         -10.500
REMARK INTER:                  -9.129
REMARK INTRA:                  -1.371
REMARK UNBOUND:                -1.316
REMARK SMILES CC(=O)CCC=C(C)CCC=C(C)CCC=C(C)C
REMARK SMILES IDX 10 1 11 2 12 3 13 4 14 5 15 6 16 7 18 8 17 9 19 10 9 11 7 12
REMARK SMILES IDX 6 13 8 14 5 15 4 16 2 17 3 18 1 19
REMARK H PARENT
REMARK Flexibility Score: inf
ROOT
ATOM      1  C   UNL     1     -12.491 -17.657  32.269  1.00  0.00     0.032 C 
ENDROOT
BRANCH   1   2
ATOM      2  C   UNL     1     -11.698 -17.529  30.993  1.00  0.00    -0.028 C 
ATOM      3  C   UNL     1     -10.663 -16.675  30.821  1.00  0.00    -0.077 C 
ATOM      4  C   UNL     1     -10.140 -15.818  31.951  1.00  0.00     0.039 C 
BRANCH   3   5
ATOM      5  C   UNL     1     -10.003 -16.581  29.460  1.00  0.00     0.034 C 
BRANCH   5   6
ATOM      6  C   UNL     1     -11.037 -16.476  28.329  1.00  0.00     0.032 C 
BRANCH   6   7
ATOM      7  C   UNL     1     -12.117 -15.468  28.647  1.00  0.00    -0.028 C 
ATOM      8  C   UNL     1     -14.243 -14.245  28.322  1.00  0.00     0.039 C 
ATOM      9  C   UNL     1     -13.252 -15.310  27.929  1.00  0.00    -0.080 C 
ATOM     10  C   UNL     1     -13.598 -16.208  26.769  1.00  0.00     0.039 C 
ENDBRANCH   6   7
ENDBRANCH   5   6
ENDBRANCH   3   5
ENDBRANCH   1   2
BRANCH   1  11
ATOM     11  C   UNL     1     -13.861 -16.988  32.122  1.00  0.00     0.034 C 
BRANCH  11  12
ATOM     12  C   UNL     1     -13.898 -15.668  32.862  1.00  0.00    -0.077 C 
ATOM     13  C   UNL     1     -13.130 -15.512  33.964  1.00  0.00    -0.028 C 
ATOM     14  C   UNL     1     -14.779 -14.558  32.339  1.00  0.00     0.039 C 
BRANCH  13  15
ATOM     15  C   UNL     1     -13.097 -14.266  34.813  1.00  0.00     0.035 C 
BRANCH  15  16
ATOM     16  C   UNL     1     -11.712 -14.071  35.439  1.00  0.00     0.079 C 
BRANCH  16  17
ATOM     17  C   UNL     1     -11.687 -12.836  36.301  1.00  0.00     0.130 C 
ATOM     18  O   UNL     1     -10.777 -12.031  36.171  1.00  0.00    -0.300 OA
ATOM     19  C   UNL     1     -12.763 -12.564  37.310  1.00  0.00     0.087 C 
ENDBRANCH  16  17
ENDBRANCH  15  16
ENDBRANCH  13  15
ENDBRANCH  11  12
ENDBRANCH   1  11
TORSDOF 9
ENDMDL
