MODEL 1
REMARK VINA RESULT:    -5.510      0.000      0.000
REMARK INTER + INTRA:          -6.368
REMARK INTER:                  -6.315
REMARK INTRA:                  -0.052
REMARK UNBOUND:                -0.052
REMARK SMILES O=C([O-])c1cc(O)c(O)c(O)c1
REMARK SMILES IDX 4 1 5 2 12 3 6 4 10 5 8 6 2 7 1 8 3 9 7 10 11 12 9 14
REMARK H PARENT 7 11 11 13 9 15
REMARK Flexibility Score: inf
ROOT
ATOM      1  C   UNL     1       4.116  -0.935 -22.426  1.00  0.00     0.005 A 
ATOM      2  C   UNL     1       4.930  -1.668 -23.308  1.00  0.00     0.060 A 
ATOM      3  C   UNL     1       2.910  -1.502 -21.982  1.00  0.00     0.060 A 
ATOM      4  C   UNL     1       4.549  -2.943 -23.738  1.00  0.00     0.162 A 
ATOM      5  C   UNL     1       2.522  -2.779 -22.409  1.00  0.00     0.162 A 
ATOM      6  C   UNL     1       3.342  -3.504 -23.290  1.00  0.00     0.200 A 
ENDROOT
BRANCH   1   7
ATOM      7  C   UNL     1       4.521   0.414 -21.971  1.00  0.00     0.072 C 
ATOM      8  O   UNL     1       3.686   1.183 -21.424  1.00  0.00    -0.545 OA
ATOM      9  O   UNL     1       5.830   0.851 -22.139  1.00  0.00    -0.545 OA
ENDBRANCH   1   7
BRANCH   4  10
ATOM     10  O   UNL     1       5.386  -3.637 -24.612  1.00  0.00    -0.504 OA
ATOM     11  H   UNL     1       6.352  -3.837 -24.387  1.00  0.00     0.293 HD
ENDBRANCH   4  10
BRANCH   5  12
ATOM     12  O   UNL     1       1.322  -3.330 -21.961  1.00  0.00    -0.504 OA
ATOM     13  H   UNL     1       0.631  -2.774 -21.472  1.00  0.00     0.293 HD
ENDBRANCH   5  12
BRANCH   6  14
ATOM     14  O   UNL     1       2.970  -4.777 -23.725  1.00  0.00    -0.502 OA
ATOM     15  H   UNL     1       2.029  -5.134 -23.609  1.00  0.00     0.293 HD
ENDBRANCH   6  14
TORSDOF 4
ENDMDL
MODEL 2
REMARK VINA RESULT:    -5.505      0.032      2.429
REMARK INTER + INTRA:          -6.361
REMARK INTER:                  -6.309
REMARK INTRA:                  -0.052
REMARK UNBOUND:                -0.052
REMARK SMILES O=C([O-])c1cc(O)c(O)c(O)c1
REMARK SMILES IDX 4 1 5 2 12 3 6 4 10 5 8 6 2 7 1 8 3 9 7 10 11 12 9 14
REMARK H PARENT 7 11 11 13 9 15
REMARK Flexibility Score: inf
ROOT
ATOM      1  C   UNL     1       4.119  -0.945 -22.427  1.00  0.00     0.005 A 
ATOM      2  C   UNL     1       2.921  -1.533 -21.988  1.00  0.00     0.060 A 
ATOM      3  C   UNL     1       4.944  -1.658 -23.312  1.00  0.00     0.060 A 
ATOM      4  C   UNL     1       2.550  -2.810 -22.423  1.00  0.00     0.162 A 
ATOM      5  C   UNL     1       4.579  -2.938 -23.753  1.00  0.00     0.162 A 
ATOM      6  C   UNL     1       3.380  -3.518 -23.308  1.00  0.00     0.200 A 
ENDROOT
BRANCH   1   7
ATOM      7  C   UNL     1       4.509   0.407 -21.967  1.00  0.00     0.072 C 
ATOM      8  O   UNL     1       3.670   1.160 -21.405  1.00  0.00    -0.545 OA
ATOM      9  O   UNL     1       5.810   0.863 -22.147  1.00  0.00    -0.545 OA
ENDBRANCH   1   7
BRANCH   4  10
ATOM     10  O   UNL     1       1.352  -3.357 -21.963  1.00  0.00    -0.504 OA
ATOM     11  H   UNL     1       1.259  -3.746 -21.033  1.00  0.00     0.293 HD
ENDBRANCH   4  10
BRANCH   5  12
ATOM     12  O   UNL     1       5.407  -3.636 -24.631  1.00  0.00    -0.504 OA
ATOM     13  H   UNL     1       6.316  -3.981 -24.345  1.00  0.00     0.293 HD
ENDBRANCH   5  12
BRANCH   6  14
ATOM     14  O   UNL     1       3.002  -4.792 -23.737  1.00  0.00    -0.502 OA
ATOM     15  H   UNL     1       3.672  -5.540 -23.862  1.00  0.00     0.293 HD
ENDBRANCH   6  14
TORSDOF 4
ENDMDL
MODEL 3
REMARK VINA RESULT:    -5.159      1.416      4.112
REMARK INTER + INTRA:          -5.966
REMARK INTER:                  -5.916
REMARK INTRA:                  -0.050
REMARK UNBOUND:                -0.052
REMARK SMILES O=C([O-])c1cc(O)c(O)c(O)c1
REMARK SMILES IDX 4 1 5 2 12 3 6 4 10 5 8 6 2 7 1 8 3 9 7 10 11 12 9 14
REMARK H PARENT 7 11 11 13 9 15
REMARK Flexibility Score: inf
ROOT
ATOM      1  C   UNL     1       2.172  -3.166 -23.256  1.00  0.00     0.005 A 
ATOM      2  C   UNL     1       3.264  -3.666 -23.986  1.00  0.00     0.060 A 
ATOM      3  C   UNL     1       2.334  -1.988 -22.508  1.00  0.00     0.060 A 
ATOM      4  C   UNL     1       4.496  -3.005 -23.970  1.00  0.00     0.162 A 
ATOM      5  C   UNL     1       3.566  -1.320 -22.487  1.00  0.00     0.162 A 
ATOM      6  C   UNL     1       4.652  -1.828 -23.219  1.00  0.00     0.200 A 
ENDROOT
BRANCH   1   7
ATOM      7  C   UNL     1       0.868  -3.866 -23.274  1.00  0.00     0.072 C 
ATOM      8  O   UNL     1       0.817  -5.125 -23.289  1.00  0.00    -0.545 OA
ATOM      9  O   UNL     1      -0.320  -3.144 -23.273  1.00  0.00    -0.545 OA
ENDBRANCH   1   7
BRANCH   4  10
ATOM     10  O   UNL     1       5.555  -3.534 -24.709  1.00  0.00    -0.504 OA
ATOM     11  H   UNL     1       6.288  -2.951 -25.092  1.00  0.00     0.293 HD
ENDBRANCH   4  10
BRANCH   5  12
ATOM     12  O   UNL     1       3.714  -0.152 -21.740  1.00  0.00    -0.504 OA
ATOM     13  H   UNL     1       4.560   0.041 -21.218  1.00  0.00     0.293 HD
ENDBRANCH   5  12
BRANCH   6  14
ATOM     14  O   UNL     1       5.885  -1.174 -23.210  1.00  0.00    -0.502 OA
ATOM     15  H   UNL     1       6.295  -0.807 -22.360  1.00  0.00     0.293 HD
ENDBRANCH   6  14
TORSDOF 4
ENDMDL
MODEL 4
REMARK VINA RESULT:    -5.129      1.450      4.578
REMARK INTER + INTRA:          -5.930
REMARK INTER:                  -5.881
REMARK INTRA:                  -0.049
REMARK UNBOUND:                -0.052
REMARK SMILES O=C([O-])c1cc(O)c(O)c(O)c1
REMARK SMILES IDX 4 1 5 2 12 3 6 4 10 5 8 6 2 7 1 8 3 9 7 10 11 12 9 14
REMARK H PARENT 7 11 11 13 9 15
REMARK Flexibility Score: inf
ROOT
ATOM      1  C   UNL     1       2.121  -3.165 -23.254  1.00  0.00     0.005 A 
ATOM      2  C   UNL     1       2.315  -1.996 -22.497  1.00  0.00     0.060 A 
ATOM      3  C   UNL     1       3.198  -3.690 -23.986  1.00  0.00     0.060 A 
ATOM      4  C   UNL     1       3.562  -1.362 -22.471  1.00  0.00     0.162 A 
ATOM      5  C   UNL     1       4.451  -3.060 -23.964  1.00  0.00     0.162 A 
ATOM      6  C   UNL     1       4.636  -1.892 -23.205  1.00  0.00     0.200 A 
ENDROOT
BRANCH   1   7
ATOM      7  C   UNL     1       0.802  -3.835 -23.281  1.00  0.00     0.072 C 
ATOM      8  O   UNL     1       0.721  -5.092 -23.291  1.00  0.00    -0.545 OA
ATOM      9  O   UNL     1      -0.369  -3.085 -23.293  1.00  0.00    -0.545 OA
ENDBRANCH   1   7
BRANCH   4  10
ATOM     10  O   UNL     1       3.713  -0.205 -21.706  1.00  0.00    -0.504 OA
ATOM     11  H   UNL     1       4.612   0.085 -21.340  1.00  0.00     0.293 HD
ENDBRANCH   4  10
BRANCH   5  12
ATOM     12  O   UNL     1       5.512  -3.591 -24.696  1.00  0.00    -0.504 OA
ATOM     13  H   UNL     1       6.418  -3.758 -24.274  1.00  0.00     0.293 HD
ENDBRANCH   5  12
BRANCH   6  14
ATOM     14  O   UNL     1       5.876  -1.253 -23.172  1.00  0.00    -0.502 OA
ATOM     15  H   UNL     1       6.659  -1.565 -23.733  1.00  0.00     0.293 HD
ENDBRANCH   6  14
TORSDOF 4
ENDMDL
MODEL 5
REMARK VINA RESULT:    -5.095      2.820      3.600
REMARK INTER + INTRA:          -5.892
REMARK INTER:                  -5.841
REMARK INTRA:                  -0.052
REMARK UNBOUND:                -0.052
REMARK SMILES O=C([O-])c1cc(O)c(O)c(O)c1
REMARK SMILES IDX 4 1 5 2 12 3 6 4 10 5 8 6 2 7 1 8 3 9 7 10 11 12 9 14
REMARK H PARENT 7 11 11 13 9 15
REMARK Flexibility Score: inf
ROOT
ATOM      1  C   UNL     1       3.375  -2.647 -24.662  1.00  0.00     0.005 A 
ATOM      2  C   UNL     1       3.407  -3.630 -23.658  1.00  0.00     0.060 A 
ATOM      3  C   UNL     1       2.140  -2.088 -25.030  1.00  0.00     0.060 A 
ATOM      4  C   UNL     1       2.229  -4.049 -23.031  1.00  0.00     0.162 A 
ATOM      5  C   UNL     1       0.955  -2.502 -24.405  1.00  0.00     0.162 A 
ATOM      6  C   UNL     1       0.997  -3.486 -23.403  1.00  0.00     0.200 A 
ENDROOT
BRANCH   1   7
ATOM      7  C   UNL     1       4.623  -2.204 -25.324  1.00  0.00     0.072 C 
ATOM      8  O   UNL     1       4.681  -1.085 -25.900  1.00  0.00    -0.545 OA
ATOM      9  O   UNL     1       5.750  -3.018 -25.318  1.00  0.00    -0.545 OA
ENDBRANCH   1   7
BRANCH   4  10
ATOM     10  O   UNL     1       2.304  -5.027 -22.039  1.00  0.00    -0.504 OA
ATOM     11  H   UNL     1       2.560  -5.984 -22.244  1.00  0.00     0.293 HD
ENDBRANCH   4  10
BRANCH   5  12
ATOM     12  O   UNL     1      -0.264  -1.939 -24.780  1.00  0.00    -0.504 OA
ATOM     13  H   UNL     1      -1.146  -2.398 -24.579  1.00  0.00     0.293 HD
ENDBRANCH   5  12
BRANCH   6  14
ATOM     14  O   UNL     1      -0.174  -3.909 -22.772  1.00  0.00    -0.502 OA
ATOM     15  H   UNL     1      -0.192  -4.185 -21.798  1.00  0.00     0.293 HD
ENDBRANCH   6  14
TORSDOF 4
ENDMDL
MODEL 6
REMARK VINA RESULT:    -5.085      2.862      3.835
REMARK INTER + INTRA:          -5.880
REMARK INTER:                  -5.829
REMARK INTRA:                  -0.051
REMARK UNBOUND:                -0.052
REMARK SMILES O=C([O-])c1cc(O)c(O)c(O)c1
REMARK SMILES IDX 4 1 5 2 12 3 6 4 10 5 8 6 2 7 1 8 3 9 7 10 11 12 9 14
REMARK H PARENT 7 11 11 13 9 15
REMARK Flexibility Score: inf
ROOT
ATOM      1  C   UNL     1       3.307  -2.635 -24.734  1.00  0.00     0.005 A 
ATOM      2  C   UNL     1       2.053  -2.093 -25.064  1.00  0.00     0.060 A 
ATOM      3  C   UNL     1       3.384  -3.611 -23.727  1.00  0.00     0.060 A 
ATOM      4  C   UNL     1       0.896  -2.516 -24.402  1.00  0.00     0.162 A 
ATOM      5  C   UNL     1       2.229  -4.040 -23.059  1.00  0.00     0.162 A 
ATOM      6  C   UNL     1       0.979  -3.493 -23.396  1.00  0.00     0.200 A 
ENDROOT
BRANCH   1   7
ATOM      7  C   UNL     1       4.531  -2.187 -25.435  1.00  0.00     0.072 C 
ATOM      8  O   UNL     1       5.543  -2.934 -25.501  1.00  0.00    -0.545 OA
ATOM      9  O   UNL     1       4.580  -0.933 -26.034  1.00  0.00    -0.545 OA
ENDBRANCH   1   7
BRANCH   4  10
ATOM     10  O   UNL     1      -0.330  -1.954 -24.761  1.00  0.00    -0.504 OA
ATOM     11  H   UNL     1      -0.954  -2.399 -25.422  1.00  0.00     0.293 HD
ENDBRANCH   4  10
BRANCH   5  12
ATOM     12  O   UNL     1       2.319  -5.009 -22.061  1.00  0.00    -0.504 OA
ATOM     13  H   UNL     1       3.214  -5.343 -21.723  1.00  0.00     0.293 HD
ENDBRANCH   5  12
BRANCH   6  14
ATOM     14  O   UNL     1      -0.181  -3.909 -22.741  1.00  0.00    -0.502 OA
ATOM     15  H   UNL     1      -0.229  -4.001 -21.734  1.00  0.00     0.293 HD
ENDBRANCH   6  14
TORSDOF 4
ENDMDL
MODEL 7
REMARK VINA RESULT:    -5.052      1.953      3.115
REMARK INTER + INTRA:          -5.843
REMARK INTER:                  -5.798
REMARK INTRA:                  -0.045
REMARK UNBOUND:                -0.052
REMARK SMILES O=C([O-])c1cc(O)c(O)c(O)c1
REMARK SMILES IDX 4 1 5 2 12 3 6 4 10 5 8 6 2 7 1 8 3 9 7 10 11 12 9 14
REMARK H PARENT 7 11 11 13 9 15
REMARK Flexibility Score: inf
ROOT
ATOM      1  C   UNL     1       2.542  -1.491 -23.191  1.00  0.00     0.005 A 
ATOM      2  C   UNL     1       1.177  -1.476 -23.524  1.00  0.00     0.060 A 
ATOM      3  C   UNL     1       3.147  -2.712 -22.851  1.00  0.00     0.060 A 
ATOM      4  C   UNL     1       0.428  -2.657 -23.520  1.00  0.00     0.162 A 
ATOM      5  C   UNL     1       2.403  -3.900 -22.845  1.00  0.00     0.162 A 
ATOM      6  C   UNL     1       1.039  -3.875 -23.180  1.00  0.00     0.200 A 
ENDROOT
BRANCH   1   7
ATOM      7  C   UNL     1       3.333  -0.240 -23.196  1.00  0.00     0.072 C 
ATOM      8  O   UNL     1       3.703   0.280 -24.283  1.00  0.00    -0.545 OA
ATOM      9  O   UNL     1       3.679   0.380 -22.001  1.00  0.00    -0.545 OA
ENDBRANCH   1   7
BRANCH   4  10
ATOM     10  O   UNL     1      -0.925  -2.600 -23.859  1.00  0.00    -0.504 OA
ATOM     11  H   UNL     1      -1.437  -1.727 -23.882  1.00  0.00     0.293 HD
ENDBRANCH   4  10
BRANCH   5  12
ATOM     12  O   UNL     1       3.016  -5.105 -22.506  1.00  0.00    -0.504 OA
ATOM     13  H   UNL     1       2.481  -5.901 -22.177  1.00  0.00     0.293 HD
ENDBRANCH   5  12
BRANCH   6  14
ATOM     14  O   UNL     1       0.284  -5.049 -23.179  1.00  0.00    -0.502 OA
ATOM     15  H   UNL     1       0.680  -5.946 -23.431  1.00  0.00     0.293 HD
ENDBRANCH   6  14
TORSDOF 4
ENDMDL
MODEL 8
REMARK VINA RESULT:    -4.847      2.885      3.466
REMARK INTER + INTRA:          -5.607
REMARK INTER:                  -5.555
REMARK INTRA:                  -0.052
REMARK UNBOUND:                -0.052
REMARK SMILES O=C([O-])c1cc(O)c(O)c(O)c1
REMARK SMILES IDX 4 1 5 2 12 3 6 4 10 5 8 6 2 7 1 8 3 9 7 10 11 12 9 14
REMARK H PARENT 7 11 11 13 9 15
REMARK Flexibility Score: inf
ROOT
ATOM      1  C   UNL     1       1.752  -1.800 -24.973  1.00  0.00     0.005 A 
ATOM      2  C   UNL     1       3.105  -2.162 -24.851  1.00  0.00     0.060 A 
ATOM      3  C   UNL     1       0.779  -2.564 -24.307  1.00  0.00     0.060 A 
ATOM      4  C   UNL     1       3.482  -3.265 -24.079  1.00  0.00     0.162 A 
ATOM      5  C   UNL     1       1.150  -3.672 -23.531  1.00  0.00     0.162 A 
ATOM      6  C   UNL     1       2.504  -4.026 -23.415  1.00  0.00     0.200 A 
ENDROOT
BRANCH   1   7
ATOM      7  C   UNL     1       1.354  -0.632 -25.790  1.00  0.00     0.072 C 
ATOM      8  O   UNL     1       2.194   0.259 -26.086  1.00  0.00    -0.545 OA
ATOM      9  O   UNL     1       0.046  -0.503 -26.244  1.00  0.00    -0.545 OA
ENDBRANCH   1   7
BRANCH   4  10
ATOM     10  O   UNL     1       4.836  -3.590 -23.982  1.00  0.00    -0.504 OA
ATOM     11  H   UNL     1       5.176  -4.530 -24.141  1.00  0.00     0.293 HD
ENDBRANCH   4  10
BRANCH   5  12
ATOM     12  O   UNL     1       0.175  -4.422 -22.876  1.00  0.00    -0.504 OA
ATOM     13  H   UNL     1      -0.493  -4.989 -23.386  1.00  0.00     0.293 HD
ENDBRANCH   5  12
BRANCH   6  14
ATOM     14  O   UNL     1       2.890  -5.125 -22.646  1.00  0.00    -0.502 OA
ATOM     15  H   UNL     1       3.835  -5.489 -22.661  1.00  0.00     0.293 HD
ENDBRANCH   6  14
TORSDOF 4
ENDMDL
MODEL 9
REMARK VINA RESULT:    -4.844      2.859      4.134
REMARK INTER + INTRA:          -5.604
REMARK INTER:                  -5.552
REMARK INTRA:                  -0.052
REMARK UNBOUND:                -0.052
REMARK SMILES O=C([O-])c1cc(O)c(O)c(O)c1
REMARK SMILES IDX 4 1 5 2 12 3 6 4 10 5 8 6 2 7 1 8 3 9 7 10 11 12 9 14
REMARK H PARENT 7 11 11 13 9 15
REMARK Flexibility Score: inf
ROOT
ATOM      1  C   UNL     1       1.794  -1.798 -24.926  1.00  0.00     0.005 A 
ATOM      2  C   UNL     1       0.813  -2.570 -24.279  1.00  0.00     0.060 A 
ATOM      3  C   UNL     1       3.146  -2.151 -24.779  1.00  0.00     0.060 A 
ATOM      4  C   UNL     1       1.172  -3.674 -23.500  1.00  0.00     0.162 A 
ATOM      5  C   UNL     1       3.513  -3.256 -23.999  1.00  0.00     0.162 A 
ATOM      6  C   UNL     1       2.526  -4.021 -23.356  1.00  0.00     0.200 A 
ENDROOT
BRANCH   1   7
ATOM      7  C   UNL     1       1.412  -0.631 -25.752  1.00  0.00     0.072 C 
ATOM      8  O   UNL     1       2.272   0.229 -26.083  1.00  0.00    -0.545 OA
ATOM      9  O   UNL     1       0.098  -0.467 -26.175  1.00  0.00    -0.545 OA
ENDBRANCH   1   7
BRANCH   4  10
ATOM     10  O   UNL     1       0.168  -4.414 -22.875  1.00  0.00    -0.504 OA
ATOM     11  H   UNL     1       0.086  -4.467 -21.867  1.00  0.00     0.293 HD
ENDBRANCH   4  10
BRANCH   5  12
ATOM     12  O   UNL     1       4.858  -3.596 -23.860  1.00  0.00    -0.504 OA
ATOM     13  H   UNL     1       5.539  -2.937 -23.501  1.00  0.00     0.293 HD
ENDBRANCH   5  12
BRANCH   6  14
ATOM     14  O   UNL     1       2.875  -5.125 -22.576  1.00  0.00    -0.502 OA
ATOM     15  H   UNL     1       3.675  -5.707 -22.792  1.00  0.00     0.293 HD
ENDBRANCH   6  14
TORSDOF 4
ENDMDL
