MODEL 1
REMARK VINA RESULT:     4.062      0.000      0.000
REMARK INTER + INTRA:           3.945
REMARK INTER:                   4.418
REMARK INTRA:                  -0.473
REMARK UNBOUND:                -0.473
REMARK SMILES C=C(C)[C@@H]1CC[C@@]2(C)CC[C@@]3(C)[C@H](CC[C@@H]4[C@]5(C)CC[C@@H](O)C(C)(C)[C@H]5CC[C@@]43C)[C@@H]12
REMARK SMILES IDX 4 1 5 2 6 3 7 4 31 5 13 6 14 7 15 8 16 9 17 10 19 11 20 12
REMARK SMILES IDX 21 13 23 14 26 15 27 16 28 17 29 18 11 19 10 20 9 21 12 22
REMARK SMILES IDX 30 23 24 24 25 25 18 26 8 27 2 28 3 29 1 30 22 31
REMARK H PARENT 22 32
REMARK Flexibility Score: inf
ROOT
ATOM      1  C   UNL     1     -17.214  32.393   9.030  1.00  0.00     0.018 C 
ATOM      2  C   UNL     1     -15.895  32.995   8.553  1.00  0.00     0.009 C 
ATOM      3  C   UNL     1     -16.079  34.513   8.632  1.00  0.00     0.008 C 
ATOM      4  C   UNL     1     -17.078  34.778   9.767  1.00  0.00    -0.029 C 
ATOM      5  C   UNL     1     -17.920  33.486   9.874  1.00  0.00     0.006 C 
ATOM      6  C   UNL     1     -19.466  33.607   9.562  1.00  0.00    -0.000 C 
ATOM      7  C   UNL     1     -20.203  33.824  10.890  1.00  0.00     0.005 C 
ATOM      8  C   UNL     1     -21.691  33.744  10.719  1.00  0.00     0.005 C 
ATOM      9  C   UNL     1     -22.255  34.833   9.772  1.00  0.00     0.002 C 
ATOM     10  C   UNL     1     -23.863  34.745   9.698  1.00  0.00    -0.026 C 
ATOM     11  C   UNL     1     -24.485  34.525  11.122  1.00  0.00     0.010 C 
ATOM     12  C   UNL     1     -26.001  34.287  11.124  1.00  0.00     0.033 C 
ATOM     13  C   UNL     1     -26.368  33.071  10.250  1.00  0.00     0.120 C 
ATOM     14  C   UNL     1     -25.828  33.156   8.786  1.00  0.00    -0.006 C 
ATOM     15  C   UNL     1     -24.285  33.498   8.824  1.00  0.00     0.003 C 
ATOM     16  C   UNL     1     -23.616  33.532   7.437  1.00  0.00     0.005 C 
ATOM     17  C   UNL     1     -22.091  33.584   7.538  1.00  0.00     0.008 C 
ATOM     18  C   UNL     1     -21.514  34.798   8.355  1.00  0.00    -0.024 C 
ATOM     19  C   UNL     1     -19.889  34.662   8.479  1.00  0.00    -0.024 C 
ATOM     20  C   UNL     1     -19.235  36.053   8.835  1.00  0.00     0.008 C 
ATOM     21  C   UNL     1     -17.900  36.077   9.611  1.00  0.00     0.007 C 
ATOM     22  C   UNL     1     -19.319  34.216   7.091  1.00  0.00     0.012 C 
ATOM     23  C   UNL     1     -21.824  36.125   7.564  1.00  0.00     0.012 C 
ATOM     24  C   UNL     1     -26.656  34.160   7.934  1.00  0.00     0.014 C 
ATOM     25  C   UNL     1     -26.023  31.750   8.147  1.00  0.00     0.014 C 
ATOM     26  C   UNL     1     -24.414  36.108   9.168  1.00  0.00     0.012 C 
ATOM     27  C   UNL     1     -16.215  34.931  11.058  1.00  0.00     0.011 C 
ENDROOT
BRANCH   1  28
ATOM     28  C   UNL     1     -17.054  31.059   9.784  1.00  0.00    -0.077 C 
ATOM     29  C   UNL     1     -18.137  30.025   9.661  1.00  0.00     0.039 C 
ATOM     30  C   UNL     1     -16.100  30.906  10.735  1.00  0.00     0.008 C 
ENDBRANCH   1  28
BRANCH  13  31
ATOM     31  O   UNL     1     -27.752  32.828  10.291  1.00  0.00    -0.393 OA
ATOM     32  H   UNL     1     -28.201  33.507   9.722  1.00  0.00     0.210 HD
ENDBRANCH  13  31
TORSDOF 2
ENDMDL
MODEL 2
REMARK VINA RESULT:     4.349      1.347      1.848
REMARK INTER + INTRA:           4.257
REMARK INTER:                   4.682
REMARK INTRA:                  -0.425
REMARK UNBOUND:                -0.473
REMARK SMILES C=C(C)[C@@H]1CC[C@@]2(C)CC[C@@]3(C)[C@H](CC[C@@H]4[C@]5(C)CC[C@@H](O)C(C)(C)[C@H]5CC[C@@]43C)[C@@H]12
REMARK SMILES IDX 4 1 5 2 6 3 7 4 31 5 13 6 14 7 15 8 16 9 17 10 19 11 20 12
REMARK SMILES IDX 21 13 23 14 26 15 27 16 28 17 29 18 11 19 10 20 9 21 12 22
REMARK SMILES IDX 30 23 24 24 25 25 18 26 8 27 2 28 3 29 1 30 22 31
REMARK H PARENT 22 32
REMARK Flexibility Score: inf
ROOT
ATOM      1  C   UNL     1     -18.832  32.465   9.387  1.00  0.00     0.018 C 
ATOM      2  C   UNL     1     -17.547  32.811   8.641  1.00  0.00     0.009 C 
ATOM      3  C   UNL     1     -17.727  34.251   8.152  1.00  0.00     0.008 C 
ATOM      4  C   UNL     1     -18.652  34.948   9.159  1.00  0.00    -0.029 C 
ATOM      5  C   UNL     1     -19.484  33.811   9.796  1.00  0.00     0.006 C 
ATOM      6  C   UNL     1     -21.047  33.842   9.553  1.00  0.00    -0.000 C 
ATOM      7  C   UNL     1     -21.698  34.561  10.742  1.00  0.00     0.005 C 
ATOM      8  C   UNL     1     -23.195  34.457  10.701  1.00  0.00     0.005 C 
ATOM      9  C   UNL     1     -23.818  35.122   9.449  1.00  0.00     0.002 C 
ATOM     10  C   UNL     1     -25.427  35.049   9.508  1.00  0.00    -0.026 C 
ATOM     11  C   UNL     1     -25.958  35.397  10.944  1.00  0.00     0.010 C 
ATOM     12  C   UNL     1     -27.471  35.212  11.124  1.00  0.00     0.033 C 
ATOM     13  C   UNL     1     -27.891  33.766  10.798  1.00  0.00     0.120 C 
ATOM     14  C   UNL     1     -27.445  33.280   9.380  1.00  0.00    -0.006 C 
ATOM     15  C   UNL     1     -25.903  33.576   9.196  1.00  0.00     0.003 C 
ATOM     16  C   UNL     1     -25.323  33.068   7.862  1.00  0.00     0.005 C 
ATOM     17  C   UNL     1     -23.795  33.119   7.846  1.00  0.00     0.008 C 
ATOM     18  C   UNL     1     -23.168  34.537   8.109  1.00  0.00    -0.024 C 
ATOM     19  C   UNL     1     -21.538  34.421   8.179  1.00  0.00    -0.024 C 
ATOM     20  C   UNL     1     -20.864  35.828   7.943  1.00  0.00     0.008 C 
ATOM     21  C   UNL     1     -19.482  36.111   8.573  1.00  0.00     0.007 C 
ATOM     22  C   UNL     1     -21.057  33.472   7.031  1.00  0.00     0.012 C 
ATOM     23  C   UNL     1     -23.529  35.476   6.895  1.00  0.00     0.012 C 
ATOM     24  C   UNL     1     -28.326  33.908   8.264  1.00  0.00     0.014 C 
ATOM     25  C   UNL     1     -27.679  31.742   9.333  1.00  0.00     0.014 C 
ATOM     26  C   UNL     1     -26.011  36.125   8.536  1.00  0.00     0.012 C 
ATOM     27  C   UNL     1     -17.709  35.557  10.244  1.00  0.00     0.011 C 
ENDROOT
BRANCH   1  28
ATOM     28  C   UNL     1     -18.624  31.510  10.578  1.00  0.00    -0.077 C 
ATOM     29  C   UNL     1     -17.231  31.295  11.096  1.00  0.00     0.039 C 
ATOM     30  C   UNL     1     -19.618  30.686  10.993  1.00  0.00     0.008 C 
ENDBRANCH   1  28
BRANCH  13  31
ATOM     31  O   UNL     1     -29.270  33.588  11.009  1.00  0.00    -0.393 OA
ATOM     32  H   UNL     1     -29.428  33.539  11.988  1.00  0.00     0.210 HD
ENDBRANCH  13  31
TORSDOF 2
ENDMDL
