MODEL 1
REMARK VINA RESULT:    -0.863      0.000      0.000
REMARK INTER + INTRA:          -1.035
REMARK INTER:                  -0.938
REMARK INTRA:                  -0.096
REMARK UNBOUND:                -0.096
REMARK SMILES C=C(C)[C@H]1CC[C@H](C)[C@@H](O)C1
REMARK SMILES IDX 8 1 7 2 6 3 5 4 4 5 11 6 9 7 10 8 2 10 1 11 3 12
REMARK H PARENT 10 9
REMARK Flexibility Score: inf
ROOT
ATOM      1  C   UNL     1     -23.280  34.688   9.125  1.00  0.00     0.010 C 
ATOM      2  C   UNL     1     -23.265  33.261   8.560  1.00  0.00     0.015 C 
ATOM      3  C   UNL     1     -21.924  32.578   8.900  1.00  0.00     0.006 C 
ATOM      4  C   UNL     1     -21.878  31.144   8.361  1.00  0.00     0.008 C 
ATOM      5  C   UNL     1     -23.058  30.318   8.907  1.00  0.00     0.017 C 
ATOM      6  C   UNL     1     -24.400  30.991   8.562  1.00  0.00     0.040 C 
ATOM      7  C   UNL     1     -24.455  32.430   9.101  1.00  0.00     0.117 C 
ENDROOT
BRANCH   7   8
ATOM      8  O   UNL     1     -25.671  33.008   8.701  1.00  0.00    -0.393 OA
ATOM      9  H   UNL     1     -26.400  32.450   9.079  1.00  0.00     0.210 HD
ENDBRANCH   7   8
BRANCH   5  10
ATOM     10  C   UNL     1     -23.010  28.882   8.408  1.00  0.00    -0.077 C 
ATOM     11  C   UNL     1     -23.769  28.472   7.375  1.00  0.00     0.008 C 
ATOM     12  C   UNL     1     -22.089  27.909   9.097  1.00  0.00     0.039 C 
ENDBRANCH   5  10
TORSDOF 2
ENDMDL
MODEL 2
REMARK VINA RESULT:    -0.072      2.264      4.631
REMARK INTER + INTRA:          -0.174
REMARK INTER:                  -0.077
REMARK INTRA:                  -0.098
REMARK UNBOUND:                -0.096
REMARK SMILES C=C(C)[C@H]1CC[C@H](C)[C@@H](O)C1
REMARK SMILES IDX 8 1 7 2 6 3 5 4 4 5 11 6 9 7 10 8 2 10 1 11 3 12
REMARK H PARENT 10 9
REMARK Flexibility Score: inf
ROOT
ATOM      1  C   UNL     1     -25.858  28.829   5.578  1.00  0.00     0.010 C 
ATOM      2  C   UNL     1     -24.880  29.866   6.149  1.00  0.00     0.015 C 
ATOM      3  C   UNL     1     -25.588  31.230   6.291  1.00  0.00     0.006 C 
ATOM      4  C   UNL     1     -24.644  32.288   6.872  1.00  0.00     0.008 C 
ATOM      5  C   UNL     1     -24.078  31.830   8.229  1.00  0.00     0.017 C 
ATOM      6  C   UNL     1     -23.363  30.473   8.091  1.00  0.00     0.040 C 
ATOM      7  C   UNL     1     -24.304  29.405   7.511  1.00  0.00     0.117 C 
ENDROOT
BRANCH   7   8
ATOM      8  O   UNL     1     -23.578  28.213   7.351  1.00  0.00    -0.393 OA
ATOM      9  H   UNL     1     -23.973  27.543   7.969  1.00  0.00     0.210 HD
ENDBRANCH   7   8
BRANCH   5  10
ATOM     10  C   UNL     1     -23.164  32.884   8.835  1.00  0.00    -0.077 C 
ATOM     11  C   UNL     1     -21.876  32.618   9.115  1.00  0.00     0.008 C 
ATOM     12  C   UNL     1     -23.731  34.250   9.124  1.00  0.00     0.039 C 
ENDBRANCH   5  10
TORSDOF 2
ENDMDL
MODEL 3
REMARK VINA RESULT:     0.372      1.962      4.410
REMARK INTER + INTRA:           0.308
REMARK INTER:                   0.403
REMARK INTRA:                  -0.094
REMARK UNBOUND:                -0.096
REMARK SMILES C=C(C)[C@H]1CC[C@H](C)[C@@H](O)C1
REMARK SMILES IDX 8 1 7 2 6 3 5 4 4 5 11 6 9 7 10 8 2 10 1 11 3 12
REMARK H PARENT 10 9
REMARK Flexibility Score: inf
ROOT
ATOM      1  C   UNL     1     -25.675  28.301   5.377  1.00  0.00     0.010 C 
ATOM      2  C   UNL     1     -25.303  29.307   6.475  1.00  0.00     0.015 C 
ATOM      3  C   UNL     1     -23.878  29.015   6.991  1.00  0.00     0.006 C 
ATOM      4  C   UNL     1     -23.467  30.010   8.082  1.00  0.00     0.008 C 
ATOM      5  C   UNL     1     -23.567  31.458   7.566  1.00  0.00     0.017 C 
ATOM      6  C   UNL     1     -24.990  31.758   7.058  1.00  0.00     0.040 C 
ATOM      7  C   UNL     1     -25.410  30.765   5.962  1.00  0.00     0.117 C 
ENDROOT
BRANCH   7   8
ATOM      8  O   UNL     1     -26.733  31.050   5.587  1.00  0.00    -0.393 OA
ATOM      9  H   UNL     1     -27.057  31.778   6.179  1.00  0.00     0.210 HD
ENDBRANCH   7   8
BRANCH   5  10
ATOM     10  C   UNL     1     -23.131  32.458   8.626  1.00  0.00    -0.077 C 
ATOM     11  C   UNL     1     -21.880  32.458   9.119  1.00  0.00     0.008 C 
ATOM     12  C   UNL     1     -24.136  33.464   9.125  1.00  0.00     0.039 C 
ENDBRANCH   5  10
TORSDOF 2
ENDMDL
MODEL 4
REMARK VINA RESULT:     1.589      2.462      3.325
REMARK INTER + INTRA:           1.632
REMARK INTER:                   1.728
REMARK INTRA:                  -0.096
REMARK UNBOUND:                -0.096
REMARK SMILES C=C(C)[C@H]1CC[C@H](C)[C@@H](O)C1
REMARK SMILES IDX 8 1 7 2 6 3 5 4 4 5 11 6 9 7 10 8 2 10 1 11 3 12
REMARK H PARENT 10 9
REMARK Flexibility Score: inf
ROOT
ATOM      1  C   UNL     1     -22.467  33.008   9.125  1.00  0.00     0.010 C 
ATOM      2  C   UNL     1     -23.506  32.012   8.591  1.00  0.00     0.015 C 
ATOM      3  C   UNL     1     -24.341  32.675   7.475  1.00  0.00     0.006 C 
ATOM      4  C   UNL     1     -25.382  31.703   6.909  1.00  0.00     0.008 C 
ATOM      5  C   UNL     1     -24.705  30.422   6.387  1.00  0.00     0.017 C 
ATOM      6  C   UNL     1     -23.877  29.751   7.499  1.00  0.00     0.040 C 
ATOM      7  C   UNL     1     -22.829  30.719   8.072  1.00  0.00     0.117 C 
ENDROOT
BRANCH   7   8
ATOM      8  O   UNL     1     -22.153  30.072   9.120  1.00  0.00    -0.393 OA
ATOM      9  H   UNL     1     -22.547  29.166   9.210  1.00  0.00     0.210 HD
ENDBRANCH   7   8
BRANCH   5  10
ATOM     10  C   UNL     1     -25.721  29.460   5.790  1.00  0.00    -0.077 C 
ATOM     11  C   UNL     1     -27.024  29.779   5.704  1.00  0.00     0.008 C 
ATOM     12  C   UNL     1     -25.239  28.122   5.291  1.00  0.00     0.039 C 
ENDBRANCH   5  10
TORSDOF 2
ENDMDL
MODEL 5
REMARK VINA RESULT:     2.075     16.461     18.069
REMARK INTER + INTRA:           2.161
REMARK INTER:                   2.256
REMARK INTRA:                  -0.095
REMARK UNBOUND:                -0.096
REMARK SMILES C=C(C)[C@H]1CC[C@H](C)[C@@H](O)C1
REMARK SMILES IDX 8 1 7 2 6 3 5 4 4 5 11 6 9 7 10 8 2 10 1 11 3 12
REMARK H PARENT 10 9
REMARK Flexibility Score: inf
ROOT
ATOM      1  C   UNL     1     -42.122  22.247   8.731  1.00  0.00     0.010 C 
ATOM      2  C   UNL     1     -40.984  23.200   8.341  1.00  0.00     0.015 C 
ATOM      3  C   UNL     1     -39.639  22.649   8.860  1.00  0.00     0.006 C 
ATOM      4  C   UNL     1     -38.476  23.571   8.476  1.00  0.00     0.008 C 
ATOM      5  C   UNL     1     -38.423  23.777   6.951  1.00  0.00     0.017 C 
ATOM      6  C   UNL     1     -39.760  24.336   6.429  1.00  0.00     0.040 C 
ATOM      7  C   UNL     1     -40.932  23.416   6.808  1.00  0.00     0.117 C 
ENDROOT
BRANCH   7   8
ATOM      8  O   UNL     1     -42.125  24.009   6.362  1.00  0.00    -0.393 OA
ATOM      9  H   UNL     1     -41.940  24.974   6.224  1.00  0.00     0.210 HD
ENDBRANCH   7   8
BRANCH   5  10
ATOM     10  C   UNL     1     -37.254  24.663   6.550  1.00  0.00    -0.077 C 
ATOM     11  C   UNL     1     -36.920  25.752   7.265  1.00  0.00     0.008 C 
ATOM     12  C   UNL     1     -36.463  24.300   5.320  1.00  0.00     0.039 C 
ENDBRANCH   5  10
TORSDOF 2
ENDMDL
