MODEL 1
REMARK VINA RESULT:    -4.075      0.000      0.000
REMARK INTER + INTRA:          -4.921
REMARK INTER:                  -4.789
REMARK INTRA:                  -0.132
REMARK UNBOUND:                -0.132
REMARK SMILES O=C([O-])C=Cc1ccc(O)c(O)c1
REMARK SMILES IDX 6 1 13 2 7 3 11 4 8 5 9 6 5 7 4 8 2 9 1 10 3 11 12 12 10 14
REMARK H PARENT 12 13 10 15
REMARK Flexibility Score: inf
ROOT
ATOM      1  C   UNL     1      49.201  13.756  -3.807  1.00  0.00    -0.022 A 
ATOM      2  C   UNL     1      48.493  14.964  -3.914  1.00  0.00     0.058 A 
ATOM      3  C   UNL     1      50.418  13.620  -4.500  1.00  0.00     0.012 A 
ATOM      4  C   UNL     1      48.991  16.031  -4.672  1.00  0.00     0.157 A 
ATOM      5  C   UNL     1      50.920  14.679  -5.259  1.00  0.00     0.051 A 
ATOM      6  C   UNL     1      50.223  15.888  -5.352  1.00  0.00     0.157 A 
ENDROOT
BRANCH   1   7
ATOM      7  C   UNL     1      48.617  12.660  -2.996  1.00  0.00     0.010 C 
ATOM      8  C   UNL     1      47.680  12.846  -2.054  1.00  0.00     0.025 C 
BRANCH   8   9
ATOM      9  C   UNL     1      47.115  11.732  -1.276  1.00  0.00     0.064 C 
ATOM     10  O   UNL     1      45.881  11.478  -1.303  1.00  0.00    -0.545 OA
ATOM     11  O   UNL     1      47.957  10.945  -0.500  1.00  0.00    -0.545 OA
ENDBRANCH   8   9
ENDBRANCH   1   7
BRANCH   4  12
ATOM     12  O   UNL     1      48.234  17.204  -4.723  1.00  0.00    -0.504 OA
ATOM     13  H   UNL     1      48.351  17.979  -4.086  1.00  0.00     0.293 HD
ENDBRANCH   4  12
BRANCH   6  14
ATOM     14  O   UNL     1      50.783  16.907  -6.124  1.00  0.00    -0.504 OA
ATOM     15  H   UNL     1      51.669  16.833  -6.601  1.00  0.00     0.293 HD
ENDBRANCH   6  14
TORSDOF 4
ENDMDL
MODEL 2
REMARK VINA RESULT:    -4.016      1.042      2.168
REMARK INTER + INTRA:          -4.852
REMARK INTER:                  -4.716
REMARK INTRA:                  -0.136
REMARK UNBOUND:                -0.132
REMARK SMILES O=C([O-])C=Cc1ccc(O)c(O)c1
REMARK SMILES IDX 6 1 13 2 7 3 11 4 8 5 9 6 5 7 4 8 2 9 1 10 3 11 12 12 10 14
REMARK H PARENT 12 13 10 15
REMARK Flexibility Score: inf
ROOT
ATOM      1  C   UNL     1      48.890  13.888  -3.662  1.00  0.00    -0.022 A 
ATOM      2  C   UNL     1      50.170  13.588  -4.156  1.00  0.00     0.058 A 
ATOM      3  C   UNL     1      48.354  15.166  -3.899  1.00  0.00     0.012 A 
ATOM      4  C   UNL     1      50.900  14.528  -4.895  1.00  0.00     0.157 A 
ATOM      5  C   UNL     1      49.076  16.109  -4.635  1.00  0.00     0.051 A 
ATOM      6  C   UNL     1      50.343  15.804  -5.141  1.00  0.00     0.157 A 
ENDROOT
BRANCH   1   7
ATOM      7  C   UNL     1      48.172  12.853  -2.878  1.00  0.00     0.010 C 
ATOM      8  C   UNL     1      47.223  13.130  -1.971  1.00  0.00     0.025 C 
BRANCH   8   9
ATOM      9  C   UNL     1      46.523  12.076  -1.218  1.00  0.00     0.064 C 
ATOM     10  O   UNL     1      46.924  11.713  -0.080  1.00  0.00    -0.545 OA
ATOM     11  O   UNL     1      45.402  11.472  -1.772  1.00  0.00    -0.545 OA
ENDBRANCH   8   9
ENDBRANCH   1   7
BRANCH   4  12
ATOM     12  O   UNL     1      52.162  14.153  -5.361  1.00  0.00    -0.504 OA
ATOM     13  H   UNL     1      52.874  14.808  -5.650  1.00  0.00     0.293 HD
ENDBRANCH   4  12
BRANCH   6  14
ATOM     14  O   UNL     1      51.009  16.791  -5.871  1.00  0.00    -0.504 OA
ATOM     15  H   UNL     1      50.578  17.346  -6.595  1.00  0.00     0.293 HD
ENDBRANCH   6  14
TORSDOF 4
ENDMDL
MODEL 3
REMARK VINA RESULT:    -4.013      7.021      8.801
REMARK INTER + INTRA:          -4.848
REMARK INTER:                  -4.717
REMARK INTRA:                  -0.131
REMARK UNBOUND:                -0.132
REMARK SMILES O=C([O-])C=Cc1ccc(O)c(O)c1
REMARK SMILES IDX 6 1 13 2 7 3 11 4 8 5 9 6 5 7 4 8 2 9 1 10 3 11 12 12 10 14
REMARK H PARENT 12 13 10 15
REMARK Flexibility Score: inf
ROOT
ATOM      1  C   UNL     1      43.033  19.244  -3.427  1.00  0.00    -0.022 A 
ATOM      2  C   UNL     1      42.600  18.523  -2.302  1.00  0.00     0.058 A 
ATOM      3  C   UNL     1      42.726  20.614  -3.514  1.00  0.00     0.012 A 
ATOM      4  C   UNL     1      41.896  19.151  -1.266  1.00  0.00     0.157 A 
ATOM      5  C   UNL     1      42.023  21.246  -2.486  1.00  0.00     0.051 A 
ATOM      6  C   UNL     1      41.606  20.532  -1.358  1.00  0.00     0.157 A 
ENDROOT
BRANCH   1   7
ATOM      7  C   UNL     1      43.766  18.520  -4.495  1.00  0.00     0.010 C 
ATOM      8  C   UNL     1      44.460  17.391  -4.289  1.00  0.00     0.025 C 
BRANCH   8   9
ATOM      9  C   UNL     1      45.168  16.694  -5.376  1.00  0.00     0.064 C 
ATOM     10  O   UNL     1      44.572  15.864  -6.114  1.00  0.00    -0.545 OA
ATOM     11  O   UNL     1      46.514  16.957  -5.593  1.00  0.00    -0.545 OA
ENDBRANCH   8   9
ENDBRANCH   1   7
BRANCH   4  12
ATOM     12  O   UNL     1      41.506  18.370  -0.176  1.00  0.00    -0.504 OA
ATOM     13  H   UNL     1      41.448  18.713   0.772  1.00  0.00     0.293 HD
ENDBRANCH   4  12
BRANCH   6  14
ATOM     14  O   UNL     1      40.912  21.226  -0.365  1.00  0.00    -0.504 OA
ATOM     15  H   UNL     1      40.936  20.986   0.615  1.00  0.00     0.293 HD
ENDBRANCH   6  14
TORSDOF 4
ENDMDL
MODEL 4
REMARK VINA RESULT:    -3.965      5.785      7.801
REMARK INTER + INTRA:          -4.792
REMARK INTER:                  -4.653
REMARK INTRA:                  -0.139
REMARK UNBOUND:                -0.132
REMARK SMILES O=C([O-])C=Cc1ccc(O)c(O)c1
REMARK SMILES IDX 6 1 13 2 7 3 11 4 8 5 9 6 5 7 4 8 2 9 1 10 3 11 12 12 10 14
REMARK H PARENT 12 13 10 15
REMARK Flexibility Score: inf
ROOT
ATOM      1  C   UNL     1      43.759  17.042  -2.838  1.00  0.00    -0.022 A 
ATOM      2  C   UNL     1      42.842  16.236  -2.144  1.00  0.00     0.058 A 
ATOM      3  C   UNL     1      43.427  18.386  -3.088  1.00  0.00     0.012 A 
ATOM      4  C   UNL     1      41.627  16.756  -1.680  1.00  0.00     0.157 A 
ATOM      5  C   UNL     1      42.217  18.911  -2.630  1.00  0.00     0.051 A 
ATOM      6  C   UNL     1      41.311  18.113  -1.923  1.00  0.00     0.157 A 
ENDROOT
BRANCH   1   7
ATOM      7  C   UNL     1      45.025  16.431  -3.312  1.00  0.00     0.010 C 
ATOM      8  C   UNL     1      45.812  16.978  -4.250  1.00  0.00     0.025 C 
BRANCH   8   9
ATOM      9  C   UNL     1      47.068  16.347  -4.688  1.00  0.00     0.064 C 
ATOM     10  O   UNL     1      48.036  17.040  -5.101  1.00  0.00    -0.545 OA
ATOM     11  O   UNL     1      47.189  14.964  -4.645  1.00  0.00    -0.545 OA
ENDBRANCH   8   9
ENDBRANCH   1   7
BRANCH   4  12
ATOM     12  O   UNL     1      40.771  15.895  -0.989  1.00  0.00    -0.504 OA
ATOM     13  H   UNL     1      39.776  16.043  -0.895  1.00  0.00     0.293 HD
ENDBRANCH   4  12
BRANCH   6  14
ATOM     14  O   UNL     1      40.121  18.701  -1.490  1.00  0.00    -0.504 OA
ATOM     15  H   UNL     1      39.608  19.392  -2.018  1.00  0.00     0.293 HD
ENDBRANCH   6  14
TORSDOF 4
ENDMDL
MODEL 5
REMARK VINA RESULT:    -3.909      3.105      4.312
REMARK INTER + INTRA:          -4.726
REMARK INTER:                  -4.592
REMARK INTRA:                  -0.134
REMARK UNBOUND:                -0.132
REMARK SMILES O=C([O-])C=Cc1ccc(O)c(O)c1
REMARK SMILES IDX 6 1 13 2 7 3 11 4 8 5 9 6 5 7 4 8 2 9 1 10 3 11 12 12 10 14
REMARK H PARENT 12 13 10 15
REMARK Flexibility Score: inf
ROOT
ATOM      1  C   UNL     1      47.423  15.661  -3.970  1.00  0.00    -0.022 A 
ATOM      2  C   UNL     1      47.676  14.421  -3.363  1.00  0.00     0.058 A 
ATOM      3  C   UNL     1      48.467  16.306  -4.658  1.00  0.00     0.012 A 
ATOM      4  C   UNL     1      48.935  13.813  -3.455  1.00  0.00     0.157 A 
ATOM      5  C   UNL     1      49.725  15.707  -4.753  1.00  0.00     0.051 A 
ATOM      6  C   UNL     1      49.973  14.463  -4.163  1.00  0.00     0.157 A 
ENDROOT
BRANCH   1   7
ATOM      7  C   UNL     1      46.071  16.258  -3.829  1.00  0.00     0.010 C 
ATOM      8  C   UNL     1      45.161  15.839  -2.938  1.00  0.00     0.025 C 
BRANCH   8   9
ATOM      9  C   UNL     1      43.833  16.463  -2.819  1.00  0.00     0.064 C 
ATOM     10  O   UNL     1      43.667  17.691  -3.046  1.00  0.00    -0.545 OA
ATOM     11  O   UNL     1      42.744  15.683  -2.451  1.00  0.00    -0.545 OA
ENDBRANCH   8   9
ENDBRANCH   1   7
BRANCH   4  12
ATOM     12  O   UNL     1      49.108  12.575  -2.833  1.00  0.00    -0.504 OA
ATOM     13  H   UNL     1      49.012  11.687  -3.306  1.00  0.00     0.293 HD
ENDBRANCH   4  12
BRANCH   6  14
ATOM     14  O   UNL     1      51.251  13.919  -4.299  1.00  0.00    -0.504 OA
ATOM     15  H   UNL     1      52.030  14.148  -3.699  1.00  0.00     0.293 HD
ENDBRANCH   6  14
TORSDOF 4
ENDMDL
MODEL 6
REMARK VINA RESULT:    -3.770      2.864      3.779
REMARK INTER + INTRA:          -4.563
REMARK INTER:                  -4.425
REMARK INTRA:                  -0.138
REMARK UNBOUND:                -0.132
REMARK SMILES O=C([O-])C=Cc1ccc(O)c(O)c1
REMARK SMILES IDX 6 1 13 2 7 3 11 4 8 5 9 6 5 7 4 8 2 9 1 10 3 11 12 12 10 14
REMARK H PARENT 12 13 10 15
REMARK Flexibility Score: inf
ROOT
ATOM      1  C   UNL     1      49.002  15.414  -4.396  1.00  0.00    -0.022 A 
ATOM      2  C   UNL     1      50.061  16.200  -4.880  1.00  0.00     0.058 A 
ATOM      3  C   UNL     1      49.180  14.023  -4.296  1.00  0.00     0.012 A 
ATOM      4  C   UNL     1      51.287  15.623  -5.236  1.00  0.00     0.157 A 
ATOM      5  C   UNL     1      50.399  13.440  -4.650  1.00  0.00     0.051 A 
ATOM      6  C   UNL     1      51.459  14.224  -5.116  1.00  0.00     0.157 A 
ENDROOT
BRANCH   1   7
ATOM      7  C   UNL     1      47.725  16.083  -4.045  1.00  0.00     0.010 C 
ATOM      8  C   UNL     1      46.567  15.431  -3.863  1.00  0.00     0.025 C 
BRANCH   8   9
ATOM      9  C   UNL     1      45.320  16.128  -3.504  1.00  0.00     0.064 C 
ATOM     10  O   UNL     1      44.847  17.036  -4.239  1.00  0.00    -0.545 OA
ATOM     11  O   UNL     1      44.654  15.776  -2.338  1.00  0.00    -0.545 OA
ENDBRANCH   8   9
ENDBRANCH   1   7
BRANCH   4  12
ATOM     12  O   UNL     1      52.295  16.470  -5.700  1.00  0.00    -0.504 OA
ATOM     13  H   UNL     1      52.413  16.729  -6.669  1.00  0.00     0.293 HD
ENDBRANCH   4  12
BRANCH   6  14
ATOM     14  O   UNL     1      52.652  13.579  -5.448  1.00  0.00    -0.504 OA
ATOM     15  H   UNL     1      52.828  12.598  -5.288  1.00  0.00     0.293 HD
ENDBRANCH   6  14
TORSDOF 4
ENDMDL
MODEL 7
REMARK VINA RESULT:    -3.734      3.356      4.476
REMARK INTER + INTRA:          -4.521
REMARK INTER:                  -4.385
REMARK INTRA:                  -0.136
REMARK UNBOUND:                -0.132
REMARK SMILES O=C([O-])C=Cc1ccc(O)c(O)c1
REMARK SMILES IDX 6 1 13 2 7 3 11 4 8 5 9 6 5 7 4 8 2 9 1 10 3 11 12 12 10 14
REMARK H PARENT 12 13 10 15
REMARK Flexibility Score: inf
ROOT
ATOM      1  C   UNL     1      46.885  15.630  -3.788  1.00  0.00    -0.022 A 
ATOM      2  C   UNL     1      47.903  16.239  -4.540  1.00  0.00     0.058 A 
ATOM      3  C   UNL     1      47.159  14.416  -3.133  1.00  0.00     0.012 A 
ATOM      4  C   UNL     1      49.181  15.670  -4.623  1.00  0.00     0.157 A 
ATOM      5  C   UNL     1      48.430  13.842  -3.212  1.00  0.00     0.051 A 
ATOM      6  C   UNL     1      49.449  14.457  -3.947  1.00  0.00     0.157 A 
ENDROOT
BRANCH   1   7
ATOM      7  C   UNL     1      45.550  16.277  -3.746  1.00  0.00     0.010 C 
ATOM      8  C   UNL     1      44.728  16.222  -2.688  1.00  0.00     0.025 C 
BRANCH   8   9
ATOM      9  C   UNL     1      43.414  16.885  -2.679  1.00  0.00     0.064 C 
ATOM     10  O   UNL     1      43.251  18.016  -3.210  1.00  0.00    -0.545 OA
ATOM     11  O   UNL     1      42.334  16.253  -2.075  1.00  0.00    -0.545 OA
ENDBRANCH   8   9
ENDBRANCH   1   7
BRANCH   4  12
ATOM     12  O   UNL     1      50.144  16.339  -5.383  1.00  0.00    -0.504 OA
ATOM     13  H   UNL     1      51.139  16.242  -5.243  1.00  0.00     0.293 HD
ENDBRANCH   4  12
BRANCH   6  14
ATOM     14  O   UNL     1      50.697  13.832  -3.982  1.00  0.00    -0.504 OA
ATOM     15  H   UNL     1      50.906  12.960  -3.519  1.00  0.00     0.293 HD
ENDBRANCH   6  14
TORSDOF 4
ENDMDL
MODEL 8
REMARK VINA RESULT:    -3.705      3.288      5.337
REMARK INTER + INTRA:          -4.487
REMARK INTER:                  -4.351
REMARK INTRA:                  -0.136
REMARK UNBOUND:                -0.132
REMARK SMILES O=C([O-])C=Cc1ccc(O)c(O)c1
REMARK SMILES IDX 6 1 13 2 7 3 11 4 8 5 9 6 5 7 4 8 2 9 1 10 3 11 12 12 10 14
REMARK H PARENT 12 13 10 15
REMARK Flexibility Score: inf
ROOT
ATOM      1  C   UNL     1      46.524  14.529  -3.067  1.00  0.00    -0.022 A 
ATOM      2  C   UNL     1      47.856  14.575  -3.509  1.00  0.00     0.058 A 
ATOM      3  C   UNL     1      46.092  13.412  -2.330  1.00  0.00     0.012 A 
ATOM      4  C   UNL     1      48.756  13.546  -3.207  1.00  0.00     0.157 A 
ATOM      5  C   UNL     1      46.983  12.381  -2.025  1.00  0.00     0.051 A 
ATOM      6  C   UNL     1      48.315  12.434  -2.451  1.00  0.00     0.157 A 
ENDROOT
BRANCH   1   7
ATOM      7  C   UNL     1      45.617  15.647  -3.428  1.00  0.00     0.010 C 
ATOM      8  C   UNL     1      44.638  16.100  -2.631  1.00  0.00     0.025 C 
BRANCH   8   9
ATOM      9  C   UNL     1      43.763  17.219  -3.019  1.00  0.00     0.064 C 
ATOM     10  O   UNL     1      42.765  17.538  -2.319  1.00  0.00    -0.545 OA
ATOM     11  O   UNL     1      44.044  17.937  -4.174  1.00  0.00    -0.545 OA
ENDBRANCH   8   9
ENDBRANCH   1   7
BRANCH   4  12
ATOM     12  O   UNL     1      50.067  13.667  -3.674  1.00  0.00    -0.504 OA
ATOM     13  H   UNL     1      50.501  14.547  -3.914  1.00  0.00     0.293 HD
ENDBRANCH   4  12
BRANCH   6  14
ATOM     14  O   UNL     1      49.153  11.372  -2.109  1.00  0.00    -0.504 OA
ATOM     15  H   UNL     1      49.588  11.264  -1.204  1.00  0.00     0.293 HD
ENDBRANCH   6  14
TORSDOF 4
ENDMDL
MODEL 9
REMARK VINA RESULT:    -3.648      1.907      5.484
REMARK INTER + INTRA:          -4.420
REMARK INTER:                  -4.281
REMARK INTRA:                  -0.139
REMARK UNBOUND:                -0.132
REMARK SMILES O=C([O-])C=Cc1ccc(O)c(O)c1
REMARK SMILES IDX 6 1 13 2 7 3 11 4 8 5 9 6 5 7 4 8 2 9 1 10 3 11 12 12 10 14
REMARK H PARENT 12 13 10 15
REMARK Flexibility Score: inf
ROOT
ATOM      1  C   UNL     1      49.074  13.436  -3.534  1.00  0.00    -0.022 A 
ATOM      2  C   UNL     1      48.059  14.293  -3.081  1.00  0.00     0.058 A 
ATOM      3  C   UNL     1      48.976  12.061  -3.255  1.00  0.00     0.012 A 
ATOM      4  C   UNL     1      46.949  13.798  -2.385  1.00  0.00     0.157 A 
ATOM      5  C   UNL     1      47.872  11.559  -2.560  1.00  0.00     0.051 A 
ATOM      6  C   UNL     1      46.853  12.411  -2.124  1.00  0.00     0.157 A 
ENDROOT
BRANCH   1   7
ATOM      7  C   UNL     1      50.229  14.023  -4.258  1.00  0.00     0.010 C 
ATOM      8  C   UNL     1      51.065  13.312  -5.028  1.00  0.00     0.025 C 
BRANCH   8   9
ATOM      9  C   UNL     1      52.196  13.931  -5.741  1.00  0.00     0.064 C 
ATOM     10  O   UNL     1      52.166  15.144  -6.080  1.00  0.00    -0.545 OA
ATOM     11  O   UNL     1      53.314  13.165  -6.042  1.00  0.00    -0.545 OA
ENDBRANCH   8   9
ENDBRANCH   1   7
BRANCH   4  12
ATOM     12  O   UNL     1      45.975  14.711  -1.975  1.00  0.00    -0.504 OA
ATOM     13  H   UNL     1      45.592  15.432  -2.570  1.00  0.00     0.293 HD
ENDBRANCH   4  12
BRANCH   6  14
ATOM     14  O   UNL     1      45.776  11.844  -1.439  1.00  0.00    -0.504 OA
ATOM     15  H   UNL     1      44.983  11.414  -1.890  1.00  0.00     0.293 HD
ENDBRANCH   6  14
TORSDOF 4
ENDMDL
