MODEL 1
REMARK VINA RESULT:    -3.272      0.000      0.000
REMARK INTER + INTRA:          -3.933
REMARK INTER:                  -3.846
REMARK INTRA:                  -0.088
REMARK UNBOUND:                -0.088
REMARK SMILES O=C([O-])CCC(=O)[O-]
REMARK SMILES IDX 4 1 2 2 1 3 3 4 5 5 6 6 7 7 8 8
REMARK H PARENT
REMARK Flexibility Score: inf
ROOT
ATOM      1  C   UNL     1      26.104  18.309 -16.034  1.00  0.00     0.059 C 
ENDROOT
BRANCH   1   2
ATOM      2  C   UNL     1      25.020  17.279 -15.931  1.00  0.00     0.042 C 
ATOM      3  O   UNL     1      24.823  16.673 -14.846  1.00  0.00    -0.550 OA
ATOM      4  O   UNL     1      24.255  16.961 -17.047  1.00  0.00    -0.550 OA
ENDBRANCH   1   2
BRANCH   1   5
ATOM      5  C   UNL     1      25.787  19.356 -17.107  1.00  0.00     0.059 C 
BRANCH   5   6
ATOM      6  C   UNL     1      24.823  20.387 -16.603  1.00  0.00     0.042 C 
ATOM      7  O   UNL     1      25.248  21.426 -16.030  1.00  0.00    -0.550 OA
ATOM      8  O   UNL     1      23.455  20.182 -16.731  1.00  0.00    -0.550 OA
ENDBRANCH   5   6
ENDBRANCH   1   5
TORSDOF 3
ENDMDL
MODEL 2
REMARK VINA RESULT:    -3.199      0.665      3.527
REMARK INTER + INTRA:          -3.847
REMARK INTER:                  -3.808
REMARK INTRA:                  -0.040
REMARK UNBOUND:                -0.088
REMARK SMILES O=C([O-])CCC(=O)[O-]
REMARK SMILES IDX 4 1 2 2 1 3 3 4 5 5 6 6 7 7 8 8
REMARK H PARENT
REMARK Flexibility Score: inf
ROOT
ATOM      1  C   UNL     1      25.741  19.709 -16.024  1.00  0.00     0.059 C 
ENDROOT
BRANCH   1   2
ATOM      2  C   UNL     1      24.763  20.696 -16.586  1.00  0.00     0.042 C 
ATOM      3  O   UNL     1      25.067  21.914 -16.668  1.00  0.00    -0.550 OA
ATOM      4  O   UNL     1      23.500  20.273 -16.982  1.00  0.00    -0.550 OA
ENDBRANCH   1   2
BRANCH   1   5
ATOM      5  C   UNL     1      25.814  18.439 -16.877  1.00  0.00     0.059 C 
BRANCH   5   6
ATOM      6  C   UNL     1      24.923  17.361 -16.338  1.00  0.00     0.042 C 
ATOM      7  O   UNL     1      25.120  16.894 -15.185  1.00  0.00    -0.550 OA
ATOM      8  O   UNL     1      23.901  16.845 -17.125  1.00  0.00    -0.550 OA
ENDBRANCH   5   6
ENDBRANCH   1   5
TORSDOF 3
ENDMDL
MODEL 3
REMARK VINA RESULT:    -3.102      1.063      1.578
REMARK INTER + INTRA:          -3.734
REMARK INTER:                  -3.659
REMARK INTRA:                  -0.074
REMARK UNBOUND:                -0.088
REMARK SMILES O=C([O-])CCC(=O)[O-]
REMARK SMILES IDX 4 1 2 2 1 3 3 4 5 5 6 6 7 7 8 8
REMARK H PARENT
REMARK Flexibility Score: inf
ROOT
ATOM      1  C   UNL     1      26.156  17.922 -17.006  1.00  0.00     0.059 C 
ENDROOT
BRANCH   1   2
ATOM      2  C   UNL     1      24.994  17.183 -16.413  1.00  0.00     0.042 C 
ATOM      3  O   UNL     1      23.998  16.892 -17.125  1.00  0.00    -0.550 OA
ATOM      4  O   UNL     1      24.997  16.853 -15.064  1.00  0.00    -0.550 OA
ENDBRANCH   1   2
BRANCH   1   5
ATOM      5  C   UNL     1      26.725  18.955 -16.029  1.00  0.00     0.059 C 
BRANCH   5   6
ATOM      6  C   UNL     1      25.987  20.257 -16.112  1.00  0.00     0.042 C 
ATOM      7  O   UNL     1      26.180  21.151 -15.246  1.00  0.00    -0.550 OA
ATOM      8  O   UNL     1      25.057  20.466 -17.122  1.00  0.00    -0.550 OA
ENDBRANCH   5   6
ENDBRANCH   1   5
TORSDOF 3
ENDMDL
MODEL 4
REMARK VINA RESULT:    -3.041      1.143      3.527
REMARK INTER + INTRA:          -3.662
REMARK INTER:                  -3.565
REMARK INTRA:                  -0.097
REMARK UNBOUND:                -0.088
REMARK SMILES O=C([O-])CCC(=O)[O-]
REMARK SMILES IDX 4 1 2 2 1 3 3 4 5 5 6 6 7 7 8 8
REMARK H PARENT
REMARK Flexibility Score: inf
ROOT
ATOM      1  C   UNL     1      26.697  18.943 -16.090  1.00  0.00     0.059 C 
ENDROOT
BRANCH   1   2
ATOM      2  C   UNL     1      26.133  20.327 -15.974  1.00  0.00     0.042 C 
ATOM      3  O   UNL     1      26.340  21.012 -14.939  1.00  0.00    -0.550 OA
ATOM      4  O   UNL     1      25.346  20.844 -16.996  1.00  0.00    -0.550 OA
ENDBRANCH   1   2
BRANCH   1   5
ATOM      5  C   UNL     1      25.934  18.108 -17.122  1.00  0.00     0.059 C 
BRANCH   5   6
ATOM      6  C   UNL     1      24.886  17.254 -16.475  1.00  0.00     0.042 C 
ATOM      7  O   UNL     1      23.867  16.898 -17.125  1.00  0.00    -0.550 OA
ATOM      8  O   UNL     1      25.016  16.885 -15.142  1.00  0.00    -0.550 OA
ENDBRANCH   5   6
ENDBRANCH   1   5
TORSDOF 3
ENDMDL
MODEL 5
REMARK VINA RESULT:    -2.815     17.489     18.507
REMARK INTER + INTRA:          -3.396
REMARK INTER:                  -3.354
REMARK INTRA:                  -0.042
REMARK UNBOUND:                -0.088
REMARK SMILES O=C([O-])CCC(=O)[O-]
REMARK SMILES IDX 4 1 2 2 1 3 3 4 5 5 6 6 7 7 8 8
REMARK H PARENT
REMARK Flexibility Score: inf
ROOT
ATOM      1  C   UNL     1      28.363   4.823  -4.203  1.00  0.00     0.059 C 
ENDROOT
BRANCH   1   2
ATOM      2  C   UNL     1      27.703   5.557  -3.076  1.00  0.00     0.042 C 
ATOM      3  O   UNL     1      26.448   5.646  -3.026  1.00  0.00    -0.550 OA
ATOM      4  O   UNL     1      28.476   6.177  -2.102  1.00  0.00    -0.550 OA
ENDBRANCH   1   2
BRANCH   1   5
ATOM      5  C   UNL     1      27.368   4.490  -5.319  1.00  0.00     0.059 C 
BRANCH   5   6
ATOM      6  C   UNL     1      28.058   4.306  -6.637  1.00  0.00     0.042 C 
ATOM      7  O   UNL     1      28.931   5.132  -7.016  1.00  0.00    -0.550 OA
ATOM      8  O   UNL     1      27.707   3.246  -7.463  1.00  0.00    -0.550 OA
ENDBRANCH   5   6
ENDBRANCH   1   5
TORSDOF 3
ENDMDL
MODEL 6
REMARK VINA RESULT:    -2.802     18.183     18.893
REMARK INTER + INTRA:          -3.381
REMARK INTER:                  -3.336
REMARK INTRA:                  -0.045
REMARK UNBOUND:                -0.088
REMARK SMILES O=C([O-])CCC(=O)[O-]
REMARK SMILES IDX 4 1 2 2 1 3 3 4 5 5 6 6 7 7 8 8
REMARK H PARENT
REMARK Flexibility Score: inf
ROOT
ATOM      1  C   UNL     1      27.364   4.558  -5.244  1.00  0.00     0.059 C 
ENDROOT
BRANCH   1   2
ATOM      2  C   UNL     1      27.826   3.400  -6.075  1.00  0.00     0.042 C 
ATOM      3  O   UNL     1      28.248   2.351  -5.522  1.00  0.00    -0.550 OA
ATOM      4  O   UNL     1      27.827   3.496  -7.461  1.00  0.00    -0.550 OA
ENDBRANCH   1   2
BRANCH   1   5
ATOM      5  C   UNL     1      28.342   4.860  -4.105  1.00  0.00     0.059 C 
BRANCH   5   6
ATOM      6  C   UNL     1      27.664   5.561  -2.967  1.00  0.00     0.042 C 
ATOM      7  O   UNL     1      26.411   5.690  -2.959  1.00  0.00    -0.550 OA
ATOM      8  O   UNL     1      28.419   6.106  -1.936  1.00  0.00    -0.550 OA
ENDBRANCH   5   6
ENDBRANCH   1   5
TORSDOF 3
ENDMDL
MODEL 7
REMARK VINA RESULT:    -2.722     22.011     23.145
REMARK INTER + INTRA:          -3.288
REMARK INTER:                  -3.250
REMARK INTRA:                  -0.037
REMARK UNBOUND:                -0.088
REMARK SMILES O=C([O-])CCC(=O)[O-]
REMARK SMILES IDX 4 1 2 2 1 3 3 4 5 5 6 6 7 7 8 8
REMARK H PARENT
REMARK Flexibility Score: inf
ROOT
ATOM      1  C   UNL     1      12.337   3.338  -5.248  1.00  0.00     0.059 C 
ENDROOT
BRANCH   1   2
ATOM      2  C   UNL     1      12.192   2.589  -3.958  1.00  0.00     0.042 C 
ATOM      3  O   UNL     1      13.161   1.935  -3.492  1.00  0.00    -0.550 OA
ATOM      4  O   UNL     1      10.973   2.583  -3.290  1.00  0.00    -0.550 OA
ENDBRANCH   1   2
BRANCH   1   5
ATOM      5  C   UNL     1      10.973   3.699  -5.846  1.00  0.00     0.059 C 
BRANCH   5   6
ATOM      6  C   UNL     1      11.087   4.066  -7.294  1.00  0.00     0.042 C 
ATOM      7  O   UNL     1      11.896   3.456  -8.042  1.00  0.00    -0.550 OA
ATOM      8  O   UNL     1      10.328   5.110  -7.809  1.00  0.00    -0.550 OA
ENDBRANCH   5   6
ENDBRANCH   1   5
TORSDOF 3
ENDMDL
MODEL 8
REMARK VINA RESULT:    -2.692     21.975     23.352
REMARK INTER + INTRA:          -3.252
REMARK INTER:                  -3.213
REMARK INTRA:                  -0.040
REMARK UNBOUND:                -0.088
REMARK SMILES O=C([O-])CCC(=O)[O-]
REMARK SMILES IDX 4 1 2 2 1 3 3 4 5 5 6 6 7 7 8 8
REMARK H PARENT
REMARK Flexibility Score: inf
ROOT
ATOM      1  C   UNL     1      10.931   3.667  -5.884  1.00  0.00     0.059 C 
ENDROOT
BRANCH   1   2
ATOM      2  C   UNL     1      11.108   4.069  -7.317  1.00  0.00     0.042 C 
ATOM      3  O   UNL     1      11.951   3.478  -8.041  1.00  0.00    -0.550 OA
ATOM      4  O   UNL     1      10.370   5.123  -7.839  1.00  0.00    -0.550 OA
ENDBRANCH   1   2
BRANCH   1   5
ATOM      5  C   UNL     1      12.266   3.287  -5.235  1.00  0.00     0.059 C 
BRANCH   5   6
ATOM      6  C   UNL     1      12.064   2.472  -3.995  1.00  0.00     0.042 C 
ATOM      7  O   UNL     1      13.056   2.030  -3.358  1.00  0.00    -0.550 OA
ATOM      8  O   UNL     1      10.778   2.168  -3.564  1.00  0.00    -0.550 OA
ENDBRANCH   5   6
ENDBRANCH   1   5
TORSDOF 3
ENDMDL
MODEL 9
REMARK VINA RESULT:    -2.511     22.203     22.732
REMARK INTER + INTRA:          -3.039
REMARK INTER:                  -2.929
REMARK INTRA:                  -0.110
REMARK UNBOUND:                -0.088
REMARK SMILES O=C([O-])CCC(=O)[O-]
REMARK SMILES IDX 4 1 2 2 1 3 3 4 5 5 6 6 7 7 8 8
REMARK H PARENT
REMARK Flexibility Score: inf
ROOT
ATOM      1  C   UNL     1      11.117   3.705  -5.603  1.00  0.00     0.059 C 
ENDROOT
BRANCH   1   2
ATOM      2  C   UNL     1      12.511   3.168  -5.484  1.00  0.00     0.042 C 
ATOM      3  O   UNL     1      12.981   2.868  -4.355  1.00  0.00    -0.550 OA
ATOM      4  O   UNL     1      13.305   3.036  -6.616  1.00  0.00    -0.550 OA
ENDBRANCH   1   2
BRANCH   1   5
ATOM      5  C   UNL     1      10.349   3.029  -6.743  1.00  0.00     0.059 C 
BRANCH   5   6
ATOM      6  C   UNL     1      10.093   3.979  -7.873  1.00  0.00     0.042 C 
ATOM      7  O   UNL     1      10.487   5.173  -7.801  1.00  0.00    -0.550 OA
ATOM      8  O   UNL     1       9.382   3.556  -8.990  1.00  0.00    -0.550 OA
ENDBRANCH   5   6
ENDBRANCH   1   5
TORSDOF 3
ENDMDL
