MODEL 1
REMARK VINA RESULT:    -3.112      0.000      0.000
REMARK INTER + INTRA:          -3.716
REMARK INTER:                  -4.204
REMARK INTRA:                   0.488
REMARK UNBOUND:                 0.488
REMARK SMILES C=C(C)[C@H]1CC[C@@H](C)C2=C(C1)[C@@H](C)CC2
REMARK SMILES IDX 10 1 9 2 15 3 14 4 12 5 13 6 7 7 8 8 6 9 11 11 4 12 5 13
REMARK SMILES IDX 2 15 1 16 3 17
REMARK H PARENT
REMARK Flexibility Score: 80.00
ROOT
ATOM      1  C   UNL     1      53.014  29.928  26.229  1.00  0.00    -0.067 C 
ATOM      2  C   UNL     1      51.934  29.212  26.540  1.00  0.00    -0.068 C 
ATOM      3  C   UNL     1      50.844  30.079  27.088  1.00  0.00     0.032 C 
ATOM      4  C   UNL     1      51.491  31.456  27.250  1.00  0.00     0.012 C 
ATOM      5  C   UNL     1      52.817  31.391  26.479  1.00  0.00     0.012 C 
ATOM      6  C   UNL     1      52.745  32.166  25.159  1.00  0.00     0.012 C 
ENDROOT
BRANCH   2   7
ATOM      7  C   UNL     1      51.841  27.707  26.356  1.00  0.00     0.012 C 
ATOM      8  C   UNL     1      50.394  27.201  26.466  1.00  0.00     0.012 C 
BRANCH   7   9
ATOM      9  C   UNL     1      52.740  26.983  27.380  1.00  0.00     0.008 CG0
ATOM     10  G   UNL     1      54.029  27.753  27.715  1.00  0.00     0.000 G0
ENDBRANCH   7   9
ENDBRANCH   2   7
BRANCH   1  11
ATOM     11  C   UNL     1      54.292  29.352  25.677  1.00  0.00     0.039 C 
BRANCH  11  12
ATOM     12  C   UNL     1      54.908  28.218  26.525  1.00  0.00     0.018 C 
BRANCH  12  13
ATOM     13  C   UNL     1      54.035  27.750  27.716  1.00  0.00     0.009 CG0
ATOM     14  G   UNL     1      52.746  26.976  27.392  1.00  0.00     0.000 G0
ENDBRANCH  12  13
BRANCH  12  15
ATOM     15  C   UNL     1      56.388  28.411  26.870  1.00  0.00    -0.077 C 
ATOM     16  C   UNL     1      56.851  29.499  27.508  1.00  0.00     0.008 C 
ATOM     17  C   UNL     1      57.389  27.347  26.491  1.00  0.00     0.039 C 
ENDBRANCH  12  15
ENDBRANCH  11  12
ENDBRANCH   1  11
TORSDOF 1
ENDMDL
MODEL 2
REMARK VINA RESULT:    -3.052      4.054      6.578
REMARK INTER + INTRA:          -3.635
REMARK INTER:                  -3.781
REMARK INTRA:                   0.146
REMARK UNBOUND:                 0.488
REMARK SMILES C=C(C)[C@H]1CC[C@@H](C)C2=C(C1)[C@@H](C)CC2
REMARK SMILES IDX 10 1 9 2 15 3 14 4 12 5 13 6 7 7 8 8 6 9 11 11 4 12 5 13
REMARK SMILES IDX 2 15 1 16 3 17
REMARK H PARENT
REMARK Flexibility Score: 80.00
ROOT
ATOM      1  C   UNL     1      49.722  30.784  28.289  1.00  0.00    -0.067 C 
ATOM      2  C   UNL     1      49.876  31.427  27.133  1.00  0.00    -0.068 C 
ATOM      3  C   UNL     1      50.932  30.785  26.288  1.00  0.00     0.032 C 
ATOM      4  C   UNL     1      51.560  29.725  27.195  1.00  0.00     0.012 C 
ATOM      5  C   UNL     1      50.616  29.588  28.398  1.00  0.00     0.012 C 
ATOM      6  C   UNL     1      49.802  28.290  28.335  1.00  0.00     0.012 C 
ENDROOT
BRANCH   2   7
ATOM      7  C   UNL     1      49.074  32.657  26.741  1.00  0.00     0.012 C 
ATOM      8  C   UNL     1      49.304  33.050  25.273  1.00  0.00     0.012 C 
BRANCH   7   9
ATOM      9  C   UNL     1      49.414  33.840  27.671  1.00  0.00     0.008 CG0
ATOM     10  G   UNL     1      48.661  33.801  29.012  1.00  0.00     0.000 G0
ENDBRANCH   7   9
ENDBRANCH   2   7
BRANCH   1  11
ATOM     11  C   UNL     1      48.756  31.190  29.373  1.00  0.00     0.039 C 
BRANCH  11  12
ATOM     12  C   UNL     1      49.005  32.595  29.964  1.00  0.00     0.018 C 
BRANCH  12  13
ATOM     13  C   UNL     1      48.672  33.770  29.011  1.00  0.00     0.009 CG0
ATOM     14  G   UNL     1      49.426  33.834  27.671  1.00  0.00     0.000 G0
ENDBRANCH  12  13
BRANCH  12  15
ATOM     15  C   UNL     1      50.337  32.748  30.706  1.00  0.00    -0.077 C 
ATOM     16  C   UNL     1      50.869  31.769  31.457  1.00  0.00     0.008 C 
ATOM     17  C   UNL     1      51.105  34.043  30.602  1.00  0.00     0.039 C 
ENDBRANCH  12  15
ENDBRANCH  11  12
ENDBRANCH   1  11
TORSDOF 1
ENDMDL
MODEL 3
REMARK VINA RESULT:    -2.928      3.578      6.136
REMARK INTER + INTRA:          -3.467
REMARK INTER:                  -3.990
REMARK INTRA:                   0.523
REMARK UNBOUND:                 0.488
REMARK SMILES C=C(C)[C@H]1CC[C@@H](C)C2=C(C1)[C@@H](C)CC2
REMARK SMILES IDX 10 1 9 2 15 3 14 4 12 5 13 6 7 7 8 8 6 9 11 11 4 12 5 13
REMARK SMILES IDX 2 15 1 16 3 17
REMARK H PARENT
REMARK Flexibility Score: 80.00
ROOT
ATOM      1  C   UNL     1      51.302  31.516  26.769  1.00  0.00    -0.067 C 
ATOM      2  C   UNL     1      50.839  32.147  25.691  1.00  0.00    -0.068 C 
ATOM      3  C   UNL     1      51.827  32.103  24.568  1.00  0.00     0.032 C 
ATOM      4  C   UNL     1      53.086  31.493  25.185  1.00  0.00     0.012 C 
ATOM      5  C   UNL     1      52.653  30.914  26.539  1.00  0.00     0.012 C 
ATOM      6  C   UNL     1      52.571  29.383  26.501  1.00  0.00     0.012 C 
ENDROOT
BRANCH   2   7
ATOM      7  C   UNL     1      49.479  32.822  25.631  1.00  0.00     0.012 C 
ATOM      8  C   UNL     1      49.071  33.168  24.191  1.00  0.00     0.012 C 
BRANCH   7   9
ATOM      9  C   UNL     1      49.469  34.090  26.510  1.00  0.00     0.008 CG0
ATOM     10  G   UNL     1      50.342  33.970  27.770  1.00  0.00     0.000 G0
ENDBRANCH   7   9
ENDBRANCH   2   7
BRANCH   1  11
ATOM     11  C   UNL     1      50.562  31.399  28.077  1.00  0.00     0.039 C 
BRANCH  11  12
ATOM     12  C   UNL     1      50.118  32.746  28.689  1.00  0.00     0.018 C 
BRANCH  12  13
ATOM     13  C   UNL     1      50.344  33.979  27.780  1.00  0.00     0.009 CG0
ATOM     14  G   UNL     1      49.477  34.098  26.515  1.00  0.00     0.000 G0
ENDBRANCH  12  13
BRANCH  12  15
ATOM     15  C   UNL     1      50.542  32.954  30.146  1.00  0.00    -0.077 C 
ATOM     16  C   UNL     1      50.969  34.138  30.618  1.00  0.00     0.008 C 
ATOM     17  C   UNL     1      50.485  31.797  31.114  1.00  0.00     0.039 C 
ENDBRANCH  12  15
ENDBRANCH  11  12
ENDBRANCH   1  11
TORSDOF 1
ENDMDL
MODEL 4
REMARK VINA RESULT:    -2.923      3.585      6.192
REMARK INTER + INTRA:          -3.461
REMARK INTER:                  -3.684
REMARK INTRA:                   0.224
REMARK UNBOUND:                 0.488
REMARK SMILES C=C(C)[C@H]1CC[C@@H](C)C2=C(C1)[C@@H](C)CC2
REMARK SMILES IDX 10 1 9 2 15 3 14 4 12 5 13 6 7 7 8 8 6 9 11 11 4 12 5 13
REMARK SMILES IDX 2 15 1 16 3 17
REMARK H PARENT
REMARK Flexibility Score: 80.00
ROOT
ATOM      1  C   UNL     1      49.884  30.567  28.104  1.00  0.00    -0.067 C 
ATOM      2  C   UNL     1      50.800  30.713  27.146  1.00  0.00    -0.068 C 
ATOM      3  C   UNL     1      51.706  29.524  27.073  1.00  0.00     0.032 C 
ATOM      4  C   UNL     1      51.324  28.672  28.284  1.00  0.00     0.012 C 
ATOM      5  C   UNL     1      49.999  29.248  28.803  1.00  0.00     0.012 C 
ATOM      6  C   UNL     1      48.812  28.341  28.457  1.00  0.00     0.012 C 
ENDROOT
BRANCH   2   7
ATOM      7  C   UNL     1      50.896  31.939  26.255  1.00  0.00     0.012 C 
ATOM      8  C   UNL     1      51.899  31.741  25.108  1.00  0.00     0.012 C 
BRANCH   7   9
ATOM      9  C   UNL     1      51.275  33.182  27.088  1.00  0.00     0.008 CG0
ATOM     10  G   UNL     1      50.086  33.797  27.846  1.00  0.00     0.000 G0
ENDBRANCH   7   9
ENDBRANCH   2   7
BRANCH   1  11
ATOM     11  C   UNL     1      48.837  31.594  28.451  1.00  0.00     0.039 C 
BRANCH  11  12
ATOM     12  C   UNL     1      49.399  32.949  28.935  1.00  0.00     0.018 C 
BRANCH  12  13
ATOM     13  C   UNL     1      50.091  33.795  27.839  1.00  0.00     0.009 CG0
ATOM     14  G   UNL     1      51.288  33.167  27.105  1.00  0.00     0.000 G0
ENDBRANCH  12  13
BRANCH  12  15
ATOM     15  C   UNL     1      50.172  32.882  30.256  1.00  0.00    -0.077 C 
ATOM     16  C   UNL     1      50.033  31.872  31.132  1.00  0.00     0.008 C 
ATOM     17  C   UNL     1      51.140  33.984  30.612  1.00  0.00     0.039 C 
ENDBRANCH  12  15
ENDBRANCH  11  12
ENDBRANCH   1  11
TORSDOF 1
ENDMDL
MODEL 5
REMARK VINA RESULT:    -2.804      3.736      5.872
REMARK INTER + INTRA:          -3.300
REMARK INTER:                  -3.828
REMARK INTRA:                   0.528
REMARK UNBOUND:                 0.488
REMARK SMILES C=C(C)[C@H]1CC[C@@H](C)C2=C(C1)[C@@H](C)CC2
REMARK SMILES IDX 10 1 9 2 15 3 14 4 12 5 13 6 7 7 8 8 6 9 11 11 4 12 5 13
REMARK SMILES IDX 2 15 1 16 3 17
REMARK H PARENT
REMARK Flexibility Score: 80.00
ROOT
ATOM      1  C   UNL     1      50.476  33.391  28.350  1.00  0.00    -0.067 C 
ATOM      2  C   UNL     1      49.336  33.898  27.882  1.00  0.00    -0.068 C 
ATOM      3  C   UNL     1      48.296  33.980  28.954  1.00  0.00     0.032 C 
ATOM      4  C   UNL     1      48.915  33.256  30.150  1.00  0.00     0.012 C 
ATOM      5  C   UNL     1      50.403  33.084  29.814  1.00  0.00     0.012 C 
ATOM      6  C   UNL     1      51.281  34.050  30.619  1.00  0.00     0.012 C 
ENDROOT
BRANCH   2   7
ATOM      7  C   UNL     1      49.139  34.331  26.439  1.00  0.00     0.012 C 
ATOM      8  C   UNL     1      47.878  35.191  26.263  1.00  0.00     0.012 C 
BRANCH   7   9
ATOM      9  C   UNL     1      49.079  33.099  25.512  1.00  0.00     0.008 CG0
ATOM     10  G   UNL     1      50.007  31.954  25.954  1.00  0.00     0.000 G0
ENDBRANCH   7   9
ENDBRANCH   2   7
BRANCH   1  11
ATOM     11  C   UNL     1      51.712  33.154  27.521  1.00  0.00     0.039 C 
BRANCH  11  12
ATOM     12  C   UNL     1      51.488  32.291  26.260  1.00  0.00     0.018 C 
BRANCH  12  13
ATOM     13  C   UNL     1      50.007  31.950  25.962  1.00  0.00     0.009 CG0
ATOM     14  G   UNL     1      49.090  33.099  25.509  1.00  0.00     0.000 G0
ENDBRANCH  12  13
BRANCH  12  15
ATOM     15  C   UNL     1      52.445  31.103  26.123  1.00  0.00    -0.077 C 
ATOM     16  C   UNL     1      52.018  29.839  25.963  1.00  0.00     0.008 C 
ATOM     17  C   UNL     1      53.936  31.336  26.163  1.00  0.00     0.039 C 
ENDBRANCH  12  15
ENDBRANCH  11  12
ENDBRANCH   1  11
TORSDOF 1
ENDMDL
MODEL 6
REMARK VINA RESULT:    -2.638      4.114      6.742
REMARK INTER + INTRA:          -3.075
REMARK INTER:                  -3.134
REMARK INTRA:                   0.059
REMARK UNBOUND:                 0.488
REMARK SMILES C=C(C)[C@H]1CC[C@@H](C)C2=C(C1)[C@@H](C)CC2
REMARK SMILES IDX 10 1 9 2 15 3 14 4 12 5 13 6 7 7 8 8 6 9 11 11 4 12 5 13
REMARK SMILES IDX 2 15 1 16 3 17
REMARK H PARENT
REMARK Flexibility Score: 80.00
ROOT
ATOM      1  C   UNL     1      50.003  31.889  27.055  1.00  0.00    -0.067 C 
ATOM      2  C   UNL     1      51.005  32.732  27.303  1.00  0.00    -0.068 C 
ATOM      3  C   UNL     1      52.321  32.149  26.896  1.00  0.00     0.032 C 
ATOM      4  C   UNL     1      52.002  30.702  26.516  1.00  0.00     0.012 C 
ATOM      5  C   UNL     1      50.472  30.623  26.409  1.00  0.00     0.012 C 
ATOM      6  C   UNL     1      50.009  30.550  24.949  1.00  0.00     0.012 C 
ENDROOT
BRANCH   2   7
ATOM      7  C   UNL     1      50.814  34.105  27.924  1.00  0.00     0.012 C 
ATOM      8  C   UNL     1      52.106  34.936  27.893  1.00  0.00     0.012 C 
BRANCH   7   9
ATOM      9  C   UNL     1      50.296  33.974  29.372  1.00  0.00     0.008 CG0
ATOM     10  G   UNL     1      48.786  33.693  29.460  1.00  0.00     0.000 G0
ENDBRANCH   7   9
ENDBRANCH   2   7
BRANCH   1  11
ATOM     11  C   UNL     1      48.555  32.163  27.370  1.00  0.00     0.039 C 
BRANCH  11  12
ATOM     12  C   UNL     1      48.248  32.362  28.871  1.00  0.00     0.018 C 
BRANCH  12  13
ATOM     13  C   UNL     1      48.774  33.689  29.472  1.00  0.00     0.009 CG0
ATOM     14  G   UNL     1      50.286  33.960  29.383  1.00  0.00     0.000 G0
ENDBRANCH  12  13
BRANCH  12  15
ATOM     15  C   UNL     1      48.512  31.131  29.744  1.00  0.00    -0.077 C 
ATOM     16  C   UNL     1      49.021  31.213  30.985  1.00  0.00     0.008 C 
ATOM     17  C   UNL     1      48.192  29.755  29.211  1.00  0.00     0.039 C 
ENDBRANCH  12  15
ENDBRANCH  11  12
ENDBRANCH   1  11
TORSDOF 1
ENDMDL
MODEL 7
REMARK VINA RESULT:    -2.604      4.710      6.356
REMARK INTER + INTRA:          -3.030
REMARK INTER:                  -3.128
REMARK INTRA:                   0.098
REMARK UNBOUND:                 0.488
REMARK SMILES C=C(C)[C@H]1CC[C@@H](C)C2=C(C1)[C@@H](C)CC2
REMARK SMILES IDX 10 1 9 2 15 3 14 4 12 5 13 6 7 7 8 8 6 9 11 11 4 12 5 13
REMARK SMILES IDX 2 15 1 16 3 17
REMARK H PARENT
REMARK Flexibility Score: 80.00
ROOT
ATOM      1  C   UNL     1      49.155  32.539  27.824  1.00  0.00    -0.067 C 
ATOM      2  C   UNL     1      50.122  33.127  28.527  1.00  0.00    -0.068 C 
ATOM      3  C   UNL     1      51.186  33.680  27.632  1.00  0.00     0.032 C 
ATOM      4  C   UNL     1      50.821  33.172  26.237  1.00  0.00     0.012 C 
ATOM      5  C   UNL     1      49.388  32.631  26.348  1.00  0.00     0.012 C 
ATOM      6  C   UNL     1      48.373  33.575  25.692  1.00  0.00     0.012 C 
ENDROOT
BRANCH   2   7
ATOM      7  C   UNL     1      50.125  33.214  30.043  1.00  0.00     0.012 C 
ATOM      8  C   UNL     1      51.239  34.134  30.565  1.00  0.00     0.012 C 
BRANCH   7   9
ATOM      9  C   UNL     1      50.261  31.806  30.662  1.00  0.00     0.008 CG0
ATOM     10  G   UNL     1      48.943  31.012  30.672  1.00  0.00     0.000 G0
ENDBRANCH   7   9
ENDBRANCH   2   7
BRANCH   1  11
ATOM     11  C   UNL     1      47.949  31.863  28.425  1.00  0.00     0.039 C 
BRANCH  11  12
ATOM     12  C   UNL     1      48.272  30.648  29.321  1.00  0.00     0.018 C 
BRANCH  12  13
ATOM     13  C   UNL     1      48.941  30.997  30.674  1.00  0.00     0.009 CG0
ATOM     14  G   UNL     1      50.250  31.805  30.633  1.00  0.00     0.000 G0
ENDBRANCH  12  13
BRANCH  12  15
ATOM     15  C   UNL     1      48.920  29.469  28.588  1.00  0.00    -0.077 C 
ATOM     16  C   UNL     1      48.321  28.825  27.572  1.00  0.00     0.008 C 
ATOM     17  C   UNL     1      50.292  28.993  29.003  1.00  0.00     0.039 C 
ENDBRANCH  12  15
ENDBRANCH  11  12
ENDBRANCH   1  11
TORSDOF 1
ENDMDL
MODEL 8
REMARK VINA RESULT:    -2.543      4.330      6.299
REMARK INTER + INTRA:          -2.946
REMARK INTER:                  -3.468
REMARK INTRA:                   0.522
REMARK UNBOUND:                 0.488
REMARK SMILES C=C(C)[C@H]1CC[C@@H](C)C2=C(C1)[C@@H](C)CC2
REMARK SMILES IDX 10 1 9 2 15 3 14 4 12 5 13 6 7 7 8 8 6 9 11 11 4 12 5 13
REMARK SMILES IDX 2 15 1 16 3 17
REMARK H PARENT
REMARK Flexibility Score: 80.00
ROOT
ATOM      1  C   UNL     1      50.413  31.119  28.210  1.00  0.00    -0.067 C 
ATOM      2  C   UNL     1      50.257  32.005  29.193  1.00  0.00    -0.068 C 
ATOM      3  C   UNL     1      49.288  31.513  30.222  1.00  0.00     0.032 C 
ATOM      4  C   UNL     1      48.707  30.231  29.623  1.00  0.00     0.012 C 
ATOM      5  C   UNL     1      49.610  29.876  28.433  1.00  0.00     0.012 C 
ATOM      6  C   UNL     1      50.523  28.685  28.749  1.00  0.00     0.012 C 
ENDROOT
BRANCH   2   7
ATOM      7  C   UNL     1      50.978  33.342  29.243  1.00  0.00     0.012 C 
ATOM      8  C   UNL     1      50.866  34.005  30.625  1.00  0.00     0.012 C 
BRANCH   7   9
ATOM      9  C   UNL     1      50.435  34.287  28.151  1.00  0.00     0.008 CG0
ATOM     10  G   UNL     1      49.991  33.555  26.873  1.00  0.00     0.000 G0
ENDBRANCH   7   9
ENDBRANCH   2   7
BRANCH   1  11
ATOM     11  C   UNL     1      51.301  31.321  27.009  1.00  0.00     0.039 C 
BRANCH  11  12
ATOM     12  C   UNL     1      51.006  32.601  26.197  1.00  0.00     0.018 C 
BRANCH  12  13
ATOM     13  C   UNL     1      49.997  33.572  26.858  1.00  0.00     0.009 CG0
ATOM     14  G   UNL     1      50.435  34.281  28.152  1.00  0.00     0.000 G0
ENDBRANCH  12  13
BRANCH  12  15
ATOM     15  C   UNL     1      50.763  32.366  24.703  1.00  0.00    -0.077 C 
ATOM     16  C   UNL     1      51.694  31.845  23.887  1.00  0.00     0.008 C 
ATOM     17  C   UNL     1      49.427  32.724  24.098  1.00  0.00     0.039 C 
ENDBRANCH  12  15
ENDBRANCH  11  12
ENDBRANCH   1  11
TORSDOF 1
ENDMDL
MODEL 9
REMARK VINA RESULT:    -2.384      2.411      3.679
REMARK INTER + INTRA:          -2.732
REMARK INTER:                  -3.261
REMARK INTRA:                   0.529
REMARK UNBOUND:                 0.488
REMARK SMILES C=C(C)[C@H]1CC[C@@H](C)C2=C(C1)[C@@H](C)CC2
REMARK SMILES IDX 10 1 9 2 15 3 14 4 12 5 13 6 7 7 8 8 6 9 11 11 4 12 5 13
REMARK SMILES IDX 2 15 1 16 3 17
REMARK H PARENT
REMARK Flexibility Score: 80.00
ROOT
ATOM      1  C   UNL     1      50.477  31.372  28.435  1.00  0.00    -0.067 C 
ATOM      2  C   UNL     1      49.638  30.584  29.106  1.00  0.00    -0.068 C 
ATOM      3  C   UNL     1      49.363  31.121  30.476  1.00  0.00     0.032 C 
ATOM      4  C   UNL     1      50.327  32.297  30.630  1.00  0.00     0.012 C 
ATOM      5  C   UNL     1      50.873  32.582  29.223  1.00  0.00     0.012 C 
ATOM      6  C   UNL     1      50.257  33.851  28.622  1.00  0.00     0.012 C 
ENDROOT
BRANCH   2   7
ATOM      7  C   UNL     1      49.049  29.304  28.537  1.00  0.00     0.012 C 
ATOM      8  C   UNL     1      47.875  28.785  29.381  1.00  0.00     0.012 C 
BRANCH   7   9
ATOM      9  C   UNL     1      50.139  28.219  28.411  1.00  0.00     0.008 CG0
ATOM     10  G   UNL     1      51.530  28.784  28.073  1.00  0.00     0.000 G0
ENDBRANCH   7   9
ENDBRANCH   2   7
BRANCH   1  11
ATOM     11  C   UNL     1      50.974  31.102  27.038  1.00  0.00     0.039 C 
BRANCH  11  12
ATOM     12  C   UNL     1      51.646  29.724  26.849  1.00  0.00     0.018 C 
BRANCH  12  13
ATOM     13  C   UNL     1      51.531  28.772  28.065  1.00  0.00     0.009 CG0
ATOM     14  G   UNL     1      50.138  28.212  28.400  1.00  0.00     0.000 G0
ENDBRANCH  12  13
BRANCH  12  15
ATOM     15  C   UNL     1      53.044  29.778  26.224  1.00  0.00    -0.077 C 
ATOM     16  C   UNL     1      53.315  30.467  25.103  1.00  0.00     0.008 C 
ATOM     17  C   UNL     1      54.184  29.036  26.879  1.00  0.00     0.039 C 
ENDBRANCH  12  15
ENDBRANCH  11  12
ENDBRANCH   1  11
TORSDOF 1
ENDMDL
