MODEL 1
REMARK VINA RESULT:    -5.370      0.000      0.000
REMARK INTER + INTRA:          -6.448
REMARK INTER:                  -6.312
REMARK INTRA:                  -0.136
REMARK UNBOUND:                -0.136
REMARK SMILES O=C([O-])C=Cc1ccc(O)c(O)c1
REMARK SMILES IDX 6 1 13 2 7 3 11 4 8 5 9 6 5 7 4 8 2 9 1 10 3 11 12 12 10 14
REMARK H PARENT 12 13 10 15
REMARK Flexibility Score: inf
ROOT
ATOM      1  C   UNL     1     -22.528  84.188 -22.281  1.00  0.00    -0.022 A 
ATOM      2  C   UNL     1     -22.122  84.977 -21.191  1.00  0.00     0.058 A 
ATOM      3  C   UNL     1     -22.557  82.787 -22.132  1.00  0.00     0.012 A 
ATOM      4  C   UNL     1     -21.727  84.382 -19.984  1.00  0.00     0.157 A 
ATOM      5  C   UNL     1     -22.163  82.196 -20.929  1.00  0.00     0.051 A 
ATOM      6  C   UNL     1     -21.745  82.989 -19.854  1.00  0.00     0.157 A 
ENDROOT
BRANCH   1   7
ATOM      7  C   UNL     1     -22.946  84.867 -23.533  1.00  0.00     0.010 C 
ATOM      8  C   UNL     1     -22.822  86.184 -23.742  1.00  0.00     0.025 C 
BRANCH   8   9
ATOM      9  C   UNL     1     -23.261  86.817 -24.997  1.00  0.00     0.064 C 
ATOM     10  O   UNL     1     -24.002  86.178 -25.788  1.00  0.00    -0.545 OA
ATOM     11  O   UNL     1     -22.872  88.112 -25.322  1.00  0.00    -0.545 OA
ENDBRANCH   8   9
ENDBRANCH   1   7
BRANCH   4  12
ATOM     12  O   UNL     1     -21.316  85.170 -18.911  1.00  0.00    -0.504 OA
ATOM     13  H   UNL     1     -20.573  84.873 -18.288  1.00  0.00     0.293 HD
ENDBRANCH   4  12
BRANCH   6  14
ATOM     14  O   UNL     1     -21.351  82.402 -18.653  1.00  0.00    -0.504 OA
ATOM     15  H   UNL     1     -21.600  81.447 -18.424  1.00  0.00     0.293 HD
ENDBRANCH   6  14
TORSDOF 4
ENDMDL
MODEL 2
REMARK VINA RESULT:    -5.356     14.413     14.905
REMARK INTER + INTRA:          -6.432
REMARK INTER:                  -6.306
REMARK INTRA:                  -0.126
REMARK UNBOUND:                -0.136
REMARK SMILES O=C([O-])C=Cc1ccc(O)c(O)c1
REMARK SMILES IDX 6 1 13 2 7 3 11 4 8 5 9 6 5 7 4 8 2 9 1 10 3 11 12 12 10 14
REMARK H PARENT 12 13 10 15
REMARK Flexibility Score: inf
ROOT
ATOM      1  C   UNL     1     -36.538  83.090 -19.056  1.00  0.00    -0.022 A 
ATOM      2  C   UNL     1     -35.253  83.052 -19.625  1.00  0.00     0.058 A 
ATOM      3  C   UNL     1     -36.785  83.985 -17.996  1.00  0.00     0.012 A 
ATOM      4  C   UNL     1     -34.227  83.872 -19.133  1.00  0.00     0.157 A 
ATOM      5  C   UNL     1     -35.763  84.801 -17.507  1.00  0.00     0.051 A 
ATOM      6  C   UNL     1     -34.482  84.746 -18.070  1.00  0.00     0.157 A 
ENDROOT
BRANCH   1   7
ATOM      7  C   UNL     1     -37.591  82.209 -19.621  1.00  0.00     0.010 C 
ATOM      8  C   UNL     1     -37.512  80.872 -19.639  1.00  0.00     0.025 C 
BRANCH   8   9
ATOM      9  C   UNL     1     -38.577  80.039 -20.221  1.00  0.00     0.064 C 
ATOM     10  O   UNL     1     -39.635  79.840 -19.568  1.00  0.00    -0.545 OA
ATOM     11  O   UNL     1     -38.435  79.468 -21.480  1.00  0.00    -0.545 OA
ENDBRANCH   8   9
ENDBRANCH   1   7
BRANCH   4  12
ATOM     12  O   UNL     1     -32.953  83.822 -19.695  1.00  0.00    -0.504 OA
ATOM     13  H   UNL     1     -32.127  83.679 -19.125  1.00  0.00     0.293 HD
ENDBRANCH   4  12
BRANCH   6  14
ATOM     14  O   UNL     1     -33.460  85.558 -17.583  1.00  0.00    -0.504 OA
ATOM     15  H   UNL     1     -33.050  85.404 -16.669  1.00  0.00     0.293 HD
ENDBRANCH   6  14
TORSDOF 4
ENDMDL
MODEL 3
REMARK VINA RESULT:    -5.173      0.797      2.078
REMARK INTER + INTRA:          -6.216
REMARK INTER:                  -6.077
REMARK INTRA:                  -0.139
REMARK UNBOUND:                -0.136
REMARK SMILES O=C([O-])C=Cc1ccc(O)c(O)c1
REMARK SMILES IDX 6 1 13 2 7 3 11 4 8 5 9 6 5 7 4 8 2 9 1 10 3 11 12 12 10 14
REMARK H PARENT 12 13 10 15
REMARK Flexibility Score: inf
ROOT
ATOM      1  C   UNL     1     -22.275  84.300 -22.257  1.00  0.00    -0.022 A 
ATOM      2  C   UNL     1     -22.074  82.911 -22.170  1.00  0.00     0.058 A 
ATOM      3  C   UNL     1     -22.140  85.080 -21.091  1.00  0.00     0.012 A 
ATOM      4  C   UNL     1     -21.771  82.307 -20.941  1.00  0.00     0.157 A 
ATOM      5  C   UNL     1     -21.837  84.478 -19.868  1.00  0.00     0.051 A 
ATOM      6  C   UNL     1     -21.655  83.091 -19.787  1.00  0.00     0.157 A 
ENDROOT
BRANCH   1   7
ATOM      7  C   UNL     1     -22.583  84.891 -23.583  1.00  0.00     0.010 C 
ATOM      8  C   UNL     1     -22.903  86.179 -23.767  1.00  0.00     0.025 C 
BRANCH   8   9
ATOM      9  C   UNL     1     -23.213  86.720 -25.101  1.00  0.00     0.064 C 
ATOM     10  O   UNL     1     -22.716  87.820 -25.454  1.00  0.00    -0.545 OA
ATOM     11  O   UNL     1     -24.045  86.034 -25.978  1.00  0.00    -0.545 OA
ENDBRANCH   8   9
ENDBRANCH   1   7
BRANCH   4  12
ATOM     12  O   UNL     1     -21.584  80.929 -20.860  1.00  0.00    -0.504 OA
ATOM     13  H   UNL     1     -21.819  80.315 -21.632  1.00  0.00     0.293 HD
ENDBRANCH   4  12
BRANCH   6  14
ATOM     14  O   UNL     1     -21.354  82.487 -18.568  1.00  0.00    -0.504 OA
ATOM     15  H   UNL     1     -20.783  82.953 -17.873  1.00  0.00     0.293 HD
ENDBRANCH   6  14
TORSDOF 4
ENDMDL
MODEL 4
REMARK VINA RESULT:    -5.065      2.932      3.938
REMARK INTER + INTRA:          -6.089
REMARK INTER:                  -5.959
REMARK INTRA:                  -0.130
REMARK UNBOUND:                -0.136
REMARK SMILES O=C([O-])C=Cc1ccc(O)c(O)c1
REMARK SMILES IDX 6 1 13 2 7 3 11 4 8 5 9 6 5 7 4 8 2 9 1 10 3 11 12 12 10 14
REMARK H PARENT 12 13 10 15
REMARK Flexibility Score: inf
ROOT
ATOM      1  C   UNL     1     -22.124  82.811 -22.361  1.00  0.00    -0.022 A 
ATOM      2  C   UNL     1     -21.823  82.200 -21.132  1.00  0.00     0.058 A 
ATOM      3  C   UNL     1     -22.197  84.217 -22.422  1.00  0.00     0.012 A 
ATOM      4  C   UNL     1     -21.625  82.972 -19.978  1.00  0.00     0.157 A 
ATOM      5  C   UNL     1     -21.999  84.985 -21.272  1.00  0.00     0.051 A 
ATOM      6  C   UNL     1     -21.716  84.366 -20.047  1.00  0.00     0.157 A 
ENDROOT
BRANCH   1   7
ATOM      7  C   UNL     1     -22.314  81.949 -23.555  1.00  0.00     0.010 C 
ATOM      8  C   UNL     1     -21.413  81.830 -24.538  1.00  0.00     0.025 C 
BRANCH   8   9
ATOM      9  C   UNL     1     -21.649  80.971 -25.710  1.00  0.00     0.064 C 
ATOM     10  O   UNL     1     -22.542  80.086 -25.660  1.00  0.00    -0.545 OA
ATOM     11  O   UNL     1     -20.902  81.122 -26.874  1.00  0.00    -0.545 OA
ENDBRANCH   8   9
ENDBRANCH   1   7
BRANCH   4  12
ATOM     12  O   UNL     1     -21.338  82.359 -18.760  1.00  0.00    -0.504 OA
ATOM     13  H   UNL     1     -21.852  81.544 -18.442  1.00  0.00     0.293 HD
ENDBRANCH   4  12
BRANCH   6  14
ATOM     14  O   UNL     1     -21.519  85.130 -18.899  1.00  0.00    -0.504 OA
ATOM     15  H   UNL     1     -21.529  86.143 -18.928  1.00  0.00     0.293 HD
ENDBRANCH   6  14
TORSDOF 4
ENDMDL
MODEL 5
REMARK VINA RESULT:    -5.038      7.999     12.344
REMARK INTER + INTRA:          -6.058
REMARK INTER:                  -5.918
REMARK INTRA:                  -0.140
REMARK UNBOUND:                -0.136
REMARK SMILES O=C([O-])C=Cc1ccc(O)c(O)c1
REMARK SMILES IDX 6 1 13 2 7 3 11 4 8 5 9 6 5 7 4 8 2 9 1 10 3 11 12 12 10 14
REMARK H PARENT 12 13 10 15
REMARK Flexibility Score: inf
ROOT
ATOM      1  C   UNL     1     -24.431  93.348 -28.827  1.00  0.00    -0.022 A 
ATOM      2  C   UNL     1     -24.910  94.470 -28.128  1.00  0.00     0.058 A 
ATOM      3  C   UNL     1     -23.990  93.513 -30.155  1.00  0.00     0.012 A 
ATOM      4  C   UNL     1     -24.971  95.727 -28.747  1.00  0.00     0.157 A 
ATOM      5  C   UNL     1     -24.051  94.766 -30.771  1.00  0.00     0.051 A 
ATOM      6  C   UNL     1     -24.544  95.874 -30.072  1.00  0.00     0.157 A 
ENDROOT
BRANCH   1   7
ATOM      7  C   UNL     1     -24.377  92.043 -28.123  1.00  0.00     0.010 C 
ATOM      8  C   UNL     1     -23.586  91.028 -28.497  1.00  0.00     0.025 C 
BRANCH   8   9
ATOM      9  C   UNL     1     -23.573  89.746 -27.775  1.00  0.00     0.064 C 
ATOM     10  O   UNL     1     -23.535  89.742 -26.517  1.00  0.00    -0.545 OA
ATOM     11  O   UNL     1     -23.603  88.536 -28.459  1.00  0.00    -0.545 OA
ENDBRANCH   8   9
ENDBRANCH   1   7
BRANCH   4  12
ATOM     12  O   UNL     1     -25.456  96.833 -28.051  1.00  0.00    -0.504 OA
ATOM     13  H   UNL     1     -26.243  97.373 -28.395  1.00  0.00     0.293 HD
ENDBRANCH   4  12
BRANCH   6  14
ATOM     14  O   UNL     1     -24.608  97.125 -30.683  1.00  0.00    -0.504 OA
ATOM     15  H   UNL     1     -25.215  97.856 -30.332  1.00  0.00     0.293 HD
ENDBRANCH   6  14
TORSDOF 4
ENDMDL
MODEL 6
REMARK VINA RESULT:    -5.029      3.477      5.283
REMARK INTER + INTRA:          -6.047
REMARK INTER:                  -5.920
REMARK INTRA:                  -0.127
REMARK UNBOUND:                -0.136
REMARK SMILES O=C([O-])C=Cc1ccc(O)c(O)c1
REMARK SMILES IDX 6 1 13 2 7 3 11 4 8 5 9 6 5 7 4 8 2 9 1 10 3 11 12 12 10 14
REMARK H PARENT 12 13 10 15
REMARK Flexibility Score: inf
ROOT
ATOM      1  C   UNL     1     -21.824  81.920 -22.332  1.00  0.00    -0.022 A 
ATOM      2  C   UNL     1     -21.657  81.727 -20.950  1.00  0.00     0.058 A 
ATOM      3  C   UNL     1     -21.911  83.236 -22.829  1.00  0.00     0.012 A 
ATOM      4  C   UNL     1     -21.604  82.821 -20.075  1.00  0.00     0.157 A 
ATOM      5  C   UNL     1     -21.857  84.326 -21.956  1.00  0.00     0.051 A 
ATOM      6  C   UNL     1     -21.707  84.123 -20.579  1.00  0.00     0.157 A 
ENDROOT
BRANCH   1   7
ATOM      7  C   UNL     1     -21.863  80.729 -23.217  1.00  0.00     0.010 C 
ATOM      8  C   UNL     1     -20.874  79.829 -23.298  1.00  0.00     0.025 C 
BRANCH   8   9
ATOM      9  C   UNL     1     -20.952  78.667 -24.199  1.00  0.00     0.064 C 
ATOM     10  O   UNL     1     -20.956  78.847 -25.444  1.00  0.00    -0.545 OA
ATOM     11  O   UNL     1     -21.020  77.372 -23.696  1.00  0.00    -0.545 OA
ENDBRANCH   8   9
ENDBRANCH   1   7
BRANCH   4  12
ATOM     12  O   UNL     1     -21.449  82.622 -18.705  1.00  0.00    -0.504 OA
ATOM     13  H   UNL     1     -21.763  81.769 -18.254  1.00  0.00     0.293 HD
ENDBRANCH   4  12
BRANCH   6  14
ATOM     14  O   UNL     1     -21.655  85.208 -19.706  1.00  0.00    -0.504 OA
ATOM     15  H   UNL     1     -21.061  86.008 -19.890  1.00  0.00     0.293 HD
ENDBRANCH   6  14
TORSDOF 4
ENDMDL
MODEL 7
REMARK VINA RESULT:    -4.875      8.223     10.519
REMARK INTER + INTRA:          -5.865
REMARK INTER:                  -5.732
REMARK INTRA:                  -0.133
REMARK UNBOUND:                -0.136
REMARK SMILES O=C([O-])C=Cc1ccc(O)c(O)c1
REMARK SMILES IDX 6 1 13 2 7 3 11 4 8 5 9 6 5 7 4 8 2 9 1 10 3 11 12 12 10 14
REMARK H PARENT 12 13 10 15
REMARK Flexibility Score: inf
ROOT
ATOM      1  C   UNL     1     -23.849  92.200 -29.224  1.00  0.00    -0.022 A 
ATOM      2  C   UNL     1     -23.440  91.855 -27.924  1.00  0.00     0.058 A 
ATOM      3  C   UNL     1     -23.982  91.182 -30.188  1.00  0.00     0.012 A 
ATOM      4  C   UNL     1     -23.143  90.524 -27.597  1.00  0.00     0.157 A 
ATOM      5  C   UNL     1     -23.686  89.856 -29.861  1.00  0.00     0.051 A 
ATOM      6  C   UNL     1     -23.263  89.523 -28.569  1.00  0.00     0.157 A 
ENDROOT
BRANCH   1   7
ATOM      7  C   UNL     1     -24.162  93.622 -29.516  1.00  0.00     0.010 C 
ATOM      8  C   UNL     1     -24.358  94.550 -28.570  1.00  0.00     0.025 C 
BRANCH   8   9
ATOM      9  C   UNL     1     -24.677  95.947 -28.906  1.00  0.00     0.064 C 
ATOM     10  O   UNL     1     -25.144  96.707 -28.018  1.00  0.00    -0.545 OA
ATOM     11  O   UNL     1     -24.470  96.443 -30.188  1.00  0.00    -0.545 OA
ENDBRANCH   8   9
ENDBRANCH   1   7
BRANCH   4  12
ATOM     12  O   UNL     1     -22.728  90.190 -26.310  1.00  0.00    -0.504 OA
ATOM     13  H   UNL     1     -22.850  89.254 -25.939  1.00  0.00     0.293 HD
ENDBRANCH   4  12
BRANCH   6  14
ATOM     14  O   UNL     1     -22.966  88.202 -28.240  1.00  0.00    -0.504 OA
ATOM     15  H   UNL     1     -23.387  87.749 -27.437  1.00  0.00     0.293 HD
ENDBRANCH   6  14
TORSDOF 4
ENDMDL
MODEL 8
REMARK VINA RESULT:    -4.801      3.533      5.662
REMARK INTER + INTRA:          -5.779
REMARK INTER:                  -5.649
REMARK INTRA:                  -0.130
REMARK UNBOUND:                -0.136
REMARK SMILES O=C([O-])C=Cc1ccc(O)c(O)c1
REMARK SMILES IDX 6 1 13 2 7 3 11 4 8 5 9 6 5 7 4 8 2 9 1 10 3 11 12 12 10 14
REMARK H PARENT 12 13 10 15
REMARK Flexibility Score: inf
ROOT
ATOM      1  C   UNL     1     -22.940  81.744 -21.838  1.00  0.00    -0.022 A 
ATOM      2  C   UNL     1     -21.987  82.531 -22.508  1.00  0.00     0.058 A 
ATOM      3  C   UNL     1     -23.480  82.216 -20.626  1.00  0.00     0.012 A 
ATOM      4  C   UNL     1     -21.561  83.753 -21.969  1.00  0.00     0.157 A 
ATOM      5  C   UNL     1     -23.055  83.434 -20.089  1.00  0.00     0.051 A 
ATOM      6  C   UNL     1     -22.093  84.204 -20.756  1.00  0.00     0.157 A 
ENDROOT
BRANCH   1   7
ATOM      7  C   UNL     1     -23.365  80.463 -22.457  1.00  0.00     0.010 C 
ATOM      8  C   UNL     1     -23.386  79.293 -21.807  1.00  0.00     0.025 C 
BRANCH   8   9
ATOM      9  C   UNL     1     -23.805  78.045 -22.465  1.00  0.00     0.064 C 
ATOM     10  O   UNL     1     -24.988  77.639 -22.328  1.00  0.00    -0.545 OA
ATOM     11  O   UNL     1     -22.914  77.306 -23.236  1.00  0.00    -0.545 OA
ENDBRANCH   8   9
ENDBRANCH   1   7
BRANCH   4  12
ATOM     12  O   UNL     1     -20.608  84.524 -22.633  1.00  0.00    -0.504 OA
ATOM     13  H   UNL     1     -20.876  85.242 -23.297  1.00  0.00     0.293 HD
ENDBRANCH   4  12
BRANCH   6  14
ATOM     14  O   UNL     1     -21.667  85.419 -20.222  1.00  0.00    -0.504 OA
ATOM     15  H   UNL     1     -21.932  85.710 -19.289  1.00  0.00     0.293 HD
ENDBRANCH   6  14
TORSDOF 4
ENDMDL
MODEL 9
REMARK VINA RESULT:    -4.657      8.092     12.555
REMARK INTER + INTRA:          -5.610
REMARK INTER:                  -5.476
REMARK INTRA:                  -0.133
REMARK UNBOUND:                -0.136
REMARK SMILES O=C([O-])C=Cc1ccc(O)c(O)c1
REMARK SMILES IDX 6 1 13 2 7 3 11 4 8 5 9 6 5 7 4 8 2 9 1 10 3 11 12 12 10 14
REMARK H PARENT 12 13 10 15
REMARK Flexibility Score: inf
ROOT
ATOM      1  C   UNL     1     -24.349  93.437 -28.797  1.00  0.00    -0.022 A 
ATOM      2  C   UNL     1     -23.940  93.540 -30.139  1.00  0.00     0.058 A 
ATOM      3  C   UNL     1     -24.842  94.586 -28.147  1.00  0.00     0.012 A 
ATOM      4  C   UNL     1     -23.998  94.769 -30.812  1.00  0.00     0.157 A 
ATOM      5  C   UNL     1     -24.899  95.809 -28.820  1.00  0.00     0.051 A 
ATOM      6  C   UNL     1     -24.475  95.906 -30.151  1.00  0.00     0.157 A 
ENDROOT
BRANCH   1   7
ATOM      7  C   UNL     1     -24.278  92.112 -28.133  1.00  0.00     0.010 C 
ATOM      8  C   UNL     1     -23.522  91.098 -28.574  1.00  0.00     0.025 C 
BRANCH   8   9
ATOM      9  C   UNL     1     -23.492  89.795 -27.889  1.00  0.00     0.064 C 
ATOM     10  O   UNL     1     -23.473  89.756 -26.631  1.00  0.00    -0.545 OA
ATOM     11  O   UNL     1     -23.484  88.605 -28.608  1.00  0.00    -0.545 OA
ENDBRANCH   8   9
ENDBRANCH   1   7
BRANCH   4  12
ATOM     12  O   UNL     1     -23.582  94.866 -32.139  1.00  0.00    -0.504 OA
ATOM     13  H   UNL     1     -22.856  95.515 -32.421  1.00  0.00     0.293 HD
ENDBRANCH   4  12
BRANCH   6  14
ATOM     14  O   UNL     1     -24.530  97.125 -30.824  1.00  0.00    -0.504 OA
ATOM     15  H   UNL     1     -24.148  97.971 -30.418  1.00  0.00     0.293 HD
ENDBRANCH   6  14
TORSDOF 4
ENDMDL
