MODEL 1
REMARK VINA RESULT:    -4.601      0.000      0.000
REMARK INTER + INTRA:          -9.578
REMARK INTER:                  -7.829
REMARK INTRA:                  -1.748
REMARK UNBOUND:                -1.748
REMARK SMILES CCCCCCCCCCCCCC(=O)[O-]
REMARK SMILES IDX 8 1 9 2 10 3 11 4 12 5 13 6 14 7 15 8 16 9 7 10 6 11 5 12
REMARK SMILES IDX 4 13 3 14 2 15 1 16
REMARK H PARENT
REMARK Flexibility Score: inf
ROOT
ATOM      1  C   UNL     1     -35.102  41.571  42.640  1.00  0.00     0.000 C 
ENDROOT
BRANCH   1   2
ATOM      2  C   UNL     1     -35.610  42.937  42.163  1.00  0.00     0.000 C 
BRANCH   2   3
ATOM      3  C   UNL     1     -35.285  43.158  40.680  1.00  0.00     0.000 C 
BRANCH   3   4
ATOM      4  C   UNL     1     -34.547  44.486  40.471  1.00  0.00     0.000 C 
BRANCH   4   5
ATOM      5  C   UNL     1     -33.441  44.339  39.416  1.00  0.00     0.006 C 
BRANCH   5   6
ATOM      6  C   UNL     1     -34.006  44.199  37.996  1.00  0.00     0.053 C 
BRANCH   6   7
ATOM      7  C   UNL     1     -33.377  45.174  37.050  1.00  0.00     0.041 C 
ATOM      8  O   UNL     1     -32.162  45.481  37.169  1.00  0.00    -0.550 OA
ATOM      9  O   UNL     1     -34.126  45.720  36.015  1.00  0.00    -0.550 OA
ENDBRANCH   6   7
ENDBRANCH   5   6
ENDBRANCH   4   5
ENDBRANCH   3   4
ENDBRANCH   2   3
ENDBRANCH   1   2
BRANCH   1  10
ATOM     10  C   UNL     1     -33.939  41.734  43.631  1.00  0.00     0.000 C 
BRANCH  10  11
ATOM     11  C   UNL     1     -32.747  40.819  43.305  1.00  0.00    -0.000 C 
BRANCH  11  12
ATOM     12  C   UNL     1     -31.648  41.544  42.509  1.00  0.00    -0.000 C 
BRANCH  12  13
ATOM     13  C   UNL     1     -31.820  41.399  40.986  1.00  0.00    -0.000 C 
BRANCH  13  14
ATOM     14  C   UNL     1     -32.435  40.065  40.517  1.00  0.00    -0.000 C 
BRANCH  14  15
ATOM     15  C   UNL     1     -33.589  40.199  39.509  1.00  0.00    -0.003 C 
ATOM     16  C   UNL     1     -34.675  39.141  39.702  1.00  0.00     0.004 C 
ENDBRANCH  14  15
ENDBRANCH  13  14
ENDBRANCH  12  13
ENDBRANCH  11  12
ENDBRANCH  10  11
ENDBRANCH   1  10
TORSDOF 12
ENDMDL
MODEL 2
REMARK VINA RESULT:    -4.560      1.751      3.459
REMARK INTER + INTRA:          -9.508
REMARK INTER:                  -7.550
REMARK INTRA:                  -1.958
REMARK UNBOUND:                -1.748
REMARK SMILES CCCCCCCCCCCCCC(=O)[O-]
REMARK SMILES IDX 8 1 9 2 10 3 11 4 12 5 13 6 14 7 15 8 16 9 7 10 6 11 5 12
REMARK SMILES IDX 4 13 3 14 2 15 1 16
REMARK H PARENT
REMARK Flexibility Score: inf
ROOT
ATOM      1  C   UNL     1     -34.450  38.969  41.666  1.00  0.00     0.000 C 
ENDROOT
BRANCH   1   2
ATOM      2  C   UNL     1     -33.228  39.486  40.896  1.00  0.00     0.000 C 
BRANCH   2   3
ATOM      3  C   UNL     1     -33.655  40.326  39.686  1.00  0.00     0.000 C 
BRANCH   3   4
ATOM      4  C   UNL     1     -34.583  41.470  40.111  1.00  0.00     0.000 C 
BRANCH   4   5
ATOM      5  C   UNL     1     -33.798  42.779  40.284  1.00  0.00     0.006 C 
BRANCH   5   6
ATOM      6  C   UNL     1     -34.707  44.015  40.219  1.00  0.00     0.053 C 
BRANCH   6   7
ATOM      7  C   UNL     1     -34.638  44.684  38.882  1.00  0.00     0.041 C 
ATOM      8  O   UNL     1     -34.878  45.916  38.775  1.00  0.00    -0.550 OA
ATOM      9  O   UNL     1     -34.275  43.954  37.757  1.00  0.00    -0.550 OA
ENDBRANCH   6   7
ENDBRANCH   5   6
ENDBRANCH   4   5
ENDBRANCH   3   4
ENDBRANCH   2   3
ENDBRANCH   1   2
BRANCH   1  10
ATOM     10  C   UNL     1     -34.075  38.607  43.112  1.00  0.00     0.000 C 
BRANCH  10  11
ATOM     11  C   UNL     1     -33.199  39.676  43.784  1.00  0.00    -0.000 C 
BRANCH  11  12
ATOM     12  C   UNL     1     -34.023  40.682  44.606  1.00  0.00    -0.000 C 
BRANCH  12  13
ATOM     13  C   UNL     1     -34.108  42.069  43.942  1.00  0.00    -0.000 C 
BRANCH  13  14
ATOM     14  C   UNL     1     -35.534  42.551  43.606  1.00  0.00    -0.000 C 
BRANCH  14  15
ATOM     15  C   UNL     1     -36.655  41.555  43.947  1.00  0.00    -0.003 C 
ATOM     16  C   UNL     1     -37.356  41.001  42.708  1.00  0.00     0.004 C 
ENDBRANCH  14  15
ENDBRANCH  13  14
ENDBRANCH  12  13
ENDBRANCH  11  12
ENDBRANCH  10  11
ENDBRANCH   1  10
TORSDOF 12
ENDMDL
MODEL 3
REMARK VINA RESULT:    -4.515      1.670      3.211
REMARK INTER + INTRA:          -9.431
REMARK INTER:                  -7.733
REMARK INTRA:                  -1.697
REMARK UNBOUND:                -1.748
REMARK SMILES CCCCCCCCCCCCCC(=O)[O-]
REMARK SMILES IDX 8 1 9 2 10 3 11 4 12 5 13 6 14 7 15 8 16 9 7 10 6 11 5 12
REMARK SMILES IDX 4 13 3 14 2 15 1 16
REMARK H PARENT
REMARK Flexibility Score: inf
ROOT
ATOM      1  C   UNL     1     -35.493  38.990  40.875  1.00  0.00     0.000 C 
ENDROOT
BRANCH   1   2
ATOM      2  C   UNL     1     -34.085  39.092  40.277  1.00  0.00     0.000 C 
BRANCH   2   3
ATOM      3  C   UNL     1     -33.929  40.376  39.451  1.00  0.00     0.000 C 
BRANCH   3   4
ATOM      4  C   UNL     1     -34.589  41.567  40.157  1.00  0.00     0.000 C 
BRANCH   4   5
ATOM      5  C   UNL     1     -33.695  42.813  40.082  1.00  0.00     0.006 C 
BRANCH   5   6
ATOM      6  C   UNL     1     -34.512  44.108  39.975  1.00  0.00     0.053 C 
BRANCH   6   7
ATOM      7  C   UNL     1     -34.602  44.591  38.560  1.00  0.00     0.041 C 
ATOM      8  O   UNL     1     -34.156  43.884  37.618  1.00  0.00    -0.550 OA
ATOM      9  O   UNL     1     -35.210  45.808  38.278  1.00  0.00    -0.550 OA
ENDBRANCH   6   7
ENDBRANCH   5   6
ENDBRANCH   4   5
ENDBRANCH   3   4
ENDBRANCH   2   3
ENDBRANCH   1   2
BRANCH   1  10
ATOM     10  C   UNL     1     -35.430  38.645  42.371  1.00  0.00     0.000 C 
BRANCH  10  11
ATOM     11  C   UNL     1     -34.004  38.718  42.939  1.00  0.00    -0.000 C 
BRANCH  11  12
ATOM     12  C   UNL     1     -33.848  39.816  44.006  1.00  0.00    -0.000 C 
BRANCH  12  13
ATOM     13  C   UNL     1     -33.275  41.126  43.435  1.00  0.00    -0.000 C 
BRANCH  13  14
ATOM     14  C   UNL     1     -31.820  41.439  43.839  1.00  0.00    -0.000 C 
BRANCH  14  15
ATOM     15  C   UNL     1     -30.823  41.516  42.670  1.00  0.00    -0.003 C 
ATOM     16  C   UNL     1     -30.871  40.286  41.764  1.00  0.00     0.004 C 
ENDBRANCH  14  15
ENDBRANCH  13  14
ENDBRANCH  12  13
ENDBRANCH  11  12
ENDBRANCH  10  11
ENDBRANCH   1  10
TORSDOF 12
ENDMDL
MODEL 4
REMARK VINA RESULT:    -4.501      1.058      2.287
REMARK INTER + INTRA:          -9.407
REMARK INTER:                  -7.745
REMARK INTRA:                  -1.662
REMARK UNBOUND:                -1.748
REMARK SMILES CCCCCCCCCCCCCC(=O)[O-]
REMARK SMILES IDX 8 1 9 2 10 3 11 4 12 5 13 6 14 7 15 8 16 9 7 10 6 11 5 12
REMARK SMILES IDX 4 13 3 14 2 15 1 16
REMARK H PARENT
REMARK Flexibility Score: inf
ROOT
ATOM      1  C   UNL     1     -35.727  41.342  41.922  1.00  0.00     0.000 C 
ENDROOT
BRANCH   1   2
ATOM      2  C   UNL     1     -35.103  42.639  42.448  1.00  0.00     0.000 C 
BRANCH   2   3
ATOM      3  C   UNL     1     -35.222  43.767  41.414  1.00  0.00     0.000 C 
BRANCH   3   4
ATOM      4  C   UNL     1     -34.748  43.299  40.033  1.00  0.00     0.000 C 
BRANCH   4   5
ATOM      5  C   UNL     1     -33.840  44.351  39.379  1.00  0.00     0.006 C 
BRANCH   5   6
ATOM      6  C   UNL     1     -34.316  44.733  37.970  1.00  0.00     0.053 C 
BRANCH   6   7
ATOM      7  C   UNL     1     -33.249  45.448  37.200  1.00  0.00     0.041 C 
ATOM      8  O   UNL     1     -32.036  45.295  37.503  1.00  0.00    -0.550 OA
ATOM      9  O   UNL     1     -33.593  46.258  36.125  1.00  0.00    -0.550 OA
ENDBRANCH   6   7
ENDBRANCH   5   6
ENDBRANCH   4   5
ENDBRANCH   3   4
ENDBRANCH   2   3
ENDBRANCH   1   2
BRANCH   1  10
ATOM     10  C   UNL     1     -34.965  40.114  42.446  1.00  0.00     0.000 C 
BRANCH  10  11
ATOM     11  C   UNL     1     -34.340  39.277  41.319  1.00  0.00    -0.000 C 
BRANCH  11  12
ATOM     12  C   UNL     1     -32.803  39.354  41.309  1.00  0.00    -0.000 C 
BRANCH  12  13
ATOM     13  C   UNL     1     -32.273  40.598  40.572  1.00  0.00    -0.000 C 
BRANCH  13  14
ATOM     14  C   UNL     1     -31.666  41.689  41.477  1.00  0.00    -0.000 C 
BRANCH  14  15
ATOM     15  C   UNL     1     -31.026  41.175  42.778  1.00  0.00    -0.003 C 
ATOM     16  C   UNL     1     -31.767  41.640  44.031  1.00  0.00     0.004 C 
ENDBRANCH  14  15
ENDBRANCH  13  14
ENDBRANCH  12  13
ENDBRANCH  11  12
ENDBRANCH  10  11
ENDBRANCH   1  10
TORSDOF 12
ENDMDL
MODEL 5
REMARK VINA RESULT:    -4.501      8.962     10.849
REMARK INTER + INTRA:          -9.407
REMARK INTER:                  -7.761
REMARK INTRA:                  -1.646
REMARK UNBOUND:                -1.748
REMARK SMILES CCCCCCCCCCCCCC(=O)[O-]
REMARK SMILES IDX 8 1 9 2 10 3 11 4 12 5 13 6 14 7 15 8 16 9 7 10 6 11 5 12
REMARK SMILES IDX 4 13 3 14 2 15 1 16
REMARK H PARENT
REMARK Flexibility Score: inf
ROOT
ATOM      1  C   UNL     1     -34.957  37.937  46.008  1.00  0.00     0.000 C 
ENDROOT
BRANCH   1   2
ATOM      2  C   UNL     1     -35.988  37.545  47.073  1.00  0.00     0.000 C 
BRANCH   2   3
ATOM      3  C   UNL     1     -37.322  38.264  46.840  1.00  0.00     0.000 C 
BRANCH   3   4
ATOM      4  C   UNL     1     -38.504  37.305  47.025  1.00  0.00     0.000 C 
BRANCH   4   5
ATOM      5  C   UNL     1     -39.695  38.020  47.679  1.00  0.00     0.006 C 
BRANCH   5   6
ATOM      6  C   UNL     1     -39.689  37.882  49.208  1.00  0.00     0.053 C 
BRANCH   6   7
ATOM      7  C   UNL     1     -40.881  37.122  49.701  1.00  0.00     0.041 C 
ATOM      8  O   UNL     1     -41.083  35.939  49.319  1.00  0.00    -0.550 OA
ATOM      9  O   UNL     1     -41.752  37.709  50.610  1.00  0.00    -0.550 OA
ENDBRANCH   6   7
ENDBRANCH   5   6
ENDBRANCH   4   5
ENDBRANCH   3   4
ENDBRANCH   2   3
ENDBRANCH   1   2
BRANCH   1  10
ATOM     10  C   UNL     1     -35.645  38.559  44.782  1.00  0.00     0.000 C 
BRANCH  10  11
ATOM     11  C   UNL     1     -35.634  37.630  43.558  1.00  0.00    -0.000 C 
BRANCH  11  12
ATOM     12  C   UNL     1     -36.942  36.833  43.410  1.00  0.00    -0.000 C 
BRANCH  12  13
ATOM     13  C   UNL     1     -36.722  35.310  43.451  1.00  0.00    -0.000 C 
BRANCH  13  14
ATOM     14  C   UNL     1     -35.434  34.851  44.166  1.00  0.00    -0.000 C 
BRANCH  14  15
ATOM     15  C   UNL     1     -35.657  33.960  45.400  1.00  0.00    -0.003 C 
ATOM     16  C   UNL     1     -37.082  34.047  45.946  1.00  0.00     0.004 C 
ENDBRANCH  14  15
ENDBRANCH  13  14
ENDBRANCH  12  13
ENDBRANCH  11  12
ENDBRANCH  10  11
ENDBRANCH   1  10
TORSDOF 12
ENDMDL
MODEL 6
REMARK VINA RESULT:    -4.486      1.169      2.864
REMARK INTER + INTRA:          -9.380
REMARK INTER:                  -7.839
REMARK INTRA:                  -1.541
REMARK UNBOUND:                -1.748
REMARK SMILES CCCCCCCCCCCCCC(=O)[O-]
REMARK SMILES IDX 8 1 9 2 10 3 11 4 12 5 13 6 14 7 15 8 16 9 7 10 6 11 5 12
REMARK SMILES IDX 4 13 3 14 2 15 1 16
REMARK H PARENT
REMARK Flexibility Score: inf
ROOT
ATOM      1  C   UNL     1     -33.373  40.423  39.944  1.00  0.00     0.000 C 
ENDROOT
BRANCH   1   2
ATOM      2  C   UNL     1     -34.421  41.539  40.033  1.00  0.00     0.000 C 
BRANCH   2   3
ATOM      3  C   UNL     1     -33.762  42.887  40.354  1.00  0.00     0.000 C 
BRANCH   3   4
ATOM      4  C   UNL     1     -34.755  44.042  40.169  1.00  0.00     0.000 C 
BRANCH   4   5
ATOM      5  C   UNL     1     -34.167  45.132  39.261  1.00  0.00     0.006 C 
BRANCH   5   6
ATOM      6  C   UNL     1     -33.938  44.633  37.828  1.00  0.00     0.053 C 
BRANCH   6   7
ATOM      7  C   UNL     1     -33.044  45.555  37.056  1.00  0.00     0.041 C 
ATOM      8  O   UNL     1     -31.795  45.494  37.199  1.00  0.00    -0.550 OA
ATOM      9  O   UNL     1     -33.590  46.459  36.154  1.00  0.00    -0.550 OA
ENDBRANCH   6   7
ENDBRANCH   5   6
ENDBRANCH   4   5
ENDBRANCH   3   4
ENDBRANCH   2   3
ENDBRANCH   1   2
BRANCH   1  10
ATOM     10  C   UNL     1     -33.898  39.126  40.581  1.00  0.00     0.000 C 
BRANCH  10  11
ATOM     11  C   UNL     1     -34.126  39.259  42.096  1.00  0.00    -0.000 C 
BRANCH  11  12
ATOM     12  C   UNL     1     -32.833  39.595  42.860  1.00  0.00    -0.000 C 
BRANCH  12  13
ATOM     13  C   UNL     1     -32.886  40.972  43.546  1.00  0.00    -0.000 C 
BRANCH  13  14
ATOM     14  C   UNL     1     -34.197  41.283  44.297  1.00  0.00    -0.000 C 
BRANCH  14  15
ATOM     15  C   UNL     1     -34.885  42.596  43.889  1.00  0.00    -0.003 C 
ATOM     16  C   UNL     1     -36.261  42.378  43.260  1.00  0.00     0.004 C 
ENDBRANCH  14  15
ENDBRANCH  13  14
ENDBRANCH  12  13
ENDBRANCH  11  12
ENDBRANCH  10  11
ENDBRANCH   1  10
TORSDOF 12
ENDMDL
MODEL 7
REMARK VINA RESULT:    -4.479      1.852      3.070
REMARK INTER + INTRA:          -9.369
REMARK INTER:                  -7.736
REMARK INTRA:                  -1.633
REMARK UNBOUND:                -1.748
REMARK SMILES CCCCCCCCCCCCCC(=O)[O-]
REMARK SMILES IDX 8 1 9 2 10 3 11 4 12 5 13 6 14 7 15 8 16 9 7 10 6 11 5 12
REMARK SMILES IDX 4 13 3 14 2 15 1 16
REMARK H PARENT
REMARK Flexibility Score: inf
ROOT
ATOM      1  C   UNL     1     -34.849  42.278  43.568  1.00  0.00     0.000 C 
ENDROOT
BRANCH   1   2
ATOM      2  C   UNL     1     -35.148  42.896  42.197  1.00  0.00     0.000 C 
BRANCH   2   3
ATOM      3  C   UNL     1     -34.168  42.381  41.135  1.00  0.00     0.000 C 
BRANCH   3   4
ATOM      4  C   UNL     1     -34.434  43.039  39.776  1.00  0.00     0.000 C 
BRANCH   4   5
ATOM      5  C   UNL     1     -34.127  44.543  39.824  1.00  0.00     0.006 C 
BRANCH   5   6
ATOM      6  C   UNL     1     -32.762  44.877  39.207  1.00  0.00     0.053 C 
BRANCH   6   7
ATOM      7  C   UNL     1     -32.905  45.548  37.876  1.00  0.00     0.041 C 
ATOM      8  O   UNL     1     -31.899  45.707  37.134  1.00  0.00    -0.550 OA
ATOM      9  O   UNL     1     -34.155  45.967  37.439  1.00  0.00    -0.550 OA
ENDBRANCH   6   7
ENDBRANCH   5   6
ENDBRANCH   4   5
ENDBRANCH   3   4
ENDBRANCH   2   3
ENDBRANCH   1   2
BRANCH   1  10
ATOM     10  C   UNL     1     -36.133  41.744  44.221  1.00  0.00     0.000 C 
BRANCH  10  11
ATOM     11  C   UNL     1     -37.326  41.718  43.253  1.00  0.00    -0.000 C 
BRANCH  11  12
ATOM     12  C   UNL     1     -37.717  40.289  42.836  1.00  0.00    -0.000 C 
BRANCH  12  13
ATOM     13  C   UNL     1     -37.321  39.961  41.385  1.00  0.00    -0.000 C 
BRANCH  13  14
ATOM     14  C   UNL     1     -35.968  39.239  41.219  1.00  0.00    -0.000 C 
BRANCH  14  15
ATOM     15  C   UNL     1     -35.480  38.479  42.463  1.00  0.00    -0.003 C 
ATOM     16  C   UNL     1     -34.023  38.784  42.813  1.00  0.00     0.004 C 
ENDBRANCH  14  15
ENDBRANCH  13  14
ENDBRANCH  12  13
ENDBRANCH  11  12
ENDBRANCH  10  11
ENDBRANCH   1  10
TORSDOF 12
ENDMDL
MODEL 8
REMARK VINA RESULT:    -4.466      2.498      3.754
REMARK INTER + INTRA:          -9.347
REMARK INTER:                  -7.477
REMARK INTRA:                  -1.870
REMARK UNBOUND:                -1.748
REMARK SMILES CCCCCCCCCCCCCC(=O)[O-]
REMARK SMILES IDX 8 1 9 2 10 3 11 4 12 5 13 6 14 7 15 8 16 9 7 10 6 11 5 12
REMARK SMILES IDX 4 13 3 14 2 15 1 16
REMARK H PARENT
REMARK Flexibility Score: inf
ROOT
ATOM      1  C   UNL     1     -36.860  41.009  44.758  1.00  0.00     0.000 C 
ENDROOT
BRANCH   1   2
ATOM      2  C   UNL     1     -35.632  41.878  44.456  1.00  0.00     0.000 C 
BRANCH   2   3
ATOM      3  C   UNL     1     -35.863  42.742  43.210  1.00  0.00     0.000 C 
BRANCH   3   4
ATOM      4  C   UNL     1     -34.748  42.529  42.179  1.00  0.00     0.000 C 
BRANCH   4   5
ATOM      5  C   UNL     1     -35.291  42.660  40.748  1.00  0.00     0.006 C 
BRANCH   5   6
ATOM      6  C   UNL     1     -34.173  42.886  39.721  1.00  0.00     0.053 C 
BRANCH   6   7
ATOM      7  C   UNL     1     -34.455  44.069  38.846  1.00  0.00     0.041 C 
ATOM      8  O   UNL     1     -34.380  43.964  37.593  1.00  0.00    -0.550 OA
ATOM      9  O   UNL     1     -34.832  45.278  39.414  1.00  0.00    -0.550 OA
ENDBRANCH   6   7
ENDBRANCH   5   6
ENDBRANCH   4   5
ENDBRANCH   3   4
ENDBRANCH   2   3
ENDBRANCH   1   2
BRANCH   1  10
ATOM     10  C   UNL     1     -37.895  41.111  43.627  1.00  0.00     0.000 C 
BRANCH  10  11
ATOM     11  C   UNL     1     -38.114  39.774  42.900  1.00  0.00    -0.000 C 
BRANCH  11  12
ATOM     12  C   UNL     1     -37.417  38.598  43.606  1.00  0.00    -0.000 C 
BRANCH  12  13
ATOM     13  C   UNL     1     -36.352  37.919  42.724  1.00  0.00    -0.000 C 
BRANCH  13  14
ATOM     14  C   UNL     1     -35.683  38.834  41.679  1.00  0.00    -0.000 C 
BRANCH  14  15
ATOM     15  C   UNL     1     -34.167  39.021  41.854  1.00  0.00    -0.003 C 
ATOM     16  C   UNL     1     -33.697  38.771  43.287  1.00  0.00     0.004 C 
ENDBRANCH  14  15
ENDBRANCH  13  14
ENDBRANCH  12  13
ENDBRANCH  11  12
ENDBRANCH  10  11
ENDBRANCH   1  10
TORSDOF 12
ENDMDL
MODEL 9
REMARK VINA RESULT:    -4.415      3.019      4.558
REMARK INTER + INTRA:          -9.261
REMARK INTER:                  -7.047
REMARK INTRA:                  -2.214
REMARK UNBOUND:                -1.748
REMARK SMILES CCCCCCCCCCCCCC(=O)[O-]
REMARK SMILES IDX 8 1 9 2 10 3 11 4 12 5 13 6 14 7 15 8 16 9 7 10 6 11 5 12
REMARK SMILES IDX 4 13 3 14 2 15 1 16
REMARK H PARENT
REMARK Flexibility Score: inf
ROOT
ATOM      1  C   UNL     1     -34.754  40.193  45.576  1.00  0.00     0.000 C 
ENDROOT
BRANCH   1   2
ATOM      2  C   UNL     1     -35.495  41.525  45.408  1.00  0.00     0.000 C 
BRANCH   2   3
ATOM      3  C   UNL     1     -35.034  42.255  44.140  1.00  0.00     0.000 C 
BRANCH   3   4
ATOM      4  C   UNL     1     -36.217  42.531  43.204  1.00  0.00     0.000 C 
BRANCH   4   5
ATOM      5  C   UNL     1     -35.915  42.045  41.778  1.00  0.00     0.006 C 
BRANCH   5   6
ATOM      6  C   UNL     1     -34.532  42.498  41.291  1.00  0.00     0.053 C 
BRANCH   6   7
ATOM      7  C   UNL     1     -34.631  43.635  40.320  1.00  0.00     0.041 C 
ATOM      8  O   UNL     1     -34.348  43.459  39.106  1.00  0.00    -0.550 OA
ATOM      9  O   UNL     1     -35.069  44.881  40.751  1.00  0.00    -0.550 OA
ENDBRANCH   6   7
ENDBRANCH   5   6
ENDBRANCH   4   5
ENDBRANCH   3   4
ENDBRANCH   2   3
ENDBRANCH   1   2
BRANCH   1  10
ATOM     10  C   UNL     1     -34.002  39.818  44.289  1.00  0.00     0.000 C 
BRANCH  10  11
ATOM     11  C   UNL     1     -34.364  38.415  43.777  1.00  0.00    -0.000 C 
BRANCH  11  12
ATOM     12  C   UNL     1     -35.330  38.455  42.579  1.00  0.00    -0.000 C 
BRANCH  12  13
ATOM     13  C   UNL     1     -36.760  38.021  42.951  1.00  0.00    -0.000 C 
BRANCH  13  14
ATOM     14  C   UNL     1     -37.838  39.114  42.810  1.00  0.00    -0.000 C 
BRANCH  14  15
ATOM     15  C   UNL     1     -38.493  39.556  44.129  1.00  0.00    -0.003 C 
ATOM     16  C   UNL     1     -38.095  38.678  45.315  1.00  0.00     0.004 C 
ENDBRANCH  14  15
ENDBRANCH  13  14
ENDBRANCH  12  13
ENDBRANCH  11  12
ENDBRANCH  10  11
ENDBRANCH   1  10
TORSDOF 12
ENDMDL
