MODEL 1
REMARK VINA RESULT:   101.415      0.000      0.000
REMARK INTER + INTRA:         116.081
REMARK INTER:                 116.237
REMARK INTRA:                  -0.156
REMARK UNBOUND:                -0.156
REMARK SMILES C=C(C)[C@@H]1CC[C@@]2(C(=O)[O-])CC[C@@]3(C)[C@H](CC[C@H]4[C@@]5(C)CC[C@@H](O)C(C)(C)[C@H]5CC[C@@]43C)[C@@H]12
REMARK SMILES IDX 7 1 6 2 33 3 11 4 5 5 15 6 4 7 12 8 16 9 13 10 17 11 31 12
REMARK SMILES IDX 14 13 18 14 30 15 32 16 19 17 29 18 21 19 20 20 28 21 22 22
REMARK SMILES IDX 25 23 23 24 26 25 27 26 8 27 9 28 10 29 2 30 3 31 1 32 24 33
REMARK H PARENT 24 34
REMARK Flexibility Score: inf
ROOT
ATOM      1  C   UNL     1      63.859 130.257  -7.428  1.00  0.00     0.014 C 
ATOM      2  C   UNL     1      65.167 129.780  -8.099  1.00  0.00     0.014 C 
ATOM      3  C   UNL     1      64.150 130.132  -5.914  1.00  0.00     0.012 C 
ATOM      4  C   UNL     1      62.689 129.329  -7.828  1.00  0.00     0.014 C 
ATOM      5  C   UNL     1      65.918 128.900  -7.095  1.00  0.00     0.009 C 
ATOM      6  C   UNL     1      62.908 130.059  -4.934  1.00  0.00     0.000 C 
ATOM      7  C   UNL     1      65.127 128.947  -5.784  1.00  0.00     0.018 C 
ATOM      8  C   UNL     1      61.419 129.677  -7.042  1.00  0.00     0.008 C 
ATOM      9  C   UNL     1      62.729 131.432  -4.249  1.00  0.00     0.005 C 
ATOM     10  C   UNL     1      61.544 129.438  -5.499  1.00  0.00    -0.024 C 
ATOM     11  C   UNL     1      61.641 131.483  -3.160  1.00  0.00     0.005 C 
ATOM     12  C   UNL     1      60.231 130.016  -4.700  1.00  0.00    -0.024 C 
ATOM     13  C   UNL     1      61.641 127.884  -5.305  1.00  0.00     0.012 C 
ATOM     14  C   UNL     1      60.628 130.306  -3.207  1.00  0.00     0.002 C 
ATOM     15  C   UNL     1      59.069 128.986  -4.697  1.00  0.00     0.008 C 
ATOM     16  C   UNL     1      59.684 131.320  -5.371  1.00  0.00     0.012 C 
ATOM     17  C   UNL     1      59.510 130.318  -2.022  1.00  0.00    -0.026 C 
ATOM     18  C   UNL     1      57.876 129.424  -3.864  1.00  0.00     0.005 C 
ATOM     19  C   UNL     1      59.078 131.754  -1.518  1.00  0.00     0.010 C 
ATOM     20  C   UNL     1      60.246 129.646  -0.806  1.00  0.00     0.012 C 
ATOM     21  C   UNL     1      58.207 129.446  -2.350  1.00  0.00     0.003 C 
ATOM     22  C   UNL     1      57.725 132.255  -2.031  1.00  0.00     0.033 C 
ATOM     23  C   UNL     1      56.910 129.824  -1.499  1.00  0.00    -0.006 C 
ATOM     24  C   UNL     1      56.532 131.344  -1.666  1.00  0.00     0.120 C 
ATOM     25  C   UNL     1      57.123 129.519   0.013  1.00  0.00     0.014 C 
ATOM     26  C   UNL     1      55.700 128.921  -1.900  1.00  0.00     0.014 C 
ENDROOT
BRANCH   1  27
ATOM     27  C   UNL     1      63.577 131.693  -7.873  1.00  0.00     0.048 C 
ATOM     28  O   UNL     1      62.392 132.054  -8.125  1.00  0.00    -0.550 OA
ATOM     29  O   UNL     1      64.615 132.593  -8.109  1.00  0.00    -0.550 OA
ENDBRANCH   1  27
BRANCH   7  30
ATOM     30  C   UNL     1      66.013 129.041  -4.544  1.00  0.00    -0.077 C 
ATOM     31  C   UNL     1      65.764 128.181  -3.329  1.00  0.00     0.039 C 
ATOM     32  C   UNL     1      67.075 129.861  -4.539  1.00  0.00     0.008 C 
ENDBRANCH   7  30
BRANCH  24  33
ATOM     33  O   UNL     1      55.534 131.517  -2.644  1.00  0.00    -0.393 OA
ATOM     34  H   UNL     1      55.864 131.092  -3.478  1.00  0.00     0.210 HD
ENDBRANCH  24  33
TORSDOF 3
ENDMDL
