MODEL 1
REMARK VINA RESULT:    25.780      0.000      0.000
REMARK INTER + INTRA:          30.628
REMARK INTER:                  31.055
REMARK INTRA:                  -0.427
REMARK UNBOUND:                -0.427
REMARK SMILES O=c1c(O)c(-c2ccc(O)cc2O)oc2cc(O)cc(O)c12
REMARK SMILES IDX 5 1 3 2 2 3 1 4 22 5 20 6 19 7 17 8 16 9 15 10 14 11 6 12
REMARK SMILES IDX 8 13 7 14 9 15 11 16 12 17 10 18 13 20 4 22 21 24 18 26
REMARK H PARENT 10 19 13 21 4 23 21 25 18 27
REMARK Flexibility Score: inf
ROOT
ATOM      1  C   UNL     1      26.794  29.978   4.935  1.00  0.00     0.184 A 
ATOM      2  C   UNL     1      27.874  30.563   4.251  1.00  0.00     0.208 A 
ATOM      3  C   UNL     1      28.417  29.894   3.144  1.00  0.00     0.238 A 
ATOM      4  O   UNL     1      29.393  30.403   2.529  1.00  0.00    -0.285 OA
ATOM      5  C   UNL     1      27.860  28.666   2.730  1.00  0.00     0.111 A 
ATOM      6  C   UNL     1      28.346  27.930   1.623  1.00  0.00     0.134 A 
ATOM      7  C   UNL     1      27.731  26.719   1.270  1.00  0.00     0.093 A 
ATOM      8  C   UNL     1      26.644  26.233   1.997  1.00  0.00     0.123 A 
ATOM      9  C   UNL     1      26.159  26.955   3.092  1.00  0.00     0.094 A 
ATOM     10  C   UNL     1      26.758  28.162   3.463  1.00  0.00     0.146 A 
ATOM     11  O   UNL     1      26.282  28.827   4.509  1.00  0.00    -0.451 OA
ENDROOT
BRANCH   1  12
ATOM     12  C   UNL     1      26.181  30.624   6.115  1.00  0.00     0.063 A 
ATOM     13  C   UNL     1      24.742  32.363   7.018  1.00  0.00     0.047 A 
ATOM     14  C   UNL     1      25.342  31.733   5.924  1.00  0.00     0.020 A 
ATOM     15  C   UNL     1      24.962  31.883   8.315  1.00  0.00     0.119 A 
ATOM     16  C   UNL     1      25.778  30.765   8.511  1.00  0.00     0.093 A 
ATOM     17  C   UNL     1      26.379  30.122   7.419  1.00  0.00     0.130 A 
BRANCH  15  18
ATOM     18  O   UNL     1      24.373  32.507   9.412  1.00  0.00    -0.508 OA
ATOM     19  H   UNL     1      24.931  32.964  10.123  1.00  0.00     0.293 HD
ENDBRANCH  15  18
BRANCH  17  20
ATOM     20  O   UNL     1      27.150  28.978   7.624  1.00  0.00    -0.507 OA
ATOM     21  H   UNL     1      27.064  28.164   7.027  1.00  0.00     0.293 HD
ENDBRANCH  17  20
ENDBRANCH   1  12
BRANCH   2  22
ATOM     22  O   UNL     1      28.374  31.803   4.658  1.00  0.00    -0.502 OA
ATOM     23  H   UNL     1      28.564  32.551   4.004  1.00  0.00     0.293 HD
ENDBRANCH   2  22
BRANCH   6  24
ATOM     24  O   UNL     1      29.430  28.389   0.875  1.00  0.00    -0.507 OA
ATOM     25  H   UNL     1      29.303  28.922   0.022  1.00  0.00     0.293 HD
ENDBRANCH   6  24
BRANCH   8  26
ATOM     26  O   UNL     1      26.051  25.029   1.624  1.00  0.00    -0.508 OA
ATOM     27  H   UNL     1      25.683  24.383   2.313  1.00  0.00     0.293 HD
ENDBRANCH   8  26
TORSDOF 6
ENDMDL
MODEL 2
REMARK VINA RESULT:    27.212      3.950      6.765
REMARK INTER + INTRA:          32.352
REMARK INTER:                  29.099
REMARK INTRA:                   3.253
REMARK UNBOUND:                -0.427
REMARK SMILES O=c1c(O)c(-c2ccc(O)cc2O)oc2cc(O)cc(O)c12
REMARK SMILES IDX 5 1 3 2 2 3 1 4 22 5 20 6 19 7 17 8 16 9 15 10 14 11 6 12
REMARK SMILES IDX 8 13 7 14 9 15 11 16 12 17 10 18 13 20 4 22 21 24 18 26
REMARK H PARENT 10 19 13 21 4 23 21 25 18 27
REMARK Flexibility Score: inf
ROOT
ATOM      1  C   UNL     1      27.950  27.506   2.344  1.00  0.00     0.184 A 
ATOM      2  C   UNL     1      27.224  28.527   1.705  1.00  0.00     0.208 A 
ATOM      3  C   UNL     1      27.619  29.860   1.894  1.00  0.00     0.238 A 
ATOM      4  O   UNL     1      26.968  30.784   1.336  1.00  0.00    -0.285 OA
ATOM      5  C   UNL     1      28.739  30.146   2.702  1.00  0.00     0.111 A 
ATOM      6  C   UNL     1      29.204  31.461   2.941  1.00  0.00     0.134 A 
ATOM      7  C   UNL     1      30.332  31.663   3.750  1.00  0.00     0.093 A 
ATOM      8  C   UNL     1      31.003  30.580   4.321  1.00  0.00     0.123 A 
ATOM      9  C   UNL     1      30.549  29.279   4.088  1.00  0.00     0.094 A 
ATOM     10  C   UNL     1      29.425  29.055   3.287  1.00  0.00     0.146 A 
ATOM     11  O   UNL     1      29.011  27.810   3.085  1.00  0.00    -0.451 OA
ENDROOT
BRANCH   1  12
ATOM     12  C   UNL     1      27.582  26.082   2.195  1.00  0.00     0.063 A 
ATOM     13  C   UNL     1      28.036  23.754   2.725  1.00  0.00     0.047 A 
ATOM     14  C   UNL     1      28.360  25.108   2.840  1.00  0.00     0.020 A 
ATOM     15  C   UNL     1      26.922  23.357   1.975  1.00  0.00     0.119 A 
ATOM     16  C   UNL     1      26.128  24.323   1.349  1.00  0.00     0.093 A 
ATOM     17  C   UNL     1      26.443  25.685   1.465  1.00  0.00     0.130 A 
BRANCH  15  18
ATOM     18  O   UNL     1      26.593  22.010   1.850  1.00  0.00    -0.508 OA
ATOM     19  H   UNL     1      26.884  21.328   2.540  1.00  0.00     0.293 HD
ENDBRANCH  15  18
BRANCH  17  20
ATOM     20  O   UNL     1      25.614  26.641   0.876  1.00  0.00    -0.507 OA
ATOM     21  H   UNL     1      25.874  27.620   0.839  1.00  0.00     0.293 HD
ENDBRANCH  17  20
ENDBRANCH   1  12
BRANCH   2  22
ATOM     22  O   UNL     1      26.146  28.207   0.875  1.00  0.00    -0.502 OA
ATOM     23  H   UNL     1      25.739  28.876   0.234  1.00  0.00     0.293 HD
ENDBRANCH   2  22
BRANCH   6  24
ATOM     24  O   UNL     1      28.556  32.565   2.385  1.00  0.00    -0.507 OA
ATOM     25  H   UNL     1      28.860  32.977   1.510  1.00  0.00     0.293 HD
ENDBRANCH   6  24
BRANCH   8  26
ATOM     26  O   UNL     1      32.122  30.808   5.118  1.00  0.00    -0.508 OA
ATOM     27  H   UNL     1      32.518  30.078   5.698  1.00  0.00     0.293 HD
ENDBRANCH   8  26
TORSDOF 6
ENDMDL
MODEL 3
REMARK VINA RESULT:    27.714      3.891      5.164
REMARK INTER + INTRA:          32.957
REMARK INTER:                  33.188
REMARK INTRA:                  -0.231
REMARK UNBOUND:                -0.427
REMARK SMILES O=c1c(O)c(-c2ccc(O)cc2O)oc2cc(O)cc(O)c12
REMARK SMILES IDX 5 1 3 2 2 3 1 4 22 5 20 6 19 7 17 8 16 9 15 10 14 11 6 12
REMARK SMILES IDX 8 13 7 14 9 15 11 16 12 17 10 18 13 20 4 22 21 24 18 26
REMARK H PARENT 10 19 13 21 4 23 21 25 18 27
REMARK Flexibility Score: inf
ROOT
ATOM      1  C   UNL     1      29.061  28.446   2.867  1.00  0.00     0.184 A 
ATOM      2  C   UNL     1      27.933  29.155   2.417  1.00  0.00     0.208 A 
ATOM      3  C   UNL     1      26.842  28.437   1.905  1.00  0.00     0.238 A 
ATOM      4  O   UNL     1      25.829  29.062   1.487  1.00  0.00    -0.285 OA
ATOM      5  C   UNL     1      26.890  27.027   1.872  1.00  0.00     0.111 A 
ATOM      6  C   UNL     1      25.831  26.229   1.375  1.00  0.00     0.134 A 
ATOM      7  C   UNL     1      25.952  24.832   1.384  1.00  0.00     0.093 A 
ATOM      8  C   UNL     1      27.104  24.218   1.878  1.00  0.00     0.123 A 
ATOM      9  C   UNL     1      28.153  25.002   2.370  1.00  0.00     0.094 A 
ATOM     10  C   UNL     1      28.055  26.396   2.368  1.00  0.00     0.146 A 
ATOM     11  O   UNL     1      29.067  27.117   2.836  1.00  0.00    -0.451 OA
ENDROOT
BRANCH   1  12
ATOM     12  C   UNL     1      30.249  29.140   3.408  1.00  0.00     0.063 A 
ATOM     13  C   UNL     1      31.185  30.727   4.994  1.00  0.00     0.047 A 
ATOM     14  C   UNL     1      30.082  30.059   4.456  1.00  0.00     0.020 A 
ATOM     15  C   UNL     1      32.470  30.475   4.500  1.00  0.00     0.119 A 
ATOM     16  C   UNL     1      32.648  29.545   3.472  1.00  0.00     0.093 A 
ATOM     17  C   UNL     1      31.548  28.865   2.930  1.00  0.00     0.130 A 
BRANCH  15  18
ATOM     18  O   UNL     1      33.575  31.140   5.026  1.00  0.00    -0.508 OA
ATOM     19  H   UNL     1      33.487  31.777   5.808  1.00  0.00     0.293 HD
ENDBRANCH  15  18
BRANCH  17  20
ATOM     20  O   UNL     1      31.745  27.903   1.939  1.00  0.00    -0.507 OA
ATOM     21  H   UNL     1      32.169  28.136   1.049  1.00  0.00     0.293 HD
ENDBRANCH  17  20
ENDBRANCH   1  12
BRANCH   2  22
ATOM     22  O   UNL     1      27.899  30.549   2.505  1.00  0.00    -0.502 OA
ATOM     23  H   UNL     1      27.919  31.144   1.686  1.00  0.00     0.293 HD
ENDBRANCH   2  22
BRANCH   6  24
ATOM     24  O   UNL     1      24.666  26.811   0.875  1.00  0.00    -0.507 OA
ATOM     25  H   UNL     1      24.224  26.476   0.027  1.00  0.00     0.293 HD
ENDBRANCH   6  24
BRANCH   8  26
ATOM     26  O   UNL     1      27.198  22.829   1.877  1.00  0.00    -0.508 OA
ATOM     27  H   UNL     1      26.518  22.251   2.357  1.00  0.00     0.293 HD
ENDBRANCH   8  26
TORSDOF 6
ENDMDL
MODEL 4
REMARK VINA RESULT:    28.004      1.495      3.034
REMARK INTER + INTRA:          33.307
REMARK INTER:                  33.632
REMARK INTRA:                  -0.326
REMARK UNBOUND:                -0.427
REMARK SMILES O=c1c(O)c(-c2ccc(O)cc2O)oc2cc(O)cc(O)c12
REMARK SMILES IDX 5 1 3 2 2 3 1 4 22 5 20 6 19 7 17 8 16 9 15 10 14 11 6 12
REMARK SMILES IDX 8 13 7 14 9 15 11 16 12 17 10 18 13 20 4 22 21 24 18 26
REMARK H PARENT 10 19 13 21 4 23 21 25 18 27
REMARK Flexibility Score: inf
ROOT
ATOM      1  C   UNL     1      26.080  30.444   5.115  1.00  0.00     0.184 A 
ATOM      2  C   UNL     1      25.491  29.248   4.665  1.00  0.00     0.208 A 
ATOM      3  C   UNL     1      25.975  28.657   3.488  1.00  0.00     0.238 A 
ATOM      4  O   UNL     1      25.448  27.591   3.068  1.00  0.00    -0.285 OA
ATOM      5  C   UNL     1      27.047  29.258   2.796  1.00  0.00     0.111 A 
ATOM      6  C   UNL     1      27.595  28.724   1.605  1.00  0.00     0.134 A 
ATOM      7  C   UNL     1      28.668  29.378   0.980  1.00  0.00     0.093 A 
ATOM      8  C   UNL     1      29.202  30.549   1.521  1.00  0.00     0.123 A 
ATOM      9  C   UNL     1      28.664  31.081   2.697  1.00  0.00     0.094 A 
ATOM     10  C   UNL     1      27.594  30.447   3.334  1.00  0.00     0.146 A 
ATOM     11  O   UNL     1      27.099  30.975   4.448  1.00  0.00    -0.451 OA
ENDROOT
BRANCH   1  12
ATOM     12  C   UNL     1      25.612  31.125   6.341  1.00  0.00     0.063 A 
ATOM     13  C   UNL     1      24.288  32.891   7.359  1.00  0.00     0.047 A 
ATOM     14  C   UNL     1      24.753  32.229   6.220  1.00  0.00     0.020 A 
ATOM     15  C   UNL     1      24.664  32.449   8.633  1.00  0.00     0.119 A 
ATOM     16  C   UNL     1      25.500  31.336   8.763  1.00  0.00     0.093 A 
ATOM     17  C   UNL     1      25.967  30.661   7.625  1.00  0.00     0.130 A 
BRANCH  15  18
ATOM     18  O   UNL     1      24.209  33.105   9.775  1.00  0.00    -0.508 OA
ATOM     19  H   UNL     1      23.718  33.989   9.717  1.00  0.00     0.293 HD
ENDBRANCH  15  18
BRANCH  17  20
ATOM     20  O   UNL     1      26.760  29.523   7.770  1.00  0.00    -0.507 OA
ATOM     21  H   UNL     1      27.706  29.484   7.408  1.00  0.00     0.293 HD
ENDBRANCH  17  20
ENDBRANCH   1  12
BRANCH   2  22
ATOM     22  O   UNL     1      24.461  28.654   5.398  1.00  0.00    -0.502 OA
ATOM     23  H   UNL     1      23.825  29.192   5.972  1.00  0.00     0.293 HD
ENDBRANCH   2  22
BRANCH   6  24
ATOM     24  O   UNL     1      27.085  27.556   1.040  1.00  0.00    -0.507 OA
ATOM     25  H   UNL     1      27.637  26.708   0.976  1.00  0.00     0.293 HD
ENDBRANCH   6  24
BRANCH   8  26
ATOM     26  O   UNL     1      30.268  31.177   0.881  1.00  0.00    -0.508 OA
ATOM     27  H   UNL     1      30.125  31.971   0.268  1.00  0.00     0.293 HD
ENDBRANCH   8  26
TORSDOF 6
ENDMDL
