MODEL 1
REMARK VINA RESULT:    -3.422      0.000      0.000
REMARK INTER + INTRA:          -3.422
REMARK INTER:                  -3.422
REMARK INTRA:                   0.000
REMARK UNBOUND:                 0.000
REMARK SMILES CC1=CC[C@]2(C)CCCC(C)(C)[C@@]23C[C@@H]13
REMARK SMILES IDX 1 1 2 2 3 3 4 4 5 5 7 6 8 7 9 8 10 9 13 10 15 11 14 12 11 13
REMARK SMILES IDX 12 14 6 15
REMARK H PARENT
REMARK Flexibility Score: inf
ROOT
ATOM      1  C   UNL     1     143.118 142.001 130.701  1.00  0.00     0.039 C 
ATOM      2  C   UNL     1     143.909 142.907 131.602  1.00  0.00    -0.074 C 
ATOM      3  C   UNL     1     144.687 142.383 132.554  1.00  0.00    -0.027 C 
ATOM      4  C   UNL     1     145.381 143.270 133.536  1.00  0.00     0.034 C 
ATOM      5  C   UNL     1     146.082 144.516 132.905  1.00  0.00    -0.022 C 
ATOM      6  C   UNL     1     146.421 145.436 134.125  1.00  0.00     0.008 C 
ATOM      7  C   UNL     1     146.666 146.887 133.763  1.00  0.00     0.001 C 
ATOM      8  C   UNL     1     145.394 147.461 133.155  1.00  0.00     0.007 C 
ATOM      9  C   UNL     1     145.080 146.843 131.772  1.00  0.00    -0.029 C 
ATOM     10  C   UNL     1     145.144 145.246 131.830  1.00  0.00    -0.012 C 
ATOM     11  C   UNL     1     143.945 144.388 131.321  1.00  0.00     0.022 C 
ATOM     12  C   UNL     1     145.111 144.657 130.396  1.00  0.00     0.017 C 
ATOM     13  C   UNL     1     143.679 147.367 131.366  1.00  0.00     0.012 C 
ATOM     14  C   UNL     1     146.107 147.409 130.747  1.00  0.00     0.012 C 
ATOM     15  C   UNL     1     147.421 144.066 132.262  1.00  0.00     0.012 C 
ENDROOT
TORSDOF 0
ENDMDL
MODEL 2
REMARK VINA RESULT:    -3.392      1.336      4.407
REMARK INTER + INTRA:          -3.392
REMARK INTER:                  -3.392
REMARK INTRA:                   0.000
REMARK UNBOUND:                 0.000
REMARK SMILES CC1=CC[C@]2(C)CCCC(C)(C)[C@@]23C[C@@H]13
REMARK SMILES IDX 1 1 2 2 3 3 4 4 5 5 7 6 8 7 9 8 10 9 13 10 15 11 14 12 11 13
REMARK SMILES IDX 12 14 6 15
REMARK H PARENT
REMARK Flexibility Score: inf
ROOT
ATOM      1  C   UNL     1     147.630 148.759 130.809  1.00  0.00     0.039 C 
ATOM      2  C   UNL     1     146.810 147.853 131.684  1.00  0.00    -0.074 C 
ATOM      3  C   UNL     1     146.006 148.376 132.614  1.00  0.00    -0.027 C 
ATOM      4  C   UNL     1     145.281 147.489 133.573  1.00  0.00     0.034 C 
ATOM      5  C   UNL     1     144.594 146.247 132.917  1.00  0.00    -0.022 C 
ATOM      6  C   UNL     1     144.217 145.324 134.124  1.00  0.00     0.008 C 
ATOM      7  C   UNL     1     143.978 143.875 133.751  1.00  0.00     0.001 C 
ATOM      8  C   UNL     1     145.266 143.298 133.179  1.00  0.00     0.007 C 
ATOM      9  C   UNL     1     145.623 143.920 131.807  1.00  0.00    -0.029 C 
ATOM     10  C   UNL     1     145.562 145.516 131.868  1.00  0.00    -0.012 C 
ATOM     11  C   UNL     1     146.778 146.373 131.398  1.00  0.00     0.022 C 
ATOM     12  C   UNL     1     145.640 146.110 130.438  1.00  0.00     0.017 C 
ATOM     13  C   UNL     1     147.034 143.393 131.442  1.00  0.00     0.012 C 
ATOM     14  C   UNL     1     144.625 143.359 130.751  1.00  0.00     0.012 C 
ATOM     15  C   UNL     1     143.277 146.702 132.236  1.00  0.00     0.012 C 
ENDROOT
TORSDOF 0
ENDMDL
MODEL 3
REMARK VINA RESULT:    -3.177      1.557      3.335
REMARK INTER + INTRA:          -3.177
REMARK INTER:                  -3.177
REMARK INTRA:                   0.000
REMARK UNBOUND:                 0.000
REMARK SMILES CC1=CC[C@]2(C)CCCC(C)(C)[C@@]23C[C@@H]13
REMARK SMILES IDX 1 1 2 2 3 3 4 4 5 5 7 6 8 7 9 8 10 9 13 10 15 11 14 12 11 13
REMARK SMILES IDX 12 14 6 15
REMARK H PARENT
REMARK Flexibility Score: inf
ROOT
ATOM      1  C   UNL     1     142.277 148.110 131.864  1.00  0.00     0.039 C 
ATOM      2  C   UNL     1     143.135 147.038 132.477  1.00  0.00    -0.074 C 
ATOM      3  C   UNL     1     142.583 146.119 133.274  1.00  0.00    -0.027 C 
ATOM      4  C   UNL     1     143.439 145.125 133.988  1.00  0.00     0.034 C 
ATOM      5  C   UNL     1     144.544 144.463 133.103  1.00  0.00    -0.022 C 
ATOM      6  C   UNL     1     145.493 143.752 134.125  1.00  0.00     0.008 C 
ATOM      7  C   UNL     1     146.875 143.446 133.584  1.00  0.00     0.001 C 
ATOM      8  C   UNL     1     147.562 144.757 133.227  1.00  0.00     0.007 C 
ATOM      9  C   UNL     1     146.898 145.450 132.013  1.00  0.00    -0.029 C 
ATOM     10  C   UNL     1     145.313 145.544 132.203  1.00  0.00    -0.012 C 
ATOM     11  C   UNL     1     144.579 146.912 132.059  1.00  0.00     0.022 C 
ATOM     12  C   UNL     1     144.639 145.974 130.874  1.00  0.00     0.017 C 
ATOM     13  C   UNL     1     147.564 146.843 131.885  1.00  0.00     0.012 C 
ATOM     14  C   UNL     1     147.263 144.637 130.735  1.00  0.00     0.012 C 
ATOM     15  C   UNL     1     143.890 143.367 132.221  1.00  0.00     0.012 C 
ENDROOT
TORSDOF 0
ENDMDL
MODEL 4
REMARK VINA RESULT:    -3.161      1.391      3.036
REMARK INTER + INTRA:          -3.161
REMARK INTER:                  -3.161
REMARK INTRA:                   0.000
REMARK UNBOUND:                 0.000
REMARK SMILES CC1=CC[C@]2(C)CCCC(C)(C)[C@@]23C[C@@H]13
REMARK SMILES IDX 1 1 2 2 3 3 4 4 5 5 7 6 8 7 9 8 10 9 13 10 15 11 14 12 11 13
REMARK SMILES IDX 12 14 6 15
REMARK H PARENT
REMARK Flexibility Score: inf
ROOT
ATOM      1  C   UNL     1     148.474 142.649 131.875  1.00  0.00     0.039 C 
ATOM      2  C   UNL     1     147.609 143.718 132.483  1.00  0.00    -0.074 C 
ATOM      3  C   UNL     1     148.153 144.634 133.290  1.00  0.00    -0.027 C 
ATOM      4  C   UNL     1     147.289 145.625 134.000  1.00  0.00     0.034 C 
ATOM      5  C   UNL     1     146.194 146.290 133.106  1.00  0.00    -0.022 C 
ATOM      6  C   UNL     1     145.233 146.996 134.121  1.00  0.00     0.008 C 
ATOM      7  C   UNL     1     143.857 147.304 133.568  1.00  0.00     0.001 C 
ATOM      8  C   UNL     1     143.174 145.994 133.198  1.00  0.00     0.007 C 
ATOM      9  C   UNL     1     143.851 145.306 131.988  1.00  0.00    -0.029 C 
ATOM     10  C   UNL     1     145.434 145.212 132.194  1.00  0.00    -0.012 C 
ATOM     11  C   UNL     1     146.170 143.845 132.052  1.00  0.00     0.022 C 
ATOM     12  C   UNL     1     146.121 144.788 130.870  1.00  0.00     0.017 C 
ATOM     13  C   UNL     1     143.186 143.913 131.849  1.00  0.00     0.012 C 
ATOM     14  C   UNL     1     143.498 146.124 130.711  1.00  0.00     0.012 C 
ATOM     15  C   UNL     1     146.856 147.390 132.234  1.00  0.00     0.012 C 
ENDROOT
TORSDOF 0
ENDMDL
MODEL 5
REMARK VINA RESULT:    -2.849      1.364      4.417
REMARK INTER + INTRA:          -2.849
REMARK INTER:                  -2.849
REMARK INTRA:                   0.000
REMARK UNBOUND:                 0.000
REMARK SMILES CC1=CC[C@]2(C)CCCC(C)(C)[C@@]23C[C@@H]13
REMARK SMILES IDX 1 1 2 2 3 3 4 4 5 5 7 6 8 7 9 8 10 9 13 10 15 11 14 12 11 13
REMARK SMILES IDX 12 14 6 15
REMARK H PARENT
REMARK Flexibility Score: inf
ROOT
ATOM      1  C   UNL     1     147.282 148.960 131.850  1.00  0.00     0.039 C 
ATOM      2  C   UNL     1     146.584 147.692 131.445  1.00  0.00    -0.074 C 
ATOM      3  C   UNL     1     146.772 147.191 130.221  1.00  0.00    -0.027 C 
ATOM      4  C   UNL     1     145.990 146.004 129.762  1.00  0.00     0.034 C 
ATOM      5  C   UNL     1     145.902 144.841 130.802  1.00  0.00    -0.022 C 
ATOM      6  C   UNL     1     144.782 143.899 130.245  1.00  0.00     0.008 C 
ATOM      7  C   UNL     1     144.177 142.971 131.278  1.00  0.00     0.001 C 
ATOM      8  C   UNL     1     143.509 143.810 132.358  1.00  0.00     0.007 C 
ATOM      9  C   UNL     1     144.539 144.593 133.208  1.00  0.00    -0.029 C 
ATOM     10  C   UNL     1     145.569 145.383 132.274  1.00  0.00    -0.012 C 
ATOM     11  C   UNL     1     145.806 146.911 132.474  1.00  0.00     0.022 C 
ATOM     12  C   UNL     1     146.752 145.922 133.119  1.00  0.00     0.017 C 
ATOM     13  C   UNL     1     143.722 145.539 134.124  1.00  0.00     0.012 C 
ATOM     14  C   UNL     1     145.279 143.575 134.125  1.00  0.00     0.012 C 
ATOM     15  C   UNL     1     147.238 144.052 130.788  1.00  0.00     0.012 C 
ENDROOT
TORSDOF 0
ENDMDL
MODEL 6
REMARK VINA RESULT:    -2.734      1.462      3.493
REMARK INTER + INTRA:          -2.734
REMARK INTER:                  -2.734
REMARK INTRA:                   0.000
REMARK UNBOUND:                 0.000
REMARK SMILES CC1=CC[C@]2(C)CCCC(C)(C)[C@@]23C[C@@H]13
REMARK SMILES IDX 1 1 2 2 3 3 4 4 5 5 7 6 8 7 9 8 10 9 13 10 15 11 14 12 11 13
REMARK SMILES IDX 12 14 6 15
REMARK H PARENT
REMARK Flexibility Score: inf
ROOT
ATOM      1  C   UNL     1     142.338 146.989 129.663  1.00  0.00     0.039 C 
ATOM      2  C   UNL     1     143.348 146.870 130.769  1.00  0.00    -0.074 C 
ATOM      3  C   UNL     1     143.145 147.507 131.926  1.00  0.00    -0.027 C 
ATOM      4  C   UNL     1     144.197 147.501 132.987  1.00  0.00     0.034 C 
ATOM      5  C   UNL     1     144.839 146.103 133.259  1.00  0.00    -0.022 C 
ATOM      6  C   UNL     1     146.105 146.413 134.125  1.00  0.00     0.008 C 
ATOM      7  C   UNL     1     147.148 145.313 134.124  1.00  0.00     0.001 C 
ATOM      8  C   UNL     1     147.658 145.124 132.702  1.00  0.00     0.007 C 
ATOM      9  C   UNL     1     146.575 144.530 131.770  1.00  0.00    -0.029 C 
ATOM     10  C   UNL     1     145.203 145.340 131.896  1.00  0.00    -0.012 C 
ATOM     11  C   UNL     1     144.499 145.907 130.624  1.00  0.00     0.022 C 
ATOM     12  C   UNL     1     144.060 144.571 131.183  1.00  0.00     0.017 C 
ATOM     13  C   UNL     1     147.161 144.573 130.336  1.00  0.00     0.012 C 
ATOM     14  C   UNL     1     146.381 143.032 132.151  1.00  0.00     0.012 C 
ATOM     15  C   UNL     1     143.865 145.262 134.125  1.00  0.00     0.012 C 
ENDROOT
TORSDOF 0
ENDMDL
MODEL 7
REMARK VINA RESULT:    -2.734      1.384      3.741
REMARK INTER + INTRA:          -2.734
REMARK INTER:                  -2.734
REMARK INTRA:                   0.000
REMARK UNBOUND:                 0.000
REMARK SMILES CC1=CC[C@]2(C)CCCC(C)(C)[C@@]23C[C@@H]13
REMARK SMILES IDX 1 1 2 2 3 3 4 4 5 5 7 6 8 7 9 8 10 9 13 10 15 11 14 12 11 13
REMARK SMILES IDX 12 14 6 15
REMARK H PARENT
REMARK Flexibility Score: inf
ROOT
ATOM      1  C   UNL     1     148.772 144.265 133.980  1.00  0.00     0.039 C 
ATOM      2  C   UNL     1     147.676 144.694 133.045  1.00  0.00    -0.074 C 
ATOM      3  C   UNL     1     147.609 144.174 131.816  1.00  0.00    -0.027 C 
ATOM      4  C   UNL     1     146.603 144.681 130.835  1.00  0.00     0.034 C 
ATOM      5  C   UNL     1     145.162 144.859 131.413  1.00  0.00    -0.022 C 
ATOM      6  C   UNL     1     144.405 145.700 130.331  1.00  0.00     0.008 C 
ATOM      7  C   UNL     1     143.165 146.405 130.844  1.00  0.00     0.001 C 
ATOM      8  C   UNL     1     143.578 147.397 131.923  1.00  0.00     0.007 C 
ATOM      9  C   UNL     1     144.085 146.689 133.201  1.00  0.00    -0.029 C 
ATOM     10  C   UNL     1     145.181 145.579 132.846  1.00  0.00    -0.012 C 
ATOM     11  C   UNL     1     146.569 145.582 133.555  1.00  0.00     0.022 C 
ATOM     12  C   UNL     1     145.466 144.693 134.085  1.00  0.00     0.017 C 
ATOM     13  C   UNL     1     144.645 147.800 134.125  1.00  0.00     0.012 C 
ATOM     14  C   UNL     1     142.858 146.056 133.921  1.00  0.00     0.012 C 
ATOM     15  C   UNL     1     144.479 143.468 131.498  1.00  0.00     0.012 C 
ENDROOT
TORSDOF 0
ENDMDL
