MODEL 1
REMARK VINA RESULT:    -5.101      0.000      0.000
REMARK INTER + INTRA:          -5.686
REMARK INTER:                  -5.399
REMARK INTRA:                  -0.287
REMARK UNBOUND:                -0.287
REMARK SMILES C=C(C)[C@@H]1CC[C@H](C)[C@]12CC=C(C)CC2
REMARK SMILES IDX 8 1 7 2 6 3 5 4 4 5 9 6 15 7 14 8 12 9 11 10 10 11 13 12
REMARK SMILES IDX 2 13 1 14 3 15
REMARK H PARENT
REMARK Flexibility Score: inf
ROOT
ATOM      1  C   UNL     1      29.033   7.746  34.889  1.00  0.00     0.008 C 
ATOM      2  C   UNL     1      30.544   8.050  34.825  1.00  0.00    -0.007 C 
ATOM      3  C   UNL     1      31.365   6.750  34.741  1.00  0.00     0.004 C 
ATOM      4  C   UNL     1      32.206   6.806  33.470  1.00  0.00     0.009 C 
ATOM      5  C   UNL     1      31.681   7.970  32.623  1.00  0.00     0.021 C 
ATOM      6  C   UNL     1      31.013   8.958  33.636  1.00  0.00    -0.017 C 
ATOM      7  C   UNL     1      32.078   9.958  34.189  1.00  0.00     0.012 C 
ATOM      8  C   UNL     1      32.622  10.937  33.131  1.00  0.00     0.031 C 
ATOM      9  C   UNL     1      31.597  11.388  32.112  1.00  0.00    -0.077 C 
ATOM     10  C   UNL     1      30.372  10.835  32.034  1.00  0.00    -0.027 C 
ATOM     11  C   UNL     1      29.872   9.829  33.035  1.00  0.00     0.035 C 
ATOM     12  C   UNL     1      31.998  12.417  31.091  1.00  0.00     0.039 C 
ENDROOT
BRANCH   5  13
ATOM     13  C   UNL     1      30.788   7.507  31.462  1.00  0.00    -0.077 C 
ATOM     14  C   UNL     1      30.933   8.076  30.254  1.00  0.00     0.008 C 
ATOM     15  C   UNL     1      29.732   6.437  31.609  1.00  0.00     0.039 C 
ENDBRANCH   5  13
TORSDOF 1
ENDMDL
MODEL 2
REMARK VINA RESULT:    -4.797      1.752      3.841
REMARK INTER + INTRA:          -5.364
REMARK INTER:                  -5.021
REMARK INTRA:                  -0.344
REMARK UNBOUND:                -0.287
REMARK SMILES C=C(C)[C@@H]1CC[C@H](C)[C@]12CC=C(C)CC2
REMARK SMILES IDX 8 1 7 2 6 3 5 4 4 5 9 6 15 7 14 8 12 9 11 10 10 11 13 12
REMARK SMILES IDX 2 13 1 14 3 15
REMARK H PARENT
REMARK Flexibility Score: inf
ROOT
ATOM      1  C   UNL     1      32.088   9.670  37.114  1.00  0.00     0.008 C 
ATOM      2  C   UNL     1      31.408   8.397  36.570  1.00  0.00    -0.007 C 
ATOM      3  C   UNL     1      30.149   8.052  37.385  1.00  0.00     0.004 C 
ATOM      4  C   UNL     1      28.962   8.020  36.428  1.00  0.00     0.009 C 
ATOM      5  C   UNL     1      29.422   8.643  35.105  1.00  0.00     0.021 C 
ATOM      6  C   UNL     1      30.974   8.440  35.064  1.00  0.00    -0.017 C 
ATOM      7  C   UNL     1      31.315   7.056  34.426  1.00  0.00     0.012 C 
ATOM      8  C   UNL     1      30.959   6.953  32.931  1.00  0.00     0.031 C 
ATOM      9  C   UNL     1      31.168   8.233  32.150  1.00  0.00    -0.077 C 
ATOM     10  C   UNL     1      31.462   9.401  32.753  1.00  0.00    -0.027 C 
ATOM     11  C   UNL     1      31.743   9.503  34.227  1.00  0.00     0.035 C 
ATOM     12  C   UNL     1      30.943   8.217  30.664  1.00  0.00     0.039 C 
ENDROOT
BRANCH   5  13
ATOM     13  C   UNL     1      28.938  10.090  34.928  1.00  0.00    -0.077 C 
ATOM     14  C   UNL     1      28.292  10.433  33.801  1.00  0.00     0.008 C 
ATOM     15  C   UNL     1      29.159  11.167  35.962  1.00  0.00     0.039 C 
ENDBRANCH   5  13
TORSDOF 1
ENDMDL
MODEL 3
REMARK VINA RESULT:    -4.643      2.168      4.158
REMARK INTER + INTRA:          -5.201
REMARK INTER:                  -4.856
REMARK INTRA:                  -0.345
REMARK UNBOUND:                -0.287
REMARK SMILES C=C(C)[C@@H]1CC[C@H](C)[C@]12CC=C(C)CC2
REMARK SMILES IDX 8 1 7 2 6 3 5 4 4 5 9 6 15 7 14 8 12 9 11 10 10 11 13 12
REMARK SMILES IDX 2 13 1 14 3 15
REMARK H PARENT
REMARK Flexibility Score: inf
ROOT
ATOM      1  C   UNL     1      28.448  10.122  36.849  1.00  0.00     0.008 C 
ATOM      2  C   UNL     1      29.852  10.447  36.299  1.00  0.00    -0.007 C 
ATOM      3  C   UNL     1      30.855  10.669  37.444  1.00  0.00     0.004 C 
ATOM      4  C   UNL     1      31.994   9.669  37.273  1.00  0.00     0.009 C 
ATOM      5  C   UNL     1      31.548   8.639  36.230  1.00  0.00     0.021 C 
ATOM      6  C   UNL     1      30.482   9.372  35.348  1.00  0.00    -0.017 C 
ATOM      7  C   UNL     1      31.185  10.125  34.174  1.00  0.00     0.012 C 
ATOM      8  C   UNL     1      31.841   9.191  33.138  1.00  0.00     0.031 C 
ATOM      9  C   UNL     1      31.079   7.908  32.884  1.00  0.00    -0.077 C 
ATOM     10  C   UNL     1      30.023   7.540  33.635  1.00  0.00    -0.027 C 
ATOM     11  C   UNL     1      29.430   8.433  34.690  1.00  0.00     0.035 C 
ATOM     12  C   UNL     1      31.579   6.969  31.822  1.00  0.00     0.039 C 
ENDROOT
BRANCH   5  13
ATOM     13  C   UNL     1      31.092   7.314  36.857  1.00  0.00    -0.077 C 
ATOM     14  C   UNL     1      31.596   6.159  36.392  1.00  0.00     0.008 C 
ATOM     15  C   UNL     1      30.084   7.235  37.978  1.00  0.00     0.039 C 
ENDBRANCH   5  13
TORSDOF 1
ENDMDL
MODEL 4
REMARK VINA RESULT:    -4.565      2.144      4.747
REMARK INTER + INTRA:          -5.119
REMARK INTER:                  -4.777
REMARK INTRA:                  -0.342
REMARK UNBOUND:                -0.287
REMARK SMILES C=C(C)[C@@H]1CC[C@H](C)[C@]12CC=C(C)CC2
REMARK SMILES IDX 8 1 7 2 6 3 5 4 4 5 9 6 15 7 14 8 12 9 11 10 10 11 13 12
REMARK SMILES IDX 2 13 1 14 3 15
REMARK H PARENT
REMARK Flexibility Score: inf
ROOT
ATOM      1  C   UNL     1      31.857   7.015  33.242  1.00  0.00     0.008 C 
ATOM      2  C   UNL     1      31.604   8.449  33.751  1.00  0.00    -0.007 C 
ATOM      3  C   UNL     1      30.626   9.197  32.828  1.00  0.00     0.004 C 
ATOM      4  C   UNL     1      29.433   9.643  33.666  1.00  0.00     0.009 C 
ATOM      5  C   UNL     1      29.517   8.911  35.010  1.00  0.00     0.021 C 
ATOM      6  C   UNL     1      31.032   8.569  35.206  1.00  0.00    -0.017 C 
ATOM      7  C   UNL     1      31.761   9.758  35.910  1.00  0.00     0.012 C 
ATOM      8  C   UNL     1      31.315   9.989  37.366  1.00  0.00     0.031 C 
ATOM      9  C   UNL     1      30.994   8.722  38.130  1.00  0.00    -0.077 C 
ATOM     10  C   UNL     1      30.929   7.519  37.527  1.00  0.00    -0.027 C 
ATOM     11  C   UNL     1      31.304   7.314  36.085  1.00  0.00     0.035 C 
ATOM     12  C   UNL     1      30.640   8.826  39.587  1.00  0.00     0.039 C 
ENDROOT
BRANCH   5  13
ATOM     13  C   UNL     1      28.552   7.719  35.101  1.00  0.00    -0.077 C 
ATOM     14  C   UNL     1      27.700   7.642  36.137  1.00  0.00     0.008 C 
ATOM     15  C   UNL     1      28.514   6.607  34.081  1.00  0.00     0.039 C 
ENDBRANCH   5  13
TORSDOF 1
ENDMDL
MODEL 5
REMARK VINA RESULT:    -4.501      1.581      3.176
REMARK INTER + INTRA:          -5.051
REMARK INTER:                  -4.704
REMARK INTRA:                  -0.347
REMARK UNBOUND:                -0.287
REMARK SMILES C=C(C)[C@@H]1CC[C@H](C)[C@]12CC=C(C)CC2
REMARK SMILES IDX 8 1 7 2 6 3 5 4 4 5 9 6 15 7 14 8 12 9 11 10 10 11 13 12
REMARK SMILES IDX 2 13 1 14 3 15
REMARK H PARENT
REMARK Flexibility Score: inf
ROOT
ATOM      1  C   UNL     1      30.938   6.847  37.063  1.00  0.00     0.008 C 
ATOM      2  C   UNL     1      30.896   6.658  35.532  1.00  0.00    -0.007 C 
ATOM      3  C   UNL     1      29.642   5.875  35.107  1.00  0.00     0.004 C 
ATOM      4  C   UNL     1      28.856   6.740  34.127  1.00  0.00     0.009 C 
ATOM      5  C   UNL     1      29.443   8.154  34.190  1.00  0.00     0.021 C 
ATOM      6  C   UNL     1      30.920   7.973  34.678  1.00  0.00    -0.017 C 
ATOM      7  C   UNL     1      31.861   7.732  33.455  1.00  0.00     0.012 C 
ATOM      8  C   UNL     1      32.001   8.953  32.526  1.00  0.00     0.031 C 
ATOM      9  C   UNL     1      31.994  10.287  33.242  1.00  0.00    -0.077 C 
ATOM     10  C   UNL     1      31.705  10.395  34.553  1.00  0.00    -0.027 C 
ATOM     11  C   UNL     1      31.505   9.197  35.440  1.00  0.00     0.035 C 
ATOM     12  C   UNL     1      32.219  11.538  32.440  1.00  0.00     0.039 C 
ENDROOT
BRANCH   5  13
ATOM     13  C   UNL     1      28.585   9.120  35.020  1.00  0.00    -0.077 C 
ATOM     14  C   UNL     1      28.223  10.299  34.488  1.00  0.00     0.008 C 
ATOM     15  C   UNL     1      28.127   8.817  36.426  1.00  0.00     0.039 C 
ENDBRANCH   5  13
TORSDOF 1
ENDMDL
MODEL 6
REMARK VINA RESULT:    -4.441      1.821      3.118
REMARK INTER + INTRA:          -4.988
REMARK INTER:                  -4.645
REMARK INTRA:                  -0.343
REMARK UNBOUND:                -0.287
REMARK SMILES C=C(C)[C@@H]1CC[C@H](C)[C@]12CC=C(C)CC2
REMARK SMILES IDX 8 1 7 2 6 3 5 4 4 5 9 6 15 7 14 8 12 9 11 10 10 11 13 12
REMARK SMILES IDX 2 13 1 14 3 15
REMARK H PARENT
REMARK Flexibility Score: inf
ROOT
ATOM      1  C   UNL     1      29.893  10.750  37.378  1.00  0.00     0.008 C 
ATOM      2  C   UNL     1      31.098  10.084  36.681  1.00  0.00    -0.007 C 
ATOM      3  C   UNL     1      31.576   8.849  37.465  1.00  0.00     0.004 C 
ATOM      4  C   UNL     1      31.506   7.643  36.534  1.00  0.00     0.009 C 
ATOM      5  C   UNL     1      30.702   8.062  35.299  1.00  0.00     0.021 C 
ATOM      6  C   UNL     1      30.863   9.616  35.203  1.00  0.00    -0.017 C 
ATOM      7  C   UNL     1      32.142   9.971  34.379  1.00  0.00     0.012 C 
ATOM      8  C   UNL     1      32.052   9.586  32.890  1.00  0.00     0.031 C 
ATOM      9  C   UNL     1      30.675   9.754  32.284  1.00  0.00    -0.077 C 
ATOM     10  C   UNL     1      29.592  10.037  33.032  1.00  0.00    -0.027 C 
ATOM     11  C   UNL     1      29.681  10.347  34.501  1.00  0.00     0.035 C 
ATOM     12  C   UNL     1      30.497   9.497  30.813  1.00  0.00     0.039 C 
ENDROOT
BRANCH   5  13
ATOM     13  C   UNL     1      29.256   7.547  35.326  1.00  0.00    -0.077 C 
ATOM     14  C   UNL     1      28.787   6.851  34.276  1.00  0.00     0.008 C 
ATOM     15  C   UNL     1      28.314   7.789  36.480  1.00  0.00     0.039 C 
ENDBRANCH   5  13
TORSDOF 1
ENDMDL
MODEL 7
REMARK VINA RESULT:    -4.410      5.843      8.885
REMARK INTER + INTRA:          -4.955
REMARK INTER:                  -4.614
REMARK INTRA:                  -0.341
REMARK UNBOUND:                -0.287
REMARK SMILES C=C(C)[C@@H]1CC[C@H](C)[C@]12CC=C(C)CC2
REMARK SMILES IDX 8 1 7 2 6 3 5 4 4 5 9 6 15 7 14 8 12 9 11 10 10 11 13 12
REMARK SMILES IDX 2 13 1 14 3 15
REMARK H PARENT
REMARK Flexibility Score: inf
ROOT
ATOM      1  C   UNL     1      27.913  10.358  22.932  1.00  0.00     0.008 C 
ATOM      2  C   UNL     1      29.325   9.817  23.235  1.00  0.00    -0.007 C 
ATOM      3  C   UNL     1      30.406  10.708  22.597  1.00  0.00     0.004 C 
ATOM      4  C   UNL     1      31.326  11.202  23.708  1.00  0.00     0.009 C 
ATOM      5  C   UNL     1      30.644  10.885  25.043  1.00  0.00     0.021 C 
ATOM      6  C   UNL     1      29.695   9.675  24.752  1.00  0.00    -0.017 C 
ATOM      7  C   UNL     1      30.472   8.331  24.932  1.00  0.00     0.012 C 
ATOM      8  C   UNL     1      30.889   8.042  26.386  1.00  0.00     0.031 C 
ATOM      9  C   UNL     1      29.887   8.497  27.425  1.00  0.00    -0.077 C 
ATOM     10  C   UNL     1      28.818   9.251  27.108  1.00  0.00    -0.027 C 
ATOM     11  C   UNL     1      28.455   9.585  25.687  1.00  0.00     0.035 C 
ATOM     12  C   UNL     1      30.150   8.178  28.871  1.00  0.00     0.039 C 
ENDROOT
BRANCH   5  13
ATOM     13  C   UNL     1      29.976  12.113  25.678  1.00  0.00    -0.077 C 
ATOM     14  C   UNL     1      30.218  12.399  26.969  1.00  0.00     0.008 C 
ATOM     15  C   UNL     1      29.040  13.026  24.924  1.00  0.00     0.039 C 
ENDBRANCH   5  13
TORSDOF 1
ENDMDL
MODEL 8
REMARK VINA RESULT:    -4.384      2.248      4.634
REMARK INTER + INTRA:          -4.927
REMARK INTER:                  -4.793
REMARK INTRA:                  -0.134
REMARK UNBOUND:                -0.287
REMARK SMILES C=C(C)[C@@H]1CC[C@H](C)[C@]12CC=C(C)CC2
REMARK SMILES IDX 8 1 7 2 6 3 5 4 4 5 9 6 15 7 14 8 12 9 11 10 10 11 13 12
REMARK SMILES IDX 2 13 1 14 3 15
REMARK H PARENT
REMARK Flexibility Score: inf
ROOT
ATOM      1  C   UNL     1      32.762  10.569  33.426  1.00  0.00     0.008 C 
ATOM      2  C   UNL     1      31.262  10.559  33.789  1.00  0.00    -0.007 C 
ATOM      3  C   UNL     1      30.433   9.874  32.689  1.00  0.00     0.004 C 
ATOM      4  C   UNL     1      29.681   8.708  33.323  1.00  0.00     0.009 C 
ATOM      5  C   UNL     1      30.277   8.480  34.716  1.00  0.00     0.021 C 
ATOM      6  C   UNL     1      30.888   9.858  35.140  1.00  0.00    -0.017 C 
ATOM      7  C   UNL     1      29.800  10.729  35.847  1.00  0.00     0.012 C 
ATOM      8  C   UNL     1      29.342  10.172  37.208  1.00  0.00     0.031 C 
ATOM      9  C   UNL     1      30.440   9.508  38.012  1.00  0.00    -0.077 C 
ATOM     10  C   UNL     1      31.660   9.267  37.497  1.00  0.00    -0.027 C 
ATOM     11  C   UNL     1      32.078   9.759  36.138  1.00  0.00     0.035 C 
ATOM     12  C   UNL     1      30.123   9.015  39.397  1.00  0.00     0.039 C 
ENDROOT
BRANCH   5  13
ATOM     13  C   UNL     1      31.242   7.286  34.763  1.00  0.00    -0.077 C 
ATOM     14  C   UNL     1      31.993   7.006  33.685  1.00  0.00     0.008 C 
ATOM     15  C   UNL     1      31.388   6.389  35.968  1.00  0.00     0.039 C 
ENDBRANCH   5  13
TORSDOF 1
ENDMDL
MODEL 9
REMARK VINA RESULT:    -4.283      1.568      4.832
REMARK INTER + INTRA:          -4.820
REMARK INTER:                  -4.473
REMARK INTRA:                  -0.347
REMARK UNBOUND:                -0.287
REMARK SMILES C=C(C)[C@@H]1CC[C@H](C)[C@]12CC=C(C)CC2
REMARK SMILES IDX 8 1 7 2 6 3 5 4 4 5 9 6 15 7 14 8 12 9 11 10 10 11 13 12
REMARK SMILES IDX 2 13 1 14 3 15
REMARK H PARENT
REMARK Flexibility Score: inf
ROOT
ATOM      1  C   UNL     1      30.746   8.261  31.479  1.00  0.00     0.008 C 
ATOM      2  C   UNL     1      31.588   8.183  32.769  1.00  0.00    -0.007 C 
ATOM      3  C   UNL     1      32.363   9.492  33.001  1.00  0.00     0.004 C 
ATOM      4  C   UNL     1      31.956  10.047  34.362  1.00  0.00     0.009 C 
ATOM      5  C   UNL     1      30.719   9.269  34.823  1.00  0.00     0.021 C 
ATOM      6  C   UNL     1      30.796   7.888  34.090  1.00  0.00    -0.017 C 
ATOM      7  C   UNL     1      31.636   6.879  34.937  1.00  0.00     0.012 C 
ATOM      8  C   UNL     1      30.971   6.476  36.266  1.00  0.00     0.031 C 
ATOM      9  C   UNL     1      29.463   6.357  36.200  1.00  0.00    -0.077 C 
ATOM     10  C   UNL     1      28.760   6.751  35.120  1.00  0.00    -0.027 C 
ATOM     11  C   UNL     1      29.418   7.206  33.847  1.00  0.00     0.035 C 
ATOM     12  C   UNL     1      28.722   5.877  37.416  1.00  0.00     0.039 C 
ENDROOT
BRANCH   5  13
ATOM     13  C   UNL     1      29.413  10.053  34.624  1.00  0.00    -0.077 C 
ATOM     14  C   UNL     1      28.576  10.209  35.664  1.00  0.00     0.008 C 
ATOM     15  C   UNL     1      29.006  10.658  33.303  1.00  0.00     0.039 C 
ENDBRANCH   5  13
TORSDOF 1
ENDMDL
