MODEL 1
REMARK VINA RESULT:    -4.421      0.000      0.000
REMARK INTER + INTRA:          -5.620
REMARK INTER:                  -5.454
REMARK INTRA:                  -0.166
REMARK UNBOUND:                -0.166
REMARK SMILES CCCCC=CC(C)=O
REMARK SMILES IDX 4 1 3 2 2 3 1 4 5 5 6 6 7 7 9 8 8 9
REMARK H PARENT
REMARK Flexibility Score: inf
ROOT
ATOM      1  C   UNL     1     117.327 164.364 120.807  1.00  0.00     0.027 C 
ENDROOT
BRANCH   1   2
ATOM      2  C   UNL     1     117.749 162.925 120.484  1.00  0.00     0.004 C 
BRANCH   2   3
ATOM      3  C   UNL     1     118.716 162.386 121.546  1.00  0.00    -0.003 C 
ATOM      4  C   UNL     1     119.428 161.128 121.056  1.00  0.00     0.004 C 
ENDBRANCH   2   3
ENDBRANCH   1   2
BRANCH   1   5
ATOM      5  C   UNL     1     117.127 165.166 119.554  1.00  0.00    -0.023 C 
ATOM      6  C   UNL     1     117.716 164.820 118.402  1.00  0.00     0.042 C 
BRANCH   6   7
ATOM      7  C   UNL     1     117.539 165.571 117.143  1.00  0.00     0.152 C 
ATOM      8  O   UNL     1     116.780 166.576 117.141  1.00  0.00    -0.295 OA
ATOM      9  C   UNL     1     118.232 165.182 115.870  1.00  0.00     0.093 C 
ENDBRANCH   6   7
ENDBRANCH   1   5
TORSDOF 4
ENDMDL
MODEL 2
REMARK VINA RESULT:    -4.376      1.466      2.298
REMARK INTER + INTRA:          -5.565
REMARK INTER:                  -5.379
REMARK INTRA:                  -0.186
REMARK UNBOUND:                -0.166
REMARK SMILES CCCCC=CC(C)=O
REMARK SMILES IDX 4 1 3 2 2 3 1 4 5 5 6 6 7 7 9 8 8 9
REMARK H PARENT
REMARK Flexibility Score: inf
ROOT
ATOM      1  C   UNL     1     117.555 163.827 120.439  1.00  0.00     0.027 C 
ENDROOT
BRANCH   1   2
ATOM      2  C   UNL     1     117.430 165.047 121.361  1.00  0.00     0.004 C 
BRANCH   2   3
ATOM      3  C   UNL     1     118.730 165.284 122.138  1.00  0.00    -0.003 C 
ATOM      4  C   UNL     1     118.460 165.987 123.465  1.00  0.00     0.004 C 
ENDBRANCH   2   3
ENDBRANCH   1   2
BRANCH   1   5
ATOM      5  C   UNL     1     117.621 164.240 118.997  1.00  0.00    -0.023 C 
ATOM      6  C   UNL     1     117.295 165.479 118.610  1.00  0.00     0.042 C 
BRANCH   6   7
ATOM      7  C   UNL     1     117.355 165.933 117.206  1.00  0.00     0.152 C 
ATOM      8  O   UNL     1     116.788 167.015 116.896  1.00  0.00    -0.295 OA
ATOM      9  C   UNL     1     118.067 165.155 116.139  1.00  0.00     0.093 C 
ENDBRANCH   6   7
ENDBRANCH   1   5
TORSDOF 4
ENDMDL
MODEL 3
REMARK VINA RESULT:    -4.373      3.170      5.412
REMARK INTER + INTRA:          -5.562
REMARK INTER:                  -5.414
REMARK INTRA:                  -0.148
REMARK UNBOUND:                -0.166
REMARK SMILES CCCCC=CC(C)=O
REMARK SMILES IDX 4 1 3 2 2 3 1 4 5 5 6 6 7 7 9 8 8 9
REMARK H PARENT
REMARK Flexibility Score: inf
ROOT
ATOM      1  C   UNL     1     117.807 164.695 120.969  1.00  0.00     0.027 C 
ENDROOT
BRANCH   1   2
ATOM      2  C   UNL     1     117.394 164.242 119.563  1.00  0.00     0.004 C 
BRANCH   2   3
ATOM      3  C   UNL     1     116.903 165.428 118.725  1.00  0.00    -0.003 C 
ATOM      4  C   UNL     1     117.605 165.477 117.372  1.00  0.00     0.004 C 
ENDBRANCH   2   3
ENDBRANCH   1   2
BRANCH   1   5
ATOM      5  C   UNL     1     116.668 165.366 121.681  1.00  0.00    -0.023 C 
ATOM      6  C   UNL     1     116.840 165.959 122.868  1.00  0.00     0.042 C 
BRANCH   6   7
ATOM      7  C   UNL     1     115.752 166.640 123.600  1.00  0.00     0.152 C 
ATOM      8  O   UNL     1     114.971 167.392 122.958  1.00  0.00    -0.295 OA
ATOM      9  C   UNL     1     115.545 166.469 125.076  1.00  0.00     0.093 C 
ENDBRANCH   6   7
ENDBRANCH   1   5
TORSDOF 4
ENDMDL
MODEL 4
REMARK VINA RESULT:    -4.251      2.906      5.199
REMARK INTER + INTRA:          -5.411
REMARK INTER:                  -5.224
REMARK INTRA:                  -0.187
REMARK UNBOUND:                -0.166
REMARK SMILES CCCCC=CC(C)=O
REMARK SMILES IDX 4 1 3 2 2 3 1 4 5 5 6 6 7 7 9 8 8 9
REMARK H PARENT
REMARK Flexibility Score: inf
ROOT
ATOM      1  C   UNL     1     117.356 163.773 119.861  1.00  0.00     0.027 C 
ENDROOT
BRANCH   1   2
ATOM      2  C   UNL     1     116.989 165.050 119.095  1.00  0.00     0.004 C 
BRANCH   2   3
ATOM      3  C   UNL     1     117.678 165.087 117.726  1.00  0.00    -0.003 C 
ATOM      4  C   UNL     1     117.304 166.348 116.953  1.00  0.00     0.004 C 
ENDBRANCH   2   3
ENDBRANCH   1   2
BRANCH   1   5
ATOM      5  C   UNL     1     117.874 164.092 121.234  1.00  0.00    -0.023 C 
ATOM      6  C   UNL     1     118.444 165.272 121.507  1.00  0.00     0.042 C 
BRANCH   6   7
ATOM      7  C   UNL     1     118.958 165.634 122.844  1.00  0.00     0.152 C 
ATOM      8  O   UNL     1     120.183 165.466 123.086  1.00  0.00    -0.295 OA
ATOM      9  C   UNL     1     118.076 166.195 123.921  1.00  0.00     0.093 C 
ENDBRANCH   6   7
ENDBRANCH   1   5
TORSDOF 4
ENDMDL
MODEL 5
REMARK VINA RESULT:    -4.204      3.108      4.891
REMARK INTER + INTRA:          -5.353
REMARK INTER:                  -5.079
REMARK INTRA:                  -0.274
REMARK UNBOUND:                -0.166
REMARK SMILES CCCCC=CC(C)=O
REMARK SMILES IDX 4 1 3 2 2 3 1 4 5 5 6 6 7 7 9 8 8 9
REMARK H PARENT
REMARK Flexibility Score: inf
ROOT
ATOM      1  C   UNL     1     118.740 166.371 123.306  1.00  0.00     0.027 C 
ENDROOT
BRANCH   1   2
ATOM      2  C   UNL     1     117.527 166.339 124.244  1.00  0.00     0.004 C 
BRANCH   2   3
ATOM      3  C   UNL     1     116.663 167.594 124.069  1.00  0.00    -0.003 C 
ATOM      4  C   UNL     1     115.383 167.280 123.300  1.00  0.00     0.004 C 
ENDBRANCH   2   3
ENDBRANCH   1   2
BRANCH   1   5
ATOM      5  C   UNL     1     118.733 165.199 122.367  1.00  0.00    -0.023 C 
ATOM      6  C   UNL     1     117.709 164.980 121.532  1.00  0.00     0.042 C 
BRANCH   6   7
ATOM      7  C   UNL     1     117.663 163.849 120.584  1.00  0.00     0.152 C 
ATOM      8  O   UNL     1     117.243 164.057 119.415  1.00  0.00    -0.295 OA
ATOM      9  C   UNL     1     118.099 162.464 120.963  1.00  0.00     0.093 C 
ENDBRANCH   6   7
ENDBRANCH   1   5
TORSDOF 4
ENDMDL
MODEL 6
REMARK VINA RESULT:    -4.195     16.064     16.834
REMARK INTER + INTRA:          -5.342
REMARK INTER:                  -5.187
REMARK INTRA:                  -0.154
REMARK UNBOUND:                -0.166
REMARK SMILES CCCCC=CC(C)=O
REMARK SMILES IDX 4 1 3 2 2 3 1 4 5 5 6 6 7 7 9 8 8 9
REMARK H PARENT
REMARK Flexibility Score: inf
ROOT
ATOM      1  C   UNL     1     121.860 179.351 126.734  1.00  0.00     0.027 C 
ENDROOT
BRANCH   1   2
ATOM      2  C   UNL     1     123.383 179.388 126.910  1.00  0.00     0.004 C 
BRANCH   2   3
ATOM      3  C   UNL     1     123.785 178.913 128.311  1.00  0.00    -0.003 C 
ATOM      4  C   UNL     1     122.599 178.951 129.269  1.00  0.00     0.004 C 
ENDBRANCH   2   3
ENDBRANCH   1   2
BRANCH   1   5
ATOM      5  C   UNL     1     121.484 179.067 125.308  1.00  0.00    -0.023 C 
ATOM      6  C   UNL     1     120.346 179.535 124.781  1.00  0.00     0.042 C 
BRANCH   6   7
ATOM      7  C   UNL     1     119.940 179.291 123.382  1.00  0.00     0.152 C 
ATOM      8  O   UNL     1     118.760 178.915 123.152  1.00  0.00    -0.295 OA
ATOM      9  C   UNL     1     120.880 179.475 122.227  1.00  0.00     0.093 C 
ENDBRANCH   6   7
ENDBRANCH   1   5
TORSDOF 4
ENDMDL
MODEL 7
REMARK VINA RESULT:    -4.151      3.976      5.261
REMARK INTER + INTRA:          -5.288
REMARK INTER:                  -5.014
REMARK INTRA:                  -0.274
REMARK UNBOUND:                -0.166
REMARK SMILES CCCCC=CC(C)=O
REMARK SMILES IDX 4 1 3 2 2 3 1 4 5 5 6 6 7 7 9 8 8 9
REMARK H PARENT
REMARK Flexibility Score: inf
ROOT
ATOM      1  C   UNL     1     115.384 167.084 123.228  1.00  0.00     0.027 C 
ENDROOT
BRANCH   1   2
ATOM      2  C   UNL     1     116.626 167.681 123.902  1.00  0.00     0.004 C 
BRANCH   2   3
ATOM      3  C   UNL     1     116.481 167.670 125.428  1.00  0.00    -0.003 C 
ATOM      4  C   UNL     1     115.531 166.567 125.885  1.00  0.00     0.004 C 
ENDBRANCH   2   3
ENDBRANCH   1   2
BRANCH   1   5
ATOM      5  C   UNL     1     115.762 166.196 122.078  1.00  0.00    -0.023 C 
ATOM      6  C   UNL     1     116.945 165.570 122.039  1.00  0.00     0.042 C 
BRANCH   6   7
ATOM      7  C   UNL     1     117.356 164.680 120.935  1.00  0.00     0.152 C 
ATOM      8  O   UNL     1     118.090 163.690 121.199  1.00  0.00    -0.295 OA
ATOM      9  C   UNL     1     116.930 164.909 119.515  1.00  0.00     0.093 C 
ENDBRANCH   6   7
ENDBRANCH   1   5
TORSDOF 4
ENDMDL
MODEL 8
REMARK VINA RESULT:    -4.061     16.682     17.859
REMARK INTER + INTRA:          -5.177
REMARK INTER:                  -4.984
REMARK INTRA:                  -0.194
REMARK UNBOUND:                -0.166
REMARK SMILES CCCCC=CC(C)=O
REMARK SMILES IDX 4 1 3 2 2 3 1 4 5 5 6 6 7 7 9 8 8 9
REMARK H PARENT
REMARK Flexibility Score: inf
ROOT
ATOM      1  C   UNL     1     122.738 178.115 130.841  1.00  0.00     0.027 C 
ENDROOT
BRANCH   1   2
ATOM      2  C   UNL     1     122.451 178.957 129.591  1.00  0.00     0.004 C 
BRANCH   2   3
ATOM      3  C   UNL     1     123.705 179.086 128.717  1.00  0.00    -0.003 C 
ATOM      4  C   UNL     1     123.337 179.203 127.241  1.00  0.00     0.004 C 
ENDBRANCH   2   3
ENDBRANCH   1   2
BRANCH   1   5
ATOM      5  C   UNL     1     121.612 177.163 131.125  1.00  0.00    -0.023 C 
ATOM      6  C   UNL     1     120.825 176.701 130.145  1.00  0.00     0.042 C 
BRANCH   6   7
ATOM      7  C   UNL     1     119.714 175.755 130.375  1.00  0.00     0.152 C 
ATOM      8  O   UNL     1     119.979 174.612 130.834  1.00  0.00    -0.295 OA
ATOM      9  C   UNL     1     118.285 176.107 130.085  1.00  0.00     0.093 C 
ENDBRANCH   6   7
ENDBRANCH   1   5
TORSDOF 4
ENDMDL
MODEL 9
REMARK VINA RESULT:    -4.026     16.544     17.740
REMARK INTER + INTRA:          -5.134
REMARK INTER:                  -4.970
REMARK INTRA:                  -0.164
REMARK UNBOUND:                -0.166
REMARK SMILES CCCCC=CC(C)=O
REMARK SMILES IDX 4 1 3 2 2 3 1 4 5 5 6 6 7 7 9 8 8 9
REMARK H PARENT
REMARK Flexibility Score: inf
ROOT
ATOM      1  C   UNL     1     119.718 179.289 126.099  1.00  0.00     0.027 C 
ENDROOT
BRANCH   1   2
ATOM      2  C   UNL     1     119.858 179.857 124.682  1.00  0.00     0.004 C 
BRANCH   2   3
ATOM      3  C   UNL     1     120.857 179.036 123.857  1.00  0.00    -0.003 C 
ATOM      4  C   UNL     1     120.809 179.427 122.383  1.00  0.00     0.004 C 
ENDBRANCH   2   3
ENDBRANCH   1   2
BRANCH   1   5
ATOM      5  C   UNL     1     121.022 179.352 126.841  1.00  0.00    -0.023 C 
ATOM      6  C   UNL     1     121.125 178.933 128.109  1.00  0.00     0.042 C 
BRANCH   6   7
ATOM      7  C   UNL     1     122.387 178.965 128.874  1.00  0.00     0.152 C 
ATOM      8  O   UNL     1     122.331 178.961 130.133  1.00  0.00    -0.295 OA
ATOM      9  C   UNL     1     123.731 179.002 128.208  1.00  0.00     0.093 C 
ENDBRANCH   6   7
ENDBRANCH   1   5
TORSDOF 4
ENDMDL
