MODEL 1
REMARK VINA RESULT:    -4.350      0.000      0.000
REMARK INTER + INTRA:          -5.083
REMARK INTER:                  -4.986
REMARK INTRA:                  -0.097
REMARK UNBOUND:                -0.097
REMARK SMILES COc1cc(C(=O)[O-])ccc1O
REMARK SMILES IDX 5 1 9 2 4 3 10 4 3 5 11 6 6 7 7 8 8 9 2 10 1 11 12 12
REMARK H PARENT 12 13
REMARK Flexibility Score: inf
ROOT
ATOM      1  C   UNL     1      -5.587   6.594  -3.355  1.00  0.00     0.001 A 
ATOM      2  C   UNL     1      -6.624   5.650  -3.401  1.00  0.00     0.014 A 
ATOM      3  C   UNL     1      -5.874   7.906  -2.937  1.00  0.00     0.060 A 
ATOM      4  C   UNL     1      -7.923   6.009  -3.039  1.00  0.00     0.051 A 
ATOM      5  C   UNL     1      -7.184   8.274  -2.569  1.00  0.00     0.161 A 
ATOM      6  C   UNL     1      -8.209   7.312  -2.623  1.00  0.00     0.157 A 
ENDROOT
BRANCH   1   7
ATOM      7  C   UNL     1      -4.211   6.208  -3.741  1.00  0.00     0.072 C 
ATOM      8  O   UNL     1      -3.649   6.745  -4.733  1.00  0.00    -0.545 OA
ATOM      9  O   UNL     1      -3.519   5.246  -3.015  1.00  0.00    -0.545 OA
ENDBRANCH   1   7
BRANCH   5  10
ATOM     10  O   UNL     1      -7.501   9.576  -2.148  1.00  0.00    -0.493 OA
ATOM     11  C   UNL     1      -7.326  10.062  -0.820  1.00  0.00     0.278 C 
ENDBRANCH   5  10
BRANCH   6  12
ATOM     12  O   UNL     1      -9.518   7.634  -2.268  1.00  0.00    -0.504 OA
ATOM     13  H   UNL     1      -9.838   7.616  -1.306  1.00  0.00     0.293 HD
ENDBRANCH   6  12
TORSDOF 3
ENDMDL
MODEL 2
REMARK VINA RESULT:    -4.198     16.965     18.536
REMARK INTER + INTRA:          -4.908
REMARK INTER:                  -4.833
REMARK INTRA:                  -0.075
REMARK UNBOUND:                -0.097
REMARK SMILES COc1cc(C(=O)[O-])ccc1O
REMARK SMILES IDX 5 1 9 2 4 3 10 4 3 5 11 6 6 7 7 8 8 9 2 10 1 11 12 12
REMARK H PARENT 12 13
REMARK Flexibility Score: inf
ROOT
ATOM      1  C   UNL     1       0.223  -7.899   4.526  1.00  0.00     0.001 A 
ATOM      2  C   UNL     1       1.104  -8.859   4.003  1.00  0.00     0.014 A 
ATOM      3  C   UNL     1       0.751  -6.744   5.132  1.00  0.00     0.060 A 
ATOM      4  C   UNL     1       2.484  -8.669   4.083  1.00  0.00     0.051 A 
ATOM      5  C   UNL     1       2.144  -6.547   5.215  1.00  0.00     0.161 A 
ATOM      6  C   UNL     1       3.009  -7.522   4.684  1.00  0.00     0.157 A 
ENDROOT
BRANCH   1   7
ATOM      7  C   UNL     1      -1.240  -8.107   4.439  1.00  0.00     0.072 C 
ATOM      8  O   UNL     1      -1.882  -8.565   5.422  1.00  0.00    -0.545 OA
ATOM      9  O   UNL     1      -1.927  -7.798   3.271  1.00  0.00    -0.545 OA
ENDBRANCH   1   7
BRANCH   5  10
ATOM     10  O   UNL     1       2.699  -5.404   5.813  1.00  0.00    -0.493 OA
ATOM     11  C   UNL     1       2.068  -4.128   5.860  1.00  0.00     0.278 C 
ENDBRANCH   5  10
BRANCH   6  12
ATOM     12  O   UNL     1       4.393  -7.366   4.745  1.00  0.00    -0.504 OA
ATOM     13  H   UNL     1       4.970  -7.896   5.387  1.00  0.00     0.293 HD
ENDBRANCH   6  12
TORSDOF 3
ENDMDL
MODEL 3
REMARK VINA RESULT:    -4.184      2.232      4.580
REMARK INTER + INTRA:          -4.892
REMARK INTER:                  -4.811
REMARK INTRA:                  -0.081
REMARK UNBOUND:                -0.097
REMARK SMILES COc1cc(C(=O)[O-])ccc1O
REMARK SMILES IDX 5 1 9 2 4 3 10 4 3 5 11 6 6 7 7 8 8 9 2 10 1 11 12 12
REMARK H PARENT 12 13
REMARK Flexibility Score: inf
ROOT
ATOM      1  C   UNL     1      -7.201   8.594  -4.048  1.00  0.00     0.001 A 
ATOM      2  C   UNL     1      -7.155   9.648  -3.122  1.00  0.00     0.014 A 
ATOM      3  C   UNL     1      -6.250   7.562  -3.957  1.00  0.00     0.060 A 
ATOM      4  C   UNL     1      -6.179   9.671  -2.125  1.00  0.00     0.051 A 
ATOM      5  C   UNL     1      -5.262   7.579  -2.952  1.00  0.00     0.161 A 
ATOM      6  C   UNL     1      -5.234   8.646  -2.035  1.00  0.00     0.157 A 
ENDROOT
BRANCH   1   7
ATOM      7  C   UNL     1      -8.239   8.576  -5.103  1.00  0.00     0.072 C 
ATOM      8  O   UNL     1      -8.516   7.507  -5.711  1.00  0.00    -0.545 OA
ATOM      9  O   UNL     1      -8.924   9.737  -5.439  1.00  0.00    -0.545 OA
ENDBRANCH   1   7
BRANCH   5  10
ATOM     10  O   UNL     1      -4.300   6.563  -2.837  1.00  0.00    -0.493 OA
ATOM     11  C   UNL     1      -3.903   5.700  -3.898  1.00  0.00     0.278 C 
ENDBRANCH   5  10
BRANCH   6  12
ATOM     12  O   UNL     1      -4.273   8.702  -1.025  1.00  0.00    -0.504 OA
ATOM     13  H   UNL     1      -4.104   7.927  -0.395  1.00  0.00     0.293 HD
ENDBRANCH   6  12
TORSDOF 3
ENDMDL
MODEL 4
REMARK VINA RESULT:    -4.160      1.494      4.355
REMARK INTER + INTRA:          -4.865
REMARK INTER:                  -4.765
REMARK INTRA:                  -0.100
REMARK UNBOUND:                -0.097
REMARK SMILES COc1cc(C(=O)[O-])ccc1O
REMARK SMILES IDX 5 1 9 2 4 3 10 4 3 5 11 6 6 7 7 8 8 9 2 10 1 11 12 12
REMARK H PARENT 12 13
REMARK Flexibility Score: inf
ROOT
ATOM      1  C   UNL     1      -7.786   7.341  -3.138  1.00  0.00     0.001 A 
ATOM      2  C   UNL     1      -7.410   5.993  -3.023  1.00  0.00     0.014 A 
ATOM      3  C   UNL     1      -6.847   8.275  -3.613  1.00  0.00     0.060 A 
ATOM      4  C   UNL     1      -6.122   5.587  -3.375  1.00  0.00     0.051 A 
ATOM      5  C   UNL     1      -5.545   7.870  -3.970  1.00  0.00     0.161 A 
ATOM      6  C   UNL     1      -5.189   6.514  -3.847  1.00  0.00     0.157 A 
ENDROOT
BRANCH   1   7
ATOM      7  C   UNL     1      -9.153   7.767  -2.763  1.00  0.00     0.072 C 
ATOM      8  O   UNL     1      -9.712   8.726  -3.361  1.00  0.00    -0.545 OA
ATOM      9  O   UNL     1      -9.840   7.115  -1.747  1.00  0.00    -0.545 OA
ENDBRANCH   1   7
BRANCH   5  10
ATOM     10  O   UNL     1      -4.587   8.779  -4.447  1.00  0.00    -0.493 OA
ATOM     11  C   UNL     1      -4.563   9.310  -5.769  1.00  0.00     0.278 C 
ENDBRANCH   5  10
BRANCH   6  12
ATOM     12  O   UNL     1      -3.912   6.071  -4.189  1.00  0.00    -0.504 OA
ATOM     13  H   UNL     1      -3.608   5.989  -5.152  1.00  0.00     0.293 HD
ENDBRANCH   6  12
TORSDOF 3
ENDMDL
MODEL 5
REMARK VINA RESULT:    -4.073     13.302     14.602
REMARK INTER + INTRA:          -4.766
REMARK INTER:                  -4.685
REMARK INTRA:                  -0.080
REMARK UNBOUND:                -0.097
REMARK SMILES COc1cc(C(=O)[O-])ccc1O
REMARK SMILES IDX 5 1 9 2 4 3 10 4 3 5 11 6 6 7 7 8 8 9 2 10 1 11 12 12
REMARK H PARENT 12 13
REMARK Flexibility Score: inf
ROOT
ATOM      1  C   UNL     1       4.745   4.612   5.443  1.00  0.00     0.001 A 
ATOM      2  C   UNL     1       6.147   4.639   5.505  1.00  0.00     0.014 A 
ATOM      3  C   UNL     1       4.025   5.787   5.727  1.00  0.00     0.060 A 
ATOM      4  C   UNL     1       6.817   5.814   5.845  1.00  0.00     0.051 A 
ATOM      5  C   UNL     1       4.697   6.978   6.070  1.00  0.00     0.161 A 
ATOM      6  C   UNL     1       6.103   6.982   6.127  1.00  0.00     0.157 A 
ENDROOT
BRANCH   1   7
ATOM      7  C   UNL     1       4.039   3.362   5.082  1.00  0.00     0.072 C 
ATOM      8  O   UNL     1       3.018   3.392   4.343  1.00  0.00    -0.545 OA
ATOM      9  O   UNL     1       4.492   2.136   5.553  1.00  0.00    -0.545 OA
ENDBRANCH   1   7
BRANCH   5  10
ATOM     10  O   UNL     1       4.006   8.166   6.358  1.00  0.00    -0.493 OA
ATOM     11  C   UNL     1       2.727   8.226   6.981  1.00  0.00     0.278 C 
ENDBRANCH   5  10
BRANCH   6  12
ATOM     12  O   UNL     1       6.807   8.138   6.462  1.00  0.00    -0.504 OA
ATOM     13  H   UNL     1       6.344   8.981   6.781  1.00  0.00     0.293 HD
ENDBRANCH   6  12
TORSDOF 3
ENDMDL
MODEL 6
REMARK VINA RESULT:    -4.000     17.617     19.435
REMARK INTER + INTRA:          -4.682
REMARK INTER:                  -4.732
REMARK INTRA:                   0.051
REMARK UNBOUND:                -0.097
REMARK SMILES COc1cc(C(=O)[O-])ccc1O
REMARK SMILES IDX 5 1 9 2 4 3 10 4 3 5 11 6 6 7 7 8 8 9 2 10 1 11 12 12
REMARK H PARENT 12 13
REMARK Flexibility Score: inf
ROOT
ATOM      1  C   UNL     1       0.261  -8.016   4.509  1.00  0.00     0.001 A 
ATOM      2  C   UNL     1       0.808  -6.827   5.018  1.00  0.00     0.014 A 
ATOM      3  C   UNL     1       1.126  -9.045   4.096  1.00  0.00     0.060 A 
ATOM      4  C   UNL     1       2.191  -6.670   5.112  1.00  0.00     0.051 A 
ATOM      5  C   UNL     1       2.524  -8.892   4.190  1.00  0.00     0.161 A 
ATOM      6  C   UNL     1       3.051  -7.693   4.703  1.00  0.00     0.157 A 
ENDROOT
BRANCH   1   7
ATOM      7  C   UNL     1      -1.208  -8.177   4.410  1.00  0.00     0.072 C 
ATOM      8  O   UNL     1      -1.865  -8.665   5.369  1.00  0.00    -0.545 OA
ATOM      9  O   UNL     1      -1.883  -7.791   3.259  1.00  0.00    -0.545 OA
ENDBRANCH   1   7
BRANCH   5  10
ATOM     10  O   UNL     1       3.412  -9.903   3.786  1.00  0.00    -0.493 OA
ATOM     11  C   UNL     1       4.237  -9.838   2.628  1.00  0.00     0.278 C 
ENDBRANCH   5  10
BRANCH   6  12
ATOM     12  O   UNL     1       4.427  -7.500   4.813  1.00  0.00    -0.504 OA
ATOM     13  H   UNL     1       4.948  -6.925   4.161  1.00  0.00     0.293 HD
ENDBRANCH   6  12
TORSDOF 3
ENDMDL
MODEL 7
REMARK VINA RESULT:    -3.975     13.423     15.308
REMARK INTER + INTRA:          -4.653
REMARK INTER:                  -4.553
REMARK INTRA:                  -0.100
REMARK UNBOUND:                -0.097
REMARK SMILES COc1cc(C(=O)[O-])ccc1O
REMARK SMILES IDX 5 1 9 2 4 3 10 4 3 5 11 6 6 7 7 8 8 9 2 10 1 11 12 12
REMARK H PARENT 12 13
REMARK Flexibility Score: inf
ROOT
ATOM      1  C   UNL     1       4.410   4.161   5.434  1.00  0.00     0.001 A 
ATOM      2  C   UNL     1       3.800   5.404   5.667  1.00  0.00     0.014 A 
ATOM      3  C   UNL     1       5.814   4.071   5.466  1.00  0.00     0.060 A 
ATOM      4  C   UNL     1       4.576   6.534   5.926  1.00  0.00     0.051 A 
ATOM      5  C   UNL     1       6.603   5.210   5.729  1.00  0.00     0.161 A 
ATOM      6  C   UNL     1       5.970   6.445   5.959  1.00  0.00     0.157 A 
ENDROOT
BRANCH   1   7
ATOM      7  C   UNL     1       3.582   2.965   5.159  1.00  0.00     0.072 C 
ATOM      8  O   UNL     1       2.605   3.032   4.366  1.00  0.00    -0.545 OA
ATOM      9  O   UNL     1       3.870   1.752   5.771  1.00  0.00    -0.545 OA
ENDBRANCH   1   7
BRANCH   5  10
ATOM     10  O   UNL     1       8.005   5.151   5.767  1.00  0.00    -0.493 OA
ATOM     11  C   UNL     1       8.764   4.685   6.879  1.00  0.00     0.278 C 
ENDBRANCH   5  10
BRANCH   6  12
ATOM     12  O   UNL     1       6.713   7.596   6.222  1.00  0.00    -0.504 OA
ATOM     13  H   UNL     1       6.361   8.525   6.022  1.00  0.00     0.293 HD
ENDBRANCH   6  12
TORSDOF 3
ENDMDL
MODEL 8
REMARK VINA RESULT:    -3.955     13.253     14.847
REMARK INTER + INTRA:          -4.630
REMARK INTER:                  -4.533
REMARK INTRA:                  -0.098
REMARK UNBOUND:                -0.097
REMARK SMILES COc1cc(C(=O)[O-])ccc1O
REMARK SMILES IDX 5 1 9 2 4 3 10 4 3 5 11 6 6 7 7 8 8 9 2 10 1 11 12 12
REMARK H PARENT 12 13
REMARK Flexibility Score: inf
ROOT
ATOM      1  C   UNL     1       4.569   6.841   6.054  1.00  0.00     0.001 A 
ATOM      2  C   UNL     1       5.963   6.753   6.202  1.00  0.00     0.014 A 
ATOM      3  C   UNL     1       3.867   5.743   5.524  1.00  0.00     0.060 A 
ATOM      4  C   UNL     1       6.640   5.592   5.829  1.00  0.00     0.051 A 
ATOM      5  C   UNL     1       4.547   4.568   5.146  1.00  0.00     0.161 A 
ATOM      6  C   UNL     1       5.943   4.501   5.304  1.00  0.00     0.157 A 
ENDROOT
BRANCH   1   7
ATOM      7  C   UNL     1       3.855   8.076   6.451  1.00  0.00     0.072 C 
ATOM      8  O   UNL     1       2.598   8.137   6.390  1.00  0.00    -0.545 OA
ATOM      9  O   UNL     1       4.562   9.186   6.896  1.00  0.00    -0.545 OA
ENDBRANCH   1   7
BRANCH   5  10
ATOM     10  O   UNL     1       3.872   3.456   4.616  1.00  0.00    -0.493 OA
ATOM     11  C   UNL     1       2.913   2.678   5.324  1.00  0.00     0.278 C 
ENDBRANCH   5  10
BRANCH   6  12
ATOM     12  O   UNL     1       6.655   3.357   4.943  1.00  0.00    -0.504 OA
ATOM     13  H   UNL     1       6.374   2.430   5.238  1.00  0.00     0.293 HD
ENDBRANCH   6  12
TORSDOF 3
ENDMDL
MODEL 9
REMARK VINA RESULT:    -3.918     18.384     19.806
REMARK INTER + INTRA:          -4.588
REMARK INTER:                  -4.513
REMARK INTRA:                  -0.075
REMARK UNBOUND:                -0.097
REMARK SMILES COc1cc(C(=O)[O-])ccc1O
REMARK SMILES IDX 5 1 9 2 4 3 10 4 3 5 11 6 6 7 7 8 8 9 2 10 1 11 12 12
REMARK H PARENT 12 13
REMARK Flexibility Score: inf
ROOT
ATOM      1  C   UNL     1       2.159  -8.497   4.302  1.00  0.00     0.001 A 
ATOM      2  C   UNL     1       2.914  -9.458   3.610  1.00  0.00     0.014 A 
ATOM      3  C   UNL     1       2.816  -7.389   4.868  1.00  0.00     0.060 A 
ATOM      4  C   UNL     1       4.296  -9.315   3.487  1.00  0.00     0.051 A 
ATOM      5  C   UNL     1       4.212  -7.240   4.746  1.00  0.00     0.161 A 
ATOM      6  C   UNL     1       4.949  -8.215   4.049  1.00  0.00     0.157 A 
ENDROOT
BRANCH   1   7
ATOM      7  C   UNL     1       0.692  -8.654   4.430  1.00  0.00     0.072 C 
ATOM      8  O   UNL     1      -0.087  -7.755   4.014  1.00  0.00    -0.545 OA
ATOM      9  O   UNL     1       0.154  -9.795   5.011  1.00  0.00    -0.545 OA
ENDBRANCH   1   7
BRANCH   5  10
ATOM     10  O   UNL     1       4.894  -6.145   5.300  1.00  0.00    -0.493 OA
ATOM     11  C   UNL     1       4.265  -4.972   5.807  1.00  0.00     0.278 C 
ENDBRANCH   5  10
BRANCH   6  12
ATOM     12  O   UNL     1       6.332  -8.106   3.904  1.00  0.00    -0.504 OA
ATOM     13  H   UNL     1       6.916  -8.900   3.673  1.00  0.00     0.293 HD
ENDBRANCH   6  12
TORSDOF 3
ENDMDL
