MODEL 1
REMARK VINA RESULT:    -6.802      0.000      0.000
REMARK INTER + INTRA:          -8.081
REMARK INTER:                  -7.796
REMARK INTRA:                  -0.285
REMARK UNBOUND:                -0.285
REMARK SMILES O=C1C[C@H](c2ccc(O)cc2)Oc2cc(O)cc(O)c21
REMARK SMILES IDX 3 1 4 2 12 3 13 4 14 5 15 6 17 7 18 8 20 9 2 10 1 11 5 12
REMARK SMILES IDX 6 13 11 14 7 15 10 16 8 17 9 18 19 20 16 22
REMARK H PARENT 9 19 19 21 16 23
REMARK Flexibility Score: inf
ROOT
ATOM      1  C   UNL     1     177.640 181.200 175.146  1.00  0.00     0.131 C 
ATOM      2  C   UNL     1     179.172 181.244 175.179  1.00  0.00     0.211 C 
ATOM      3  O   UNL     1     179.629 182.568 174.907  1.00  0.00    -0.484 OA
ATOM      4  C   UNL     1     179.095 183.332 173.864  1.00  0.00     0.138 A 
ATOM      5  C   UNL     1     179.784 184.471 173.441  1.00  0.00     0.093 A 
ATOM      6  C   UNL     1     179.291 185.241 172.386  1.00  0.00     0.123 A 
ATOM      7  C   UNL     1     178.115 184.860 171.741  1.00  0.00     0.093 A 
ATOM      8  C   UNL     1     177.409 183.717 172.143  1.00  0.00     0.133 A 
ATOM      9  C   UNL     1     177.874 182.961 173.256  1.00  0.00     0.102 A 
ATOM     10  C   UNL     1     177.118 181.840 173.890  1.00  0.00     0.174 C 
ATOM     11  O   UNL     1     175.990 181.480 173.467  1.00  0.00    -0.294 OA
ENDROOT
BRANCH   2  12
ATOM     12  C   UNL     1     179.694 180.779 176.517  1.00  0.00    -0.007 A 
ATOM     13  C   UNL     1     180.536 179.657 176.607  1.00  0.00     0.011 A 
ATOM     14  C   UNL     1     179.387 181.500 177.684  1.00  0.00     0.011 A 
ATOM     15  C   UNL     1     181.042 179.251 177.846  1.00  0.00     0.046 A 
ATOM     16  C   UNL     1     179.893 181.091 178.921  1.00  0.00     0.046 A 
ATOM     17  C   UNL     1     180.719 179.966 179.007  1.00  0.00     0.115 A 
BRANCH  17  18
ATOM     18  O   UNL     1     181.216 179.569 180.246  1.00  0.00    -0.508 OA
ATOM     19  H   UNL     1     181.071 178.630 180.599  1.00  0.00     0.293 HD
ENDBRANCH  17  18
ENDBRANCH   2  12
BRANCH   8  20
ATOM     20  O   UNL     1     176.278 183.379 171.395  1.00  0.00    -0.507 OA
ATOM     21  H   UNL     1     176.302 182.898 170.509  1.00  0.00     0.293 HD
ENDBRANCH   8  20
BRANCH   6  22
ATOM     22  O   UNL     1     179.969 186.382 171.963  1.00  0.00    -0.508 OA
ATOM     23  H   UNL     1     180.214 186.522 170.989  1.00  0.00     0.293 HD
ENDBRANCH   6  22
TORSDOF 4
ENDMDL
MODEL 2
REMARK VINA RESULT:    -6.797      4.495      6.759
REMARK INTER + INTRA:          -8.075
REMARK INTER:                  -7.791
REMARK INTRA:                  -0.285
REMARK UNBOUND:                -0.285
REMARK SMILES O=C1C[C@H](c2ccc(O)cc2)Oc2cc(O)cc(O)c21
REMARK SMILES IDX 3 1 4 2 12 3 13 4 14 5 15 6 17 7 18 8 20 9 2 10 1 11 5 12
REMARK SMILES IDX 6 13 11 14 7 15 10 16 8 17 9 18 19 20 16 22
REMARK H PARENT 9 19 19 21 16 23
REMARK Flexibility Score: inf
ROOT
ATOM      1  C   UNL     1     183.092 179.543 175.162  1.00  0.00     0.131 C 
ATOM      2  C   UNL     1     181.560 179.505 175.197  1.00  0.00     0.211 C 
ATOM      3  O   UNL     1     181.097 178.183 174.928  1.00  0.00    -0.484 OA
ATOM      4  C   UNL     1     181.626 177.415 173.884  1.00  0.00     0.138 A 
ATOM      5  C   UNL     1     180.931 176.280 173.464  1.00  0.00     0.093 A 
ATOM      6  C   UNL     1     181.419 175.506 172.408  1.00  0.00     0.123 A 
ATOM      7  C   UNL     1     182.596 175.882 171.761  1.00  0.00     0.093 A 
ATOM      8  C   UNL     1     183.307 177.022 172.161  1.00  0.00     0.133 A 
ATOM      9  C   UNL     1     182.848 177.781 173.274  1.00  0.00     0.102 A 
ATOM     10  C   UNL     1     183.609 178.899 173.905  1.00  0.00     0.174 C 
ATOM     11  O   UNL     1     184.738 179.254 173.480  1.00  0.00    -0.294 OA
ENDROOT
BRANCH   2  12
ATOM     12  C   UNL     1     181.042 179.974 176.535  1.00  0.00    -0.007 A 
ATOM     13  C   UNL     1     180.206 181.100 176.625  1.00  0.00     0.011 A 
ATOM     14  C   UNL     1     181.347 179.253 177.703  1.00  0.00     0.011 A 
ATOM     15  C   UNL     1     179.704 181.510 177.865  1.00  0.00     0.046 A 
ATOM     16  C   UNL     1     180.845 179.665 178.940  1.00  0.00     0.046 A 
ATOM     17  C   UNL     1     180.024 180.794 179.026  1.00  0.00     0.115 A 
BRANCH  17  18
ATOM     18  O   UNL     1     179.532 181.195 180.266  1.00  0.00    -0.508 OA
ATOM     19  H   UNL     1     180.013 181.886 180.829  1.00  0.00     0.293 HD
ENDBRANCH  17  18
ENDBRANCH   2  12
BRANCH   8  20
ATOM     20  O   UNL     1     184.438 177.354 171.411  1.00  0.00    -0.507 OA
ATOM     21  H   UNL     1     184.613 178.264 171.013  1.00  0.00     0.293 HD
ENDBRANCH   8  20
BRANCH   6  22
ATOM     22  O   UNL     1     180.736 174.368 171.987  1.00  0.00    -0.508 OA
ATOM     23  H   UNL     1     180.420 174.263 171.029  1.00  0.00     0.293 HD
ENDBRANCH   6  22
TORSDOF 4
ENDMDL
MODEL 3
REMARK VINA RESULT:    -6.405      1.671      3.185
REMARK INTER + INTRA:          -7.626
REMARK INTER:                  -7.330
REMARK INTRA:                  -0.296
REMARK UNBOUND:                -0.285
REMARK SMILES O=C1C[C@H](c2ccc(O)cc2)Oc2cc(O)cc(O)c21
REMARK SMILES IDX 3 1 4 2 12 3 13 4 14 5 15 6 17 7 18 8 20 9 2 10 1 11 5 12
REMARK SMILES IDX 6 13 11 14 7 15 10 16 8 17 9 18 19 20 16 22
REMARK H PARENT 9 19 19 21 16 23
REMARK Flexibility Score: inf
ROOT
ATOM      1  C   UNL     1     179.098 182.839 174.345  1.00  0.00     0.131 C 
ATOM      2  C   UNL     1     178.103 181.970 175.124  1.00  0.00     0.211 C 
ATOM      3  O   UNL     1     177.391 181.118 174.227  1.00  0.00    -0.484 OA
ATOM      4  C   UNL     1     176.857 181.595 173.026  1.00  0.00     0.138 A 
ATOM      5  C   UNL     1     175.911 180.819 172.354  1.00  0.00     0.093 A 
ATOM      6  C   UNL     1     175.339 181.278 171.165  1.00  0.00     0.123 A 
ATOM      7  C   UNL     1     175.703 182.525 170.658  1.00  0.00     0.093 A 
ATOM      8  C   UNL     1     176.645 183.325 171.319  1.00  0.00     0.133 A 
ATOM      9  C   UNL     1     177.276 182.838 172.498  1.00  0.00     0.102 A 
ATOM     10  C   UNL     1     178.418 183.512 173.184  1.00  0.00     0.174 C 
ATOM     11  O   UNL     1     178.910 184.585 172.752  1.00  0.00    -0.294 OA
ENDROOT
BRANCH   2  12
ATOM     12  C   UNL     1     178.815 181.146 176.169  1.00  0.00    -0.007 A 
ATOM     13  C   UNL     1     179.407 179.917 175.830  1.00  0.00     0.011 A 
ATOM     14  C   UNL     1     178.940 181.626 177.483  1.00  0.00     0.011 A 
ATOM     15  C   UNL     1     180.092 179.172 176.796  1.00  0.00     0.046 A 
ATOM     16  C   UNL     1     179.624 180.880 178.447  1.00  0.00     0.046 A 
ATOM     17  C   UNL     1     180.200 179.652 178.109  1.00  0.00     0.115 A 
BRANCH  17  18
ATOM     18  O   UNL     1     180.878 178.918 179.079  1.00  0.00    -0.508 OA
ATOM     19  H   UNL     1     180.616 177.966 179.303  1.00  0.00     0.293 HD
ENDBRANCH  17  18
ENDBRANCH   2  12
BRANCH   8  20
ATOM     20  O   UNL     1     176.897 184.585 170.770  1.00  0.00    -0.507 OA
ATOM     21  H   UNL     1     177.557 184.764 170.029  1.00  0.00     0.293 HD
ENDBRANCH   8  20
BRANCH   6  22
ATOM     22  O   UNL     1     174.399 180.506 170.485  1.00  0.00    -0.508 OA
ATOM     23  H   UNL     1     173.635 180.931 169.972  1.00  0.00     0.293 HD
ENDBRANCH   6  22
TORSDOF 4
ENDMDL
MODEL 4
REMARK VINA RESULT:    -6.363      5.093      6.365
REMARK INTER + INTRA:          -7.578
REMARK INTER:                  -7.281
REMARK INTRA:                  -0.297
REMARK UNBOUND:                -0.285
REMARK SMILES O=C1C[C@H](c2ccc(O)cc2)Oc2cc(O)cc(O)c21
REMARK SMILES IDX 3 1 4 2 12 3 13 4 14 5 15 6 17 7 18 8 20 9 2 10 1 11 5 12
REMARK SMILES IDX 6 13 11 14 7 15 10 16 8 17 9 18 19 20 16 22
REMARK H PARENT 9 19 19 21 16 23
REMARK Flexibility Score: inf
ROOT
ATOM      1  C   UNL     1     181.624 177.891 174.363  1.00  0.00     0.131 C 
ATOM      2  C   UNL     1     182.620 178.756 175.144  1.00  0.00     0.211 C 
ATOM      3  O   UNL     1     183.341 179.602 174.248  1.00  0.00    -0.484 OA
ATOM      4  C   UNL     1     183.878 179.118 173.050  1.00  0.00     0.138 A 
ATOM      5  C   UNL     1     184.832 179.887 172.380  1.00  0.00     0.093 A 
ATOM      6  C   UNL     1     185.406 179.422 171.196  1.00  0.00     0.123 A 
ATOM      7  C   UNL     1     185.037 178.176 170.690  1.00  0.00     0.093 A 
ATOM      8  C   UNL     1     184.087 177.382 171.348  1.00  0.00     0.133 A 
ATOM      9  C   UNL     1     183.455 177.876 172.524  1.00  0.00     0.102 A 
ATOM     10  C   UNL     1     182.305 177.211 173.207  1.00  0.00     0.174 C 
ATOM     11  O   UNL     1     181.809 176.139 172.776  1.00  0.00    -0.294 OA
ENDROOT
BRANCH   2  12
ATOM     12  C   UNL     1     181.910 179.587 176.183  1.00  0.00    -0.007 A 
ATOM     13  C   UNL     1     181.331 180.821 175.841  1.00  0.00     0.011 A 
ATOM     14  C   UNL     1     181.770 179.107 177.497  1.00  0.00     0.011 A 
ATOM     15  C   UNL     1     180.646 181.572 176.802  1.00  0.00     0.046 A 
ATOM     16  C   UNL     1     181.086 179.860 178.456  1.00  0.00     0.046 A 
ATOM     17  C   UNL     1     180.524 181.094 178.113  1.00  0.00     0.115 A 
BRANCH  17  18
ATOM     18  O   UNL     1     179.846 181.834 179.079  1.00  0.00    -0.508 OA
ATOM     19  H   UNL     1     178.942 182.250 178.889  1.00  0.00     0.293 HD
ENDBRANCH  17  18
ENDBRANCH   2  12
BRANCH   8  20
ATOM     20  O   UNL     1     183.831 176.123 170.802  1.00  0.00    -0.507 OA
ATOM     21  H   UNL     1     183.322 175.389 171.271  1.00  0.00     0.293 HD
ENDBRANCH   8  20
BRANCH   6  22
ATOM     22  O   UNL     1     186.353 180.187 170.518  1.00  0.00    -0.508 OA
ATOM     23  H   UNL     1     186.349 181.199 170.564  1.00  0.00     0.293 HD
ENDBRANCH   6  22
TORSDOF 4
ENDMDL
MODEL 5
REMARK VINA RESULT:    -6.306      4.630      6.258
REMARK INTER + INTRA:          -7.512
REMARK INTER:                  -7.231
REMARK INTRA:                  -0.281
REMARK UNBOUND:                -0.285
REMARK SMILES O=C1C[C@H](c2ccc(O)cc2)Oc2cc(O)cc(O)c21
REMARK SMILES IDX 3 1 4 2 12 3 13 4 14 5 15 6 17 7 18 8 20 9 2 10 1 11 5 12
REMARK SMILES IDX 6 13 11 14 7 15 10 16 8 17 9 18 19 20 16 22
REMARK H PARENT 9 19 19 21 16 23
REMARK Flexibility Score: inf
ROOT
ATOM      1  C   UNL     1     179.352 177.350 175.281  1.00  0.00     0.131 C 
ATOM      2  C   UNL     1     180.602 177.898 175.979  1.00  0.00     0.211 C 
ATOM      3  O   UNL     1     181.557 178.326 175.008  1.00  0.00    -0.484 OA
ATOM      4  C   UNL     1     181.868 177.547 173.888  1.00  0.00     0.138 A 
ATOM      5  C   UNL     1     183.018 177.849 173.156  1.00  0.00     0.093 A 
ATOM      6  C   UNL     1     183.370 177.075 172.048  1.00  0.00     0.123 A 
ATOM      7  C   UNL     1     182.579 175.986 171.684  1.00  0.00     0.093 A 
ATOM      8  C   UNL     1     181.424 175.659 172.408  1.00  0.00     0.133 A 
ATOM      9  C   UNL     1     181.027 176.478 173.501  1.00  0.00     0.102 A 
ATOM     10  C   UNL     1     179.730 176.343 174.230  1.00  0.00     0.174 C 
ATOM     11  O   UNL     1     178.882 175.469 173.916  1.00  0.00    -0.294 OA
ENDROOT
BRANCH   2  12
ATOM     12  C   UNL     1     180.247 179.042 176.896  1.00  0.00    -0.007 A 
ATOM     13  C   UNL     1     179.494 180.132 176.424  1.00  0.00     0.011 A 
ATOM     14  C   UNL     1     180.618 179.003 178.251  1.00  0.00     0.011 A 
ATOM     15  C   UNL     1     179.141 181.174 177.287  1.00  0.00     0.046 A 
ATOM     16  C   UNL     1     180.265 180.047 179.111  1.00  0.00     0.046 A 
ATOM     17  C   UNL     1     179.528 181.135 178.634  1.00  0.00     0.115 A 
BRANCH  17  18
ATOM     18  O   UNL     1     179.184 182.168 179.501  1.00  0.00    -0.508 OA
ATOM     19  H   UNL     1     178.263 182.590 179.484  1.00  0.00     0.293 HD
ENDBRANCH  17  18
ENDBRANCH   2  12
BRANCH   8  20
ATOM     20  O   UNL     1     180.733 174.513 172.007  1.00  0.00    -0.507 OA
ATOM     21  H   UNL     1     180.343 174.373 171.088  1.00  0.00     0.293 HD
ENDBRANCH   8  20
BRANCH   6  22
ATOM     22  O   UNL     1     184.512 177.374 171.308  1.00  0.00    -0.508 OA
ATOM     23  H   UNL     1     184.695 176.932 170.414  1.00  0.00     0.293 HD
ENDBRANCH   6  22
TORSDOF 4
ENDMDL
MODEL 6
REMARK VINA RESULT:    -6.301      1.213      2.914
REMARK INTER + INTRA:          -7.506
REMARK INTER:                  -7.225
REMARK INTRA:                  -0.281
REMARK UNBOUND:                -0.285
REMARK SMILES O=C1C[C@H](c2ccc(O)cc2)Oc2cc(O)cc(O)c21
REMARK SMILES IDX 3 1 4 2 12 3 13 4 14 5 15 6 17 7 18 8 20 9 2 10 1 11 5 12
REMARK SMILES IDX 6 13 11 14 7 15 10 16 8 17 9 18 19 20 16 22
REMARK H PARENT 9 19 19 21 16 23
REMARK Flexibility Score: inf
ROOT
ATOM      1  C   UNL     1     181.359 183.369 175.278  1.00  0.00     0.131 C 
ATOM      2  C   UNL     1     180.109 182.821 175.977  1.00  0.00     0.211 C 
ATOM      3  O   UNL     1     179.154 182.393 175.006  1.00  0.00    -0.484 OA
ATOM      4  C   UNL     1     178.842 183.173 173.887  1.00  0.00     0.138 A 
ATOM      5  C   UNL     1     177.691 182.871 173.155  1.00  0.00     0.093 A 
ATOM      6  C   UNL     1     177.338 183.645 172.048  1.00  0.00     0.123 A 
ATOM      7  C   UNL     1     178.129 184.735 171.684  1.00  0.00     0.093 A 
ATOM      8  C   UNL     1     179.284 185.061 172.407  1.00  0.00     0.133 A 
ATOM      9  C   UNL     1     179.683 184.241 173.500  1.00  0.00     0.102 A 
ATOM     10  C   UNL     1     180.980 184.376 174.227  1.00  0.00     0.174 C 
ATOM     11  O   UNL     1     181.828 185.250 173.913  1.00  0.00    -0.294 OA
ENDROOT
BRANCH   2  12
ATOM     12  C   UNL     1     180.465 181.676 176.893  1.00  0.00    -0.007 A 
ATOM     13  C   UNL     1     181.220 180.588 176.421  1.00  0.00     0.011 A 
ATOM     14  C   UNL     1     180.092 181.713 178.248  1.00  0.00     0.011 A 
ATOM     15  C   UNL     1     181.573 179.545 177.283  1.00  0.00     0.046 A 
ATOM     16  C   UNL     1     180.446 180.670 179.107  1.00  0.00     0.046 A 
ATOM     17  C   UNL     1     181.185 179.583 178.629  1.00  0.00     0.115 A 
BRANCH  17  18
ATOM     18  O   UNL     1     181.530 178.549 179.496  1.00  0.00    -0.508 OA
ATOM     19  H   UNL     1     182.259 177.885 179.265  1.00  0.00     0.293 HD
ENDBRANCH  17  18
ENDBRANCH   2  12
BRANCH   8  20
ATOM     20  O   UNL     1     179.975 186.207 172.006  1.00  0.00    -0.507 OA
ATOM     21  H   UNL     1     180.116 186.483 171.047  1.00  0.00     0.293 HD
ENDBRANCH   8  20
BRANCH   6  22
ATOM     22  O   UNL     1     176.195 183.347 171.309  1.00  0.00    -0.508 OA
ATOM     23  H   UNL     1     176.244 183.138 170.318  1.00  0.00     0.293 HD
ENDBRANCH   6  22
TORSDOF 4
ENDMDL
MODEL 7
REMARK VINA RESULT:    -6.237      4.300      6.244
REMARK INTER + INTRA:          -7.433
REMARK INTER:                  -7.153
REMARK INTRA:                  -0.280
REMARK UNBOUND:                -0.285
REMARK SMILES O=C1C[C@H](c2ccc(O)cc2)Oc2cc(O)cc(O)c21
REMARK SMILES IDX 3 1 4 2 12 3 13 4 14 5 15 6 17 7 18 8 20 9 2 10 1 11 5 12
REMARK SMILES IDX 6 13 11 14 7 15 10 16 8 17 9 18 19 20 16 22
REMARK H PARENT 9 19 19 21 16 23
REMARK Flexibility Score: inf
ROOT
ATOM      1  C   UNL     1     180.719 178.025 174.660  1.00  0.00     0.131 C 
ATOM      2  C   UNL     1     179.512 178.917 174.976  1.00  0.00     0.211 C 
ATOM      3  O   UNL     1     178.315 178.139 174.974  1.00  0.00    -0.484 OA
ATOM      4  C   UNL     1     178.043 177.210 173.964  1.00  0.00     0.138 A 
ATOM      5  C   UNL     1     176.742 176.721 173.831  1.00  0.00     0.093 A 
ATOM      6  C   UNL     1     176.432 175.812 172.817  1.00  0.00     0.123 A 
ATOM      7  C   UNL     1     177.422 175.405 171.924  1.00  0.00     0.093 A 
ATOM      8  C   UNL     1     178.734 175.888 172.033  1.00  0.00     0.133 A 
ATOM      9  C   UNL     1     179.071 176.768 173.099  1.00  0.00     0.102 A 
ATOM     10  C   UNL     1     180.461 177.203 173.428  1.00  0.00     0.174 C 
ATOM     11  O   UNL     1     181.453 176.808 172.762  1.00  0.00    -0.294 OA
ENDROOT
BRANCH   2  12
ATOM     12  C   UNL     1     179.684 179.599 176.311  1.00  0.00    -0.007 A 
ATOM     13  C   UNL     1     179.085 180.846 176.560  1.00  0.00     0.011 A 
ATOM     14  C   UNL     1     180.401 178.966 177.341  1.00  0.00     0.011 A 
ATOM     15  C   UNL     1     179.223 181.459 177.810  1.00  0.00     0.046 A 
ATOM     16  C   UNL     1     180.538 179.581 178.588  1.00  0.00     0.046 A 
ATOM     17  C   UNL     1     179.952 180.828 178.828  1.00  0.00     0.115 A 
BRANCH  17  18
ATOM     18  O   UNL     1     180.096 181.430 180.075  1.00  0.00    -0.508 OA
ATOM     19  H   UNL     1     179.382 182.039 180.455  1.00  0.00     0.293 HD
ENDBRANCH  17  18
ENDBRANCH   2  12
BRANCH   8  20
ATOM     20  O   UNL     1     179.641 175.475 171.054  1.00  0.00    -0.507 OA
ATOM     21  H   UNL     1     180.608 175.758 171.014  1.00  0.00     0.293 HD
ENDBRANCH   8  20
BRANCH   6  22
ATOM     22  O   UNL     1     175.137 175.314 172.682  1.00  0.00    -0.508 OA
ATOM     23  H   UNL     1     174.432 175.809 172.149  1.00  0.00     0.293 HD
ENDBRANCH   6  22
TORSDOF 4
ENDMDL
MODEL 8
REMARK VINA RESULT:    -6.222      2.583      3.559
REMARK INTER + INTRA:          -7.416
REMARK INTER:                  -7.135
REMARK INTRA:                  -0.281
REMARK UNBOUND:                -0.285
REMARK SMILES O=C1C[C@H](c2ccc(O)cc2)Oc2cc(O)cc(O)c21
REMARK SMILES IDX 3 1 4 2 12 3 13 4 14 5 15 6 17 7 18 8 20 9 2 10 1 11 5 12
REMARK SMILES IDX 6 13 11 14 7 15 10 16 8 17 9 18 19 20 16 22
REMARK H PARENT 9 19 19 21 16 23
REMARK Flexibility Score: inf
ROOT
ATOM      1  C   UNL     1     179.899 182.746 174.715  1.00  0.00     0.131 C 
ATOM      2  C   UNL     1     181.074 181.800 174.992  1.00  0.00     0.211 C 
ATOM      3  O   UNL     1     182.300 182.530 174.991  1.00  0.00    -0.484 OA
ATOM      4  C   UNL     1     182.595 183.473 174.001  1.00  0.00     0.138 A 
ATOM      5  C   UNL     1     183.913 183.914 173.861  1.00  0.00     0.093 A 
ATOM      6  C   UNL     1     184.245 184.836 172.866  1.00  0.00     0.123 A 
ATOM      7  C   UNL     1     183.260 185.303 171.997  1.00  0.00     0.093 A 
ATOM      8  C   UNL     1     181.932 184.869 172.113  1.00  0.00     0.133 A 
ATOM      9  C   UNL     1     181.574 183.976 173.162  1.00  0.00     0.102 A 
ATOM     10  C   UNL     1     180.172 183.589 173.500  1.00  0.00     0.174 C 
ATOM     11  O   UNL     1     179.188 184.038 172.859  1.00  0.00    -0.294 OA
ENDROOT
BRANCH   2  12
ATOM     12  C   UNL     1     180.893 181.092 176.312  1.00  0.00    -0.007 A 
ATOM     13  C   UNL     1     179.919 181.523 177.229  1.00  0.00     0.011 A 
ATOM     14  C   UNL     1     181.661 179.954 176.615  1.00  0.00     0.011 A 
ATOM     15  C   UNL     1     179.735 180.843 178.437  1.00  0.00     0.046 A 
ATOM     16  C   UNL     1     181.475 179.277 177.823  1.00  0.00     0.046 A 
ATOM     17  C   UNL     1     180.515 179.718 178.738  1.00  0.00     0.115 A 
BRANCH  17  18
ATOM     18  O   UNL     1     180.341 179.035 179.938  1.00  0.00    -0.508 OA
ATOM     19  H   UNL     1     179.744 179.396 180.673  1.00  0.00     0.293 HD
ENDBRANCH  17  18
ENDBRANCH   2  12
BRANCH   8  20
ATOM     20  O   UNL     1     181.029 185.342 171.158  1.00  0.00    -0.507 OA
ATOM     21  H   UNL     1     180.084 185.008 171.050  1.00  0.00     0.293 HD
ENDBRANCH   8  20
BRANCH   6  22
ATOM     22  O   UNL     1     185.556 185.286 172.725  1.00  0.00    -0.508 OA
ATOM     23  H   UNL     1     186.121 185.029 171.923  1.00  0.00     0.293 HD
ENDBRANCH   6  22
TORSDOF 4
ENDMDL
MODEL 9
REMARK VINA RESULT:    -6.110      1.376      1.997
REMARK INTER + INTRA:          -7.288
REMARK INTER:                  -6.988
REMARK INTRA:                  -0.300
REMARK UNBOUND:                -0.285
REMARK SMILES O=C1C[C@H](c2ccc(O)cc2)Oc2cc(O)cc(O)c21
REMARK SMILES IDX 3 1 4 2 12 3 13 4 14 5 15 6 17 7 18 8 20 9 2 10 1 11 5 12
REMARK SMILES IDX 6 13 11 14 7 15 10 16 8 17 9 18 19 20 16 22
REMARK H PARENT 9 19 19 21 16 23
REMARK Flexibility Score: inf
ROOT
ATOM      1  C   UNL     1     177.688 179.685 174.990  1.00  0.00     0.131 C 
ATOM      2  C   UNL     1     178.976 180.505 175.131  1.00  0.00     0.211 C 
ATOM      3  O   UNL     1     178.725 181.871 174.804  1.00  0.00    -0.484 OA
ATOM      4  C   UNL     1     177.982 182.234 173.675  1.00  0.00     0.138 A 
ATOM      5  C   UNL     1     178.038 183.555 173.228  1.00  0.00     0.093 A 
ATOM      6  C   UNL     1     177.328 183.943 172.090  1.00  0.00     0.123 A 
ATOM      7  C   UNL     1     176.574 183.002 171.389  1.00  0.00     0.093 A 
ATOM      8  C   UNL     1     176.508 181.669 171.815  1.00  0.00     0.133 A 
ATOM      9  C   UNL     1     177.181 181.279 173.007  1.00  0.00     0.102 A 
ATOM     10  C   UNL     1     177.039 179.943 173.659  1.00  0.00     0.174 C 
ATOM     11  O   UNL     1     176.294 179.049 173.181  1.00  0.00    -0.294 OA
ENDROOT
BRANCH   2  12
ATOM     12  C   UNL     1     179.529 180.399 176.531  1.00  0.00    -0.007 A 
ATOM     13  C   UNL     1     179.175 181.340 177.514  1.00  0.00     0.011 A 
ATOM     14  C   UNL     1     180.363 179.324 176.883  1.00  0.00     0.011 A 
ATOM     15  C   UNL     1     179.666 181.219 178.818  1.00  0.00     0.046 A 
ATOM     16  C   UNL     1     180.853 179.206 178.186  1.00  0.00     0.046 A 
ATOM     17  C   UNL     1     180.508 180.152 179.157  1.00  0.00     0.115 A 
BRANCH  17  18
ATOM     18  O   UNL     1     181.005 180.022 180.451  1.00  0.00    -0.508 OA
ATOM     19  H   UNL     1     180.832 179.192 181.005  1.00  0.00     0.293 HD
ENDBRANCH  17  18
ENDBRANCH   2  12
BRANCH   8  20
ATOM     20  O   UNL     1     175.782 180.786 171.012  1.00  0.00    -0.507 OA
ATOM     21  H   UNL     1     174.810 180.903 170.768  1.00  0.00     0.293 HD
ENDBRANCH   8  20
BRANCH   6  22
ATOM     22  O   UNL     1     177.373 185.261 171.640  1.00  0.00    -0.508 OA
ATOM     23  H   UNL     1     177.642 186.022 172.254  1.00  0.00     0.293 HD
ENDBRANCH   6  22
TORSDOF 4
ENDMDL
