MODEL 1
REMARK VINA RESULT:    -4.673      0.000      0.000
REMARK INTER + INTRA:          -5.995
REMARK INTER:                  -5.766
REMARK INTRA:                  -0.229
REMARK UNBOUND:                -0.229
REMARK SMILES [NH3+][C@H](Cc1ccc(O)cc1)C(=O)[O-]
REMARK SMILES IDX 3 1 2 2 1 3 11 7 12 8 13 9 4 10 5 11 10 12 6 13 9 14 7 15
REMARK SMILES IDX 8 16
REMARK H PARENT 1 4 1 5 1 6 8 17
REMARK Flexibility Score: inf
ROOT
ATOM      1  C   UNL     1       7.442  -1.258  -8.970  1.00  0.00     0.107 C 
ENDROOT
BRANCH   1   2
ATOM      2  C   UNL     1       8.808  -1.253  -8.252  1.00  0.00     0.232 C 
BRANCH   2   3
ATOM      3  N   UNL     1       9.763  -0.358  -8.920  1.00  0.00    -0.350 N 
ATOM      4  H   UNL     1      10.669  -0.849  -9.099  1.00  0.00     0.345 HD
ATOM      5  H   UNL     1       9.939   0.483  -8.326  1.00  0.00     0.345 HD
ATOM      6  H   UNL     1       9.365  -0.030  -9.830  1.00  0.00     0.345 HD
ENDBRANCH   2   3
BRANCH   2   7
ATOM      7  C   UNL     1       8.622  -0.835  -6.819  1.00  0.00     0.099 C 
ATOM      8  O   UNL     1       8.548   0.385  -6.520  1.00  0.00    -0.544 OA
ATOM      9  O   UNL     1       8.551  -1.792  -5.813  1.00  0.00    -0.544 OA
ENDBRANCH   2   7
ENDBRANCH   1   2
BRANCH   1  10
ATOM     10  C   UNL     1       6.664  -2.520  -8.690  1.00  0.00    -0.041 A 
ATOM     11  C   UNL     1       7.060  -3.736  -9.270  1.00  0.00     0.008 A 
ATOM     12  C   UNL     1       5.518  -2.485  -7.878  1.00  0.00     0.008 A 
ATOM     13  C   UNL     1       6.327  -4.902  -9.030  1.00  0.00     0.046 A 
ATOM     14  C   UNL     1       4.787  -3.653  -7.641  1.00  0.00     0.046 A 
ATOM     15  C   UNL     1       5.191  -4.865  -8.216  1.00  0.00     0.115 A 
BRANCH  15  16
ATOM     16  O   UNL     1       4.469  -6.035  -7.986  1.00  0.00    -0.508 OA
ATOM     17  H   UNL     1       3.876  -6.441  -8.701  1.00  0.00     0.293 HD
ENDBRANCH  15  16
ENDBRANCH   1  10
TORSDOF 5
ENDMDL
MODEL 2
REMARK VINA RESULT:    -4.662      0.051      1.345
REMARK INTER + INTRA:          -5.981
REMARK INTER:                  -5.747
REMARK INTRA:                  -0.235
REMARK UNBOUND:                -0.229
REMARK SMILES [NH3+][C@H](Cc1ccc(O)cc1)C(=O)[O-]
REMARK SMILES IDX 3 1 2 2 1 3 11 7 12 8 13 9 4 10 5 11 10 12 6 13 9 14 7 15
REMARK SMILES IDX 8 16
REMARK H PARENT 1 4 1 5 1 6 8 17
REMARK Flexibility Score: inf
ROOT
ATOM      1  C   UNL     1       7.482  -1.234  -8.971  1.00  0.00     0.107 C 
ENDROOT
BRANCH   1   2
ATOM      2  C   UNL     1       8.837  -1.263  -8.233  1.00  0.00     0.232 C 
BRANCH   2   3
ATOM      3  N   UNL     1       9.822  -0.389  -8.884  1.00  0.00    -0.350 N 
ATOM      4  H   UNL     1       9.362   0.469  -9.267  1.00  0.00     0.345 HD
ATOM      5  H   UNL     1      10.297  -0.902  -9.661  1.00  0.00     0.345 HD
ATOM      6  H   UNL     1      10.556  -0.105  -8.193  1.00  0.00     0.345 HD
ENDBRANCH   2   3
BRANCH   2   7
ATOM      7  C   UNL     1       8.640  -0.844  -6.801  1.00  0.00     0.099 C 
ATOM      8  O   UNL     1       8.575   0.377  -6.501  1.00  0.00    -0.544 OA
ATOM      9  O   UNL     1       8.547  -1.802  -5.797  1.00  0.00    -0.544 OA
ENDBRANCH   2   7
ENDBRANCH   1   2
BRANCH   1  10
ATOM     10  C   UNL     1       6.688  -2.495  -8.737  1.00  0.00    -0.041 A 
ATOM     11  C   UNL     1       5.542  -2.468  -7.926  1.00  0.00     0.008 A 
ATOM     12  C   UNL     1       7.105  -3.714  -9.299  1.00  0.00     0.008 A 
ATOM     13  C   UNL     1       4.818  -3.640  -7.689  1.00  0.00     0.046 A 
ATOM     14  C   UNL     1       6.379  -4.885  -9.060  1.00  0.00     0.046 A 
ATOM     15  C   UNL     1       5.232  -4.850  -8.254  1.00  0.00     0.115 A 
BRANCH  15  16
ATOM     16  O   UNL     1       4.502  -6.011  -8.010  1.00  0.00    -0.508 OA
ATOM     17  H   UNL     1       3.521  -6.081  -8.256  1.00  0.00     0.293 HD
ENDBRANCH  15  16
ENDBRANCH   1  10
TORSDOF 5
ENDMDL
MODEL 3
REMARK VINA RESULT:    -4.512     14.492     15.882
REMARK INTER + INTRA:          -5.796
REMARK INTER:                  -5.575
REMARK INTRA:                  -0.220
REMARK UNBOUND:                -0.229
REMARK SMILES [NH3+][C@H](Cc1ccc(O)cc1)C(=O)[O-]
REMARK SMILES IDX 3 1 2 2 1 3 11 7 12 8 13 9 4 10 5 11 10 12 6 13 9 14 7 15
REMARK SMILES IDX 8 16
REMARK H PARENT 1 4 1 5 1 6 8 17
REMARK Flexibility Score: inf
ROOT
ATOM      1  C   UNL     1       1.978  -5.565   7.317  1.00  0.00     0.107 C 
ENDROOT
BRANCH   1   2
ATOM      2  C   UNL     1       1.348  -6.687   6.464  1.00  0.00     0.232 C 
BRANCH   2   3
ATOM      3  N   UNL     1       1.540  -8.005   7.083  1.00  0.00    -0.350 N 
ATOM      4  H   UNL     1       2.441  -8.435   6.771  1.00  0.00     0.345 HD
ATOM      5  H   UNL     1       0.750  -8.639   6.827  1.00  0.00     0.345 HD
ATOM      6  H   UNL     1       1.548  -7.910   8.125  1.00  0.00     0.345 HD
ENDBRANCH   2   3
BRANCH   2   7
ATOM      7  C   UNL     1      -0.119  -6.412   6.276  1.00  0.00     0.099 C 
ATOM      8  O   UNL     1      -0.782  -7.065   5.428  1.00  0.00    -0.544 OA
ATOM      9  O   UNL     1      -0.749  -5.423   7.023  1.00  0.00    -0.544 OA
ENDBRANCH   2   7
ENDBRANCH   1   2
BRANCH   1  10
ATOM     10  C   UNL     1       2.580  -4.479   6.461  1.00  0.00    -0.041 A 
ATOM     11  C   UNL     1       2.674  -3.165   6.948  1.00  0.00     0.008 A 
ATOM     12  C   UNL     1       3.021  -4.763   5.156  1.00  0.00     0.008 A 
ATOM     13  C   UNL     1       3.211  -2.153   6.147  1.00  0.00     0.046 A 
ATOM     14  C   UNL     1       3.557  -3.748   4.358  1.00  0.00     0.046 A 
ATOM     15  C   UNL     1       3.654  -2.440   4.852  1.00  0.00     0.115 A 
BRANCH  15  16
ATOM     16  O   UNL     1       4.186  -1.421   4.065  1.00  0.00    -0.508 OA
ATOM     17  H   UNL     1       4.405  -1.567   3.086  1.00  0.00     0.293 HD
ENDBRANCH  15  16
ENDBRANCH   1  10
TORSDOF 5
ENDMDL
MODEL 4
REMARK VINA RESULT:    -4.503     14.497     15.833
REMARK INTER + INTRA:          -5.784
REMARK INTER:                  -5.571
REMARK INTRA:                  -0.213
REMARK UNBOUND:                -0.229
REMARK SMILES [NH3+][C@H](Cc1ccc(O)cc1)C(=O)[O-]
REMARK SMILES IDX 3 1 2 2 1 3 11 7 12 8 13 9 4 10 5 11 10 12 6 13 9 14 7 15
REMARK SMILES IDX 8 16
REMARK H PARENT 1 4 1 5 1 6 8 17
REMARK Flexibility Score: inf
ROOT
ATOM      1  C   UNL     1       2.075  -5.636   7.290  1.00  0.00     0.107 C 
ENDROOT
BRANCH   1   2
ATOM      2  C   UNL     1       1.393  -6.714   6.421  1.00  0.00     0.232 C 
BRANCH   2   3
ATOM      3  N   UNL     1       1.576  -8.057   6.988  1.00  0.00    -0.350 N 
ATOM      4  H   UNL     1       2.259  -8.036   7.779  1.00  0.00     0.345 HD
ATOM      5  H   UNL     1       1.923  -8.712   6.251  1.00  0.00     0.345 HD
ATOM      6  H   UNL     1       0.659  -8.423   7.335  1.00  0.00     0.345 HD
ENDBRANCH   2   3
BRANCH   2   7
ATOM      7  C   UNL     1      -0.073  -6.402   6.291  1.00  0.00     0.099 C 
ATOM      8  O   UNL     1      -0.779  -7.015   5.448  1.00  0.00    -0.544 OA
ATOM      9  O   UNL     1      -0.655  -5.421   7.086  1.00  0.00    -0.544 OA
ENDBRANCH   2   7
ENDBRANCH   1   2
BRANCH   1  10
ATOM     10  C   UNL     1       2.616  -4.501   6.456  1.00  0.00    -0.041 A 
ATOM     11  C   UNL     1       3.053  -4.736   5.142  1.00  0.00     0.008 A 
ATOM     12  C   UNL     1       2.720  -3.208   6.996  1.00  0.00     0.008 A 
ATOM     13  C   UNL     1       3.576  -3.690   4.376  1.00  0.00     0.046 A 
ATOM     14  C   UNL     1       3.244  -2.164   6.227  1.00  0.00     0.046 A 
ATOM     15  C   UNL     1       3.673  -2.403   4.914  1.00  0.00     0.115 A 
BRANCH  15  16
ATOM     16  O   UNL     1       4.196  -1.370   4.140  1.00  0.00    -0.508 OA
ATOM     17  H   UNL     1       4.682  -0.586   4.560  1.00  0.00     0.293 HD
ENDBRANCH  15  16
ENDBRANCH   1  10
TORSDOF 5
ENDMDL
MODEL 5
REMARK VINA RESULT:    -4.294     14.923     16.115
REMARK INTER + INTRA:          -5.527
REMARK INTER:                  -5.528
REMARK INTRA:                   0.001
REMARK UNBOUND:                -0.229
REMARK SMILES [NH3+][C@H](Cc1ccc(O)cc1)C(=O)[O-]
REMARK SMILES IDX 3 1 2 2 1 3 11 7 12 8 13 9 4 10 5 11 10 12 6 13 9 14 7 15
REMARK SMILES IDX 8 16
REMARK H PARENT 1 4 1 5 1 6 8 17
REMARK Flexibility Score: inf
ROOT
ATOM      1  C   UNL     1       1.190  -3.577   7.396  1.00  0.00     0.107 C 
ENDROOT
BRANCH   1   2
ATOM      2  C   UNL     1       0.124  -4.405   6.648  1.00  0.00     0.232 C 
BRANCH   2   3
ATOM      3  N   UNL     1       0.589  -5.775   6.392  1.00  0.00    -0.350 N 
ATOM      4  H   UNL     1       0.556  -6.348   7.265  1.00  0.00     0.345 HD
ATOM      5  H   UNL     1       1.569  -5.757   6.028  1.00  0.00     0.345 HD
ATOM      6  H   UNL     1      -0.013  -6.224   5.663  1.00  0.00     0.345 HD
ENDBRANCH   2   3
BRANCH   2   7
ATOM      7  C   UNL     1      -1.148  -4.432   7.452  1.00  0.00     0.099 C 
ATOM      8  O   UNL     1      -1.865  -3.402   7.538  1.00  0.00    -0.544 OA
ATOM      9  O   UNL     1      -1.529  -5.590   8.121  1.00  0.00    -0.544 OA
ENDBRANCH   2   7
ENDBRANCH   1   2
BRANCH   1  10
ATOM     10  C   UNL     1       2.492  -3.519   6.637  1.00  0.00    -0.041 A 
ATOM     11  C   UNL     1       2.672  -2.573   5.615  1.00  0.00     0.008 A 
ATOM     12  C   UNL     1       3.523  -4.432   6.919  1.00  0.00     0.008 A 
ATOM     13  C   UNL     1       3.869  -2.533   4.894  1.00  0.00     0.046 A 
ATOM     14  C   UNL     1       4.719  -4.390   6.196  1.00  0.00     0.046 A 
ATOM     15  C   UNL     1       4.895  -3.439   5.181  1.00  0.00     0.115 A 
BRANCH  15  16
ATOM     16  O   UNL     1       6.083  -3.388   4.455  1.00  0.00    -0.508 OA
ATOM     17  H   UNL     1       6.949  -3.758   4.829  1.00  0.00     0.293 HD
ENDBRANCH  15  16
ENDBRANCH   1  10
TORSDOF 5
ENDMDL
MODEL 6
REMARK VINA RESULT:    -4.246      2.255      5.284
REMARK INTER + INTRA:          -5.468
REMARK INTER:                  -5.241
REMARK INTRA:                  -0.227
REMARK UNBOUND:                -0.229
REMARK SMILES [NH3+][C@H](Cc1ccc(O)cc1)C(=O)[O-]
REMARK SMILES IDX 3 1 2 2 1 3 11 7 12 8 13 9 4 10 5 11 10 12 6 13 9 14 7 15
REMARK SMILES IDX 8 16
REMARK H PARENT 1 4 1 5 1 6 8 17
REMARK Flexibility Score: inf
ROOT
ATOM      1  C   UNL     1       6.122  -2.912  -8.732  1.00  0.00     0.107 C 
ENDROOT
BRANCH   1   2
ATOM      2  C   UNL     1       5.528  -4.022  -7.839  1.00  0.00     0.232 C 
BRANCH   2   3
ATOM      3  N   UNL     1       4.088  -3.825  -7.624  1.00  0.00    -0.350 N 
ATOM      4  H   UNL     1       3.710  -4.540  -6.960  1.00  0.00     0.345 HD
ATOM      5  H   UNL     1       3.578  -3.897  -8.533  1.00  0.00     0.345 HD
ATOM      6  H   UNL     1       3.915  -2.870  -7.234  1.00  0.00     0.345 HD
ENDBRANCH   2   3
BRANCH   2   7
ATOM      7  C   UNL     1       5.778  -5.365  -8.470  1.00  0.00     0.099 C 
ATOM      8  O   UNL     1       6.586  -5.473  -9.429  1.00  0.00    -0.544 OA
ATOM      9  O   UNL     1       5.105  -6.492  -8.011  1.00  0.00    -0.544 OA
ENDBRANCH   2   7
ENDBRANCH   1   2
BRANCH   1  10
ATOM     10  C   UNL     1       7.193  -2.128  -8.017  1.00  0.00    -0.041 A 
ATOM     11  C   UNL     1       7.623  -2.522  -6.739  1.00  0.00     0.008 A 
ATOM     12  C   UNL     1       7.748  -0.978  -8.606  1.00  0.00     0.008 A 
ATOM     13  C   UNL     1       8.599  -1.783  -6.065  1.00  0.00     0.046 A 
ATOM     14  C   UNL     1       8.724  -0.241  -7.928  1.00  0.00     0.046 A 
ATOM     15  C   UNL     1       9.152  -0.642  -6.656  1.00  0.00     0.115 A 
BRANCH  15  16
ATOM     16  O   UNL     1      10.124   0.085  -5.973  1.00  0.00    -0.508 OA
ATOM     17  H   UNL     1      11.081  -0.242  -5.906  1.00  0.00     0.293 HD
ENDBRANCH  15  16
ENDBRANCH   1  10
TORSDOF 5
ENDMDL
MODEL 7
REMARK VINA RESULT:    -4.181     14.431     15.319
REMARK INTER + INTRA:          -5.387
REMARK INTER:                  -5.204
REMARK INTRA:                  -0.183
REMARK UNBOUND:                -0.229
REMARK SMILES [NH3+][C@H](Cc1ccc(O)cc1)C(=O)[O-]
REMARK SMILES IDX 3 1 2 2 1 3 11 7 12 8 13 9 4 10 5 11 10 12 6 13 9 14 7 15
REMARK SMILES IDX 8 16
REMARK H PARENT 1 4 1 5 1 6 8 17
REMARK Flexibility Score: inf
ROOT
ATOM      1  C   UNL     1       3.424  -2.831   6.423  1.00  0.00     0.107 C 
ENDROOT
BRANCH   1   2
ATOM      2  C   UNL     1       4.093  -3.306   5.116  1.00  0.00     0.232 C 
BRANCH   2   3
ATOM      3  N   UNL     1       4.335  -2.186   4.197  1.00  0.00    -0.350 N 
ATOM      4  H   UNL     1       3.485  -1.582   4.116  1.00  0.00     0.345 HD
ATOM      5  H   UNL     1       4.591  -2.549   3.251  1.00  0.00     0.345 HD
ATOM      6  H   UNL     1       5.135  -1.608   4.545  1.00  0.00     0.345 HD
ENDBRANCH   2   3
BRANCH   2   7
ATOM      7  C   UNL     1       5.389  -4.001   5.437  1.00  0.00     0.099 C 
ATOM      8  O   UNL     1       6.435  -3.716   4.798  1.00  0.00    -0.544 OA
ATOM      9  O   UNL     1       5.435  -4.976   6.428  1.00  0.00    -0.544 OA
ENDBRANCH   2   7
ENDBRANCH   1   2
BRANCH   1  10
ATOM     10  C   UNL     1       2.192  -3.637   6.750  1.00  0.00    -0.041 A 
ATOM     11  C   UNL     1       1.287  -3.182   7.722  1.00  0.00     0.008 A 
ATOM     12  C   UNL     1       1.956  -4.867   6.112  1.00  0.00     0.008 A 
ATOM     13  C   UNL     1       0.157  -3.939   8.043  1.00  0.00     0.046 A 
ATOM     14  C   UNL     1       0.825  -5.623   6.435  1.00  0.00     0.046 A 
ATOM     15  C   UNL     1      -0.078  -5.160   7.402  1.00  0.00     0.115 A 
BRANCH  15  16
ATOM     16  O   UNL     1      -1.208  -5.904   7.732  1.00  0.00    -0.508 OA
ATOM     17  H   UNL     1      -2.142  -5.574   7.517  1.00  0.00     0.293 HD
ENDBRANCH  15  16
ENDBRANCH   1  10
TORSDOF 5
ENDMDL
MODEL 8
REMARK VINA RESULT:    -4.161      2.386      5.211
REMARK INTER + INTRA:          -5.363
REMARK INTER:                  -5.141
REMARK INTRA:                  -0.222
REMARK UNBOUND:                -0.229
REMARK SMILES [NH3+][C@H](Cc1ccc(O)cc1)C(=O)[O-]
REMARK SMILES IDX 3 1 2 2 1 3 11 7 12 8 13 9 4 10 5 11 10 12 6 13 9 14 7 15
REMARK SMILES IDX 8 16
REMARK H PARENT 1 4 1 5 1 6 8 17
REMARK Flexibility Score: inf
ROOT
ATOM      1  C   UNL     1       7.128  -3.511  -7.335  1.00  0.00     0.107 C 
ENDROOT
BRANCH   1   2
ATOM      2  C   UNL     1       5.978  -3.578  -8.363  1.00  0.00     0.232 C 
BRANCH   2   3
ATOM      3  N   UNL     1       5.903  -4.900  -8.999  1.00  0.00    -0.350 N 
ATOM      4  H   UNL     1       6.824  -5.164  -9.418  1.00  0.00     0.345 HD
ATOM      5  H   UNL     1       5.174  -4.894  -9.749  1.00  0.00     0.345 HD
ATOM      6  H   UNL     1       5.628  -5.620  -8.291  1.00  0.00     0.345 HD
ENDBRANCH   2   3
BRANCH   2   7
ATOM      7  C   UNL     1       4.675  -3.256  -7.683  1.00  0.00     0.099 C 
ATOM      8  O   UNL     1       4.299  -3.926  -6.686  1.00  0.00    -0.544 OA
ATOM      9  O   UNL     1       3.869  -2.230  -8.162  1.00  0.00    -0.544 OA
ENDBRANCH   2   7
ENDBRANCH   1   2
BRANCH   1  10
ATOM     10  C   UNL     1       7.875  -2.203  -7.411  1.00  0.00    -0.041 A 
ATOM     11  C   UNL     1       7.895  -1.470  -8.609  1.00  0.00     0.008 A 
ATOM     12  C   UNL     1       8.585  -1.723  -6.297  1.00  0.00     0.008 A 
ATOM     13  C   UNL     1       8.606  -0.269  -8.688  1.00  0.00     0.046 A 
ATOM     14  C   UNL     1       9.296  -0.521  -6.380  1.00  0.00     0.046 A 
ATOM     15  C   UNL     1       9.307   0.209  -7.577  1.00  0.00     0.115 A 
BRANCH  15  16
ATOM     16  O   UNL     1      10.012   1.407  -7.670  1.00  0.00    -0.508 OA
ATOM     17  H   UNL     1      10.892   1.467  -8.169  1.00  0.00     0.293 HD
ENDBRANCH  15  16
ENDBRANCH   1  10
TORSDOF 5
ENDMDL
MODEL 9
REMARK VINA RESULT:    -4.101      2.804      5.156
REMARK INTER + INTRA:          -5.289
REMARK INTER:                  -5.079
REMARK INTRA:                  -0.210
REMARK UNBOUND:                -0.229
REMARK SMILES [NH3+][C@H](Cc1ccc(O)cc1)C(=O)[O-]
REMARK SMILES IDX 3 1 2 2 1 3 11 7 12 8 13 9 4 10 5 11 10 12 6 13 9 14 7 15
REMARK SMILES IDX 8 16
REMARK H PARENT 1 4 1 5 1 6 8 17
REMARK Flexibility Score: inf
ROOT
ATOM      1  C   UNL     1       6.835  -2.420  -7.477  1.00  0.00     0.107 C 
ENDROOT
BRANCH   1   2
ATOM      2  C   UNL     1       5.860  -3.391  -8.177  1.00  0.00     0.232 C 
BRANCH   2   3
ATOM      3  N   UNL     1       6.285  -4.788  -8.016  1.00  0.00    -0.350 N 
ATOM      4  H   UNL     1       6.281  -5.286  -8.935  1.00  0.00     0.345 HD
ATOM      5  H   UNL     1       5.645  -5.283  -7.353  1.00  0.00     0.345 HD
ATOM      6  H   UNL     1       7.250  -4.821  -7.612  1.00  0.00     0.345 HD
ENDBRANCH   2   3
BRANCH   2   7
ATOM      7  C   UNL     1       4.475  -3.204  -7.618  1.00  0.00     0.099 C 
ATOM      8  O   UNL     1       4.088  -3.897  -6.641  1.00  0.00    -0.544 OA
ATOM      9  O   UNL     1       3.608  -2.279  -8.189  1.00  0.00    -0.544 OA
ENDBRANCH   2   7
ENDBRANCH   1   2
BRANCH   1  10
ATOM     10  C   UNL     1       7.651  -1.631  -8.470  1.00  0.00    -0.041 A 
ATOM     11  C   UNL     1       7.302  -1.632  -9.830  1.00  0.00     0.008 A 
ATOM     12  C   UNL     1       8.788  -0.918  -8.051  1.00  0.00     0.008 A 
ATOM     13  C   UNL     1       8.072  -0.920 -10.755  1.00  0.00     0.046 A 
ATOM     14  C   UNL     1       9.556  -0.208  -8.979  1.00  0.00     0.046 A 
ATOM     15  C   UNL     1       9.198  -0.207 -10.334  1.00  0.00     0.115 A 
BRANCH  15  16
ATOM     16  O   UNL     1       9.956   0.498 -11.267  1.00  0.00    -0.508 OA
ATOM     17  H   UNL     1      10.553   1.269 -10.991  1.00  0.00     0.293 HD
ENDBRANCH  15  16
ENDBRANCH   1  10
TORSDOF 5
ENDMDL
