MODEL 1
REMARK VINA RESULT:    -2.531      0.000      0.000
REMARK INTER + INTRA:          -2.531
REMARK INTER:                  -2.531
REMARK INTRA:                   0.000
REMARK UNBOUND:                 0.000
REMARK SMILES CC(=O)[O-]
REMARK SMILES IDX 1 1 2 2 3 3 4 4
REMARK H PARENT
REMARK Flexibility Score: inf
ROOT
ATOM      1  C   UNL     1       4.244   3.771  -7.995  1.00  0.00     0.063 C 
ATOM      2  C   UNL     1       3.418   3.128  -9.057  1.00  0.00     0.038 C 
ATOM      3  O   UNL     1       3.398   1.875  -9.170  1.00  0.00    -0.550 OA
ATOM      4  O   UNL     1       2.626   3.908  -9.890  1.00  0.00    -0.550 OA
ENDROOT
TORSDOF 0
ENDMDL
MODEL 2
REMARK VINA RESULT:    -2.524      1.855      2.505
REMARK INTER + INTRA:          -2.524
REMARK INTER:                  -2.524
REMARK INTRA:                   0.000
REMARK UNBOUND:                 0.000
REMARK SMILES CC(=O)[O-]
REMARK SMILES IDX 1 1 2 2 3 3 4 4
REMARK H PARENT
REMARK Flexibility Score: inf
ROOT
ATOM      1  C   UNL     1       3.186   3.397  -9.328  1.00  0.00     0.063 C 
ATOM      2  C   UNL     1       3.938   3.272  -8.046  1.00  0.00     0.038 C 
ATOM      3  O   UNL     1       4.689   4.206  -7.660  1.00  0.00    -0.550 OA
ATOM      4  O   UNL     1       3.769   2.149  -7.247  1.00  0.00    -0.550 OA
ENDROOT
TORSDOF 0
ENDMDL
MODEL 3
REMARK VINA RESULT:    -2.414      1.783      2.039
REMARK INTER + INTRA:          -2.414
REMARK INTER:                  -2.414
REMARK INTRA:                   0.000
REMARK UNBOUND:                 0.000
REMARK SMILES CC(=O)[O-]
REMARK SMILES IDX 1 1 2 2 3 3 4 4
REMARK H PARENT
REMARK Flexibility Score: inf
ROOT
ATOM      1  C   UNL     1       3.393   1.983  -7.755  1.00  0.00     0.063 C 
ATOM      2  C   UNL     1       3.767   3.278  -8.394  1.00  0.00     0.038 C 
ATOM      3  O   UNL     1       3.182   3.657  -9.442  1.00  0.00    -0.550 OA
ATOM      4  O   UNL     1       4.722   4.095  -7.804  1.00  0.00    -0.550 OA
ENDROOT
TORSDOF 0
ENDMDL
MODEL 4
REMARK VINA RESULT:    -2.388     12.039     12.525
REMARK INTER + INTRA:          -2.388
REMARK INTER:                  -2.388
REMARK INTRA:                   0.000
REMARK UNBOUND:                 0.000
REMARK SMILES CC(=O)[O-]
REMARK SMILES IDX 1 1 2 2 3 3 4 4
REMARK H PARENT
REMARK Flexibility Score: inf
ROOT
ATOM      1  C   UNL     1      -5.055  10.281  -9.922  1.00  0.00     0.063 C 
ATOM      2  C   UNL     1      -5.728  11.539  -9.487  1.00  0.00     0.038 C 
ATOM      3  O   UNL     1      -5.092  12.625  -9.480  1.00  0.00    -0.550 OA
ATOM      4  O   UNL     1      -7.072  11.525  -9.140  1.00  0.00    -0.550 OA
ENDROOT
TORSDOF 0
ENDMDL
MODEL 5
REMARK VINA RESULT:    -2.379     12.061     12.337
REMARK INTER + INTRA:          -2.379
REMARK INTER:                  -2.379
REMARK INTRA:                   0.000
REMARK UNBOUND:                 0.000
REMARK SMILES CC(=O)[O-]
REMARK SMILES IDX 1 1 2 2 3 3 4 4
REMARK H PARENT
REMARK Flexibility Score: inf
ROOT
ATOM      1  C   UNL     1      -5.072  10.268 -10.001  1.00  0.00     0.063 C 
ATOM      2  C   UNL     1      -5.623  11.441  -9.265  1.00  0.00     0.038 C 
ATOM      3  O   UNL     1      -6.521  11.278  -8.398  1.00  0.00    -0.550 OA
ATOM      4  O   UNL     1      -5.111  12.711  -9.495  1.00  0.00    -0.550 OA
ENDROOT
TORSDOF 0
ENDMDL
MODEL 6
REMARK VINA RESULT:    -2.295     12.384     12.853
REMARK INTER + INTRA:          -2.295
REMARK INTER:                  -2.295
REMARK INTRA:                   0.000
REMARK UNBOUND:                 0.000
REMARK SMILES CC(=O)[O-]
REMARK SMILES IDX 1 1 2 2 3 3 4 4
REMARK H PARENT
REMARK Flexibility Score: inf
ROOT
ATOM      1  C   UNL     1      -6.651   9.347 -11.760  1.00  0.00     0.063 C 
ATOM      2  C   UNL     1      -7.546   9.553 -10.586  1.00  0.00     0.038 C 
ATOM      3  O   UNL     1      -7.813   8.591  -9.820  1.00  0.00    -0.550 OA
ATOM      4  O   UNL     1      -8.044  10.818 -10.304  1.00  0.00    -0.550 OA
ENDROOT
TORSDOF 0
ENDMDL
MODEL 7
REMARK VINA RESULT:    -2.278     10.789     11.291
REMARK INTER + INTRA:          -2.278
REMARK INTER:                  -2.278
REMARK INTRA:                   0.000
REMARK UNBOUND:                 0.000
REMARK SMILES CC(=O)[O-]
REMARK SMILES IDX 1 1 2 2 3 3 4 4
REMARK H PARENT
REMARK Flexibility Score: inf
ROOT
ATOM      1  C   UNL     1      -5.214  11.760  -9.453  1.00  0.00     0.063 C 
ATOM      2  C   UNL     1      -5.124  10.340  -9.901  1.00  0.00     0.038 C 
ATOM      3  O   UNL     1      -4.402   9.524  -9.271  1.00  0.00    -0.550 OA
ATOM      4  O   UNL     1      -5.879   9.902 -10.980  1.00  0.00    -0.550 OA
ENDROOT
TORSDOF 0
ENDMDL
MODEL 8
REMARK VINA RESULT:    -2.220     11.762     12.365
REMARK INTER + INTRA:          -2.220
REMARK INTER:                  -2.220
REMARK INTRA:                   0.000
REMARK UNBOUND:                 0.000
REMARK SMILES CC(=O)[O-]
REMARK SMILES IDX 1 1 2 2 3 3 4 4
REMARK H PARENT
REMARK Flexibility Score: inf
ROOT
ATOM      1  C   UNL     1      -5.311  10.377  -9.915  1.00  0.00     0.063 C 
ATOM      2  C   UNL     1      -6.606  10.155 -10.620  1.00  0.00     0.038 C 
ATOM      3  O   UNL     1      -7.663  10.676 -10.178  1.00  0.00    -0.550 OA
ATOM      4  O   UNL     1      -6.640   9.419 -11.797  1.00  0.00    -0.550 OA
ENDROOT
TORSDOF 0
ENDMDL
MODEL 9
REMARK VINA RESULT:    -2.216     11.672     11.957
REMARK INTER + INTRA:          -2.216
REMARK INTER:                  -2.216
REMARK INTRA:                   0.000
REMARK UNBOUND:                 0.000
REMARK SMILES CC(=O)[O-]
REMARK SMILES IDX 1 1 2 2 3 3 4 4
REMARK H PARENT
REMARK Flexibility Score: inf
ROOT
ATOM      1  C   UNL     1      -6.542   7.868 -10.310  1.00  0.00     0.063 C 
ATOM      2  C   UNL     1      -6.582   9.229 -10.918  1.00  0.00     0.038 C 
ATOM      3  O   UNL     1      -6.550   9.363 -12.169  1.00  0.00    -0.550 OA
ATOM      4  O   UNL     1      -6.708  10.350 -10.109  1.00  0.00    -0.550 OA
ENDROOT
TORSDOF 0
ENDMDL
