MODEL 1
REMARK VINA RESULT:    -4.310      0.000      0.000
REMARK INTER + INTRA:          -5.246
REMARK INTER:                  -4.940
REMARK INTRA:                  -0.306
REMARK UNBOUND:                -0.306
REMARK SMILES COC(=O)c1ccccc1O
REMARK SMILES IDX 5 1 6 2 7 3 8 4 9 5 10 6 3 7 4 8 2 9 1 10 11 11
REMARK H PARENT 11 12
REMARK Flexibility Score: inf
ROOT
ATOM      1  C   UNL     1      42.401 -40.490  -3.611  1.00  0.00     0.101 A 
ATOM      2  C   UNL     1      43.323 -41.119  -4.470  1.00  0.00     0.019 A 
ATOM      3  C   UNL     1      42.903 -41.683  -5.678  1.00  0.00     0.001 A 
ATOM      4  C   UNL     1      41.559 -41.627  -6.046  1.00  0.00     0.004 A 
ATOM      5  C   UNL     1      40.630 -41.009  -5.208  1.00  0.00     0.047 A 
ATOM      6  C   UNL     1      41.039 -40.439  -3.992  1.00  0.00     0.130 A 
ENDROOT
BRANCH   1   7
ATOM      7  C   UNL     1      42.884 -39.902  -2.336  1.00  0.00     0.341 C 
ATOM      8  O   UNL     1      43.368 -40.637  -1.431  1.00  0.00    -0.246 OA
BRANCH   7   9
ATOM      9  O   UNL     1      42.801 -38.519  -2.133  1.00  0.00    -0.465 OA
ATOM     10  C   UNL     1      43.184 -37.572  -3.122  1.00  0.00     0.282 C 
ENDBRANCH   7   9
ENDBRANCH   1   7
BRANCH   6  11
ATOM     11  O   UNL     1      40.089 -39.826  -3.174  1.00  0.00    -0.507 OA
ATOM     12  H   UNL     1      39.468 -39.106  -3.525  1.00  0.00     0.293 HD
ENDBRANCH   6  11
TORSDOF 3
ENDMDL
MODEL 2
REMARK VINA RESULT:    -4.263      0.876      1.650
REMARK INTER + INTRA:          -5.192
REMARK INTER:                  -4.945
REMARK INTRA:                  -0.247
REMARK UNBOUND:                -0.306
REMARK SMILES COC(=O)c1ccccc1O
REMARK SMILES IDX 5 1 6 2 7 3 8 4 9 5 10 6 3 7 4 8 2 9 1 10 11 11
REMARK H PARENT 11 12
REMARK Flexibility Score: inf
ROOT
ATOM      1  C   UNL     1      42.592 -40.533  -4.060  1.00  0.00     0.101 A 
ATOM      2  C   UNL     1      43.589 -41.261  -4.739  1.00  0.00     0.019 A 
ATOM      3  C   UNL     1      43.279 -42.001  -5.883  1.00  0.00     0.001 A 
ATOM      4  C   UNL     1      41.972 -42.026  -6.366  1.00  0.00     0.004 A 
ATOM      5  C   UNL     1      40.969 -41.312  -5.708  1.00  0.00     0.047 A 
ATOM      6  C   UNL     1      41.267 -40.565  -4.558  1.00  0.00     0.130 A 
ENDROOT
BRANCH   1   7
ATOM      7  C   UNL     1      42.958 -39.758  -2.848  1.00  0.00     0.341 C 
ATOM      8  O   UNL     1      42.996 -38.497  -2.876  1.00  0.00    -0.246 OA
BRANCH   7   9
ATOM      9  O   UNL     1      43.266 -40.433  -1.660  1.00  0.00    -0.465 OA
ATOM     10  C   UNL     1      42.332 -40.588  -0.599  1.00  0.00     0.282 C 
ENDBRANCH   7   9
ENDBRANCH   1   7
BRANCH   6  11
ATOM     11  O   UNL     1      40.246 -39.860  -3.920  1.00  0.00    -0.507 OA
ATOM     12  H   UNL     1      40.359 -38.892  -3.642  1.00  0.00     0.293 HD
ENDBRANCH   6  11
TORSDOF 3
ENDMDL
MODEL 3
REMARK VINA RESULT:    -4.175      1.548      3.714
REMARK INTER + INTRA:          -5.092
REMARK INTER:                  -4.804
REMARK INTRA:                  -0.288
REMARK UNBOUND:                -0.306
REMARK SMILES COC(=O)c1ccccc1O
REMARK SMILES IDX 5 1 6 2 7 3 8 4 9 5 10 6 3 7 4 8 2 9 1 10 11 11
REMARK H PARENT 11 12
REMARK Flexibility Score: inf
ROOT
ATOM      1  C   UNL     1      40.987 -40.814  -4.801  1.00  0.00     0.101 A 
ATOM      2  C   UNL     1      41.209 -41.628  -5.930  1.00  0.00     0.019 A 
ATOM      3  C   UNL     1      42.495 -42.072  -6.247  1.00  0.00     0.001 A 
ATOM      4  C   UNL     1      43.577 -41.711  -5.446  1.00  0.00     0.004 A 
ATOM      5  C   UNL     1      43.378 -40.905  -4.324  1.00  0.00     0.047 A 
ATOM      6  C   UNL     1      42.091 -40.452  -3.994  1.00  0.00     0.130 A 
ENDROOT
BRANCH   1   7
ATOM      7  C   UNL     1      39.606 -40.360  -4.495  1.00  0.00     0.341 C 
ATOM      8  O   UNL     1      39.349 -39.133  -4.348  1.00  0.00    -0.246 OA
BRANCH   7   9
ATOM      9  O   UNL     1      38.578 -41.302  -4.369  1.00  0.00    -0.465 OA
ATOM     10  C   UNL     1      37.251 -41.057  -4.816  1.00  0.00     0.282 C 
ENDBRANCH   7   9
ENDBRANCH   1   7
BRANCH   6  11
ATOM     11  O   UNL     1      41.920 -39.647  -2.867  1.00  0.00    -0.507 OA
ATOM     12  H   UNL     1      41.019 -39.254  -2.625  1.00  0.00     0.293 HD
ENDBRANCH   6  11
TORSDOF 3
ENDMDL
MODEL 4
REMARK VINA RESULT:    -4.155      1.392      3.080
REMARK INTER + INTRA:          -5.069
REMARK INTER:                  -4.713
REMARK INTRA:                  -0.356
REMARK UNBOUND:                -0.306
REMARK SMILES COC(=O)c1ccccc1O
REMARK SMILES IDX 5 1 6 2 7 3 8 4 9 5 10 6 3 7 4 8 2 9 1 10 11 11
REMARK H PARENT 11 12
REMARK Flexibility Score: inf
ROOT
ATOM      1  C   UNL     1      41.321 -40.495  -4.531  1.00  0.00     0.101 A 
ATOM      2  C   UNL     1      40.971 -41.268  -5.656  1.00  0.00     0.019 A 
ATOM      3  C   UNL     1      41.932 -42.028  -6.327  1.00  0.00     0.001 A 
ATOM      4  C   UNL     1      43.255 -42.028  -5.887  1.00  0.00     0.004 A 
ATOM      5  C   UNL     1      43.622 -41.269  -4.775  1.00  0.00     0.047 A 
ATOM      6  C   UNL     1      42.667 -40.501  -4.092  1.00  0.00     0.130 A 
ENDROOT
BRANCH   1   7
ATOM      7  C   UNL     1      40.272 -39.700  -3.843  1.00  0.00     0.341 C 
ATOM      8  O   UNL     1      39.497 -38.952  -4.501  1.00  0.00    -0.246 OA
BRANCH   7   9
ATOM      9  O   UNL     1      40.142 -39.779  -2.451  1.00  0.00    -0.465 OA
ATOM     10  C   UNL     1      39.783 -40.980  -1.779  1.00  0.00     0.282 C 
ENDBRANCH   7   9
ENDBRANCH   1   7
BRANCH   6  11
ATOM     11  O   UNL     1      43.061 -39.752  -2.983  1.00  0.00    -0.507 OA
ATOM     12  H   UNL     1      43.998 -39.377  -2.898  1.00  0.00     0.293 HD
ENDBRANCH   6  11
TORSDOF 3
ENDMDL
MODEL 5
REMARK VINA RESULT:    -3.976      1.607      2.463
REMARK INTER + INTRA:          -4.863
REMARK INTER:                  -4.513
REMARK INTRA:                  -0.350
REMARK UNBOUND:                -0.306
REMARK SMILES COC(=O)c1ccccc1O
REMARK SMILES IDX 5 1 6 2 7 3 8 4 9 5 10 6 3 7 4 8 2 9 1 10 11 11
REMARK H PARENT 11 12
REMARK Flexibility Score: inf
ROOT
ATOM      1  C   UNL     1      41.506 -40.281  -3.968  1.00  0.00     0.101 A 
ATOM      2  C   UNL     1      42.898 -40.493  -3.910  1.00  0.00     0.019 A 
ATOM      3  C   UNL     1      43.541 -41.273  -4.874  1.00  0.00     0.001 A 
ATOM      4  C   UNL     1      42.809 -41.853  -5.908  1.00  0.00     0.004 A 
ATOM      5  C   UNL     1      41.429 -41.656  -5.983  1.00  0.00     0.047 A 
ATOM      6  C   UNL     1      40.770 -40.875  -5.021  1.00  0.00     0.130 A 
ENDROOT
BRANCH   1   7
ATOM      7  C   UNL     1      40.856 -39.446  -2.926  1.00  0.00     0.341 C 
ATOM      8  O   UNL     1      41.251 -38.268  -2.707  1.00  0.00    -0.246 OA
BRANCH   7   9
ATOM      9  O   UNL     1      39.794 -39.971  -2.179  1.00  0.00    -0.465 OA
ATOM     10  C   UNL     1      39.916 -41.146  -1.389  1.00  0.00     0.282 C 
ENDBRANCH   7   9
ENDBRANCH   1   7
BRANCH   6  11
ATOM     11  O   UNL     1      39.389 -40.693  -5.120  1.00  0.00    -0.507 OA
ATOM     12  H   UNL     1      38.743 -41.175  -4.507  1.00  0.00     0.293 HD
ENDBRANCH   6  11
TORSDOF 3
ENDMDL
MODEL 6
REMARK VINA RESULT:    -3.929      1.506      1.960
REMARK INTER + INTRA:          -4.809
REMARK INTER:                  -4.453
REMARK INTRA:                  -0.356
REMARK UNBOUND:                -0.306
REMARK SMILES COC(=O)c1ccccc1O
REMARK SMILES IDX 5 1 6 2 7 3 8 4 9 5 10 6 3 7 4 8 2 9 1 10 11 11
REMARK H PARENT 11 12
REMARK Flexibility Score: inf
ROOT
ATOM      1  C   UNL     1      41.617 -40.255  -4.138  1.00  0.00     0.101 A 
ATOM      2  C   UNL     1      42.997 -40.527  -4.045  1.00  0.00     0.019 A 
ATOM      3  C   UNL     1      43.618 -41.385  -4.955  1.00  0.00     0.001 A 
ATOM      4  C   UNL     1      42.875 -41.984  -5.971  1.00  0.00     0.004 A 
ATOM      5  C   UNL     1      41.508 -41.729  -6.080  1.00  0.00     0.047 A 
ATOM      6  C   UNL     1      40.870 -40.869  -5.172  1.00  0.00     0.130 A 
ENDROOT
BRANCH   1   7
ATOM      7  C   UNL     1      40.991 -39.339  -3.152  1.00  0.00     0.341 C 
ATOM      8  O   UNL     1      41.220 -39.468  -1.918  1.00  0.00    -0.246 OA
BRANCH   7   9
ATOM      9  O   UNL     1      40.137 -38.321  -3.595  1.00  0.00    -0.465 OA
ATOM     10  C   UNL     1      40.587 -37.230  -4.387  1.00  0.00     0.282 C 
ENDBRANCH   7   9
ENDBRANCH   1   7
BRANCH   6  11
ATOM     11  O   UNL     1      39.502 -40.630  -5.304  1.00  0.00    -0.507 OA
ATOM     12  H   UNL     1      38.899 -41.257  -5.824  1.00  0.00     0.293 HD
ENDBRANCH   6  11
TORSDOF 3
ENDMDL
MODEL 7
REMARK VINA RESULT:    -3.884      1.472      2.698
REMARK INTER + INTRA:          -4.758
REMARK INTER:                  -4.626
REMARK INTRA:                  -0.132
REMARK UNBOUND:                -0.306
REMARK SMILES COC(=O)c1ccccc1O
REMARK SMILES IDX 5 1 6 2 7 3 8 4 9 5 10 6 3 7 4 8 2 9 1 10 11 11
REMARK H PARENT 11 12
REMARK Flexibility Score: inf
ROOT
ATOM      1  C   UNL     1      41.925 -40.387  -3.365  1.00  0.00     0.101 A 
ATOM      2  C   UNL     1      40.534 -40.412  -3.136  1.00  0.00     0.019 A 
ATOM      3  C   UNL     1      39.654 -40.830  -4.138  1.00  0.00     0.001 A 
ATOM      4  C   UNL     1      40.146 -41.229  -5.380  1.00  0.00     0.004 A 
ATOM      5  C   UNL     1      41.520 -41.211  -5.626  1.00  0.00     0.047 A 
ATOM      6  C   UNL     1      42.415 -40.793  -4.628  1.00  0.00     0.130 A 
ENDROOT
BRANCH   1   7
ATOM      7  C   UNL     1      42.829 -39.937  -2.277  1.00  0.00     0.341 C 
ATOM      8  O   UNL     1      43.012 -38.707  -2.060  1.00  0.00    -0.246 OA
BRANCH   7   9
ATOM      9  O   UNL     1      43.487 -40.885  -1.483  1.00  0.00    -0.465 OA
ATOM     10  C   UNL     1      43.107 -41.160  -0.140  1.00  0.00     0.282 C 
ENDBRANCH   7   9
ENDBRANCH   1   7
BRANCH   6  11
ATOM     11  O   UNL     1      43.784 -40.786  -4.901  1.00  0.00    -0.507 OA
ATOM     12  H   UNL     1      44.384 -40.030  -4.593  1.00  0.00     0.293 HD
ENDBRANCH   6  11
TORSDOF 3
ENDMDL
MODEL 8
REMARK VINA RESULT:    -3.654      2.293      3.545
REMARK INTER + INTRA:          -4.494
REMARK INTER:                  -4.218
REMARK INTRA:                  -0.276
REMARK UNBOUND:                -0.306
REMARK SMILES COC(=O)c1ccccc1O
REMARK SMILES IDX 5 1 6 2 7 3 8 4 9 5 10 6 3 7 4 8 2 9 1 10 11 11
REMARK H PARENT 11 12
REMARK Flexibility Score: inf
ROOT
ATOM      1  C   UNL     1      40.077 -40.510  -4.813  1.00  0.00     0.101 A 
ATOM      2  C   UNL     1      39.715 -39.942  -6.051  1.00  0.00     0.019 A 
ATOM      3  C   UNL     1      38.371 -39.752  -6.382  1.00  0.00     0.001 A 
ATOM      4  C   UNL     1      37.370 -40.125  -5.487  1.00  0.00     0.004 A 
ATOM      5  C   UNL     1      37.708 -40.690  -4.256  1.00  0.00     0.047 A 
ATOM      6  C   UNL     1      39.054 -40.887  -3.911  1.00  0.00     0.130 A 
ENDROOT
BRANCH   1   7
ATOM      7  C   UNL     1      41.516 -40.697  -4.496  1.00  0.00     0.341 C 
ATOM      8  O   UNL     1      41.968 -40.395  -3.357  1.00  0.00    -0.246 OA
BRANCH   7   9
ATOM      9  O   UNL     1      42.380 -41.214  -5.469  1.00  0.00    -0.465 OA
ATOM     10  C   UNL     1      43.704 -41.641  -5.174  1.00  0.00     0.282 C 
ENDBRANCH   7   9
ENDBRANCH   1   7
BRANCH   6  11
ATOM     11  O   UNL     1      39.365 -41.453  -2.674  1.00  0.00    -0.507 OA
ATOM     12  H   UNL     1      39.107 -42.405  -2.444  1.00  0.00     0.293 HD
ENDBRANCH   6  11
TORSDOF 3
ENDMDL
MODEL 9
REMARK VINA RESULT:    -3.568     21.484     22.700
REMARK INTER + INTRA:          -4.396
REMARK INTER:                  -4.067
REMARK INTRA:                  -0.329
REMARK UNBOUND:                -0.306
REMARK SMILES COC(=O)c1ccccc1O
REMARK SMILES IDX 5 1 6 2 7 3 8 4 9 5 10 6 3 7 4 8 2 9 1 10 11 11
REMARK H PARENT 11 12
REMARK Flexibility Score: inf
ROOT
ATOM      1  C   UNL     1      26.673 -24.221  -7.096  1.00  0.00     0.101 A 
ATOM      2  C   UNL     1      26.361 -23.277  -6.097  1.00  0.00     0.019 A 
ATOM      3  C   UNL     1      25.040 -22.875  -5.883  1.00  0.00     0.001 A 
ATOM      4  C   UNL     1      24.013 -23.407  -6.660  1.00  0.00     0.004 A 
ATOM      5  C   UNL     1      24.301 -24.343  -7.654  1.00  0.00     0.047 A 
ATOM      6  C   UNL     1      25.623 -24.756  -7.880  1.00  0.00     0.130 A 
ENDROOT
BRANCH   1   7
ATOM      7  C   UNL     1      28.089 -24.624  -7.295  1.00  0.00     0.341 C 
ATOM      8  O   UNL     1      29.000 -23.755  -7.375  1.00  0.00    -0.246 OA
BRANCH   7   9
ATOM      9  O   UNL     1      28.416 -25.982  -7.395  1.00  0.00    -0.465 OA
ATOM     10  C   UNL     1      29.294 -26.490  -8.392  1.00  0.00     0.282 C 
ENDBRANCH   7   9
ENDBRANCH   1   7
BRANCH   6  11
ATOM     11  O   UNL     1      25.884 -25.693  -8.880  1.00  0.00    -0.507 OA
ATOM     12  H   UNL     1      26.647 -25.575  -9.536  1.00  0.00     0.293 HD
ENDBRANCH   6  11
TORSDOF 3
ENDMDL
