MODEL 1
REMARK VINA RESULT:    -3.698      0.000      0.000
REMARK INTER + INTRA:          -4.189
REMARK INTER:                  -4.454
REMARK INTRA:                   0.265
REMARK UNBOUND:                 0.265
REMARK SMILES O=c1c(O)c(-c2ccc(O)cc2O)oc2cc(O)cc(O)c12
REMARK SMILES IDX 5 1 3 2 2 3 1 4 22 5 20 6 19 7 17 8 16 9 15 10 14 11 6 12
REMARK SMILES IDX 8 13 7 14 9 15 11 16 12 17 10 18 13 20 4 22 21 24 18 26
REMARK H PARENT 10 19 13 21 4 23 21 25 18 27
REMARK Flexibility Score: inf
ROOT
ATOM      1  C   UNL     1      22.561  45.313  28.470  1.00  0.00     0.184 A 
ATOM      2  C   UNL     1      22.807  46.515  27.783  1.00  0.00     0.208 A 
ATOM      3  C   UNL     1      22.893  46.490  26.382  1.00  0.00     0.238 A 
ATOM      4  O   UNL     1      23.125  47.560  25.756  1.00  0.00    -0.285 OA
ATOM      5  C   UNL     1      22.713  45.272  25.695  1.00  0.00     0.111 A 
ATOM      6  C   UNL     1      22.781  45.161  24.285  1.00  0.00     0.134 A 
ATOM      7  C   UNL     1      22.580  43.913  23.676  1.00  0.00     0.093 A 
ATOM      8  C   UNL     1      22.314  42.776  24.448  1.00  0.00     0.123 A 
ATOM      9  C   UNL     1      22.246  42.881  25.838  1.00  0.00     0.094 A 
ATOM     10  C   UNL     1      22.445  44.115  26.466  1.00  0.00     0.146 A 
ATOM     11  O   UNL     1      22.380  44.184  27.791  1.00  0.00    -0.451 OA
ENDROOT
BRANCH   1  12
ATOM     12  C   UNL     1      22.470  45.267  29.943  1.00  0.00     0.063 A 
ATOM     13  C   UNL     1      23.055  46.243  32.093  1.00  0.00     0.047 A 
ATOM     14  C   UNL     1      23.125  46.254  30.697  1.00  0.00     0.020 A 
ATOM     15  C   UNL     1      22.319  45.256  32.752  1.00  0.00     0.119 A 
ATOM     16  C   UNL     1      21.641  44.280  32.009  1.00  0.00     0.093 A 
ATOM     17  C   UNL     1      21.702  44.287  30.606  1.00  0.00     0.130 A 
BRANCH  15  18
ATOM     18  O   UNL     1      22.261  45.255  34.143  1.00  0.00    -0.508 OA
ATOM     19  H   UNL     1      21.518  44.780  34.643  1.00  0.00     0.293 HD
ENDBRANCH  15  18
BRANCH  17  20
ATOM     20  O   UNL     1      20.984  43.341  29.876  1.00  0.00    -0.507 OA
ATOM     21  H   UNL     1      21.443  42.563  29.416  1.00  0.00     0.293 HD
ENDBRANCH  17  20
ENDBRANCH   1  12
BRANCH   2  22
ATOM     22  O   UNL     1      22.937  47.713  28.490  1.00  0.00    -0.502 OA
ATOM     23  H   UNL     1      22.323  47.960  29.257  1.00  0.00     0.293 HD
ENDBRANCH   2  22
BRANCH   6  24
ATOM     24  O   UNL     1      23.043  46.276  23.489  1.00  0.00    -0.507 OA
ATOM     25  H   UNL     1      23.748  46.959  23.744  1.00  0.00     0.293 HD
ENDBRANCH   6  24
BRANCH   8  26
ATOM     26  O   UNL     1      22.115  41.538  23.842  1.00  0.00    -0.508 OA
ATOM     27  H   UNL     1      21.240  41.035  23.940  1.00  0.00     0.293 HD
ENDBRANCH   8  26
TORSDOF 6
ENDMDL
MODEL 2
REMARK VINA RESULT:    -3.279      1.971      2.716
REMARK INTER + INTRA:          -3.685
REMARK INTER:                  -3.825
REMARK INTRA:                   0.140
REMARK UNBOUND:                 0.265
REMARK SMILES O=c1c(O)c(-c2ccc(O)cc2O)oc2cc(O)cc(O)c12
REMARK SMILES IDX 5 1 3 2 2 3 1 4 22 5 20 6 19 7 17 8 16 9 15 10 14 11 6 12
REMARK SMILES IDX 8 13 7 14 9 15 11 16 12 17 10 18 13 20 4 22 21 24 18 26
REMARK H PARENT 10 19 13 21 4 23 21 25 18 27
REMARK Flexibility Score: inf
ROOT
ATOM      1  C   UNL     1      22.152  44.612  30.082  1.00  0.00     0.184 A 
ATOM      2  C   UNL     1      22.613  45.276  28.932  1.00  0.00     0.208 A 
ATOM      3  C   UNL     1      22.609  44.591  27.707  1.00  0.00     0.238 A 
ATOM      4  O   UNL     1      23.031  45.173  26.670  1.00  0.00    -0.285 OA
ATOM      5  C   UNL     1      22.127  43.267  27.651  1.00  0.00     0.111 A 
ATOM      6  C   UNL     1      22.085  42.508  26.456  1.00  0.00     0.134 A 
ATOM      7  C   UNL     1      21.582  41.199  26.481  1.00  0.00     0.093 A 
ATOM      8  C   UNL     1      21.119  40.635  27.676  1.00  0.00     0.123 A 
ATOM      9  C   UNL     1      21.159  41.379  28.856  1.00  0.00     0.094 A 
ATOM     10  C   UNL     1      21.659  42.686  28.853  1.00  0.00     0.146 A 
ATOM     11  O   UNL     1      21.689  43.369  29.992  1.00  0.00    -0.451 OA
ENDROOT
BRANCH   1  12
ATOM     12  C   UNL     1      22.140  45.270  31.405  1.00  0.00     0.063 A 
ATOM     13  C   UNL     1      23.125  46.890  32.928  1.00  0.00     0.047 A 
ATOM     14  C   UNL     1      23.110  46.244  31.689  1.00  0.00     0.020 A 
ATOM     15  C   UNL     1      22.162  46.582  33.892  1.00  0.00     0.119 A 
ATOM     16  C   UNL     1      21.174  45.629  33.610  1.00  0.00     0.093 A 
ATOM     17  C   UNL     1      21.150  44.980  32.366  1.00  0.00     0.130 A 
BRANCH  15  18
ATOM     18  O   UNL     1      22.191  47.230  35.124  1.00  0.00    -0.508 OA
ATOM     19  H   UNL     1      21.472  47.892  35.392  1.00  0.00     0.293 HD
ENDBRANCH  15  18
BRANCH  17  20
ATOM     20  O   UNL     1      20.133  44.070  32.079  1.00  0.00    -0.507 OA
ATOM     21  H   UNL     1      20.239  43.363  31.360  1.00  0.00     0.293 HD
ENDBRANCH  17  20
ENDBRANCH   1  12
BRANCH   2  22
ATOM     22  O   UNL     1      23.042  46.603  29.012  1.00  0.00    -0.502 OA
ATOM     23  H   UNL     1      22.784  47.299  28.323  1.00  0.00     0.293 HD
ENDBRANCH   2  22
BRANCH   6  24
ATOM     24  O   UNL     1      22.537  43.044  25.249  1.00  0.00    -0.507 OA
ATOM     25  H   UNL     1      22.083  43.841  24.817  1.00  0.00     0.293 HD
ENDBRANCH   6  24
BRANCH   8  26
ATOM     26  O   UNL     1      20.620  39.335  27.700  1.00  0.00    -0.508 OA
ATOM     27  H   UNL     1      20.770  38.695  26.929  1.00  0.00     0.293 HD
ENDBRANCH   8  26
TORSDOF 6
ENDMDL
MODEL 3
REMARK VINA RESULT:    -2.975      1.888      2.549
REMARK INTER + INTRA:          -3.319
REMARK INTER:                  -3.458
REMARK INTRA:                   0.139
REMARK UNBOUND:                 0.265
REMARK SMILES O=c1c(O)c(-c2ccc(O)cc2O)oc2cc(O)cc(O)c12
REMARK SMILES IDX 5 1 3 2 2 3 1 4 22 5 20 6 19 7 17 8 16 9 15 10 14 11 6 12
REMARK SMILES IDX 8 13 7 14 9 15 11 16 12 17 10 18 13 20 4 22 21 24 18 26
REMARK H PARENT 10 19 13 21 4 23 21 25 18 27
REMARK Flexibility Score: inf
ROOT
ATOM      1  C   UNL     1      22.152  44.555  29.964  1.00  0.00     0.184 A 
ATOM      2  C   UNL     1      22.644  45.258  28.850  1.00  0.00     0.208 A 
ATOM      3  C   UNL     1      22.646  44.626  27.596  1.00  0.00     0.238 A 
ATOM      4  O   UNL     1      23.096  45.243  26.592  1.00  0.00    -0.285 OA
ATOM      5  C   UNL     1      22.138  43.316  27.476  1.00  0.00     0.111 A 
ATOM      6  C   UNL     1      22.099  42.610  26.249  1.00  0.00     0.134 A 
ATOM      7  C   UNL     1      21.569  41.313  26.210  1.00  0.00     0.093 A 
ATOM      8  C   UNL     1      21.076  40.708  27.373  1.00  0.00     0.123 A 
ATOM      9  C   UNL     1      21.112  41.399  28.584  1.00  0.00     0.094 A 
ATOM     10  C   UNL     1      21.639  42.694  28.645  1.00  0.00     0.146 A 
ATOM     11  O   UNL     1      21.665  43.327  29.813  1.00  0.00    -0.451 OA
ENDROOT
BRANCH   1  12
ATOM     12  C   UNL     1      22.133  45.156  31.313  1.00  0.00     0.063 A 
ATOM     13  C   UNL     1      23.123  46.693  32.917  1.00  0.00     0.047 A 
ATOM     14  C   UNL     1      23.114  46.101  31.651  1.00  0.00     0.020 A 
ATOM     15  C   UNL     1      22.143  46.359  33.855  1.00  0.00     0.119 A 
ATOM     16  C   UNL     1      21.144  45.435  33.520  1.00  0.00     0.093 A 
ATOM     17  C   UNL     1      21.126  44.840  32.249  1.00  0.00     0.130 A 
BRANCH  15  18
ATOM     18  O   UNL     1      22.165  46.954  35.114  1.00  0.00    -0.508 OA
ATOM     19  H   UNL     1      22.006  46.416  35.958  1.00  0.00     0.293 HD
ENDBRANCH  15  18
BRANCH  17  20
ATOM     20  O   UNL     1      20.099  43.959  31.910  1.00  0.00    -0.507 OA
ATOM     21  H   UNL     1      19.555  44.077  31.063  1.00  0.00     0.293 HD
ENDBRANCH  17  20
ENDBRANCH   1  12
BRANCH   2  22
ATOM     22  O   UNL     1      23.100  46.571  28.994  1.00  0.00    -0.502 OA
ATOM     23  H   UNL     1      23.335  47.153  28.199  1.00  0.00     0.293 HD
ENDBRANCH   2  22
BRANCH   6  24
ATOM     24  O   UNL     1      22.581  43.188  25.074  1.00  0.00    -0.507 OA
ATOM     25  H   UNL     1      23.537  43.050  24.765  1.00  0.00     0.293 HD
ENDBRANCH   6  24
BRANCH   8  26
ATOM     26  O   UNL     1      20.549  39.419  27.333  1.00  0.00    -0.508 OA
ATOM     27  H   UNL     1      21.016  38.642  27.787  1.00  0.00     0.293 HD
ENDBRANCH   8  26
TORSDOF 6
ENDMDL
MODEL 4
REMARK VINA RESULT:    -2.588      2.021      4.099
REMARK INTER + INTRA:          -2.852
REMARK INTER:                  -3.305
REMARK INTRA:                   0.453
REMARK UNBOUND:                 0.265
REMARK SMILES O=c1c(O)c(-c2ccc(O)cc2O)oc2cc(O)cc(O)c12
REMARK SMILES IDX 5 1 3 2 2 3 1 4 22 5 20 6 19 7 17 8 16 9 15 10 14 11 6 12
REMARK SMILES IDX 8 13 7 14 9 15 11 16 12 17 10 18 13 20 4 22 21 24 18 26
REMARK H PARENT 10 19 13 21 4 23 21 25 18 27
REMARK Flexibility Score: inf
ROOT
ATOM      1  C   UNL     1      21.573  43.722  30.303  1.00  0.00     0.184 A 
ATOM      2  C   UNL     1      21.164  42.392  30.507  1.00  0.00     0.208 A 
ATOM      3  C   UNL     1      21.129  41.519  29.409  1.00  0.00     0.238 A 
ATOM      4  O   UNL     1      20.753  40.326  29.578  1.00  0.00    -0.285 OA
ATOM      5  C   UNL     1      21.521  41.983  28.137  1.00  0.00     0.111 A 
ATOM      6  C   UNL     1      21.518  41.166  26.980  1.00  0.00     0.134 A 
ATOM      7  C   UNL     1      21.932  41.700  25.751  1.00  0.00     0.093 A 
ATOM      8  C   UNL     1      22.348  43.034  25.656  1.00  0.00     0.123 A 
ATOM      9  C   UNL     1      22.352  43.842  26.793  1.00  0.00     0.094 A 
ATOM     10  C   UNL     1      21.942  43.330  28.028  1.00  0.00     0.146 A 
ATOM     11  O   UNL     1      21.951  44.124  29.093  1.00  0.00    -0.451 OA
ENDROOT
BRANCH   1  12
ATOM     12  C   UNL     1      21.621  44.697  31.412  1.00  0.00     0.063 A 
ATOM     13  C   UNL     1      20.966  45.305  33.674  1.00  0.00     0.047 A 
ATOM     14  C   UNL     1      20.936  44.407  32.603  1.00  0.00     0.020 A 
ATOM     15  C   UNL     1      21.690  46.495  33.574  1.00  0.00     0.119 A 
ATOM     16  C   UNL     1      22.397  46.783  32.399  1.00  0.00     0.093 A 
ATOM     17  C   UNL     1      22.377  45.884  31.321  1.00  0.00     0.130 A 
BRANCH  15  18
ATOM     18  O   UNL     1      21.707  47.382  34.647  1.00  0.00    -0.508 OA
ATOM     19  H   UNL     1      22.536  47.917  34.880  1.00  0.00     0.293 HD
ENDBRANCH  15  18
BRANCH  17  20
ATOM     20  O   UNL     1      23.124  46.158  30.176  1.00  0.00    -0.507 OA
ATOM     21  H   UNL     1      24.137  46.122  30.179  1.00  0.00     0.293 HD
ENDBRANCH  17  20
ENDBRANCH   1  12
BRANCH   2  22
ATOM     22  O   UNL     1      20.825  41.951  31.788  1.00  0.00    -0.502 OA
ATOM     23  H   UNL     1      21.216  41.109  32.193  1.00  0.00     0.293 HD
ENDBRANCH   2  22
BRANCH   6  24
ATOM     24  O   UNL     1      21.111  39.833  27.043  1.00  0.00    -0.507 OA
ATOM     25  H   UNL     1      21.777  39.077  27.149  1.00  0.00     0.293 HD
ENDBRANCH   6  24
BRANCH   8  26
ATOM     26  O   UNL     1      22.759  43.564  24.435  1.00  0.00    -0.508 OA
ATOM     27  H   UNL     1      22.101  43.736  23.684  1.00  0.00     0.293 HD
ENDBRANCH   8  26
TORSDOF 6
ENDMDL
MODEL 5
REMARK VINA RESULT:    -1.617      1.361      3.124
REMARK INTER + INTRA:          -1.683
REMARK INTER:                  -2.193
REMARK INTRA:                   0.510
REMARK UNBOUND:                 0.265
REMARK SMILES O=c1c(O)c(-c2ccc(O)cc2O)oc2cc(O)cc(O)c12
REMARK SMILES IDX 5 1 3 2 2 3 1 4 22 5 20 6 19 7 17 8 16 9 15 10 14 11 6 12
REMARK SMILES IDX 8 13 7 14 9 15 11 16 12 17 10 18 13 20 4 22 21 24 18 26
REMARK H PARENT 10 19 13 21 4 23 21 25 18 27
REMARK Flexibility Score: inf
ROOT
ATOM      1  C   UNL     1      22.172  44.745  29.805  1.00  0.00     0.184 A 
ATOM      2  C   UNL     1      21.943  43.384  29.532  1.00  0.00     0.208 A 
ATOM      3  C   UNL     1      21.972  42.946  28.199  1.00  0.00     0.238 A 
ATOM      4  O   UNL     1      21.756  41.730  27.941  1.00  0.00    -0.285 OA
ATOM      5  C   UNL     1      22.249  43.868  27.169  1.00  0.00     0.111 A 
ATOM      6  C   UNL     1      22.300  43.508  25.800  1.00  0.00     0.134 A 
ATOM      7  C   UNL     1      22.592  44.483  24.835  1.00  0.00     0.093 A 
ATOM      8  C   UNL     1      22.833  45.809  25.211  1.00  0.00     0.123 A 
ATOM      9  C   UNL     1      22.783  46.169  26.559  1.00  0.00     0.094 A 
ATOM     10  C   UNL     1      22.492  45.213  27.537  1.00  0.00     0.146 A 
ATOM     11  O   UNL     1      22.446  45.585  28.811  1.00  0.00    -0.451 OA
ENDROOT
BRANCH   1  12
ATOM     12  C   UNL     1      22.145  45.274  31.183  1.00  0.00     0.063 A 
ATOM     13  C   UNL     1      23.125  46.725  32.871  1.00  0.00     0.047 A 
ATOM     14  C   UNL     1      23.125  46.199  31.577  1.00  0.00     0.020 A 
ATOM     15  C   UNL     1      22.138  46.344  33.784  1.00  0.00     0.119 A 
ATOM     16  C   UNL     1      21.141  45.440  33.395  1.00  0.00     0.093 A 
ATOM     17  C   UNL     1      21.131  44.912  32.095  1.00  0.00     0.130 A 
BRANCH  15  18
ATOM     18  O   UNL     1      22.153  46.873  35.073  1.00  0.00    -0.508 OA
ATOM     19  H   UNL     1      21.513  46.546  35.787  1.00  0.00     0.293 HD
ENDBRANCH  15  18
BRANCH  17  20
ATOM     20  O   UNL     1      20.106  44.052  31.703  1.00  0.00    -0.507 OA
ATOM     21  H   UNL     1      20.168  43.500  30.856  1.00  0.00     0.293 HD
ENDBRANCH  17  20
ENDBRANCH   1  12
BRANCH   2  22
ATOM     22  O   UNL     1      21.715  42.487  30.579  1.00  0.00    -0.502 OA
ATOM     23  H   UNL     1      20.784  42.207  30.860  1.00  0.00     0.293 HD
ENDBRANCH   2  22
BRANCH   6  24
ATOM     24  O   UNL     1      22.066  42.193  25.395  1.00  0.00    -0.507 OA
ATOM     25  H   UNL     1      22.319  41.403  25.977  1.00  0.00     0.293 HD
ENDBRANCH   6  24
BRANCH   8  26
ATOM     26  O   UNL     1      23.123  46.777  24.252  1.00  0.00    -0.508 OA
ATOM     27  H   UNL     1      22.982  46.603  23.264  1.00  0.00     0.293 HD
ENDBRANCH   8  26
TORSDOF 6
ENDMDL
MODEL 6
REMARK VINA RESULT:    -1.312      1.837      7.261
REMARK INTER + INTRA:          -1.315
REMARK INTER:                  -1.916
REMARK INTRA:                   0.600
REMARK UNBOUND:                 0.265
REMARK SMILES O=c1c(O)c(-c2ccc(O)cc2O)oc2cc(O)cc(O)c12
REMARK SMILES IDX 5 1 3 2 2 3 1 4 22 5 20 6 19 7 17 8 16 9 15 10 14 11 6 12
REMARK SMILES IDX 8 13 7 14 9 15 11 16 12 17 10 18 13 20 4 22 21 24 18 26
REMARK H PARENT 10 19 13 21 4 23 21 25 18 27
REMARK Flexibility Score: inf
ROOT
ATOM      1  C   UNL     1      21.911  43.035  27.405  1.00  0.00     0.184 A 
ATOM      2  C   UNL     1      21.455  41.797  27.892  1.00  0.00     0.208 A 
ATOM      3  C   UNL     1      21.170  41.671  29.261  1.00  0.00     0.238 A 
ATOM      4  O   UNL     1      20.771  40.563  29.711  1.00  0.00    -0.285 OA
ATOM      5  C   UNL     1      21.326  42.786  30.110  1.00  0.00     0.111 A 
ATOM      6  C   UNL     1      21.056  42.744  31.500  1.00  0.00     0.134 A 
ATOM      7  C   UNL     1      21.227  43.900  32.276  1.00  0.00     0.093 A 
ATOM      8  C   UNL     1      21.661  45.095  31.690  1.00  0.00     0.123 A 
ATOM      9  C   UNL     1      21.928  45.141  30.321  1.00  0.00     0.094 A 
ATOM     10  C   UNL     1      21.766  43.999  29.529  1.00  0.00     0.146 A 
ATOM     11  O   UNL     1      22.032  44.071  28.230  1.00  0.00    -0.451 OA
ENDROOT
BRANCH   1  12
ATOM     12  C   UNL     1      22.241  43.233  25.979  1.00  0.00     0.063 A 
ATOM     13  C   UNL     1      22.416  42.302  23.739  1.00  0.00     0.047 A 
ATOM     14  C   UNL     1      22.118  42.149  25.095  1.00  0.00     0.020 A 
ATOM     15  C   UNL     1      22.827  43.543  23.246  1.00  0.00     0.119 A 
ATOM     16  C   UNL     1      22.929  44.638  24.114  1.00  0.00     0.093 A 
ATOM     17  C   UNL     1      22.626  44.493  25.477  1.00  0.00     0.130 A 
BRANCH  15  18
ATOM     18  O   UNL     1      23.124  43.681  21.892  1.00  0.00    -0.508 OA
ATOM     19  H   UNL     1      23.542  42.925  21.361  1.00  0.00     0.293 HD
ENDBRANCH  15  18
BRANCH  17  20
ATOM     20  O   UNL     1      22.684  45.601  26.321  1.00  0.00    -0.507 OA
ATOM     21  H   UNL     1      21.845  46.080  26.630  1.00  0.00     0.293 HD
ENDBRANCH  17  20
ENDBRANCH   1  12
BRANCH   2  22
ATOM     22  O   UNL     1      21.268  40.724  27.017  1.00  0.00    -0.502 OA
ATOM     23  H   UNL     1      21.688  40.696  26.096  1.00  0.00     0.293 HD
ENDBRANCH   2  22
BRANCH   6  24
ATOM     24  O   UNL     1      20.621  41.568  32.111  1.00  0.00    -0.507 OA
ATOM     25  H   UNL     1      20.611  40.683  31.618  1.00  0.00     0.293 HD
ENDBRANCH   6  24
BRANCH   8  26
ATOM     26  O   UNL     1      21.830  46.243  32.461  1.00  0.00    -0.508 OA
ATOM     27  H   UNL     1      22.752  46.599  32.687  1.00  0.00     0.293 HD
ENDBRANCH   8  26
TORSDOF 6
ENDMDL
