MODEL 1
REMARK VINA RESULT:    -4.945      0.000      0.000
REMARK INTER + INTRA:          -6.712
REMARK INTER:                  -6.969
REMARK INTRA:                   0.256
REMARK UNBOUND:                 0.256
REMARK SMILES CC1=CCC(=C(C)C)C(=O)CC(C)=CCC1
REMARK SMILES IDX 12 1 14 2 13 3 15 4 16 5 2 6 1 7 3 8 11 10 9 11 10 12 5 13
REMARK SMILES IDX 6 14 7 15 8 16 4 17
REMARK H PARENT
REMARK Flexibility Score: 60.00
ROOT
ATOM      1  C   UNL     1     -41.668  13.898   9.725  1.00  0.00    -0.070 C 
ATOM      2  C   UNL     1     -40.756  14.578   8.981  1.00  0.00    -0.027 C 
ATOM      3  C   UNL     1     -42.967  14.604  10.032  1.00  0.00     0.039 C 
ENDROOT
BRANCH   2   4
ATOM      4  C   UNL     1     -39.344  14.144   8.672  1.00  0.00     0.032 C 
BRANCH   4   5
ATOM      5  C   UNL     1     -39.206  13.424   7.323  1.00  0.00     0.034 C 
BRANCH   5   6
ATOM      6  C   UNL     1     -38.347  12.175   7.410  1.00  0.00    -0.077 C 
ATOM      7  C   UNL     1     -36.849  12.339   7.509  1.00  0.00     0.039 C 
ATOM      8  C   UNL     1     -38.833  10.912   7.306  1.00  0.00    -0.023 CG0
ATOM      9  G   UNL     1     -40.286  10.473   7.318  1.00  0.00     0.000 G0
ENDBRANCH   5   6
ENDBRANCH   4   5
ENDBRANCH   2   4
BRANCH   1  10
ATOM     10  C   UNL     1     -41.528  12.443  10.158  1.00  0.00     0.111 C 
BRANCH  10  11
ATOM     11  C   UNL     1     -41.868  11.440   9.085  1.00  0.00     0.163 C 
ATOM     12  O   UNL     1     -42.992  11.514   8.519  1.00  0.00    -0.294 OA
BRANCH  11  13
ATOM     13  C   UNL     1     -40.930  10.347   8.699  1.00  0.00    -0.002 C 
ATOM     14  C   UNL     1     -40.568   9.365   9.573  1.00  0.00    -0.069 C 
ATOM     15  C   UNL     1     -39.635   8.251   9.154  1.00  0.00     0.039 C 
ATOM     16  C   UNL     1     -41.023   9.377  11.014  1.00  0.00     0.039 C 
BRANCH  13  17
ATOM     17  C   UNL     1     -40.289  10.462   7.326  1.00  0.00     0.066 CG0
ATOM     18  G   UNL     1     -38.839  10.910   7.314  1.00  0.00     0.000 G0
ENDBRANCH  13  17
ENDBRANCH  11  13
ENDBRANCH  10  11
ENDBRANCH   1  10
TORSDOF 0
ENDMDL
MODEL 2
REMARK VINA RESULT:    -4.917      2.026      3.917
REMARK INTER + INTRA:          -6.673
REMARK INTER:                  -6.622
REMARK INTRA:                  -0.051
REMARK UNBOUND:                 0.256
REMARK SMILES CC1=CCC(=C(C)C)C(=O)CC(C)=CCC1
REMARK SMILES IDX 12 1 14 2 13 3 15 4 16 5 2 6 1 7 3 8 11 10 9 11 10 12 5 13
REMARK SMILES IDX 6 14 7 15 8 16 4 17
REMARK H PARENT
REMARK Flexibility Score: 60.00
ROOT
ATOM      1  C   UNL     1     -39.984  13.411   8.790  1.00  0.00    -0.070 C 
ATOM      2  C   UNL     1     -40.712  14.377   9.411  1.00  0.00    -0.027 C 
ATOM      3  C   UNL     1     -38.639  13.075   9.387  1.00  0.00     0.039 C 
ENDROOT
BRANCH   2   4
ATOM      4  C   UNL     1     -42.007  14.981   8.923  1.00  0.00     0.032 C 
BRANCH   4   5
ATOM      5  C   UNL     1     -43.256  14.249   9.434  1.00  0.00     0.034 C 
BRANCH   5   6
ATOM      6  C   UNL     1     -43.071  13.676  10.828  1.00  0.00    -0.077 C 
ATOM      7  C   UNL     1     -43.020  14.631  11.996  1.00  0.00     0.039 C 
ATOM      8  C   UNL     1     -42.848  12.361  11.083  1.00  0.00    -0.023 CG0
ATOM      9  G   UNL     1     -42.964  11.196  10.118  1.00  0.00     0.000 G0
ENDBRANCH   5   6
ENDBRANCH   4   5
ENDBRANCH   2   4
BRANCH   1  10
ATOM     10  C   UNL     1     -40.478  12.562   7.624  1.00  0.00     0.111 C 
BRANCH  10  11
ATOM     11  C   UNL     1     -41.628  11.649   7.962  1.00  0.00     0.163 C 
ATOM     12  O   UNL     1     -42.565  11.517   7.128  1.00  0.00    -0.294 OA
BRANCH  11  13
ATOM     13  C   UNL     1     -41.707  10.926   9.263  1.00  0.00    -0.002 C 
ATOM     14  C   UNL     1     -40.786   9.986   9.622  1.00  0.00    -0.069 C 
ATOM     15  C   UNL     1     -40.868   9.281  10.957  1.00  0.00     0.039 C 
ATOM     16  C   UNL     1     -39.684   9.554   8.682  1.00  0.00     0.039 C 
BRANCH  13  17
ATOM     17  C   UNL     1     -42.942  11.189  10.108  1.00  0.00     0.066 CG0
ATOM     18  G   UNL     1     -42.844  12.362  11.066  1.00  0.00     0.000 G0
ENDBRANCH  13  17
ENDBRANCH  11  13
ENDBRANCH  10  11
ENDBRANCH   1  10
TORSDOF 0
ENDMDL
MODEL 3
REMARK VINA RESULT:    -4.830      2.228      3.594
REMARK INTER + INTRA:          -6.551
REMARK INTER:                  -6.453
REMARK INTRA:                  -0.098
REMARK UNBOUND:                 0.256
REMARK SMILES CC1=CCC(=C(C)C)C(=O)CC(C)=CCC1
REMARK SMILES IDX 12 1 14 2 13 3 15 4 16 5 2 6 1 7 3 8 11 10 9 11 10 12 5 13
REMARK SMILES IDX 6 14 7 15 8 16 4 17
REMARK H PARENT
REMARK Flexibility Score: 60.00
ROOT
ATOM      1  C   UNL     1     -40.136  11.206   9.472  1.00  0.00    -0.070 C 
ATOM      2  C   UNL     1     -39.386  12.301   9.764  1.00  0.00    -0.027 C 
ATOM      3  C   UNL     1     -40.381  10.222  10.591  1.00  0.00     0.039 C 
ENDROOT
BRANCH   2   4
ATOM      4  C   UNL     1     -38.889  13.339   8.787  1.00  0.00     0.032 C 
BRANCH   4   5
ATOM      5  C   UNL     1     -37.669  12.881   7.974  1.00  0.00     0.034 C 
BRANCH   5   6
ATOM      6  C   UNL     1     -37.725  13.335   6.527  1.00  0.00    -0.077 C 
ATOM      7  C   UNL     1     -37.433  14.783   6.217  1.00  0.00     0.039 C 
ATOM      8  C   UNL     1     -38.119  12.542   5.498  1.00  0.00    -0.023 CG0
ATOM      9  G   UNL     1     -38.351  11.042   5.520  1.00  0.00     0.000 G0
ENDBRANCH   5   6
ENDBRANCH   4   5
ENDBRANCH   2   4
BRANCH   1  10
ATOM     10  C   UNL     1     -40.848  10.967   8.144  1.00  0.00     0.111 C 
BRANCH  10  11
ATOM     11  C   UNL     1     -40.073  10.122   7.167  1.00  0.00     0.163 C 
ATOM     12  O   UNL     1     -39.638   9.000   7.546  1.00  0.00    -0.294 OA
BRANCH  11  13
ATOM     13  C   UNL     1     -39.778  10.585   5.781  1.00  0.00    -0.002 C 
ATOM     14  C   UNL     1     -40.697  10.487   4.778  1.00  0.00    -0.069 C 
ATOM     15  C   UNL     1     -40.389  10.986   3.384  1.00  0.00     0.039 C 
ATOM     16  C   UNL     1     -42.036   9.818   4.990  1.00  0.00     0.039 C 
BRANCH  13  17
ATOM     17  C   UNL     1     -38.355  11.043   5.510  1.00  0.00     0.066 CG0
ATOM     18  G   UNL     1     -38.142  12.545   5.491  1.00  0.00     0.000 G0
ENDBRANCH  13  17
ENDBRANCH  11  13
ENDBRANCH  10  11
ENDBRANCH   1  10
TORSDOF 0
ENDMDL
MODEL 4
REMARK VINA RESULT:    -4.797      2.031      4.954
REMARK INTER + INTRA:          -6.504
REMARK INTER:                  -6.465
REMARK INTRA:                  -0.039
REMARK UNBOUND:                 0.256
REMARK SMILES CC1=CCC(=C(C)C)C(=O)CC(C)=CCC1
REMARK SMILES IDX 12 1 14 2 13 3 15 4 16 5 2 6 1 7 3 8 11 10 9 11 10 12 5 13
REMARK SMILES IDX 6 14 7 15 8 16 4 17
REMARK H PARENT
REMARK Flexibility Score: 60.00
ROOT
ATOM      1  C   UNL     1     -41.169   9.986   7.660  1.00  0.00    -0.070 C 
ATOM      2  C   UNL     1     -42.145  10.349   8.534  1.00  0.00    -0.027 C 
ATOM      3  C   UNL     1     -40.829   8.517   7.581  1.00  0.00     0.039 C 
ENDROOT
BRANCH   2   4
ATOM      4  C   UNL     1     -42.554  11.757   8.892  1.00  0.00     0.032 C 
BRANCH   4   5
ATOM      5  C   UNL     1     -41.552  12.473   9.809  1.00  0.00     0.034 C 
BRANCH   5   6
ATOM      6  C   UNL     1     -41.242  13.886   9.350  1.00  0.00    -0.077 C 
ATOM      7  C   UNL     1     -42.306  14.944   9.515  1.00  0.00     0.039 C 
ATOM      8  C   UNL     1     -40.100  14.241   8.706  1.00  0.00    -0.023 CG0
ATOM      9  G   UNL     1     -38.844  13.411   8.522  1.00  0.00     0.000 G0
ENDBRANCH   5   6
ENDBRANCH   4   5
ENDBRANCH   2   4
BRANCH   1  10
ATOM     10  C   UNL     1     -40.491  10.929   6.672  1.00  0.00     0.111 C 
BRANCH  10  11
ATOM     11  C   UNL     1     -39.089  11.328   7.057  1.00  0.00     0.163 C 
ATOM     12  O   UNL     1     -38.253  10.424   7.328  1.00  0.00    -0.294 OA
BRANCH  11  13
ATOM     13  C   UNL     1     -38.673  12.756   7.156  1.00  0.00    -0.002 C 
ATOM     14  C   UNL     1     -38.068  13.405   6.120  1.00  0.00    -0.069 C 
ATOM     15  C   UNL     1     -37.676  14.861   6.231  1.00  0.00     0.039 C 
ATOM     16  C   UNL     1     -37.700  12.688   4.841  1.00  0.00     0.039 C 
BRANCH  13  17
ATOM     17  C   UNL     1     -38.831  13.412   8.518  1.00  0.00     0.066 CG0
ATOM     18  G   UNL     1     -40.100  14.221   8.713  1.00  0.00     0.000 G0
ENDBRANCH  13  17
ENDBRANCH  11  13
ENDBRANCH  10  11
ENDBRANCH   1  10
TORSDOF 0
ENDMDL
MODEL 5
REMARK VINA RESULT:    -4.796      1.621      2.593
REMARK INTER + INTRA:          -6.502
REMARK INTER:                  -6.674
REMARK INTRA:                   0.172
REMARK UNBOUND:                 0.256
REMARK SMILES CC1=CCC(=C(C)C)C(=O)CC(C)=CCC1
REMARK SMILES IDX 12 1 14 2 13 3 15 4 16 5 2 6 1 7 3 8 11 10 9 11 10 12 5 13
REMARK SMILES IDX 6 14 7 15 8 16 4 17
REMARK H PARENT
REMARK Flexibility Score: 60.00
ROOT
ATOM      1  C   UNL     1     -39.521  12.985   9.181  1.00  0.00    -0.070 C 
ATOM      2  C   UNL     1     -38.656  13.187   8.152  1.00  0.00    -0.027 C 
ATOM      3  C   UNL     1     -40.642  13.984   9.342  1.00  0.00     0.039 C 
ENDROOT
BRANCH   2   4
ATOM      4  C   UNL     1     -37.387  12.417   7.879  1.00  0.00     0.032 C 
BRANCH   4   5
ATOM      5  C   UNL     1     -37.596  11.191   6.978  1.00  0.00     0.034 C 
BRANCH   5   6
ATOM      6  C   UNL     1     -38.699  11.396   5.956  1.00  0.00    -0.077 C 
ATOM      7  C   UNL     1     -38.395  12.215   4.725  1.00  0.00     0.039 C 
ATOM      8  C   UNL     1     -39.978  10.971   6.126  1.00  0.00    -0.023 CG0
ATOM      9  G   UNL     1     -40.511  10.041   7.201  1.00  0.00     0.000 G0
ENDBRANCH   5   6
ENDBRANCH   4   5
ENDBRANCH   2   4
BRANCH   1  10
ATOM     10  C   UNL     1     -39.516  11.765  10.097  1.00  0.00     0.111 C 
BRANCH  10  11
ATOM     11  C   UNL     1     -40.471  10.675   9.684  1.00  0.00     0.163 C 
ATOM     12  O   UNL     1     -40.634   9.688  10.452  1.00  0.00    -0.294 OA
BRANCH  11  13
ATOM     13  C   UNL     1     -41.201  10.713   8.385  1.00  0.00    -0.002 C 
ATOM     14  C   UNL     1     -42.467  11.211   8.284  1.00  0.00    -0.069 C 
ATOM     15  C   UNL     1     -43.182  11.264   6.953  1.00  0.00     0.039 C 
ATOM     16  C   UNL     1     -43.240  11.667   9.500  1.00  0.00     0.039 C 
BRANCH  13  17
ATOM     17  C   UNL     1     -40.517  10.042   7.206  1.00  0.00     0.066 CG0
ATOM     18  G   UNL     1     -39.972  10.980   6.144  1.00  0.00     0.000 G0
ENDBRANCH  13  17
ENDBRANCH  11  13
ENDBRANCH  10  11
ENDBRANCH   1  10
TORSDOF 0
ENDMDL
MODEL 6
REMARK VINA RESULT:    -4.792      1.337      2.110
REMARK INTER + INTRA:          -6.496
REMARK INTER:                  -6.463
REMARK INTRA:                  -0.033
REMARK UNBOUND:                 0.256
REMARK SMILES CC1=CCC(=C(C)C)C(=O)CC(C)=CCC1
REMARK SMILES IDX 12 1 14 2 13 3 15 4 16 5 2 6 1 7 3 8 11 10 9 11 10 12 5 13
REMARK SMILES IDX 6 14 7 15 8 16 4 17
REMARK H PARENT
REMARK Flexibility Score: 60.00
ROOT
ATOM      1  C   UNL     1     -41.993  14.010   9.358  1.00  0.00    -0.070 C 
ATOM      2  C   UNL     1     -40.754  14.560   9.461  1.00  0.00    -0.027 C 
ATOM      3  C   UNL     1     -43.011  14.409  10.399  1.00  0.00     0.039 C 
ENDROOT
BRANCH   2   4
ATOM      4  C   UNL     1     -39.541  14.208   8.635  1.00  0.00     0.032 C 
BRANCH   4   5
ATOM      5  C   UNL     1     -38.810  12.950   9.125  1.00  0.00     0.034 C 
BRANCH   5   6
ATOM      6  C   UNL     1     -38.279  12.099   7.986  1.00  0.00    -0.077 C 
ATOM      7  C   UNL     1     -37.004  12.529   7.301  1.00  0.00     0.039 C 
ATOM      8  C   UNL     1     -38.933  11.023   7.476  1.00  0.00    -0.023 CG0
ATOM      9  G   UNL     1     -40.152  10.323   8.045  1.00  0.00     0.000 G0
ENDBRANCH   5   6
ENDBRANCH   4   5
ENDBRANCH   2   4
BRANCH   1  10
ATOM     10  C   UNL     1     -42.461  13.129   8.205  1.00  0.00     0.111 C 
BRANCH  10  11
ATOM     11  C   UNL     1     -42.280  11.651   8.439  1.00  0.00     0.163 C 
ATOM     12  O   UNL     1     -42.797  11.131   9.465  1.00  0.00    -0.294 OA
BRANCH  11  13
ATOM     13  C   UNL     1     -41.485  10.796   7.512  1.00  0.00    -0.002 C 
ATOM     14  C   UNL     1     -41.982  10.372   6.315  1.00  0.00    -0.069 C 
ATOM     15  C   UNL     1     -41.151   9.526   5.378  1.00  0.00     0.039 C 
ATOM     16  C   UNL     1     -43.405  10.669   5.898  1.00  0.00     0.039 C 
BRANCH  13  17
ATOM     17  C   UNL     1     -40.144  10.304   8.032  1.00  0.00     0.066 CG0
ATOM     18  G   UNL     1     -38.926  11.029   7.489  1.00  0.00     0.000 G0
ENDBRANCH  13  17
ENDBRANCH  11  13
ENDBRANCH  10  11
ENDBRANCH   1  10
TORSDOF 0
ENDMDL
MODEL 7
REMARK VINA RESULT:    -4.754      2.179      4.435
REMARK INTER + INTRA:          -6.444
REMARK INTER:                  -6.573
REMARK INTRA:                   0.129
REMARK UNBOUND:                 0.256
REMARK SMILES CC1=CCC(=C(C)C)C(=O)CC(C)=CCC1
REMARK SMILES IDX 12 1 14 2 13 3 15 4 16 5 2 6 1 7 3 8 11 10 9 11 10 12 5 13
REMARK SMILES IDX 6 14 7 15 8 16 4 17
REMARK H PARENT
REMARK Flexibility Score: 60.00
ROOT
ATOM      1  C   UNL     1     -37.837  13.142   7.458  1.00  0.00    -0.070 C 
ATOM      2  C   UNL     1     -38.553  13.504   8.555  1.00  0.00    -0.027 C 
ATOM      3  C   UNL     1     -37.770  14.136   6.323  1.00  0.00     0.039 C 
ENDROOT
BRANCH   2   4
ATOM      4  C   UNL     1     -38.883  12.631   9.742  1.00  0.00     0.032 C 
BRANCH   4   5
ATOM      5  C   UNL     1     -40.340  12.149   9.763  1.00  0.00     0.034 C 
BRANCH   5   6
ATOM      6  C   UNL     1     -40.471  10.664   9.478  1.00  0.00    -0.077 C 
ATOM      7  C   UNL     1     -40.613   9.718  10.646  1.00  0.00     0.039 C 
ATOM      8  C   UNL     1     -40.369  10.118   8.238  1.00  0.00    -0.023 CG0
ATOM      9  G   UNL     1     -40.341  10.842   6.905  1.00  0.00     0.000 G0
ENDBRANCH   5   6
ENDBRANCH   4   5
ENDBRANCH   2   4
BRANCH   1  10
ATOM     10  C   UNL     1     -37.000  11.873   7.343  1.00  0.00     0.111 C 
BRANCH  10  11
ATOM     11  C   UNL     1     -37.778  10.650   6.931  1.00  0.00     0.163 C 
ATOM     12  O   UNL     1     -37.340   9.513   7.259  1.00  0.00    -0.294 OA
BRANCH  11  13
ATOM     13  C   UNL     1     -39.028  10.743   6.124  1.00  0.00    -0.002 C 
ATOM     14  C   UNL     1     -39.002  10.855   4.765  1.00  0.00    -0.069 C 
ATOM     15  C   UNL     1     -40.280  10.923   3.961  1.00  0.00     0.039 C 
ATOM     16  C   UNL     1     -37.702  10.986   4.004  1.00  0.00     0.039 C 
BRANCH  13  17
ATOM     17  C   UNL     1     -40.328  10.847   6.903  1.00  0.00     0.066 CG0
ATOM     18  G   UNL     1     -40.352  10.127   8.238  1.00  0.00     0.000 G0
ENDBRANCH  13  17
ENDBRANCH  11  13
ENDBRANCH  10  11
ENDBRANCH   1  10
TORSDOF 0
ENDMDL
MODEL 8
REMARK VINA RESULT:    -4.663      1.974      4.238
REMARK INTER + INTRA:          -6.314
REMARK INTER:                  -6.650
REMARK INTRA:                   0.335
REMARK UNBOUND:                 0.256
REMARK SMILES CC1=CCC(=C(C)C)C(=O)CC(C)=CCC1
REMARK SMILES IDX 12 1 14 2 13 3 15 4 16 5 2 6 1 7 3 8 11 10 9 11 10 12 5 13
REMARK SMILES IDX 6 14 7 15 8 16 4 17
REMARK H PARENT
REMARK Flexibility Score: 60.00
ROOT
ATOM      1  C   UNL     1     -39.875  13.187   9.219  1.00  0.00    -0.070 C 
ATOM      2  C   UNL     1     -40.730  12.294   9.783  1.00  0.00    -0.027 C 
ATOM      3  C   UNL     1     -40.306  14.634   9.202  1.00  0.00     0.039 C 
ENDROOT
BRANCH   2   4
ATOM      4  C   UNL     1     -40.587  10.791   9.787  1.00  0.00     0.032 C 
BRANCH   4   5
ATOM      5  C   UNL     1     -40.926  10.139   8.439  1.00  0.00     0.034 C 
BRANCH   5   6
ATOM      6  C   UNL     1     -39.777   9.321   7.878  1.00  0.00    -0.077 C 
ATOM      7  C   UNL     1     -39.497   7.967   8.483  1.00  0.00     0.039 C 
ATOM      8  C   UNL     1     -38.917   9.773   6.928  1.00  0.00    -0.023 CG0
ATOM      9  G   UNL     1     -39.042  11.030   6.088  1.00  0.00     0.000 G0
ENDBRANCH   5   6
ENDBRANCH   4   5
ENDBRANCH   2   4
BRANCH   1  10
ATOM     10  C   UNL     1     -38.471  12.857   8.724  1.00  0.00     0.111 C 
BRANCH  10  11
ATOM     11  C   UNL     1     -38.241  13.151   7.264  1.00  0.00     0.163 C 
ATOM     12  O   UNL     1     -38.335  14.343   6.863  1.00  0.00    -0.294 OA
BRANCH  11  13
ATOM     13  C   UNL     1     -37.939  12.074   6.279  1.00  0.00    -0.002 C 
ATOM     14  C   UNL     1     -36.808  12.090   5.516  1.00  0.00    -0.069 C 
ATOM     15  C   UNL     1     -36.508  10.976   4.540  1.00  0.00     0.039 C 
ATOM     16  C   UNL     1     -35.839  13.250   5.559  1.00  0.00     0.039 C 
BRANCH  13  17
ATOM     17  C   UNL     1     -39.023  11.030   6.067  1.00  0.00     0.066 CG0
ATOM     18  G   UNL     1     -38.907   9.782   6.922  1.00  0.00     0.000 G0
ENDBRANCH  13  17
ENDBRANCH  11  13
ENDBRANCH  10  11
ENDBRANCH   1  10
TORSDOF 0
ENDMDL
MODEL 9
REMARK VINA RESULT:    -4.639      2.086      4.314
REMARK INTER + INTRA:          -6.281
REMARK INTER:                  -6.317
REMARK INTRA:                   0.036
REMARK UNBOUND:                 0.256
REMARK SMILES CC1=CCC(=C(C)C)C(=O)CC(C)=CCC1
REMARK SMILES IDX 12 1 14 2 13 3 15 4 16 5 2 6 1 7 3 8 11 10 9 11 10 12 5 13
REMARK SMILES IDX 6 14 7 15 8 16 4 17
REMARK H PARENT
REMARK Flexibility Score: 60.00
ROOT
ATOM      1  C   UNL     1     -38.457  12.781   7.852  1.00  0.00    -0.070 C 
ATOM      2  C   UNL     1     -38.886  13.394   8.987  1.00  0.00    -0.027 C 
ATOM      3  C   UNL     1     -36.980  12.484   7.747  1.00  0.00     0.039 C 
ENDROOT
BRANCH   2   4
ATOM      4  C   UNL     1     -40.275  13.918   9.256  1.00  0.00     0.032 C 
BRANCH   4   5
ATOM      5  C   UNL     1     -41.261  12.833   9.714  1.00  0.00     0.034 C 
BRANCH   5   6
ATOM      6  C   UNL     1     -42.517  12.784   8.862  1.00  0.00    -0.077 C 
ATOM      7  C   UNL     1     -43.433  13.984   8.864  1.00  0.00     0.039 C 
ATOM      8  C   UNL     1     -42.921  11.687   8.171  1.00  0.00    -0.023 CG0
ATOM      9  G   UNL     1     -42.139  10.413   7.913  1.00  0.00     0.000 G0
ENDBRANCH   5   6
ENDBRANCH   4   5
ENDBRANCH   2   4
BRANCH   1  10
ATOM     10  C   UNL     1     -39.368  12.261   6.745  1.00  0.00     0.111 C 
BRANCH  10  11
ATOM     11  C   UNL     1     -39.825  10.837   6.933  1.00  0.00     0.163 C 
ATOM     12  O   UNL     1     -38.980   9.969   7.284  1.00  0.00    -0.294 OA
BRANCH  11  13
ATOM     13  C   UNL     1     -41.235  10.420   6.687  1.00  0.00    -0.002 C 
ATOM     14  C   UNL     1     -41.711  10.196   5.428  1.00  0.00    -0.069 C 
ATOM     15  C   UNL     1     -43.137   9.749   5.200  1.00  0.00     0.039 C 
ATOM     16  C   UNL     1     -40.863  10.447   4.202  1.00  0.00     0.039 C 
BRANCH  13  17
ATOM     17  C   UNL     1     -42.153  10.393   7.897  1.00  0.00     0.066 CG0
ATOM     18  G   UNL     1     -42.913  11.677   8.173  1.00  0.00     0.000 G0
ENDBRANCH  13  17
ENDBRANCH  11  13
ENDBRANCH  10  11
ENDBRANCH   1  10
TORSDOF 0
ENDMDL
