MODEL 1
REMARK VINA RESULT:    -3.755      0.000      0.000
REMARK INTER + INTRA:          -8.862
REMARK INTER:                  -7.268
REMARK INTRA:                  -1.594
REMARK UNBOUND:                -1.594
REMARK SMILES CCCCCCCCCCCCCCCCCC(=O)[O-]
REMARK SMILES IDX 10 1 11 2 12 3 13 4 14 5 15 6 16 7 17 8 18 9 19 10 20 11
REMARK SMILES IDX 9 12 8 13 7 14 6 15 5 16 4 17 3 18 2 19 1 20
REMARK H PARENT
REMARK Flexibility Score: inf
ROOT
ATOM      1  C   UNL     1     -10.966  -7.061 -11.111  1.00  0.00     0.000 C 
ENDROOT
BRANCH   1   2
ATOM      2  C   UNL     1     -10.636  -8.121 -12.181  1.00  0.00     0.000 C 
BRANCH   2   3
ATOM      3  C   UNL     1     -11.125  -7.783 -13.605  1.00  0.00     0.000 C 
BRANCH   3   4
ATOM      4  C   UNL     1     -10.021  -7.730 -14.676  1.00  0.00     0.000 C 
BRANCH   4   5
ATOM      5  C   UNL     1      -9.043  -6.565 -14.469  1.00  0.00     0.000 C 
BRANCH   5   6
ATOM      6  C   UNL     1      -7.601  -7.071 -14.343  1.00  0.00     0.000 C 
BRANCH   6   7
ATOM      7  C   UNL     1      -6.625  -5.902 -14.140  1.00  0.00     0.006 C 
BRANCH   7   8
ATOM      8  C   UNL     1      -7.351  -4.563 -13.959  1.00  0.00     0.053 C 
BRANCH   8   9
ATOM      9  C   UNL     1      -6.515  -3.572 -13.209  1.00  0.00     0.041 C 
ATOM     10  O   UNL     1      -5.286  -3.782 -13.038  1.00  0.00    -0.550 OA
ATOM     11  O   UNL     1      -7.097  -2.424 -12.685  1.00  0.00    -0.550 OA
ENDBRANCH   8   9
ENDBRANCH   7   8
ENDBRANCH   6   7
ENDBRANCH   5   6
ENDBRANCH   4   5
ENDBRANCH   3   4
ENDBRANCH   2   3
ENDBRANCH   1   2
BRANCH   1  12
ATOM     12  C   UNL     1     -10.169  -7.195  -9.799  1.00  0.00     0.000 C 
BRANCH  12  13
ATOM     13  C   UNL     1      -8.927  -8.104  -9.879  1.00  0.00    -0.000 C 
BRANCH  13  14
ATOM     14  C   UNL     1      -7.579  -7.383  -9.692  1.00  0.00    -0.000 C 
BRANCH  14  15
ATOM     15  C   UNL     1      -7.356  -6.259 -10.715  1.00  0.00    -0.000 C 
BRANCH  15  16
ATOM     16  C   UNL     1      -8.131  -4.993 -10.317  1.00  0.00    -0.000 C 
BRANCH  16  17
ATOM     17  C   UNL     1      -7.268  -4.015  -9.501  1.00  0.00    -0.000 C 
BRANCH  17  18
ATOM     18  C   UNL     1      -5.800  -4.476  -9.356  1.00  0.00    -0.000 C 
BRANCH  18  19
ATOM     19  C   UNL     1      -5.157  -4.058  -8.023  1.00  0.00    -0.003 C 
ATOM     20  C   UNL     1      -4.412  -5.202  -7.339  1.00  0.00     0.004 C 
ENDBRANCH  18  19
ENDBRANCH  17  18
ENDBRANCH  16  17
ENDBRANCH  15  16
ENDBRANCH  14  15
ENDBRANCH  13  14
ENDBRANCH  12  13
ENDBRANCH   1  12
TORSDOF 16
ENDMDL
MODEL 2
REMARK VINA RESULT:    -3.544     13.594     16.294
REMARK INTER + INTRA:          -8.454
REMARK INTER:                  -7.136
REMARK INTRA:                  -1.318
REMARK UNBOUND:                -1.594
REMARK SMILES CCCCCCCCCCCCCCCCCC(=O)[O-]
REMARK SMILES IDX 10 1 11 2 12 3 13 4 14 5 15 6 16 7 17 8 18 9 19 10 20 11
REMARK SMILES IDX 9 12 8 13 7 14 6 15 5 16 4 17 3 18 2 19 1 20
REMARK H PARENT
REMARK Flexibility Score: inf
ROOT
ATOM      1  C   UNL     1       4.129  -2.332 -12.641  1.00  0.00     0.000 C 
ENDROOT
BRANCH   1   2
ATOM      2  C   UNL     1       3.793  -1.244 -13.680  1.00  0.00     0.000 C 
BRANCH   2   3
ATOM      3  C   UNL     1       5.013  -0.620 -14.388  1.00  0.00     0.000 C 
BRANCH   3   4
ATOM      4  C   UNL     1       5.667   0.557 -13.643  1.00  0.00     0.000 C 
BRANCH   4   5
ATOM      5  C   UNL     1       7.125   0.277 -13.249  1.00  0.00     0.000 C 
BRANCH   5   6
ATOM      6  C   UNL     1       8.043   1.427 -13.682  1.00  0.00     0.000 C 
BRANCH   6   7
ATOM      7  C   UNL     1       8.345   2.363 -12.500  1.00  0.00     0.006 C 
BRANCH   7   8
ATOM      8  C   UNL     1       9.041   1.632 -11.345  1.00  0.00     0.053 C 
BRANCH   8   9
ATOM      9  C   UNL     1       8.924   2.387 -10.056  1.00  0.00     0.041 C 
ATOM     10  O   UNL     1       8.933   1.770  -8.959  1.00  0.00    -0.550 OA
ATOM     11  O   UNL     1       8.787   3.769 -10.068  1.00  0.00    -0.550 OA
ENDBRANCH   8   9
ENDBRANCH   7   8
ENDBRANCH   6   7
ENDBRANCH   5   6
ENDBRANCH   4   5
ENDBRANCH   3   4
ENDBRANCH   2   3
ENDBRANCH   1   2
BRANCH   1  12
ATOM     12  C   UNL     1       4.638  -3.659 -13.234  1.00  0.00     0.000 C 
BRANCH  12  13
ATOM     13  C   UNL     1       6.172  -3.823 -13.247  1.00  0.00    -0.000 C 
BRANCH  13  14
ATOM     14  C   UNL     1       6.823  -3.969 -11.859  1.00  0.00    -0.000 C 
BRANCH  14  15
ATOM     15  C   UNL     1       7.844  -2.862 -11.559  1.00  0.00    -0.000 C 
BRANCH  15  16
ATOM     16  C   UNL     1       9.027  -3.414 -10.747  1.00  0.00    -0.000 C 
BRANCH  16  17
ATOM     17  C   UNL     1       8.565  -4.180  -9.495  1.00  0.00    -0.000 C 
BRANCH  17  18
ATOM     18  C   UNL     1       9.125  -5.619  -9.422  1.00  0.00    -0.000 C 
BRANCH  18  19
ATOM     19  C   UNL     1       8.031  -6.695  -9.324  1.00  0.00    -0.003 C 
ATOM     20  C   UNL     1       8.542  -8.094  -9.662  1.00  0.00     0.004 C 
ENDBRANCH  18  19
ENDBRANCH  17  18
ENDBRANCH  16  17
ENDBRANCH  15  16
ENDBRANCH  14  15
ENDBRANCH  13  14
ENDBRANCH  12  13
ENDBRANCH   1  12
TORSDOF 16
ENDMDL
MODEL 3
REMARK VINA RESULT:    -3.265      1.993      4.630
REMARK INTER + INTRA:          -7.912
REMARK INTER:                  -5.929
REMARK INTRA:                  -1.983
REMARK UNBOUND:                -1.594
REMARK SMILES CCCCCCCCCCCCCCCCCC(=O)[O-]
REMARK SMILES IDX 10 1 11 2 12 3 13 4 14 5 15 6 16 7 17 8 18 9 19 10 20 11
REMARK SMILES IDX 9 12 8 13 7 14 6 15 5 16 4 17 3 18 2 19 1 20
REMARK H PARENT
REMARK Flexibility Score: inf
ROOT
ATOM      1  C   UNL     1     -10.913  -6.872 -10.367  1.00  0.00     0.000 C 
ENDROOT
BRANCH   1   2
ATOM      2  C   UNL     1     -10.236  -8.089  -9.706  1.00  0.00     0.000 C 
BRANCH   2   3
ATOM      3  C   UNL     1      -8.807  -7.836  -9.184  1.00  0.00     0.000 C 
BRANCH   3   4
ATOM      4  C   UNL     1      -7.719  -7.774 -10.272  1.00  0.00     0.000 C 
BRANCH   4   5
ATOM      5  C   UNL     1      -7.133  -6.366 -10.450  1.00  0.00     0.000 C 
BRANCH   5   6
ATOM      6  C   UNL     1      -8.098  -5.297  -9.923  1.00  0.00     0.000 C 
BRANCH   6   7
ATOM      7  C   UNL     1      -7.328  -4.125  -9.294  1.00  0.00     0.006 C 
BRANCH   7   8
ATOM      8  C   UNL     1      -5.809  -4.282  -9.440  1.00  0.00     0.053 C 
BRANCH   8   9
ATOM      9  C   UNL     1      -5.130  -4.400  -8.110  1.00  0.00     0.041 C 
ATOM     10  O   UNL     1      -4.826  -5.533  -7.653  1.00  0.00    -0.550 OA
ATOM     11  O   UNL     1      -4.848  -3.260  -7.368  1.00  0.00    -0.550 OA
ENDBRANCH   8   9
ENDBRANCH   7   8
ENDBRANCH   6   7
ENDBRANCH   5   6
ENDBRANCH   4   5
ENDBRANCH   3   4
ENDBRANCH   2   3
ENDBRANCH   1   2
BRANCH   1  12
ATOM     12  C   UNL     1     -11.102  -6.985 -11.892  1.00  0.00     0.000 C 
BRANCH  12  13
ATOM     13  C   UNL     1     -10.311  -8.125 -12.566  1.00  0.00    -0.000 C 
BRANCH  13  14
ATOM     14  C   UNL     1      -9.145  -7.667 -13.462  1.00  0.00    -0.000 C 
BRANCH  14  15
ATOM     15  C   UNL     1      -9.562  -6.603 -14.487  1.00  0.00    -0.000 C 
BRANCH  15  16
ATOM     16  C   UNL     1      -8.581  -5.419 -14.478  1.00  0.00    -0.000 C 
BRANCH  16  17
ATOM     17  C   UNL     1      -7.114  -5.880 -14.449  1.00  0.00    -0.000 C 
BRANCH  17  18
ATOM     18  C   UNL     1      -6.294  -5.230 -13.310  1.00  0.00    -0.000 C 
BRANCH  18  19
ATOM     19  C   UNL     1      -6.009  -3.736 -13.540  1.00  0.00    -0.003 C 
ATOM     20  C   UNL     1      -6.915  -2.825 -12.715  1.00  0.00     0.004 C 
ENDBRANCH  18  19
ENDBRANCH  17  18
ENDBRANCH  16  17
ENDBRANCH  15  16
ENDBRANCH  14  15
ENDBRANCH  13  14
ENDBRANCH  12  13
ENDBRANCH   1  12
TORSDOF 16
ENDMDL
MODEL 4
REMARK VINA RESULT:    -3.186      2.147      5.408
REMARK INTER + INTRA:          -7.759
REMARK INTER:                  -6.221
REMARK INTRA:                  -1.539
REMARK UNBOUND:                -1.594
REMARK SMILES CCCCCCCCCCCCCCCCCC(=O)[O-]
REMARK SMILES IDX 10 1 11 2 12 3 13 4 14 5 15 6 16 7 17 8 18 9 19 10 20 11
REMARK SMILES IDX 9 12 8 13 7 14 6 15 5 16 4 17 3 18 2 19 1 20
REMARK H PARENT
REMARK Flexibility Score: inf
ROOT
ATOM      1  C   UNL     1      -6.898  -6.207 -14.179  1.00  0.00     0.000 C 
ENDROOT
BRANCH   1   2
ATOM      2  C   UNL     1      -7.395  -4.755 -14.030  1.00  0.00     0.000 C 
BRANCH   2   3
ATOM      3  C   UNL     1      -6.369  -3.774 -13.428  1.00  0.00     0.000 C 
BRANCH   3   4
ATOM      4  C   UNL     1      -6.946  -2.767 -12.417  1.00  0.00     0.000 C 
BRANCH   4   5
ATOM      5  C   UNL     1      -6.589  -3.109 -10.964  1.00  0.00     0.000 C 
BRANCH   5   6
ATOM      6  C   UNL     1      -7.012  -4.541 -10.615  1.00  0.00     0.000 C 
BRANCH   6   7
ATOM      7  C   UNL     1      -6.543  -4.923  -9.202  1.00  0.00     0.006 C 
BRANCH   7   8
ATOM      8  C   UNL     1      -5.897  -3.743  -8.466  1.00  0.00     0.053 C 
BRANCH   8   9
ATOM      9  C   UNL     1      -4.759  -4.183  -7.597  1.00  0.00     0.041 C 
ATOM     10  O   UNL     1      -3.967  -3.333  -7.112  1.00  0.00    -0.550 OA
ATOM     11  O   UNL     1      -4.563  -5.534  -7.336  1.00  0.00    -0.550 OA
ENDBRANCH   8   9
ENDBRANCH   7   8
ENDBRANCH   6   7
ENDBRANCH   5   6
ENDBRANCH   4   5
ENDBRANCH   3   4
ENDBRANCH   2   3
ENDBRANCH   1   2
BRANCH   1  12
ATOM     12  C   UNL     1      -7.764  -7.099 -15.089  1.00  0.00     0.000 C 
BRANCH  12  13
ATOM     13  C   UNL     1      -8.655  -8.117 -14.349  1.00  0.00    -0.000 C 
BRANCH  13  14
ATOM     14  C   UNL     1     -10.158  -8.022 -14.672  1.00  0.00    -0.000 C 
BRANCH  14  15
ATOM     15  C   UNL     1     -10.955  -7.278 -13.591  1.00  0.00    -0.000 C 
BRANCH  15  16
ATOM     16  C   UNL     1     -10.492  -7.693 -12.185  1.00  0.00    -0.000 C 
BRANCH  16  17
ATOM     17  C   UNL     1     -10.284  -6.481 -11.260  1.00  0.00    -0.000 C 
BRANCH  17  18
ATOM     18  C   UNL     1      -9.913  -6.878  -9.813  1.00  0.00    -0.000 C 
BRANCH  18  19
ATOM     19  C   UNL     1      -9.017  -8.125  -9.732  1.00  0.00    -0.003 C 
ATOM     20  C   UNL     1      -7.741  -7.995 -10.560  1.00  0.00     0.004 C 
ENDBRANCH  18  19
ENDBRANCH  17  18
ENDBRANCH  16  17
ENDBRANCH  15  16
ENDBRANCH  14  15
ENDBRANCH  13  14
ENDBRANCH  12  13
ENDBRANCH   1  12
TORSDOF 16
ENDMDL
MODEL 5
REMARK VINA RESULT:    -3.127      0.773      1.376
REMARK INTER + INTRA:          -7.646
REMARK INTER:                  -6.036
REMARK INTRA:                  -1.610
REMARK UNBOUND:                -1.594
REMARK SMILES CCCCCCCCCCCCCCCCCC(=O)[O-]
REMARK SMILES IDX 10 1 11 2 12 3 13 4 14 5 15 6 16 7 17 8 18 9 19 10 20 11
REMARK SMILES IDX 9 12 8 13 7 14 6 15 5 16 4 17 3 18 2 19 1 20
REMARK H PARENT
REMARK Flexibility Score: inf
ROOT
ATOM      1  C   UNL     1     -11.125  -6.625 -10.157  1.00  0.00     0.000 C 
ENDROOT
BRANCH   1   2
ATOM      2  C   UNL     1     -11.021  -7.812 -11.135  1.00  0.00     0.000 C 
BRANCH   2   3
ATOM      3  C   UNL     1     -10.775  -7.423 -12.607  1.00  0.00     0.000 C 
BRANCH   3   4
ATOM      4  C   UNL     1      -9.554  -8.095 -13.262  1.00  0.00     0.000 C 
BRANCH   4   5
ATOM      5  C   UNL     1      -8.870  -7.202 -14.306  1.00  0.00     0.000 C 
BRANCH   5   6
ATOM      6  C   UNL     1      -7.369  -7.503 -14.391  1.00  0.00     0.000 C 
BRANCH   6   7
ATOM      7  C   UNL     1      -6.539  -6.302 -13.912  1.00  0.00     0.006 C 
BRANCH   7   8
ATOM      8  C   UNL     1      -7.154  -4.964 -14.340  1.00  0.00     0.053 C 
BRANCH   8   9
ATOM      9  C   UNL     1      -6.597  -3.817 -13.553  1.00  0.00     0.041 C 
ATOM     10  O   UNL     1      -7.298  -2.792 -13.347  1.00  0.00    -0.550 OA
ATOM     11  O   UNL     1      -5.299  -3.875 -13.061  1.00  0.00    -0.550 OA
ENDBRANCH   8   9
ENDBRANCH   7   8
ENDBRANCH   6   7
ENDBRANCH   5   6
ENDBRANCH   4   5
ENDBRANCH   3   4
ENDBRANCH   2   3
ENDBRANCH   1   2
BRANCH   1  12
ATOM     12  C   UNL     1      -9.802  -6.233  -9.470  1.00  0.00     0.000 C 
BRANCH  12  13
ATOM     13  C   UNL     1      -8.566  -7.032  -9.930  1.00  0.00    -0.000 C 
BRANCH  13  14
ATOM     14  C   UNL     1      -7.483  -6.202 -10.643  1.00  0.00    -0.000 C 
BRANCH  14  15
ATOM     15  C   UNL     1      -7.804  -4.700 -10.674  1.00  0.00    -0.000 C 
BRANCH  15  16
ATOM     16  C   UNL     1      -6.761  -3.900  -9.876  1.00  0.00    -0.000 C 
BRANCH  16  17
ATOM     17  C   UNL     1      -6.048  -4.764  -8.821  1.00  0.00    -0.000 C 
BRANCH  17  18
ATOM     18  C   UNL     1      -4.979  -3.986  -8.021  1.00  0.00    -0.000 C 
BRANCH  18  19
ATOM     19  C   UNL     1      -3.874  -4.885  -7.442  1.00  0.00    -0.003 C 
ATOM     20  C   UNL     1      -4.411  -6.202  -6.887  1.00  0.00     0.004 C 
ENDBRANCH  18  19
ENDBRANCH  17  18
ENDBRANCH  16  17
ENDBRANCH  15  16
ENDBRANCH  14  15
ENDBRANCH  13  14
ENDBRANCH  12  13
ENDBRANCH   1  12
TORSDOF 16
ENDMDL
MODEL 6
REMARK VINA RESULT:    -2.901      2.227      4.660
REMARK INTER + INTRA:          -7.209
REMARK INTER:                  -5.199
REMARK INTRA:                  -2.010
REMARK UNBOUND:                -1.594
REMARK SMILES CCCCCCCCCCCCCCCCCC(=O)[O-]
REMARK SMILES IDX 10 1 11 2 12 3 13 4 14 5 15 6 16 7 17 8 18 9 19 10 20 11
REMARK SMILES IDX 9 12 8 13 7 14 6 15 5 16 4 17 3 18 2 19 1 20
REMARK H PARENT
REMARK Flexibility Score: inf
ROOT
ATOM      1  C   UNL     1      -7.001  -2.670 -10.530  1.00  0.00     0.000 C 
ENDROOT
BRANCH   1   2
ATOM      2  C   UNL     1      -6.736  -2.802 -12.043  1.00  0.00     0.000 C 
BRANCH   2   3
ATOM      3  C   UNL     1      -7.135  -4.160 -12.658  1.00  0.00     0.000 C 
BRANCH   3   4
ATOM      4  C   UNL     1      -6.774  -4.332 -14.144  1.00  0.00     0.000 C 
BRANCH   4   5
ATOM      5  C   UNL     1      -6.364  -5.769 -14.496  1.00  0.00     0.000 C 
BRANCH   5   6
ATOM      6  C   UNL     1      -6.508  -6.696 -13.282  1.00  0.00     0.000 C 
BRANCH   6   7
ATOM      7  C   UNL     1      -7.440  -7.876 -13.600  1.00  0.00     0.006 C 
BRANCH   7   8
ATOM      8  C   UNL     1      -8.431  -7.547 -14.723  1.00  0.00     0.053 C 
BRANCH   8   9
ATOM      9  C   UNL     1      -9.773  -7.153 -14.185  1.00  0.00     0.041 C 
ATOM     10  O   UNL     1     -10.491  -6.332 -14.814  1.00  0.00    -0.550 OA
ATOM     11  O   UNL     1     -10.224  -7.681 -12.982  1.00  0.00    -0.550 OA
ENDBRANCH   8   9
ENDBRANCH   7   8
ENDBRANCH   6   7
ENDBRANCH   5   6
ENDBRANCH   4   5
ENDBRANCH   3   4
ENDBRANCH   2   3
ENDBRANCH   1   2
BRANCH   1  12
ATOM     12  C   UNL     1      -7.540  -3.944  -9.852  1.00  0.00     0.000 C 
BRANCH  12  13
ATOM     13  C   UNL     1      -6.465  -4.862  -9.238  1.00  0.00    -0.000 C 
BRANCH  13  14
ATOM     14  C   UNL     1      -6.595  -6.352  -9.604  1.00  0.00    -0.000 C 
BRANCH  14  15
ATOM     15  C   UNL     1      -7.918  -6.681 -10.310  1.00  0.00    -0.000 C 
BRANCH  15  16
ATOM     16  C   UNL     1      -8.567  -7.935  -9.703  1.00  0.00    -0.000 C 
BRANCH  16  17
ATOM     17  C   UNL     1     -10.082  -7.763  -9.493  1.00  0.00    -0.000 C 
BRANCH  17  18
ATOM     18  C   UNL     1     -10.599  -6.369  -9.916  1.00  0.00    -0.000 C 
BRANCH  18  19
ATOM     19  C   UNL     1     -11.047  -5.499  -8.730  1.00  0.00    -0.003 C 
ATOM     20  C   UNL     1     -11.125  -6.277  -7.418  1.00  0.00     0.004 C 
ENDBRANCH  18  19
ENDBRANCH  17  18
ENDBRANCH  16  17
ENDBRANCH  15  16
ENDBRANCH  14  15
ENDBRANCH  13  14
ENDBRANCH  12  13
ENDBRANCH   1  12
TORSDOF 16
ENDMDL
MODEL 7
REMARK VINA RESULT:    -1.380      2.463      4.425
REMARK INTER + INTRA:          -4.265
REMARK INTER:                  -3.340
REMARK INTRA:                  -0.925
REMARK UNBOUND:                -1.594
REMARK SMILES CCCCCCCCCCCCCCCCCC(=O)[O-]
REMARK SMILES IDX 10 1 11 2 12 3 13 4 14 5 15 6 16 7 17 8 18 9 19 10 20 11
REMARK SMILES IDX 9 12 8 13 7 14 6 15 5 16 4 17 3 18 2 19 1 20
REMARK H PARENT
REMARK Flexibility Score: inf
ROOT
ATOM      1  C   UNL     1      -6.252  -4.039 -13.678  1.00  0.00     0.000 C 
ENDROOT
BRANCH   1   2
ATOM      2  C   UNL     1      -7.038  -5.124 -14.441  1.00  0.00     0.000 C 
BRANCH   2   3
ATOM      3  C   UNL     1      -6.689  -6.576 -14.054  1.00  0.00     0.000 C 
BRANCH   3   4
ATOM      4  C   UNL     1      -7.769  -7.618 -14.394  1.00  0.00     0.000 C 
BRANCH   4   5
ATOM      5  C   UNL     1      -8.589  -8.048 -13.169  1.00  0.00     0.000 C 
BRANCH   5   6
ATOM      6  C   UNL     1     -10.086  -7.803 -13.394  1.00  0.00     0.000 C 
BRANCH   6   7
ATOM      7  C   UNL     1     -10.821  -7.627 -12.056  1.00  0.00     0.006 C 
BRANCH   7   8
ATOM      8  C   UNL     1      -9.887  -7.143 -10.940  1.00  0.00     0.053 C 
BRANCH   8   9
ATOM      9  C   UNL     1     -10.627  -6.897  -9.661  1.00  0.00     0.041 C 
ATOM     10  O   UNL     1     -11.122  -7.862  -9.021  1.00  0.00    -0.550 OA
ATOM     11  O   UNL     1     -10.783  -5.602  -9.183  1.00  0.00    -0.550 OA
ENDBRANCH   8   9
ENDBRANCH   7   8
ENDBRANCH   6   7
ENDBRANCH   5   6
ENDBRANCH   4   5
ENDBRANCH   3   4
ENDBRANCH   2   3
ENDBRANCH   1   2
BRANCH   1  12
ATOM     12  C   UNL     1      -6.642  -3.878 -12.196  1.00  0.00     0.000 C 
BRANCH  12  13
ATOM     13  C   UNL     1      -6.992  -5.191 -11.466  1.00  0.00    -0.000 C 
BRANCH  13  14
ATOM     14  C   UNL     1      -7.169  -5.061  -9.942  1.00  0.00    -0.000 C 
BRANCH  14  15
ATOM     15  C   UNL     1      -6.961  -3.626  -9.437  1.00  0.00    -0.000 C 
BRANCH  15  16
ATOM     16  C   UNL     1      -5.896  -3.584  -8.330  1.00  0.00    -0.000 C 
BRANCH  16  17
ATOM     17  C   UNL     1      -4.998  -4.834  -8.339  1.00  0.00    -0.000 C 
BRANCH  17  18
ATOM     18  C   UNL     1      -4.410  -5.171  -6.949  1.00  0.00    -0.000 C 
BRANCH  18  19
ATOM     19  C   UNL     1      -4.440  -3.986  -5.970  1.00  0.00    -0.003 C 
ATOM     20  C   UNL     1      -4.029  -4.376  -4.553  1.00  0.00     0.004 C 
ENDBRANCH  18  19
ENDBRANCH  17  18
ENDBRANCH  16  17
ENDBRANCH  15  16
ENDBRANCH  14  15
ENDBRANCH  13  14
ENDBRANCH  12  13
ENDBRANCH   1  12
TORSDOF 16
ENDMDL
