MODEL 1
REMARK VINA RESULT:    -4.277      0.000      0.000
REMARK INTER + INTRA:          -4.926
REMARK INTER:                  -4.777
REMARK INTRA:                  -0.150
REMARK UNBOUND:                -0.150
REMARK SMILES C=CCc1ccc2c(c1)OCO2
REMARK SMILES IDX 3 1 2 2 1 3 4 4 9 5 5 6 8 7 6 8 7 9 10 10 12 11 11 12
REMARK H PARENT
REMARK Flexibility Score: inf
ROOT
ATOM      1  C   UNL     1      -8.228   1.313  -8.596  1.00  0.00     0.062 C 
ENDROOT
BRANCH   1   2
ATOM      2  C   UNL     1      -6.844   1.793  -8.930  1.00  0.00    -0.030 C 
ATOM      3  C   UNL     1      -5.756   1.110  -8.562  1.00  0.00     0.004 C 
ENDBRANCH   1   2
BRANCH   1   4
ATOM      4  C   UNL     1      -8.372  -0.154  -8.899  1.00  0.00    -0.040 A 
ATOM      5  C   UNL     1      -8.509  -0.589 -10.236  1.00  0.00     0.054 A 
ATOM      6  C   UNL     1      -8.415  -1.102  -7.844  1.00  0.00     0.008 A 
ATOM      7  C   UNL     1      -8.668  -1.952 -10.466  1.00  0.00     0.166 A 
ATOM      8  C   UNL     1      -8.577  -2.472  -8.122  1.00  0.00     0.051 A 
ATOM      9  C   UNL     1      -8.699  -2.855  -9.454  1.00  0.00     0.165 A 
ATOM     10  O   UNL     1      -8.816  -2.610 -11.673  1.00  0.00    -0.454 OA
ATOM     11  O   UNL     1      -8.868  -4.124  -9.973  1.00  0.00    -0.454 OA
ATOM     12  C   UNL     1      -8.948  -4.012 -11.400  1.00  0.00     0.468 C 
ENDBRANCH   1   4
TORSDOF 2
ENDMDL
MODEL 2
REMARK VINA RESULT:    -4.107      1.648      2.707
REMARK INTER + INTRA:          -4.737
REMARK INTER:                  -4.829
REMARK INTRA:                   0.092
REMARK UNBOUND:                -0.150
REMARK SMILES C=CCc1ccc2c(c1)OCO2
REMARK SMILES IDX 3 1 2 2 1 3 4 4 9 5 5 6 8 7 6 8 7 9 10 10 12 11 11 12
REMARK H PARENT
REMARK Flexibility Score: inf
ROOT
ATOM      1  C   UNL     1      -7.827   0.884 -10.107  1.00  0.00     0.062 C 
ENDROOT
BRANCH   1   2
ATOM      2  C   UNL     1      -7.103   1.755  -9.118  1.00  0.00    -0.030 C 
ATOM      3  C   UNL     1      -5.800   1.598  -8.867  1.00  0.00     0.004 C 
ENDBRANCH   1   2
BRANCH   1   4
ATOM      4  C   UNL     1      -8.109  -0.471  -9.516  1.00  0.00    -0.040 A 
ATOM      5  C   UNL     1      -7.990  -0.673  -8.123  1.00  0.00     0.054 A 
ATOM      6  C   UNL     1      -8.452  -1.561 -10.357  1.00  0.00     0.008 A 
ATOM      7  C   UNL     1      -8.233  -1.950  -7.625  1.00  0.00     0.166 A 
ATOM      8  C   UNL     1      -8.690  -2.836  -9.812  1.00  0.00     0.051 A 
ATOM      9  C   UNL     1      -8.569  -2.986  -8.435  1.00  0.00     0.165 A 
ATOM     10  O   UNL     1      -8.183  -2.387  -6.315  1.00  0.00    -0.454 OA
ATOM     11  O   UNL     1      -8.748  -4.125  -7.673  1.00  0.00    -0.454 OA
ATOM     12  C   UNL     1      -8.509  -3.784  -6.301  1.00  0.00     0.468 C 
ENDBRANCH   1   4
TORSDOF 2
ENDMDL
MODEL 3
REMARK VINA RESULT:    -3.924     10.654     12.210
REMARK INTER + INTRA:          -4.532
REMARK INTER:                  -4.368
REMARK INTRA:                  -0.164
REMARK UNBOUND:                -0.150
REMARK SMILES C=CCc1ccc2c(c1)OCO2
REMARK SMILES IDX 3 1 2 2 1 3 4 4 9 5 5 6 8 7 6 8 7 9 10 10 12 11 11 12
REMARK H PARENT
REMARK Flexibility Score: inf
ROOT
ATOM      1  C   UNL     1      -8.469   0.685 -23.496  1.00  0.00     0.062 C 
ENDROOT
BRANCH   1   2
ATOM      2  C   UNL     1      -7.284  -0.007 -24.109  1.00  0.00    -0.030 C 
ATOM      3  C   UNL     1      -7.100  -0.042 -25.433  1.00  0.00     0.004 C 
ENDBRANCH   1   2
BRANCH   1   4
ATOM      4  C   UNL     1      -8.531   0.423 -22.015  1.00  0.00    -0.040 A 
ATOM      5  C   UNL     1      -8.725   1.496 -21.115  1.00  0.00     0.054 A 
ATOM      6  C   UNL     1      -8.351  -0.891 -21.512  1.00  0.00     0.008 A 
ATOM      7  C   UNL     1      -8.747   1.209 -19.753  1.00  0.00     0.166 A 
ATOM      8  C   UNL     1      -8.380  -1.136 -20.127  1.00  0.00     0.051 A 
ATOM      9  C   UNL     1      -8.583  -0.052 -19.280  1.00  0.00     0.165 A 
ATOM     10  O   UNL     1      -8.923   2.079 -18.694  1.00  0.00    -0.454 OA
ATOM     11  O   UNL     1      -8.649  -0.037 -17.900  1.00  0.00    -0.454 OA
ATOM     12  C   UNL     1      -8.867   1.316 -17.480  1.00  0.00     0.468 C 
ENDBRANCH   1   4
TORSDOF 2
ENDMDL
MODEL 4
REMARK VINA RESULT:    -3.649      2.311      4.286
REMARK INTER + INTRA:          -4.226
REMARK INTER:                  -4.000
REMARK INTRA:                  -0.225
REMARK UNBOUND:                -0.150
REMARK SMILES C=CCc1ccc2c(c1)OCO2
REMARK SMILES IDX 3 1 2 2 1 3 4 4 9 5 5 6 8 7 6 8 7 9 10 10 12 11 11 12
REMARK H PARENT
REMARK Flexibility Score: inf
ROOT
ATOM      1  C   UNL     1      -9.040  -3.475  -6.971  1.00  0.00     0.062 C 
ENDROOT
BRANCH   1   2
ATOM      2  C   UNL     1      -7.697  -4.103  -6.723  1.00  0.00    -0.030 C 
ATOM      3  C   UNL     1      -6.753  -3.482  -6.008  1.00  0.00     0.004 C 
ENDBRANCH   1   2
BRANCH   1   4
ATOM      4  C   UNL     1      -8.936  -2.384  -8.002  1.00  0.00    -0.040 A 
ATOM      5  C   UNL     1      -9.087  -1.032  -7.617  1.00  0.00     0.054 A 
ATOM      6  C   UNL     1      -8.730  -2.706  -9.368  1.00  0.00     0.008 A 
ATOM      7  C   UNL     1      -9.012  -0.059  -8.610  1.00  0.00     0.166 A 
ATOM      8  C   UNL     1      -8.661  -1.690 -10.339  1.00  0.00     0.051 A 
ATOM      9  C   UNL     1      -8.807  -0.374  -9.913  1.00  0.00     0.165 A 
ATOM     10  O   UNL     1      -9.125   1.313  -8.480  1.00  0.00    -0.454 OA
ATOM     11  O   UNL     1      -8.779   0.783 -10.667  1.00  0.00    -0.454 OA
ATOM     12  C   UNL     1      -8.980   1.894  -9.783  1.00  0.00     0.468 C 
ENDBRANCH   1   4
TORSDOF 2
ENDMDL
MODEL 5
REMARK VINA RESULT:    -3.586     11.588     12.921
REMARK INTER + INTRA:          -4.155
REMARK INTER:                  -3.975
REMARK INTRA:                  -0.180
REMARK UNBOUND:                -0.150
REMARK SMILES C=CCc1ccc2c(c1)OCO2
REMARK SMILES IDX 3 1 2 2 1 3 4 4 9 5 5 6 8 7 6 8 7 9 10 10 12 11 11 12
REMARK H PARENT
REMARK Flexibility Score: inf
ROOT
ATOM      1  C   UNL     1      -8.393   0.118 -19.424  1.00  0.00     0.062 C 
ENDROOT
BRANCH   1   2
ATOM      2  C   UNL     1      -8.578   1.432 -18.717  1.00  0.00    -0.030 C 
ATOM      3  C   UNL     1      -9.125   1.503 -17.500  1.00  0.00     0.004 C 
ENDBRANCH   1   2
BRANCH   1   4
ATOM      4  C   UNL     1      -8.534   0.289 -20.913  1.00  0.00    -0.040 A 
ATOM      5  C   UNL     1      -8.376  -0.824 -21.770  1.00  0.00     0.054 A 
ATOM      6  C   UNL     1      -8.781   1.572 -21.466  1.00  0.00     0.008 A 
ATOM      7  C   UNL     1      -8.486  -0.612 -23.141  1.00  0.00     0.166 A 
ATOM      8  C   UNL     1      -8.885   1.741 -22.859  1.00  0.00     0.051 A 
ATOM      9  C   UNL     1      -8.731   0.616 -23.663  1.00  0.00     0.165 A 
ATOM     10  O   UNL     1      -8.375  -1.534 -24.166  1.00  0.00    -0.454 OA
ATOM     11  O   UNL     1      -8.787   0.528 -25.040  1.00  0.00    -0.454 OA
ATOM     12  C   UNL     1      -8.563  -0.840 -25.407  1.00  0.00     0.468 C 
ENDBRANCH   1   4
TORSDOF 2
ENDMDL
MODEL 6
REMARK VINA RESULT:    -3.567     11.581     12.979
REMARK INTER + INTRA:          -4.133
REMARK INTER:                  -3.984
REMARK INTRA:                  -0.149
REMARK UNBOUND:                -0.150
REMARK SMILES C=CCc1ccc2c(c1)OCO2
REMARK SMILES IDX 3 1 2 2 1 3 4 4 9 5 5 6 8 7 6 8 7 9 10 10 12 11 11 12
REMARK H PARENT
REMARK Flexibility Score: inf
ROOT
ATOM      1  C   UNL     1      -7.693   0.094 -19.633  1.00  0.00     0.062 C 
ENDROOT
BRANCH   1   2
ATOM      2  C   UNL     1      -8.654   1.135 -19.133  1.00  0.00    -0.030 C 
ATOM      3  C   UNL     1      -8.926   1.274 -17.832  1.00  0.00     0.004 C 
ENDBRANCH   1   2
BRANCH   1   4
ATOM      4  C   UNL     1      -8.028  -0.308 -21.044  1.00  0.00    -0.040 A 
ATOM      5  C   UNL     1      -7.624   0.508 -22.125  1.00  0.00     0.054 A 
ATOM      6  C   UNL     1      -8.786  -1.480 -21.294  1.00  0.00     0.008 A 
ATOM      7  C   UNL     1      -7.981   0.112 -23.411  1.00  0.00     0.166 A 
ATOM      8  C   UNL     1      -9.125  -1.844 -22.611  1.00  0.00     0.051 A 
ATOM      9  C   UNL     1      -8.699  -1.016 -23.644  1.00  0.00     0.165 A 
ATOM     10  O   UNL     1      -7.702   0.736 -24.612  1.00  0.00    -0.454 OA
ATOM     11  O   UNL     1      -8.906  -1.157 -25.002  1.00  0.00    -0.454 OA
ATOM     12  C   UNL     1      -8.280  -0.050 -25.664  1.00  0.00     0.468 C 
ENDBRANCH   1   4
TORSDOF 2
ENDMDL
MODEL 7
REMARK VINA RESULT:    -3.487     11.417     13.014
REMARK INTER + INTRA:          -4.044
REMARK INTER:                  -3.876
REMARK INTRA:                  -0.169
REMARK UNBOUND:                -0.150
REMARK SMILES C=CCc1ccc2c(c1)OCO2
REMARK SMILES IDX 3 1 2 2 1 3 4 4 9 5 5 6 8 7 6 8 7 9 10 10 12 11 11 12
REMARK H PARENT
REMARK Flexibility Score: inf
ROOT
ATOM      1  C   UNL     1      -8.553  -0.229 -24.433  1.00  0.00     0.062 C 
ENDROOT
BRANCH   1   2
ATOM      2  C   UNL     1      -7.131  -0.321 -24.910  1.00  0.00    -0.030 C 
ATOM      3  C   UNL     1      -6.682   0.423 -25.925  1.00  0.00     0.004 C 
ENDBRANCH   1   2
BRANCH   1   4
ATOM      4  C   UNL     1      -8.604   0.131 -22.972  1.00  0.00    -0.040 A 
ATOM      5  C   UNL     1      -8.344  -0.853 -21.992  1.00  0.00     0.054 A 
ATOM      6  C   UNL     1      -8.956   1.446 -22.571  1.00  0.00     0.008 A 
ATOM      7  C   UNL     1      -8.431  -0.480 -20.654  1.00  0.00     0.166 A 
ATOM      8  C   UNL     1      -9.032   1.780 -21.206  1.00  0.00     0.051 A 
ATOM      9  C   UNL     1      -8.759   0.781 -20.278  1.00  0.00     0.165 A 
ATOM     10  O   UNL     1      -8.220  -1.256 -19.529  1.00  0.00    -0.454 OA
ATOM     11  O   UNL     1      -8.770   0.861 -18.898  1.00  0.00    -0.454 OA
ATOM     12  C   UNL     1      -8.428  -0.429 -18.376  1.00  0.00     0.468 C 
ENDBRANCH   1   4
TORSDOF 2
ENDMDL
MODEL 8
REMARK VINA RESULT:    -3.143     22.035     23.143
REMARK INTER + INTRA:          -3.660
REMARK INTER:                  -3.492
REMARK INTRA:                  -0.168
REMARK UNBOUND:                -0.150
REMARK SMILES C=CCc1ccc2c(c1)OCO2
REMARK SMILES IDX 3 1 2 2 1 3 4 4 9 5 5 6 8 7 6 8 7 9 10 10 12 11 11 12
REMARK H PARENT
REMARK Flexibility Score: inf
ROOT
ATOM      1  C   UNL     1      11.125  12.016  -9.116  1.00  0.00     0.062 C 
ENDROOT
BRANCH   1   2
ATOM      2  C   UNL     1      11.044  10.864  -8.154  1.00  0.00    -0.030 C 
ATOM      3  C   UNL     1      10.999   9.597  -8.577  1.00  0.00     0.004 C 
ENDBRANCH   1   2
BRANCH   1   4
ATOM      4  C   UNL     1      10.096  13.062  -8.783  1.00  0.00    -0.040 A 
ATOM      5  C   UNL     1       9.093  12.787  -7.826  1.00  0.00     0.054 A 
ATOM      6  C   UNL     1      10.100  14.311  -9.457  1.00  0.00     0.008 A 
ATOM      7  C   UNL     1       8.146  13.775  -7.572  1.00  0.00     0.166 A 
ATOM      8  C   UNL     1       9.123  15.281  -9.168  1.00  0.00     0.051 A 
ATOM      9  C   UNL     1       8.161  14.970  -8.214  1.00  0.00     0.165 A 
ATOM     10  O   UNL     1       7.083  13.741  -6.688  1.00  0.00    -0.454 OA
ATOM     11  O   UNL     1       7.110  15.746  -7.765  1.00  0.00    -0.454 OA
ATOM     12  C   UNL     1       6.389  14.993  -6.781  1.00  0.00     0.468 C 
ENDBRANCH   1   4
TORSDOF 2
ENDMDL
MODEL 9
REMARK VINA RESULT:    -2.959     21.816     23.383
REMARK INTER + INTRA:          -3.455
REMARK INTER:                  -3.277
REMARK INTRA:                  -0.178
REMARK UNBOUND:                -0.150
REMARK SMILES C=CCc1ccc2c(c1)OCO2
REMARK SMILES IDX 3 1 2 2 1 3 4 4 9 5 5 6 8 7 6 8 7 9 10 10 12 11 11 12
REMARK H PARENT
REMARK Flexibility Score: inf
ROOT
ATOM      1  C   UNL     1      11.095  10.256  -8.921  1.00  0.00     0.062 C 
ENDROOT
BRANCH   1   2
ATOM      2  C   UNL     1      11.123   9.180  -7.871  1.00  0.00    -0.030 C 
ATOM      3  C   UNL     1      10.777   7.920  -8.148  1.00  0.00     0.004 C 
ENDBRANCH   1   2
BRANCH   1   4
ATOM      4  C   UNL     1      10.593  11.552  -8.344  1.00  0.00    -0.040 A 
ATOM      5  C   UNL     1      10.012  12.523  -9.190  1.00  0.00     0.054 A 
ATOM      6  C   UNL     1      10.739  11.823  -6.959  1.00  0.00     0.008 A 
ATOM      7  C   UNL     1       9.588  13.718  -8.616  1.00  0.00     0.166 A 
ATOM      8  C   UNL     1      10.296  13.045  -6.420  1.00  0.00     0.051 A 
ATOM      9  C   UNL     1       9.723  13.968  -7.289  1.00  0.00     0.165 A 
ATOM     10  O   UNL     1       8.995  14.805  -9.231  1.00  0.00    -0.454 OA
ATOM     11  O   UNL     1       9.221  15.223  -7.004  1.00  0.00    -0.454 OA
ATOM     12  C   UNL     1       8.741  15.798  -8.227  1.00  0.00     0.468 C 
ENDBRANCH   1   4
TORSDOF 2
ENDMDL
