MODEL 1
REMARK VINA RESULT:    -4.141      0.000      0.000
REMARK INTER + INTRA:          -5.829
REMARK INTER:                  -5.352
REMARK INTRA:                  -0.478
REMARK UNBOUND:                -0.478
REMARK SMILES CO[C@@]1(CO)O[C@H](CO)[C@@H](O)[C@@H]1O
REMARK SMILES IDX 3 1 12 2 10 3 7 4 6 5 2 6 1 7 4 8 5 9 13 11 11 13 8 15 9 16
REMARK H PARENT 5 10 13 12 11 14 9 17
REMARK Flexibility Score: inf
ROOT
ATOM      1  C   UNL     1      11.466  -3.680   2.206  1.00  0.00     0.221 C 
ATOM      2  C   UNL     1      12.808  -3.566   1.436  1.00  0.00     0.207 C 
ATOM      3  C   UNL     1      13.449  -2.333   2.017  1.00  0.00     0.180 C 
ATOM      4  C   UNL     1      12.889  -2.341   3.432  1.00  0.00     0.179 C 
ATOM      5  O   UNL     1      11.617  -2.953   3.414  1.00  0.00    -0.337 OA
ENDROOT
BRANCH   1   6
ATOM      6  O   UNL     1      11.199  -5.033   2.573  1.00  0.00    -0.349 OA
ATOM      7  C   UNL     1      10.364  -5.159   3.709  1.00  0.00     0.198 C 
ENDBRANCH   1   6
BRANCH   1   8
ATOM      8  C   UNL     1      10.272  -3.029   1.460  1.00  0.00     0.224 C 
BRANCH   8   9
ATOM      9  O   UNL     1       9.867  -3.851   0.400  1.00  0.00    -0.391 OA
ATOM     10  H   UNL     1       8.881  -3.760   0.340  1.00  0.00     0.210 HD
ENDBRANCH   8   9
ENDBRANCH   1   8
BRANCH   2  11
ATOM     11  O   UNL     1      12.674  -3.513   0.032  1.00  0.00    -0.385 OA
ATOM     12  H   UNL     1      13.565  -3.651  -0.382  1.00  0.00     0.211 HD
ENDBRANCH   2  11
BRANCH   3  13
ATOM     13  O   UNL     1      14.847  -2.450   2.012  1.00  0.00    -0.387 OA
ATOM     14  H   UNL     1      15.057  -3.309   1.561  1.00  0.00     0.211 HD
ENDBRANCH   3  13
BRANCH   4  15
ATOM     15  C   UNL     1      12.774  -0.924   4.009  1.00  0.00     0.191 C 
BRANCH  15  16
ATOM     16  O   UNL     1      12.846   0.029   2.983  1.00  0.00    -0.394 OA
ATOM     17  H   UNL     1      12.696  -0.459   2.131  1.00  0.00     0.210 HD
ENDBRANCH  15  16
ENDBRANCH   4  15
TORSDOF 7
ENDMDL
MODEL 2
REMARK VINA RESULT:    -4.117      1.463      1.957
REMARK INTER + INTRA:          -5.798
REMARK INTER:                  -5.226
REMARK INTRA:                  -0.572
REMARK UNBOUND:                -0.478
REMARK SMILES CO[C@@]1(CO)O[C@H](CO)[C@@H](O)[C@@H]1O
REMARK SMILES IDX 3 1 12 2 10 3 7 4 6 5 2 6 1 7 4 8 5 9 13 11 11 13 8 15 9 16
REMARK H PARENT 5 10 13 12 11 14 9 17
REMARK Flexibility Score: inf
ROOT
ATOM      1  C   UNL     1      10.416  -4.429   2.472  1.00  0.00     0.221 C 
ATOM      2  C   UNL     1      10.957  -4.228   1.032  1.00  0.00     0.207 C 
ATOM      3  C   UNL     1      12.047  -3.203   1.201  1.00  0.00     0.180 C 
ATOM      4  C   UNL     1      12.520  -3.497   2.617  1.00  0.00     0.179 C 
ATOM      5  O   UNL     1      11.435  -4.007   3.362  1.00  0.00    -0.337 OA
ENDROOT
BRANCH   1   6
ATOM      6  O   UNL     1      10.181  -5.810   2.743  1.00  0.00    -0.349 OA
ATOM      7  C   UNL     1      11.053  -6.681   2.047  1.00  0.00     0.198 C 
ENDBRANCH   1   6
BRANCH   1   8
ATOM      8  C   UNL     1       9.177  -3.551   2.791  1.00  0.00     0.224 C 
BRANCH   8   9
ATOM      9  O   UNL     1       8.015  -4.180   2.326  1.00  0.00    -0.391 OA
ATOM     10  H   UNL     1       8.145  -5.151   2.481  1.00  0.00     0.210 HD
ENDBRANCH   8   9
ENDBRANCH   1   8
BRANCH   2  11
ATOM     11  O   UNL     1       9.980  -3.849   0.087  1.00  0.00    -0.385 OA
ATOM     12  H   UNL     1      10.167  -2.923  -0.217  1.00  0.00     0.211 HD
ENDBRANCH   2  11
BRANCH   3  13
ATOM     13  O   UNL     1      13.069  -3.404   0.261  1.00  0.00    -0.387 OA
ATOM     14  H   UNL     1      12.963  -4.331  -0.077  1.00  0.00     0.211 HD
ENDBRANCH   3  13
BRANCH   4  15
ATOM     15  C   UNL     1      13.078  -2.244   3.305  1.00  0.00     0.191 C 
BRANCH  15  16
ATOM     16  O   UNL     1      13.575  -1.344   2.352  1.00  0.00    -0.394 OA
ATOM     17  H   UNL     1      12.833  -1.161   1.719  1.00  0.00     0.210 HD
ENDBRANCH  15  16
ENDBRANCH   4  15
TORSDOF 7
ENDMDL
MODEL 3
REMARK VINA RESULT:    -4.087      1.488      4.080
REMARK INTER + INTRA:          -5.759
REMARK INTER:                  -5.343
REMARK INTRA:                  -0.416
REMARK UNBOUND:                -0.478
REMARK SMILES CO[C@@]1(CO)O[C@H](CO)[C@@H](O)[C@@H]1O
REMARK SMILES IDX 3 1 12 2 10 3 7 4 6 5 2 6 1 7 4 8 5 9 13 11 11 13 8 15 9 16
REMARK H PARENT 5 10 13 12 11 14 9 17
REMARK Flexibility Score: inf
ROOT
ATOM      1  C   UNL     1      11.919  -3.197   2.543  1.00  0.00     0.221 C 
ATOM      2  C   UNL     1      11.846  -3.107   0.996  1.00  0.00     0.207 C 
ATOM      3  C   UNL     1      10.671  -3.982   0.643  1.00  0.00     0.180 C 
ATOM      4  C   UNL     1       9.803  -3.834   1.884  1.00  0.00     0.179 C 
ATOM      5  O   UNL     1      10.637  -3.596   2.998  1.00  0.00    -0.337 OA
ENDROOT
BRANCH   1   6
ATOM      6  O   UNL     1      12.177  -1.917   3.119  1.00  0.00    -0.349 OA
ATOM      7  C   UNL     1      13.554  -1.620   3.247  1.00  0.00     0.198 C 
ENDBRANCH   1   6
BRANCH   1   8
ATOM      8  C   UNL     1      12.910  -4.278   3.050  1.00  0.00     0.224 C 
BRANCH   8   9
ATOM      9  O   UNL     1      12.264  -5.130   3.955  1.00  0.00    -0.391 OA
ATOM     10  H   UNL     1      12.969  -5.717   4.334  1.00  0.00     0.210 HD
ENDBRANCH   8   9
ENDBRANCH   1   8
BRANCH   2  11
ATOM     11  O   UNL     1      13.033  -3.478   0.331  1.00  0.00    -0.385 OA
ATOM     12  H   UNL     1      13.414  -4.281   0.773  1.00  0.00     0.211 HD
ENDBRANCH   2  11
BRANCH   3  13
ATOM     13  O   UNL     1      10.022  -3.503  -0.505  1.00  0.00    -0.387 OA
ATOM     14  H   UNL     1      10.687  -2.956  -0.998  1.00  0.00     0.211 HD
ENDBRANCH   3  13
BRANCH   4  15
ATOM     15  C   UNL     1       8.947  -5.083   2.134  1.00  0.00     0.191 C 
BRANCH  15  16
ATOM     16  O   UNL     1       8.317  -5.489   0.949  1.00  0.00    -0.394 OA
ATOM     17  H   UNL     1       7.547  -4.878   0.812  1.00  0.00     0.210 HD
ENDBRANCH  15  16
ENDBRANCH   4  15
TORSDOF 7
ENDMDL
MODEL 4
REMARK VINA RESULT:    -3.825      2.973      4.176
REMARK INTER + INTRA:          -5.421
REMARK INTER:                  -5.028
REMARK INTRA:                  -0.392
REMARK UNBOUND:                -0.478
REMARK SMILES CO[C@@]1(CO)O[C@H](CO)[C@@H](O)[C@@H]1O
REMARK SMILES IDX 3 1 12 2 10 3 7 4 6 5 2 6 1 7 4 8 5 9 13 11 11 13 8 15 9 16
REMARK H PARENT 5 10 13 12 11 14 9 17
REMARK Flexibility Score: inf
ROOT
ATOM      1  C   UNL     1       8.532  -4.933   2.905  1.00  0.00     0.221 C 
ATOM      2  C   UNL     1       9.750  -5.745   3.416  1.00  0.00     0.207 C 
ATOM      3  C   UNL     1      10.828  -5.445   2.407  1.00  0.00     0.180 C 
ATOM      4  C   UNL     1      10.438  -4.044   1.959  1.00  0.00     0.179 C 
ATOM      5  O   UNL     1       9.038  -3.902   2.073  1.00  0.00    -0.337 OA
ENDROOT
BRANCH   1   6
ATOM      6  O   UNL     1       7.855  -4.291   3.985  1.00  0.00    -0.349 OA
ATOM      7  C   UNL     1       7.089  -3.169   3.588  1.00  0.00     0.198 C 
ENDBRANCH   1   6
BRANCH   1   8
ATOM      8  C   UNL     1       7.567  -5.764   2.019  1.00  0.00     0.224 C 
BRANCH   8   9
ATOM      9  O   UNL     1       7.813  -5.498   0.666  1.00  0.00    -0.391 OA
ATOM     10  H   UNL     1       8.800  -5.491   0.560  1.00  0.00     0.210 HD
ENDBRANCH   8   9
ENDBRANCH   1   8
BRANCH   2  11
ATOM     11  O   UNL     1       9.509  -7.126   3.574  1.00  0.00    -0.385 OA
ATOM     12  H   UNL     1       9.094  -7.479   2.745  1.00  0.00     0.211 HD
ENDBRANCH   2  11
BRANCH   3  13
ATOM     13  O   UNL     1      12.094  -5.463   3.012  1.00  0.00    -0.387 OA
ATOM     14  H   UNL     1      12.210  -6.370   3.397  1.00  0.00     0.211 HD
ENDBRANCH   3  13
BRANCH   4  15
ATOM     15  C   UNL     1      10.872  -3.764   0.514  1.00  0.00     0.191 C 
BRANCH  15  16
ATOM     16  O   UNL     1       9.751  -3.551  -0.300  1.00  0.00    -0.394 OA
ATOM     17  H   UNL     1       9.549  -4.419  -0.738  1.00  0.00     0.210 HD
ENDBRANCH  15  16
ENDBRANCH   4  15
TORSDOF 7
ENDMDL
MODEL 5
REMARK VINA RESULT:    -3.792      3.265      5.871
REMARK INTER + INTRA:          -5.379
REMARK INTER:                  -4.810
REMARK INTRA:                  -0.569
REMARK UNBOUND:                -0.478
REMARK SMILES CO[C@@]1(CO)O[C@H](CO)[C@@H](O)[C@@H]1O
REMARK SMILES IDX 3 1 12 2 10 3 7 4 6 5 2 6 1 7 4 8 5 9 13 11 11 13 8 15 9 16
REMARK H PARENT 5 10 13 12 11 14 9 17
REMARK Flexibility Score: inf
ROOT
ATOM      1  C   UNL     1       9.117  -4.714   3.041  1.00  0.00     0.221 C 
ATOM      2  C   UNL     1       8.568  -5.406   1.766  1.00  0.00     0.207 C 
ATOM      3  C   UNL     1       7.113  -5.634   2.082  1.00  0.00     0.180 C 
ATOM      4  C   UNL     1       6.823  -4.472   3.020  1.00  0.00     0.179 C 
ATOM      5  O   UNL     1       8.008  -4.139   3.712  1.00  0.00    -0.337 OA
ENDROOT
BRANCH   1   6
ATOM      6  O   UNL     1       9.992  -3.639   2.704  1.00  0.00    -0.349 OA
ATOM      7  C   UNL     1      10.077  -3.390   1.313  1.00  0.00     0.198 C 
ENDBRANCH   1   6
BRANCH   1   8
ATOM      8  C   UNL     1       9.763  -5.703   4.047  1.00  0.00     0.224 C 
BRANCH   8   9
ATOM      9  O   UNL     1      11.048  -6.052   3.613  1.00  0.00    -0.391 OA
ATOM     10  H   UNL     1      11.446  -5.226   3.232  1.00  0.00     0.210 HD
ENDBRANCH   8   9
ENDBRANCH   1   8
BRANCH   2  11
ATOM     11  O   UNL     1       9.248  -6.587   1.402  1.00  0.00    -0.385 OA
ATOM     12  H   UNL     1       8.789  -6.998   0.624  1.00  0.00     0.211 HD
ENDBRANCH   2  11
BRANCH   3  13
ATOM     13  O   UNL     1       6.334  -5.566   0.917  1.00  0.00    -0.387 OA
ATOM     14  H   UNL     1       6.066  -6.497   0.702  1.00  0.00     0.211 HD
ENDBRANCH   3  13
BRANCH   4  15
ATOM     15  C   UNL     1       5.714  -4.810   4.024  1.00  0.00     0.191 C 
BRANCH  15  16
ATOM     16  O   UNL     1       4.788  -5.693   3.450  1.00  0.00    -0.394 OA
ATOM     17  H   UNL     1       4.038  -5.137   3.112  1.00  0.00     0.210 HD
ENDBRANCH  15  16
ENDBRANCH   4  15
TORSDOF 7
ENDMDL
MODEL 6
REMARK VINA RESULT:    -3.743      0.935      3.964
REMARK INTER + INTRA:          -5.314
REMARK INTER:                  -4.772
REMARK INTRA:                  -0.543
REMARK UNBOUND:                -0.478
REMARK SMILES CO[C@@]1(CO)O[C@H](CO)[C@@H](O)[C@@H]1O
REMARK SMILES IDX 3 1 12 2 10 3 7 4 6 5 2 6 1 7 4 8 5 9 13 11 11 13 8 15 9 16
REMARK H PARENT 5 10 13 12 11 14 9 17
REMARK Flexibility Score: inf
ROOT
ATOM      1  C   UNL     1      13.011  -2.662   2.548  1.00  0.00     0.221 C 
ATOM      2  C   UNL     1      12.315  -3.088   1.229  1.00  0.00     0.207 C 
ATOM      3  C   UNL     1      11.439  -4.241   1.645  1.00  0.00     0.180 C 
ATOM      4  C   UNL     1      11.126  -3.876   3.089  1.00  0.00     0.179 C 
ATOM      5  O   UNL     1      12.207  -3.136   3.615  1.00  0.00    -0.337 OA
ENDROOT
BRANCH   1   6
ATOM      6  O   UNL     1      13.053  -1.240   2.668  1.00  0.00    -0.349 OA
ATOM      7  C   UNL     1      13.050  -0.784   4.007  1.00  0.00     0.198 C 
ENDBRANCH   1   6
BRANCH   1   8
ATOM      8  C   UNL     1      14.408  -3.308   2.742  1.00  0.00     0.224 C 
BRANCH   8   9
ATOM      9  O   UNL     1      15.298  -2.818   1.778  1.00  0.00    -0.391 OA
ATOM     10  H   UNL     1      15.568  -3.599   1.228  1.00  0.00     0.210 HD
ENDBRANCH   8   9
ENDBRANCH   1   8
BRANCH   2  11
ATOM     11  O   UNL     1      13.198  -3.414   0.179  1.00  0.00    -0.385 OA
ATOM     12  H   UNL     1      13.612  -2.580  -0.166  1.00  0.00     0.211 HD
ENDBRANCH   2  11
BRANCH   3  13
ATOM     13  O   UNL     1      10.277  -4.292   0.860  1.00  0.00    -0.387 OA
ATOM     14  H   UNL     1       9.519  -4.430   1.486  1.00  0.00     0.211 HD
ENDBRANCH   3  13
BRANCH   4  15
ATOM     15  C   UNL     1      10.880  -5.120   3.953  1.00  0.00     0.191 C 
BRANCH  15  16
ATOM     16  O   UNL     1      10.846  -6.271   3.153  1.00  0.00    -0.394 OA
ATOM     17  H   UNL     1      10.139  -6.858   3.529  1.00  0.00     0.210 HD
ENDBRANCH  15  16
ENDBRANCH   4  15
TORSDOF 7
ENDMDL
MODEL 7
REMARK VINA RESULT:    -3.717      3.091      4.772
REMARK INTER + INTRA:          -5.281
REMARK INTER:                  -4.720
REMARK INTRA:                  -0.561
REMARK UNBOUND:                -0.478
REMARK SMILES CO[C@@]1(CO)O[C@H](CO)[C@@H](O)[C@@H]1O
REMARK SMILES IDX 3 1 12 2 10 3 7 4 6 5 2 6 1 7 4 8 5 9 13 11 11 13 8 15 9 16
REMARK H PARENT 5 10 13 12 11 14 9 17
REMARK Flexibility Score: inf
ROOT
ATOM      1  C   UNL     1       9.852  -4.338   2.000  1.00  0.00     0.221 C 
ATOM      2  C   UNL     1       8.793  -5.464   1.879  1.00  0.00     0.207 C 
ATOM      3  C   UNL     1       9.551  -6.710   2.255  1.00  0.00     0.180 C 
ATOM      4  C   UNL     1      10.586  -6.152   3.222  1.00  0.00     0.179 C 
ATOM      5  O   UNL     1      10.872  -4.817   2.861  1.00  0.00    -0.337 OA
ENDROOT
BRANCH   1   6
ATOM      6  O   UNL     1       9.300  -3.180   2.626  1.00  0.00    -0.349 OA
ATOM      7  C   UNL     1       8.064  -3.419   3.272  1.00  0.00     0.198 C 
ENDBRANCH   1   6
BRANCH   1   8
ATOM      8  C   UNL     1      10.549  -4.002   0.655  1.00  0.00     0.224 C 
BRANCH   8   9
ATOM      9  O   UNL     1       9.624  -3.434  -0.231  1.00  0.00    -0.391 OA
ATOM     10  H   UNL     1      10.054  -3.445  -1.125  1.00  0.00     0.210 HD
ENDBRANCH   8   9
ENDBRANCH   1   8
BRANCH   2  11
ATOM     11  O   UNL     1       8.174  -5.552   0.614  1.00  0.00    -0.385 OA
ATOM     12  H   UNL     1       7.793  -4.667   0.378  1.00  0.00     0.211 HD
ENDBRANCH   2  11
BRANCH   3  13
ATOM     13  O   UNL     1       8.705  -7.638   2.880  1.00  0.00    -0.387 OA
ATOM     14  H   UNL     1       8.920  -8.525   2.490  1.00  0.00     0.211 HD
ENDBRANCH   3  13
BRANCH   4  15
ATOM     15  C   UNL     1      11.878  -6.979   3.216  1.00  0.00     0.191 C 
BRANCH  15  16
ATOM     16  O   UNL     1      11.710  -8.142   2.452  1.00  0.00    -0.394 OA
ATOM     17  H   UNL     1      11.656  -8.899   3.092  1.00  0.00     0.210 HD
ENDBRANCH  15  16
ENDBRANCH   4  15
TORSDOF 7
ENDMDL
MODEL 8
REMARK VINA RESULT:    -3.689      1.505      4.469
REMARK INTER + INTRA:          -5.245
REMARK INTER:                  -4.935
REMARK INTRA:                  -0.310
REMARK UNBOUND:                -0.478
REMARK SMILES CO[C@@]1(CO)O[C@H](CO)[C@@H](O)[C@@H]1O
REMARK SMILES IDX 3 1 12 2 10 3 7 4 6 5 2 6 1 7 4 8 5 9 13 11 11 13 8 15 9 16
REMARK H PARENT 5 10 13 12 11 14 9 17
REMARK Flexibility Score: inf
ROOT
ATOM      1  C   UNL     1      11.335  -3.686   1.717  1.00  0.00     0.221 C 
ATOM      2  C   UNL     1       9.881  -3.650   1.180  1.00  0.00     0.207 C 
ATOM      3  C   UNL     1       9.299  -4.963   1.635  1.00  0.00     0.180 C 
ATOM      4  C   UNL     1      10.088  -5.214   2.913  1.00  0.00     0.179 C 
ATOM      5  O   UNL     1      11.361  -4.617   2.785  1.00  0.00    -0.337 OA
ENDROOT
BRANCH   1   6
ATOM      6  O   UNL     1      11.711  -2.424   2.265  1.00  0.00    -0.349 OA
ATOM      7  C   UNL     1      12.299  -2.515   3.549  1.00  0.00     0.198 C 
ENDBRANCH   1   6
BRANCH   1   8
ATOM      8  C   UNL     1      12.363  -4.201   0.673  1.00  0.00     0.224 C 
BRANCH   8   9
ATOM      9  O   UNL     1      13.223  -3.161   0.298  1.00  0.00    -0.391 OA
ATOM     10  H   UNL     1      13.476  -3.338  -0.645  1.00  0.00     0.210 HD
ENDBRANCH   8   9
ENDBRANCH   1   8
BRANCH   2  11
ATOM     11  O   UNL     1       9.775  -3.450  -0.213  1.00  0.00    -0.385 OA
ATOM     12  H   UNL     1      10.501  -2.842  -0.508  1.00  0.00     0.211 HD
ENDBRANCH   2  11
BRANCH   3  13
ATOM     13  O   UNL     1       7.925  -4.836   1.891  1.00  0.00    -0.387 OA
ATOM     14  H   UNL     1       7.672  -5.608   2.462  1.00  0.00     0.211 HD
ENDBRANCH   3  13
BRANCH   4  15
ATOM     15  C   UNL     1      10.243  -6.712   3.203  1.00  0.00     0.191 C 
BRANCH  15  16
ATOM     16  O   UNL     1       9.449  -7.465   2.326  1.00  0.00    -0.394 OA
ATOM     17  H   UNL     1       8.670  -7.784   2.851  1.00  0.00     0.210 HD
ENDBRANCH  15  16
ENDBRANCH   4  15
TORSDOF 7
ENDMDL
MODEL 9
REMARK VINA RESULT:    -3.595      3.956      5.821
REMARK INTER + INTRA:          -5.123
REMARK INTER:                  -4.740
REMARK INTRA:                  -0.383
REMARK UNBOUND:                -0.478
REMARK SMILES CO[C@@]1(CO)O[C@H](CO)[C@@H](O)[C@@H]1O
REMARK SMILES IDX 3 1 12 2 10 3 7 4 6 5 2 6 1 7 4 8 5 9 13 11 11 13 8 15 9 16
REMARK H PARENT 5 10 13 12 11 14 9 17
REMARK Flexibility Score: inf
ROOT
ATOM      1  C   UNL     1       8.456  -5.554   3.163  1.00  0.00     0.221 C 
ATOM      2  C   UNL     1       8.478  -4.004   3.151  1.00  0.00     0.207 C 
ATOM      3  C   UNL     1       7.027  -3.625   3.287  1.00  0.00     0.180 C 
ATOM      4  C   UNL     1       6.484  -4.798   4.090  1.00  0.00     0.179 C 
ATOM      5  O   UNL     1       7.245  -5.948   3.786  1.00  0.00    -0.337 OA
ENDROOT
BRANCH   1   6
ATOM      6  O   UNL     1       9.516  -6.076   3.964  1.00  0.00    -0.349 OA
ATOM      7  C   UNL     1      10.696  -6.351   3.235  1.00  0.00     0.198 C 
ENDBRANCH   1   6
BRANCH   1   8
ATOM      8  C   UNL     1       8.432  -6.180   1.744  1.00  0.00     0.224 C 
BRANCH   8   9
ATOM      9  O   UNL     1       7.486  -5.521   0.948  1.00  0.00    -0.391 OA
ATOM     10  H   UNL     1       6.675  -5.417   1.512  1.00  0.00     0.210 HD
ENDBRANCH   8   9
ENDBRANCH   1   8
BRANCH   2  11
ATOM     11  O   UNL     1       9.095  -3.436   2.016  1.00  0.00    -0.385 OA
ATOM     12  H   UNL     1      10.037  -3.214   2.237  1.00  0.00     0.211 HD
ENDBRANCH   2  11
BRANCH   3  13
ATOM     13  O   UNL     1       6.892  -2.414   3.984  1.00  0.00    -0.387 OA
ATOM     14  H   UNL     1       5.945  -2.361   4.276  1.00  0.00     0.211 HD
ENDBRANCH   3  13
BRANCH   4  15
ATOM     15  C   UNL     1       5.003  -5.061   3.788  1.00  0.00     0.191 C 
BRANCH  15  16
ATOM     16  O   UNL     1       4.826  -5.353   2.428  1.00  0.00    -0.394 OA
ATOM     17  H   UNL     1       3.961  -4.947   2.160  1.00  0.00     0.210 HD
ENDBRANCH  15  16
ENDBRANCH   4  15
TORSDOF 7
ENDMDL
