MODEL 1
REMARK VINA RESULT:    -3.919      0.000      0.000
REMARK INTER + INTRA:          -4.034
REMARK INTER:                  -4.034
REMARK INTRA:                   0.000
REMARK UNBOUND:                 0.000
REMARK SMILES O=c1ccc2ccc(O)cc2o1
REMARK SMILES IDX 6 1 7 2 8 3 10 4 11 5 5 6 4 7 3 8 2 9 1 10 12 11 9 12
REMARK H PARENT 9 13
REMARK Flexibility Score: inf
ROOT
ATOM      1  C   UNL     1     -31.107 -18.900 -33.107  1.00  0.00     0.016 A 
ATOM      2  C   UNL     1     -29.711 -18.918 -33.179  1.00  0.00     0.047 A 
ATOM      3  C   UNL     1     -28.942 -18.932 -32.010  1.00  0.00     0.119 A 
ATOM      4  C   UNL     1     -29.573 -18.929 -30.756  1.00  0.00     0.094 A 
ATOM      5  C   UNL     1     -30.970 -18.911 -30.675  1.00  0.00     0.142 A 
ATOM      6  C   UNL     1     -31.742 -18.896 -31.857  1.00  0.00     0.018 A 
ATOM      7  C   UNL     1     -33.136 -18.878 -31.743  1.00  0.00     0.019 A 
ATOM      8  C   UNL     1     -33.719 -18.875 -30.476  1.00  0.00     0.094 A 
ATOM      9  C   UNL     1     -32.890 -18.891 -29.348  1.00  0.00     0.336 A 
ATOM     10  O   UNL     1     -33.397 -18.888 -28.196  1.00  0.00    -0.246 OA
ATOM     11  O   UNL     1     -31.567 -18.908 -29.485  1.00  0.00    -0.423 OA
ENDROOT
BRANCH   3  12
ATOM     12  O   UNL     1     -27.552 -18.950 -32.102  1.00  0.00    -0.508 OA
ATOM     13  H   UNL     1     -26.967 -19.012 -31.278  1.00  0.00     0.293 HD
ENDBRANCH   3  12
TORSDOF 1
ENDMDL
MODEL 2
REMARK VINA RESULT:    -3.844      2.728      3.945
REMARK INTER + INTRA:          -3.956
REMARK INTER:                  -3.956
REMARK INTRA:                   0.000
REMARK UNBOUND:                 0.000
REMARK SMILES O=c1ccc2ccc(O)cc2o1
REMARK SMILES IDX 6 1 7 2 8 3 10 4 11 5 5 6 4 7 3 8 2 9 1 10 12 11 9 12
REMARK H PARENT 9 13
REMARK Flexibility Score: inf
ROOT
ATOM      1  C   UNL     1     -28.189 -19.248 -32.617  1.00  0.00     0.016 A 
ATOM      2  C   UNL     1     -28.053 -18.875 -31.277  1.00  0.00     0.047 A 
ATOM      3  C   UNL     1     -29.016 -19.257 -30.335  1.00  0.00     0.119 A 
ATOM      4  C   UNL     1     -30.124 -20.019 -30.735  1.00  0.00     0.094 A 
ATOM      5  C   UNL     1     -30.268 -20.397 -32.075  1.00  0.00     0.142 A 
ATOM      6  C   UNL     1     -29.295 -20.009 -33.022  1.00  0.00     0.018 A 
ATOM      7  C   UNL     1     -29.466 -20.402 -34.353  1.00  0.00     0.019 A 
ATOM      8  C   UNL     1     -30.584 -21.159 -34.705  1.00  0.00     0.094 A 
ATOM      9  C   UNL     1     -31.507 -21.507 -33.712  1.00  0.00     0.336 A 
ATOM     10  O   UNL     1     -32.522 -22.189 -34.009  1.00  0.00    -0.246 OA
ATOM     11  O   UNL     1     -31.319 -21.120 -32.453  1.00  0.00    -0.423 OA
ENDROOT
BRANCH   3  12
ATOM     12  O   UNL     1     -28.863 -18.876 -29.004  1.00  0.00    -0.508 OA
ATOM     13  H   UNL     1     -29.068 -19.512 -28.243  1.00  0.00     0.293 HD
ENDBRANCH   3  12
TORSDOF 1
ENDMDL
MODEL 3
REMARK VINA RESULT:    -3.842      1.447      2.285
REMARK INTER + INTRA:          -3.954
REMARK INTER:                  -3.954
REMARK INTRA:                   0.000
REMARK UNBOUND:                 0.000
REMARK SMILES O=c1ccc2ccc(O)cc2o1
REMARK SMILES IDX 6 1 7 2 8 3 10 4 11 5 5 6 4 7 3 8 2 9 1 10 12 11 9 12
REMARK H PARENT 9 13
REMARK Flexibility Score: inf
ROOT
ATOM      1  C   UNL     1     -28.709 -18.907 -31.042  1.00  0.00     0.016 A 
ATOM      2  C   UNL     1     -28.208 -18.900 -32.347  1.00  0.00     0.047 A 
ATOM      3  C   UNL     1     -29.082 -18.886 -33.440  1.00  0.00     0.119 A 
ATOM      4  C   UNL     1     -30.469 -18.878 -33.229  1.00  0.00     0.094 A 
ATOM      5  C   UNL     1     -30.979 -18.884 -31.926  1.00  0.00     0.142 A 
ATOM      6  C   UNL     1     -30.095 -18.899 -30.825  1.00  0.00     0.018 A 
ATOM      7  C   UNL     1     -30.634 -18.906 -29.535  1.00  0.00     0.019 A 
ATOM      8  C   UNL     1     -32.020 -18.898 -29.374  1.00  0.00     0.094 A 
ATOM      9  C   UNL     1     -32.835 -18.883 -30.511  1.00  0.00     0.336 A 
ATOM     10  O   UNL     1     -34.087 -18.876 -30.386  1.00  0.00    -0.246 OA
ATOM     11  O   UNL     1     -32.295 -18.877 -31.727  1.00  0.00    -0.423 OA
ENDROOT
BRANCH   3  12
ATOM     12  O   UNL     1     -28.563 -18.879 -34.734  1.00  0.00    -0.508 OA
ATOM     13  H   UNL     1     -29.004 -19.397 -35.484  1.00  0.00     0.293 HD
ENDBRANCH   3  12
TORSDOF 1
ENDMDL
MODEL 4
REMARK VINA RESULT:    -3.840      0.853      4.288
REMARK INTER + INTRA:          -3.952
REMARK INTER:                  -3.952
REMARK INTRA:                   0.000
REMARK UNBOUND:                 0.000
REMARK SMILES O=c1ccc2ccc(O)cc2o1
REMARK SMILES IDX 6 1 7 2 8 3 10 4 11 5 5 6 4 7 3 8 2 9 1 10 12 11 9 12
REMARK H PARENT 9 13
REMARK Flexibility Score: inf
ROOT
ATOM      1  C   UNL     1     -32.450 -18.880 -32.065  1.00  0.00     0.016 A 
ATOM      2  C   UNL     1     -33.025 -18.881 -30.790  1.00  0.00     0.047 A 
ATOM      3  C   UNL     1     -32.216 -18.881 -29.649  1.00  0.00     0.119 A 
ATOM      4  C   UNL     1     -30.819 -18.880 -29.780  1.00  0.00     0.094 A 
ATOM      5  C   UNL     1     -30.234 -18.878 -31.051  1.00  0.00     0.142 A 
ATOM      6  C   UNL     1     -31.054 -18.878 -32.201  1.00  0.00     0.018 A 
ATOM      7  C   UNL     1     -30.441 -18.877 -33.458  1.00  0.00     0.019 A 
ATOM      8  C   UNL     1     -29.049 -18.876 -33.539  1.00  0.00     0.094 A 
ATOM      9  C   UNL     1     -28.300 -18.876 -32.357  1.00  0.00     0.336 A 
ATOM     10  O   UNL     1     -27.043 -18.875 -32.410  1.00  0.00    -0.246 OA
ATOM     11  O   UNL     1     -28.909 -18.877 -31.174  1.00  0.00    -0.423 OA
ENDROOT
BRANCH   3  12
ATOM     12  O   UNL     1     -32.808 -18.883 -28.387  1.00  0.00    -0.508 OA
ATOM     13  H   UNL     1     -32.274 -18.682 -27.550  1.00  0.00     0.293 HD
ENDBRANCH   3  12
TORSDOF 1
ENDMDL
MODEL 5
REMARK VINA RESULT:    -3.794      2.231      3.032
REMARK INTER + INTRA:          -3.905
REMARK INTER:                  -3.905
REMARK INTRA:                   0.000
REMARK UNBOUND:                 0.000
REMARK SMILES O=c1ccc2ccc(O)cc2o1
REMARK SMILES IDX 6 1 7 2 8 3 10 4 11 5 5 6 4 7 3 8 2 9 1 10 12 11 9 12
REMARK H PARENT 9 13
REMARK Flexibility Score: inf
ROOT
ATOM      1  C   UNL     1     -29.115 -20.144 -32.974  1.00  0.00     0.016 A 
ATOM      2  C   UNL     1     -29.620 -20.743 -34.132  1.00  0.00     0.047 A 
ATOM      3  C   UNL     1     -30.990 -21.001 -34.255  1.00  0.00     0.119 A 
ATOM      4  C   UNL     1     -31.864 -20.658 -33.213  1.00  0.00     0.094 A 
ATOM      5  C   UNL     1     -31.368 -20.057 -32.051  1.00  0.00     0.142 A 
ATOM      6  C   UNL     1     -29.986 -19.799 -31.930  1.00  0.00     0.018 A 
ATOM      7  C   UNL     1     -29.520 -19.198 -30.756  1.00  0.00     0.019 A 
ATOM      8  C   UNL     1     -30.426 -18.875 -29.747  1.00  0.00     0.094 A 
ATOM      9  C   UNL     1     -31.783 -19.161 -29.936  1.00  0.00     0.336 A 
ATOM     10  O   UNL     1     -32.616 -18.877 -29.037  1.00  0.00    -0.246 OA
ATOM     11  O   UNL     1     -32.200 -19.732 -31.063  1.00  0.00    -0.423 OA
ENDROOT
BRANCH   3  12
ATOM     12  O   UNL     1     -31.474 -21.599 -35.417  1.00  0.00    -0.508 OA
ATOM     13  H   UNL     1     -32.466 -21.730 -35.573  1.00  0.00     0.293 HD
ENDBRANCH   3  12
TORSDOF 1
ENDMDL
MODEL 6
REMARK VINA RESULT:    -3.526      2.717      4.096
REMARK INTER + INTRA:          -3.629
REMARK INTER:                  -3.629
REMARK INTRA:                   0.000
REMARK UNBOUND:                 0.000
REMARK SMILES O=c1ccc2ccc(O)cc2o1
REMARK SMILES IDX 6 1 7 2 8 3 10 4 11 5 5 6 4 7 3 8 2 9 1 10 12 11 9 12
REMARK H PARENT 9 13
REMARK Flexibility Score: inf
ROOT
ATOM      1  C   UNL     1     -29.693 -20.611 -34.572  1.00  0.00     0.016 A 
ATOM      2  C   UNL     1     -30.744 -21.475 -34.894  1.00  0.00     0.047 A 
ATOM      3  C   UNL     1     -31.643 -21.894 -33.906  1.00  0.00     0.119 A 
ATOM      4  C   UNL     1     -31.493 -21.445 -32.586  1.00  0.00     0.094 A 
ATOM      5  C   UNL     1     -30.444 -20.579 -32.255  1.00  0.00     0.142 A 
ATOM      6  C   UNL     1     -29.539 -20.160 -33.253  1.00  0.00     0.018 A 
ATOM      7  C   UNL     1     -28.501 -19.295 -32.892  1.00  0.00     0.019 A 
ATOM      8  C   UNL     1     -28.391 -18.875 -31.566  1.00  0.00     0.094 A 
ATOM      9  C   UNL     1     -29.326 -19.332 -30.630  1.00  0.00     0.336 A 
ATOM     10  O   UNL     1     -29.243 -18.965 -29.430  1.00  0.00    -0.246 OA
ATOM     11  O   UNL     1     -30.303 -20.154 -31.001  1.00  0.00    -0.423 OA
ENDROOT
BRANCH   3  12
ATOM     12  O   UNL     1     -32.684 -22.756 -34.247  1.00  0.00    -0.508 OA
ATOM     13  H   UNL     1     -33.594 -22.689 -33.806  1.00  0.00     0.293 HD
ENDBRANCH   3  12
TORSDOF 1
ENDMDL
MODEL 7
REMARK VINA RESULT:    -3.301      6.314      7.226
REMARK INTER + INTRA:          -3.397
REMARK INTER:                  -3.397
REMARK INTRA:                   0.000
REMARK UNBOUND:                 0.000
REMARK SMILES O=c1ccc2ccc(O)cc2o1
REMARK SMILES IDX 6 1 7 2 8 3 10 4 11 5 5 6 4 7 3 8 2 9 1 10 12 11 9 12
REMARK H PARENT 9 13
REMARK Flexibility Score: inf
ROOT
ATOM      1  C   UNL     1     -32.822 -22.203 -39.124  1.00  0.00     0.016 A 
ATOM      2  C   UNL     1     -32.168 -23.433 -38.996  1.00  0.00     0.047 A 
ATOM      3  C   UNL     1     -31.847 -23.935 -37.729  1.00  0.00     0.119 A 
ATOM      4  C   UNL     1     -32.182 -23.203 -36.580  1.00  0.00     0.094 A 
ATOM      5  C   UNL     1     -32.836 -21.972 -36.698  1.00  0.00     0.142 A 
ATOM      6  C   UNL     1     -33.158 -21.468 -37.978  1.00  0.00     0.018 A 
ATOM      7  C   UNL     1     -33.812 -20.235 -38.065  1.00  0.00     0.019 A 
ATOM      8  C   UNL     1     -34.124 -19.543 -36.894  1.00  0.00     0.094 A 
ATOM      9  C   UNL     1     -33.774 -20.104 -35.661  1.00  0.00     0.336 A 
ATOM     10  O   UNL     1     -34.048 -19.495 -34.594  1.00  0.00    -0.246 OA
ATOM     11  O   UNL     1     -33.153 -21.279 -35.607  1.00  0.00    -0.423 OA
ENDROOT
BRANCH   3  12
ATOM     12  O   UNL     1     -31.195 -25.162 -37.622  1.00  0.00    -0.508 OA
ATOM     13  H   UNL     1     -31.032 -25.599 -36.723  1.00  0.00     0.293 HD
ENDBRANCH   3  12
TORSDOF 1
ENDMDL
MODEL 8
REMARK VINA RESULT:    -3.234      3.047      4.235
REMARK INTER + INTRA:          -3.328
REMARK INTER:                  -3.328
REMARK INTRA:                   0.000
REMARK UNBOUND:                 0.000
REMARK SMILES O=c1ccc2ccc(O)cc2o1
REMARK SMILES IDX 6 1 7 2 8 3 10 4 11 5 5 6 4 7 3 8 2 9 1 10 12 11 9 12
REMARK H PARENT 9 13
REMARK Flexibility Score: inf
ROOT
ATOM      1  C   UNL     1     -31.252 -19.154 -30.754  1.00  0.00     0.016 A 
ATOM      2  C   UNL     1     -30.772 -19.798 -29.610  1.00  0.00     0.047 A 
ATOM      3  C   UNL     1     -30.512 -21.173 -29.628  1.00  0.00     0.119 A 
ATOM      4  C   UNL     1     -30.734 -21.913 -30.799  1.00  0.00     0.094 A 
ATOM      5  C   UNL     1     -31.214 -21.277 -31.950  1.00  0.00     0.142 A 
ATOM      6  C   UNL     1     -31.475 -19.889 -31.927  1.00  0.00     0.018 A 
ATOM      7  C   UNL     1     -31.955 -19.282 -33.092  1.00  0.00     0.019 A 
ATOM      8  C   UNL     1     -32.160 -20.057 -34.233  1.00  0.00     0.094 A 
ATOM      9  C   UNL     1     -31.879 -21.428 -34.182  1.00  0.00     0.336 A 
ATOM     10  O   UNL     1     -32.058 -22.144 -35.201  1.00  0.00    -0.246 OA
ATOM     11  O   UNL     1     -31.423 -21.980 -33.060  1.00  0.00    -0.423 OA
ENDROOT
BRANCH   3  12
ATOM     12  O   UNL     1     -30.034 -21.797 -28.477  1.00  0.00    -0.508 OA
ATOM     13  H   UNL     1     -30.663 -22.165 -27.773  1.00  0.00     0.293 HD
ENDBRANCH   3  12
TORSDOF 1
ENDMDL
MODEL 9
REMARK VINA RESULT:    -3.233      3.330      4.816
REMARK INTER + INTRA:          -3.328
REMARK INTER:                  -3.328
REMARK INTRA:                   0.000
REMARK UNBOUND:                 0.000
REMARK SMILES O=c1ccc2ccc(O)cc2o1
REMARK SMILES IDX 6 1 7 2 8 3 10 4 11 5 5 6 4 7 3 8 2 9 1 10 12 11 9 12
REMARK H PARENT 9 13
REMARK Flexibility Score: inf
ROOT
ATOM      1  C   UNL     1     -31.094 -20.871 -31.736  1.00  0.00     0.016 A 
ATOM      2  C   UNL     1     -30.030 -20.082 -31.289  1.00  0.00     0.047 A 
ATOM      3  C   UNL     1     -29.036 -19.663 -32.181  1.00  0.00     0.119 A 
ATOM      4  C   UNL     1     -29.106 -20.033 -33.532  1.00  0.00     0.094 A 
ATOM      5  C   UNL     1     -30.168 -20.822 -33.989  1.00  0.00     0.142 A 
ATOM      6  C   UNL     1     -31.168 -21.244 -33.086  1.00  0.00     0.018 A 
ATOM      7  C   UNL     1     -32.216 -22.032 -33.571  1.00  0.00     0.019 A 
ATOM      8  C   UNL     1     -32.243 -22.376 -34.923  1.00  0.00     0.094 A 
ATOM      9  C   UNL     1     -31.217 -21.922 -35.760  1.00  0.00     0.336 A 
ATOM     10  O   UNL     1     -31.224 -22.222 -36.982  1.00  0.00    -0.246 OA
ATOM     11  O   UNL     1     -30.232 -21.173 -35.271  1.00  0.00    -0.423 OA
ENDROOT
BRANCH   3  12
ATOM     12  O   UNL     1     -27.983 -18.877 -31.716  1.00  0.00    -0.508 OA
ATOM     13  H   UNL     1     -27.235 -19.269 -31.157  1.00  0.00     0.293 HD
ENDBRANCH   3  12
TORSDOF 1
ENDMDL
