MODEL 1
REMARK VINA RESULT:    -5.446      0.000      0.000
REMARK INTER + INTRA:          -5.862
REMARK INTER:                  -5.764
REMARK INTRA:                  -0.098
REMARK UNBOUND:                -0.098
REMARK SMILES C=C(C)[C@@H]1CC=C(C)C(=O)C1
REMARK SMILES IDX 8 1 7 2 6 3 5 4 4 5 11 6 9 7 10 8 2 9 1 10 3 11
REMARK H PARENT
REMARK Flexibility Score: inf
ROOT
ATOM      1  C   UNL     1      14.936 -33.310  21.145  1.00  0.00     0.048 C 
ATOM      2  C   UNL     1      14.119 -32.206  21.758  1.00  0.00    -0.012 C 
ATOM      3  C   UNL     1      13.145 -31.611  21.046  1.00  0.00    -0.019 C 
ATOM      4  C   UNL     1      12.248 -30.558  21.642  1.00  0.00     0.036 C 
ATOM      5  C   UNL     1      12.982 -29.756  22.734  1.00  0.00     0.025 C 
ATOM      6  C   UNL     1      13.557 -30.705  23.801  1.00  0.00     0.089 C 
ATOM      7  C   UNL     1      14.374 -31.792  23.160  1.00  0.00     0.158 C 
ATOM      8  O   UNL     1      15.254 -32.384  23.844  1.00  0.00    -0.295 OA
ENDROOT
BRANCH   5   9
ATOM      9  C   UNL     1      12.075 -28.703  23.355  1.00  0.00    -0.077 C 
ATOM     10  C   UNL     1      10.916 -28.377  22.763  1.00  0.00     0.008 C 
ATOM     11  C   UNL     1      12.450 -28.001  24.637  1.00  0.00     0.039 C 
ENDBRANCH   5   9
TORSDOF 1
ENDMDL
MODEL 2
REMARK VINA RESULT:    -5.382      1.388      2.042
REMARK INTER + INTRA:          -5.795
REMARK INTER:                  -5.699
REMARK INTRA:                  -0.096
REMARK UNBOUND:                -0.098
REMARK SMILES C=C(C)[C@@H]1CC=C(C)C(=O)C1
REMARK SMILES IDX 8 1 7 2 6 3 5 4 4 5 11 6 9 7 10 8 2 9 1 10 3 11
REMARK H PARENT
REMARK Flexibility Score: inf
ROOT
ATOM      1  C   UNL     1      15.178 -33.892  21.964  1.00  0.00     0.048 C 
ATOM      2  C   UNL     1      14.474 -32.600  22.272  1.00  0.00    -0.012 C 
ATOM      3  C   UNL     1      14.637 -32.011  23.469  1.00  0.00    -0.019 C 
ATOM      4  C   UNL     1      14.018 -30.677  23.794  1.00  0.00     0.036 C 
ATOM      5  C   UNL     1      12.697 -30.475  23.029  1.00  0.00     0.025 C 
ATOM      6  C   UNL     1      12.919 -30.661  21.517  1.00  0.00     0.089 C 
ATOM      7  C   UNL     1      13.617 -31.964  21.240  1.00  0.00     0.158 C 
ATOM      8  O   UNL     1      13.504 -32.492  20.100  1.00  0.00    -0.295 OA
ENDROOT
BRANCH   5   9
ATOM      9  C   UNL     1      12.075 -29.120  23.337  1.00  0.00    -0.077 C 
ATOM     10  C   UNL     1      10.944 -28.741  22.722  1.00  0.00     0.008 C 
ATOM     11  C   UNL     1      12.706 -28.174  24.329  1.00  0.00     0.039 C 
ENDBRANCH   5   9
TORSDOF 1
ENDMDL
MODEL 3
REMARK VINA RESULT:    -5.177      1.838      4.460
REMARK INTER + INTRA:          -5.578
REMARK INTER:                  -5.488
REMARK INTRA:                  -0.090
REMARK UNBOUND:                -0.098
REMARK SMILES C=C(C)[C@@H]1CC=C(C)C(=O)C1
REMARK SMILES IDX 8 1 7 2 6 3 5 4 4 5 11 6 9 7 10 8 2 9 1 10 3 11
REMARK H PARENT
REMARK Flexibility Score: inf
ROOT
ATOM      1  C   UNL     1      10.875 -27.142  23.322  1.00  0.00     0.048 C 
ATOM      2  C   UNL     1      11.727 -28.368  23.141  1.00  0.00    -0.012 C 
ATOM      3  C   UNL     1      11.260 -29.419  22.445  1.00  0.00    -0.019 C 
ATOM      4  C   UNL     1      12.105 -30.634  22.169  1.00  0.00     0.036 C 
ATOM      5  C   UNL     1      13.123 -30.872  23.300  1.00  0.00     0.025 C 
ATOM      6  C   UNL     1      13.975 -29.610  23.529  1.00  0.00     0.089 C 
ATOM      7  C   UNL     1      13.096 -28.404  23.714  1.00  0.00     0.158 C 
ATOM      8  O   UNL     1      13.552 -27.399  24.325  1.00  0.00    -0.295 OA
ENDROOT
BRANCH   5   9
ATOM      9  C   UNL     1      13.995 -32.088  23.019  1.00  0.00    -0.077 C 
ATOM     10  C   UNL     1      14.436 -32.851  24.031  1.00  0.00     0.008 C 
ATOM     11  C   UNL     1      14.387 -32.465  21.611  1.00  0.00     0.039 C 
ENDBRANCH   5   9
TORSDOF 1
ENDMDL
MODEL 4
REMARK VINA RESULT:    -5.175      1.678      2.073
REMARK INTER + INTRA:          -5.575
REMARK INTER:                  -5.477
REMARK INTRA:                  -0.098
REMARK UNBOUND:                -0.098
REMARK SMILES C=C(C)[C@@H]1CC=C(C)C(=O)C1
REMARK SMILES IDX 8 1 7 2 6 3 5 4 4 5 11 6 9 7 10 8 2 9 1 10 3 11
REMARK H PARENT
REMARK Flexibility Score: inf
ROOT
ATOM      1  C   UNL     1      16.593 -31.668  21.271  1.00  0.00     0.048 C 
ATOM      2  C   UNL     1      15.405 -30.856  21.709  1.00  0.00    -0.012 C 
ATOM      3  C   UNL     1      15.583 -29.646  22.267  1.00  0.00    -0.019 C 
ATOM      4  C   UNL     1      14.423 -28.763  22.647  1.00  0.00     0.036 C 
ATOM      5  C   UNL     1      13.192 -29.601  23.040  1.00  0.00     0.025 C 
ATOM      6  C   UNL     1      12.830 -30.585  21.913  1.00  0.00     0.089 C 
ATOM      7  C   UNL     1      14.034 -31.386  21.501  1.00  0.00     0.158 C 
ATOM      8  O   UNL     1      13.866 -32.500  20.933  1.00  0.00    -0.295 OA
ENDROOT
BRANCH   5   9
ATOM      9  C   UNL     1      12.009 -28.716  23.407  1.00  0.00    -0.077 C 
ATOM     10  C   UNL     1      10.875 -28.773  22.691  1.00  0.00     0.008 C 
ATOM     11  C   UNL     1      12.077 -27.756  24.570  1.00  0.00     0.039 C 
ENDBRANCH   5   9
TORSDOF 1
ENDMDL
MODEL 5
REMARK VINA RESULT:    -5.132      1.632      4.359
REMARK INTER + INTRA:          -5.530
REMARK INTER:                  -5.432
REMARK INTRA:                  -0.098
REMARK UNBOUND:                -0.098
REMARK SMILES C=C(C)[C@@H]1CC=C(C)C(=O)C1
REMARK SMILES IDX 8 1 7 2 6 3 5 4 4 5 11 6 9 7 10 8 2 9 1 10 3 11
REMARK H PARENT
REMARK Flexibility Score: inf
ROOT
ATOM      1  C   UNL     1      10.875 -28.953  22.404  1.00  0.00     0.048 C 
ATOM      2  C   UNL     1      12.051 -29.887  22.479  1.00  0.00    -0.012 C 
ATOM      3  C   UNL     1      12.290 -30.753  21.479  1.00  0.00    -0.019 C 
ATOM      4  C   UNL     1      13.500 -31.650  21.472  1.00  0.00     0.036 C 
ATOM      5  C   UNL     1      13.932 -32.014  22.905  1.00  0.00     0.025 C 
ATOM      6  C   UNL     1      14.157 -30.739  23.737  1.00  0.00     0.089 C 
ATOM      7  C   UNL     1      12.962 -29.830  23.650  1.00  0.00     0.158 C 
ATOM      8  O   UNL     1      12.766 -28.984  24.563  1.00  0.00    -0.295 OA
ENDROOT
BRANCH   5   9
ATOM      9  C   UNL     1      15.167 -32.905  22.906  1.00  0.00    -0.077 C 
ATOM     10  C   UNL     1      16.126 -32.728  23.827  1.00  0.00     0.008 C 
ATOM     11  C   UNL     1      15.347 -33.998  21.880  1.00  0.00     0.039 C 
ENDBRANCH   5   9
TORSDOF 1
ENDMDL
MODEL 6
REMARK VINA RESULT:    -5.092      1.534      2.396
REMARK INTER + INTRA:          -5.488
REMARK INTER:                  -5.399
REMARK INTRA:                  -0.089
REMARK UNBOUND:                -0.098
REMARK SMILES C=C(C)[C@@H]1CC=C(C)C(=O)C1
REMARK SMILES IDX 8 1 7 2 6 3 5 4 4 5 11 6 9 7 10 8 2 9 1 10 3 11
REMARK H PARENT
REMARK Flexibility Score: inf
ROOT
ATOM      1  C   UNL     1      17.172 -31.542  23.998  1.00  0.00     0.048 C 
ATOM      2  C   UNL     1      15.828 -31.016  23.575  1.00  0.00    -0.012 C 
ATOM      3  C   UNL     1      15.719 -29.782  23.053  1.00  0.00    -0.019 C 
ATOM      4  C   UNL     1      14.409 -29.243  22.541  1.00  0.00     0.036 C 
ATOM      5  C   UNL     1      13.220 -29.841  23.317  1.00  0.00     0.025 C 
ATOM      6  C   UNL     1      13.273 -31.379  23.277  1.00  0.00     0.089 C 
ATOM      7  C   UNL     1      14.625 -31.875  23.712  1.00  0.00     0.158 C 
ATOM      8  O   UNL     1      14.735 -33.051  24.155  1.00  0.00    -0.295 OA
ENDROOT
BRANCH   5   9
ATOM      9  C   UNL     1      11.891 -29.316  22.792  1.00  0.00    -0.077 C 
ATOM     10  C   UNL     1      11.421 -28.131  23.211  1.00  0.00     0.008 C 
ATOM     11  C   UNL     1      11.072 -30.105  21.799  1.00  0.00     0.039 C 
ENDBRANCH   5   9
TORSDOF 1
ENDMDL
MODEL 7
REMARK VINA RESULT:    -5.010      2.010      2.420
REMARK INTER + INTRA:          -5.400
REMARK INTER:                  -5.314
REMARK INTRA:                  -0.087
REMARK UNBOUND:                -0.098
REMARK SMILES C=C(C)[C@@H]1CC=C(C)C(=O)C1
REMARK SMILES IDX 8 1 7 2 6 3 5 4 4 5 11 6 9 7 10 8 2 9 1 10 3 11
REMARK H PARENT
REMARK Flexibility Score: inf
ROOT
ATOM      1  C   UNL     1      17.032 -31.647  22.600  1.00  0.00     0.048 C 
ATOM      2  C   UNL     1      15.788 -30.850  22.875  1.00  0.00    -0.012 C 
ATOM      3  C   UNL     1      14.779 -31.393  23.577  1.00  0.00    -0.019 C 
ATOM      4  C   UNL     1      13.548 -30.607  23.947  1.00  0.00     0.036 C 
ATOM      5  C   UNL     1      13.237 -29.531  22.889  1.00  0.00     0.025 C 
ATOM      6  C   UNL     1      14.463 -28.626  22.670  1.00  0.00     0.089 C 
ATOM      7  C   UNL     1      15.688 -29.451  22.389  1.00  0.00     0.158 C 
ATOM      8  O   UNL     1      16.655 -28.925  21.773  1.00  0.00    -0.295 OA
ENDROOT
BRANCH   5   9
ATOM      9  C   UNL     1      12.006 -28.719  23.266  1.00  0.00    -0.077 C 
ATOM     10  C   UNL     1      10.875 -28.837  22.552  1.00  0.00     0.008 C 
ATOM     11  C   UNL     1      12.020 -27.767  24.437  1.00  0.00     0.039 C 
ENDBRANCH   5   9
TORSDOF 1
ENDMDL
MODEL 8
REMARK VINA RESULT:    -4.968      1.902      4.678
REMARK INTER + INTRA:          -5.356
REMARK INTER:                  -5.257
REMARK INTRA:                  -0.098
REMARK UNBOUND:                -0.098
REMARK SMILES C=C(C)[C@@H]1CC=C(C)C(=O)C1
REMARK SMILES IDX 8 1 7 2 6 3 5 4 4 5 11 6 9 7 10 8 2 9 1 10 3 11
REMARK H PARENT
REMARK Flexibility Score: inf
ROOT
ATOM      1  C   UNL     1      11.682 -28.433  23.875  1.00  0.00     0.048 C 
ATOM      2  C   UNL     1      12.534 -29.511  23.265  1.00  0.00    -0.012 C 
ATOM      3  C   UNL     1      13.733 -29.807  23.797  1.00  0.00    -0.019 C 
ATOM      4  C   UNL     1      14.586 -30.932  23.271  1.00  0.00     0.036 C 
ATOM      5  C   UNL     1      14.357 -31.143  21.762  1.00  0.00     0.025 C 
ATOM      6  C   UNL     1      12.861 -31.361  21.472  1.00  0.00     0.089 C 
ATOM      7  C   UNL     1      12.036 -30.264  22.087  1.00  0.00     0.158 C 
ATOM      8  O   UNL     1      10.891 -30.020  21.618  1.00  0.00    -0.295 OA
ENDROOT
BRANCH   5   9
ATOM      9  C   UNL     1      15.201 -32.292  21.227  1.00  0.00    -0.077 C 
ATOM     10  C   UNL     1      14.611 -33.408  20.771  1.00  0.00     0.008 C 
ATOM     11  C   UNL     1      16.708 -32.212  21.197  1.00  0.00     0.039 C 
ENDBRANCH   5   9
TORSDOF 1
ENDMDL
MODEL 9
REMARK VINA RESULT:    -4.017      1.942      4.624
REMARK INTER + INTRA:          -4.350
REMARK INTER:                  -4.253
REMARK INTRA:                  -0.097
REMARK UNBOUND:                -0.098
REMARK SMILES C=C(C)[C@@H]1CC=C(C)C(=O)C1
REMARK SMILES IDX 8 1 7 2 6 3 5 4 4 5 11 6 9 7 10 8 2 9 1 10 3 11
REMARK H PARENT
REMARK Flexibility Score: inf
ROOT
ATOM      1  C   UNL     1      12.485 -27.978  24.499  1.00  0.00     0.048 C 
ATOM      2  C   UNL     1      12.814 -29.187  23.668  1.00  0.00    -0.012 C 
ATOM      3  C   UNL     1      13.899 -29.927  23.953  1.00  0.00    -0.019 C 
ATOM      4  C   UNL     1      14.224 -31.191  23.201  1.00  0.00     0.036 C 
ATOM      5  C   UNL     1      13.720 -31.119  21.747  1.00  0.00     0.025 C 
ATOM      6  C   UNL     1      12.216 -30.793  21.716  1.00  0.00     0.089 C 
ATOM      7  C   UNL     1      11.920 -29.576  22.548  1.00  0.00     0.158 C 
ATOM      8  O   UNL     1      10.875 -28.910  22.313  1.00  0.00    -0.295 OA
ENDROOT
BRANCH   5   9
ATOM      9  C   UNL     1      14.027 -32.402  20.986  1.00  0.00    -0.077 C 
ATOM     10  C   UNL     1      13.473 -32.622  19.784  1.00  0.00     0.008 C 
ATOM     11  C   UNL     1      14.950 -33.452  21.557  1.00  0.00     0.039 C 
ENDBRANCH   5   9
TORSDOF 1
ENDMDL
