MODEL 1
REMARK VINA RESULT:    -3.379      0.000      0.000
REMARK INTER + INTRA:          -8.105
REMARK INTER:                  -5.948
REMARK INTRA:                  -2.157
REMARK UNBOUND:                -2.157
REMARK SMILES CCCCCCCCCCCCCCC(=O)[O-]
REMARK SMILES IDX 9 1 10 2 11 3 12 4 13 5 14 6 15 7 16 8 17 9 8 10 7 11 6 12
REMARK SMILES IDX 5 13 4 14 3 15 2 16 1 17
REMARK H PARENT
REMARK Flexibility Score: inf
ROOT
ATOM      1  C   UNL     1      -6.923  -1.088  11.412  1.00  0.00     0.000 C 
ENDROOT
BRANCH   1   2
ATOM      2  C   UNL     1      -5.793  -1.435  12.398  1.00  0.00     0.000 C 
BRANCH   2   3
ATOM      3  C   UNL     1      -4.413  -0.893  11.971  1.00  0.00     0.000 C 
BRANCH   3   4
ATOM      4  C   UNL     1      -3.439  -2.024  11.590  1.00  0.00     0.000 C 
BRANCH   4   5
ATOM      5  C   UNL     1      -2.631  -1.704  10.324  1.00  0.00     0.006 C 
BRANCH   5   6
ATOM      6  C   UNL     1      -3.297  -0.626   9.459  1.00  0.00     0.053 C 
BRANCH   6   7
ATOM      7  C   UNL     1      -2.262   0.201   8.765  1.00  0.00     0.041 C 
ATOM      8  O   UNL     1      -2.452   0.596   7.585  1.00  0.00    -0.550 OA
ATOM      9  O   UNL     1      -1.107   0.576   9.439  1.00  0.00    -0.550 OA
ENDBRANCH   6   7
ENDBRANCH   5   6
ENDBRANCH   4   5
ENDBRANCH   3   4
ENDBRANCH   2   3
ENDBRANCH   1   2
BRANCH   1  10
ATOM     10  C   UNL     1      -7.011  -2.068  10.234  1.00  0.00     0.000 C 
BRANCH  10  11
ATOM     11  C   UNL     1      -6.808  -3.515  10.706  1.00  0.00    -0.000 C 
BRANCH  11  12
ATOM     12  C   UNL     1      -5.803  -4.287   9.837  1.00  0.00    -0.000 C 
BRANCH  12  13
ATOM     13  C   UNL     1      -5.424  -3.526   8.555  1.00  0.00    -0.000 C 
BRANCH  13  14
ATOM     14  C   UNL     1      -4.456  -4.316   7.657  1.00  0.00    -0.000 C 
BRANCH  14  15
ATOM     15  C   UNL     1      -3.575  -3.457   6.730  1.00  0.00    -0.000 C 
BRANCH  15  16
ATOM     16  C   UNL     1      -2.090  -3.415   7.146  1.00  0.00    -0.003 C 
ATOM     17  C   UNL     1      -1.262  -2.481   6.261  1.00  0.00     0.004 C 
ENDBRANCH  15  16
ENDBRANCH  14  15
ENDBRANCH  13  14
ENDBRANCH  12  13
ENDBRANCH  11  12
ENDBRANCH  10  11
ENDBRANCH   1  10
TORSDOF 13
ENDMDL
MODEL 2
REMARK VINA RESULT:    -3.370      1.434      4.176
REMARK INTER + INTRA:          -8.088
REMARK INTER:                  -6.188
REMARK INTRA:                  -1.900
REMARK UNBOUND:                -2.157
REMARK SMILES CCCCCCCCCCCCCCC(=O)[O-]
REMARK SMILES IDX 9 1 10 2 11 3 12 4 13 5 14 6 15 7 16 8 17 9 8 10 7 11 6 12
REMARK SMILES IDX 5 13 4 14 3 15 2 16 1 17
REMARK H PARENT
REMARK Flexibility Score: inf
ROOT
ATOM      1  C   UNL     1      -5.977  -3.151   8.701  1.00  0.00     0.000 C 
ENDROOT
BRANCH   1   2
ATOM      2  C   UNL     1      -4.707  -3.024   7.841  1.00  0.00     0.000 C 
BRANCH   2   3
ATOM      3  C   UNL     1      -4.214  -4.369   7.267  1.00  0.00     0.000 C 
BRANCH   3   4
ATOM      4  C   UNL     1      -2.850  -4.233   6.564  1.00  0.00     0.000 C 
BRANCH   4   5
ATOM      5  C   UNL     1      -2.020  -3.061   7.110  1.00  0.00     0.006 C 
BRANCH   5   6
ATOM      6  C   UNL     1      -1.098  -2.450   6.047  1.00  0.00     0.053 C 
BRANCH   6   7
ATOM      7  C   UNL     1      -1.793  -1.334   5.333  1.00  0.00     0.041 C 
ATOM      8  O   UNL     1      -2.798  -0.779   5.850  1.00  0.00    -0.550 OA
ATOM      9  O   UNL     1      -1.302  -0.874   4.118  1.00  0.00    -0.550 OA
ENDBRANCH   6   7
ENDBRANCH   5   6
ENDBRANCH   4   5
ENDBRANCH   3   4
ENDBRANCH   2   3
ENDBRANCH   1   2
BRANCH   1  10
ATOM     10  C   UNL     1      -5.739  -3.917  10.010  1.00  0.00     0.000 C 
BRANCH  10  11
ATOM     11  C   UNL     1      -6.482  -3.253  11.178  1.00  0.00    -0.000 C 
BRANCH  11  12
ATOM     12  C   UNL     1      -5.684  -2.102  11.811  1.00  0.00    -0.000 C 
BRANCH  12  13
ATOM     13  C   UNL     1      -4.177  -2.402  11.890  1.00  0.00    -0.000 C 
BRANCH  13  14
ATOM     14  C   UNL     1      -3.307  -1.180  11.546  1.00  0.00    -0.000 C 
BRANCH  14  15
ATOM     15  C   UNL     1      -2.451  -1.323  10.274  1.00  0.00    -0.000 C 
BRANCH  15  16
ATOM     16  C   UNL     1      -2.603  -0.149   9.285  1.00  0.00    -0.003 C 
ATOM     17  C   UNL     1      -4.047   0.344   9.180  1.00  0.00     0.004 C 
ENDBRANCH  15  16
ENDBRANCH  14  15
ENDBRANCH  13  14
ENDBRANCH  12  13
ENDBRANCH  11  12
ENDBRANCH  10  11
ENDBRANCH   1  10
TORSDOF 13
ENDMDL
MODEL 3
REMARK VINA RESULT:    -3.344      1.230      2.489
REMARK INTER + INTRA:          -8.042
REMARK INTER:                  -6.500
REMARK INTRA:                  -1.541
REMARK UNBOUND:                -2.157
REMARK SMILES CCCCCCCCCCCCCCC(=O)[O-]
REMARK SMILES IDX 9 1 10 2 11 3 12 4 13 5 14 6 15 7 16 8 17 9 8 10 7 11 6 12
REMARK SMILES IDX 5 13 4 14 3 15 2 16 1 17
REMARK H PARENT
REMARK Flexibility Score: inf
ROOT
ATOM      1  C   UNL     1      -6.105  -3.907  10.223  1.00  0.00     0.000 C 
ENDROOT
BRANCH   1   2
ATOM      2  C   UNL     1      -5.729  -2.570  10.887  1.00  0.00     0.000 C 
BRANCH   2   3
ATOM      3  C   UNL     1      -4.473  -2.655  11.779  1.00  0.00     0.000 C 
BRANCH   3   4
ATOM      4  C   UNL     1      -3.569  -1.418  11.624  1.00  0.00     0.000 C 
BRANCH   4   5
ATOM      5  C   UNL     1      -2.493  -1.607  10.544  1.00  0.00     0.006 C 
BRANCH   5   6
ATOM      6  C   UNL     1      -2.458  -0.444   9.543  1.00  0.00     0.053 C 
BRANCH   6   7
ATOM      7  C   UNL     1      -1.407   0.547   9.931  1.00  0.00     0.041 C 
ATOM      8  O   UNL     1      -0.801   1.208   9.046  1.00  0.00    -0.550 OA
ATOM      9  O   UNL     1      -1.129   0.776  11.272  1.00  0.00    -0.550 OA
ENDBRANCH   6   7
ENDBRANCH   5   6
ENDBRANCH   4   5
ENDBRANCH   3   4
ENDBRANCH   2   3
ENDBRANCH   1   2
BRANCH   1  10
ATOM     10  C   UNL     1      -5.306  -4.185   8.943  1.00  0.00     0.000 C 
BRANCH  10  11
ATOM     11  C   UNL     1      -5.082  -2.894   8.143  1.00  0.00    -0.000 C 
BRANCH  11  12
ATOM     12  C   UNL     1      -4.102  -3.082   6.974  1.00  0.00    -0.000 C 
BRANCH  12  13
ATOM     13  C   UNL     1      -2.713  -3.554   7.438  1.00  0.00    -0.000 C 
BRANCH  13  14
ATOM     14  C   UNL     1      -1.577  -3.038   6.538  1.00  0.00    -0.000 C 
BRANCH  14  15
ATOM     15  C   UNL     1      -1.675  -1.549   6.150  1.00  0.00    -0.000 C 
BRANCH  15  16
ATOM     16  C   UNL     1      -1.446  -1.281   4.649  1.00  0.00    -0.003 C 
ATOM     17  C   UNL     1      -0.043  -1.681   4.191  1.00  0.00     0.004 C 
ENDBRANCH  15  16
ENDBRANCH  14  15
ENDBRANCH  13  14
ENDBRANCH  12  13
ENDBRANCH  11  12
ENDBRANCH  10  11
ENDBRANCH   1  10
TORSDOF 13
ENDMDL
MODEL 4
REMARK VINA RESULT:    -3.343      2.170      4.464
REMARK INTER + INTRA:          -8.040
REMARK INTER:                  -6.334
REMARK INTRA:                  -1.706
REMARK UNBOUND:                -2.157
REMARK SMILES CCCCCCCCCCCCCCC(=O)[O-]
REMARK SMILES IDX 9 1 10 2 11 3 12 4 13 5 14 6 15 7 16 8 17 9 8 10 7 11 6 12
REMARK SMILES IDX 5 13 4 14 3 15 2 16 1 17
REMARK H PARENT
REMARK Flexibility Score: inf
ROOT
ATOM      1  C   UNL     1      -5.573  -3.130   8.728  1.00  0.00     0.000 C 
ENDROOT
BRANCH   1   2
ATOM      2  C   UNL     1      -4.474  -3.728   7.831  1.00  0.00     0.000 C 
BRANCH   2   3
ATOM      3  C   UNL     1      -3.468  -2.682   7.306  1.00  0.00     0.000 C 
BRANCH   3   4
ATOM      4  C   UNL     1      -2.018  -3.196   7.357  1.00  0.00     0.000 C 
BRANCH   4   5
ATOM      5  C   UNL     1      -1.115  -2.516   6.317  1.00  0.00     0.006 C 
BRANCH   5   6
ATOM      6  C   UNL     1      -1.916  -1.762   5.247  1.00  0.00     0.053 C 
BRANCH   6   7
ATOM      7  C   UNL     1      -1.058  -1.477   4.056  1.00  0.00     0.041 C 
ATOM      8  O   UNL     1       0.190  -1.632   4.122  1.00  0.00    -0.550 OA
ATOM      9  O   UNL     1      -1.640  -1.086   2.858  1.00  0.00    -0.550 OA
ENDBRANCH   6   7
ENDBRANCH   5   6
ENDBRANCH   4   5
ENDBRANCH   3   4
ENDBRANCH   2   3
ENDBRANCH   1   2
BRANCH   1  10
ATOM     10  C   UNL     1      -5.751  -3.896  10.046  1.00  0.00     0.000 C 
BRANCH  10  11
ATOM     11  C   UNL     1      -5.593  -2.958  11.252  1.00  0.00    -0.000 C 
BRANCH  11  12
ATOM     12  C   UNL     1      -4.121  -2.708  11.619  1.00  0.00    -0.000 C 
BRANCH  12  13
ATOM     13  C   UNL     1      -3.677  -1.264  11.325  1.00  0.00    -0.000 C 
BRANCH  13  14
ATOM     14  C   UNL     1      -2.410  -1.196  10.456  1.00  0.00    -0.000 C 
BRANCH  14  15
ATOM     15  C   UNL     1      -1.916   0.227  10.130  1.00  0.00    -0.000 C 
BRANCH  15  16
ATOM     16  C   UNL     1      -1.454   0.405   8.669  1.00  0.00    -0.003 C 
ATOM     17  C   UNL     1      -2.573   0.915   7.760  1.00  0.00     0.004 C 
ENDBRANCH  15  16
ENDBRANCH  14  15
ENDBRANCH  13  14
ENDBRANCH  12  13
ENDBRANCH  11  12
ENDBRANCH  10  11
ENDBRANCH   1  10
TORSDOF 13
ENDMDL
MODEL 5
REMARK VINA RESULT:    -3.323      3.327      6.290
REMARK INTER + INTRA:          -8.005
REMARK INTER:                  -6.600
REMARK INTRA:                  -1.404
REMARK UNBOUND:                -2.157
REMARK SMILES CCCCCCCCCCCCCCC(=O)[O-]
REMARK SMILES IDX 9 1 10 2 11 3 12 4 13 5 14 6 15 7 16 8 17 9 8 10 7 11 6 12
REMARK SMILES IDX 5 13 4 14 3 15 2 16 1 17
REMARK H PARENT
REMARK Flexibility Score: inf
ROOT
ATOM      1  C   UNL     1      -3.039  -1.469   7.683  1.00  0.00     0.000 C 
ENDROOT
BRANCH   1   2
ATOM      2  C   UNL     1      -1.991  -2.469   7.163  1.00  0.00     0.000 C 
BRANCH   2   3
ATOM      3  C   UNL     1      -2.564  -3.873   6.880  1.00  0.00     0.000 C 
BRANCH   3   4
ATOM      4  C   UNL     1      -4.075  -3.952   7.170  1.00  0.00     0.000 C 
BRANCH   4   5
ATOM      5  C   UNL     1      -4.565  -5.395   7.354  1.00  0.00     0.006 C 
BRANCH   5   6
ATOM      6  C   UNL     1      -3.725  -6.406   6.562  1.00  0.00     0.053 C 
BRANCH   6   7
ATOM      7  C   UNL     1      -4.538  -7.010   5.461  1.00  0.00     0.041 C 
ATOM      8  O   UNL     1      -5.664  -6.529   5.166  1.00  0.00    -0.550 OA
ATOM      9  O   UNL     1      -4.031  -8.075   4.727  1.00  0.00    -0.550 OA
ENDBRANCH   6   7
ENDBRANCH   5   6
ENDBRANCH   4   5
ENDBRANCH   3   4
ENDBRANCH   2   3
ENDBRANCH   1   2
BRANCH   1  10
ATOM     10  C   UNL     1      -2.577  -0.716   8.939  1.00  0.00     0.000 C 
BRANCH  10  11
ATOM     11  C   UNL     1      -2.410  -1.677  10.125  1.00  0.00    -0.000 C 
BRANCH  11  12
ATOM     12  C   UNL     1      -3.353  -1.347  11.293  1.00  0.00    -0.000 C 
BRANCH  12  13
ATOM     13  C   UNL     1      -4.362  -2.474  11.574  1.00  0.00    -0.000 C 
BRANCH  13  14
ATOM     14  C   UNL     1      -5.357  -2.685  10.420  1.00  0.00    -0.000 C 
BRANCH  14  15
ATOM     15  C   UNL     1      -6.127  -4.018  10.455  1.00  0.00    -0.000 C 
BRANCH  15  16
ATOM     16  C   UNL     1      -7.646  -3.855  10.674  1.00  0.00    -0.003 C 
ATOM     17  C   UNL     1      -7.986  -3.404  12.095  1.00  0.00     0.004 C 
ENDBRANCH  15  16
ENDBRANCH  14  15
ENDBRANCH  13  14
ENDBRANCH  12  13
ENDBRANCH  11  12
ENDBRANCH  10  11
ENDBRANCH   1  10
TORSDOF 13
ENDMDL
MODEL 6
REMARK VINA RESULT:    -3.296      1.152      4.269
REMARK INTER + INTRA:          -7.958
REMARK INTER:                  -6.400
REMARK INTRA:                  -1.558
REMARK UNBOUND:                -2.157
REMARK SMILES CCCCCCCCCCCCCCC(=O)[O-]
REMARK SMILES IDX 9 1 10 2 11 3 12 4 13 5 14 6 15 7 16 8 17 9 8 10 7 11 6 12
REMARK SMILES IDX 5 13 4 14 3 15 2 16 1 17
REMARK H PARENT
REMARK Flexibility Score: inf
ROOT
ATOM      1  C   UNL     1      -5.958  -3.013   8.869  1.00  0.00     0.000 C 
ENDROOT
BRANCH   1   2
ATOM      2  C   UNL     1      -4.569  -3.122   8.214  1.00  0.00     0.000 C 
BRANCH   2   3
ATOM      3  C   UNL     1      -4.416  -4.348   7.290  1.00  0.00     0.000 C 
BRANCH   3   4
ATOM      4  C   UNL     1      -3.116  -4.295   6.467  1.00  0.00     0.000 C 
BRANCH   4   5
ATOM      5  C   UNL     1      -2.005  -3.502   7.172  1.00  0.00     0.006 C 
BRANCH   5   6
ATOM      6  C   UNL     1      -1.295  -2.521   6.230  1.00  0.00     0.053 C 
BRANCH   6   7
ATOM      7  C   UNL     1      -1.913  -1.162   6.329  1.00  0.00     0.041 C 
ATOM      8  O   UNL     1      -1.629  -0.406   7.296  1.00  0.00    -0.550 OA
ATOM      9  O   UNL     1      -2.766  -0.712   5.330  1.00  0.00    -0.550 OA
ENDBRANCH   6   7
ENDBRANCH   5   6
ENDBRANCH   4   5
ENDBRANCH   3   4
ENDBRANCH   2   3
ENDBRANCH   1   2
BRANCH   1  10
ATOM     10  C   UNL     1      -6.097  -3.885  10.125  1.00  0.00     0.000 C 
BRANCH  10  11
ATOM     11  C   UNL     1      -7.504  -3.763  10.725  1.00  0.00    -0.000 C 
BRANCH  11  12
ATOM     12  C   UNL     1      -7.504  -3.089  12.107  1.00  0.00    -0.000 C 
BRANCH  12  13
ATOM     13  C   UNL     1      -7.172  -1.589  12.031  1.00  0.00    -0.000 C 
BRANCH  13  14
ATOM     14  C   UNL     1      -5.817  -1.245  12.674  1.00  0.00    -0.000 C 
BRANCH  14  15
ATOM     15  C   UNL     1      -4.729  -0.769  11.691  1.00  0.00    -0.000 C 
BRANCH  15  16
ATOM     16  C   UNL     1      -3.500  -1.699  11.625  1.00  0.00    -0.003 C 
ATOM     17  C   UNL     1      -2.516  -1.289  10.529  1.00  0.00     0.004 C 
ENDBRANCH  15  16
ENDBRANCH  14  15
ENDBRANCH  13  14
ENDBRANCH  12  13
ENDBRANCH  11  12
ENDBRANCH  10  11
ENDBRANCH   1  10
TORSDOF 13
ENDMDL
MODEL 7
REMARK VINA RESULT:    -3.273      2.378      4.483
REMARK INTER + INTRA:          -7.918
REMARK INTER:                  -6.213
REMARK INTRA:                  -1.705
REMARK UNBOUND:                -2.157
REMARK SMILES CCCCCCCCCCCCCCC(=O)[O-]
REMARK SMILES IDX 9 1 10 2 11 3 12 4 13 5 14 6 15 7 16 8 17 9 8 10 7 11 6 12
REMARK SMILES IDX 5 13 4 14 3 15 2 16 1 17
REMARK H PARENT
REMARK Flexibility Score: inf
ROOT
ATOM      1  C   UNL     1      -3.626   0.139   7.461  1.00  0.00     0.000 C 
ENDROOT
BRANCH   1   2
ATOM      2  C   UNL     1      -3.166   0.704   8.816  1.00  0.00     0.000 C 
BRANCH   2   3
ATOM      3  C   UNL     1      -1.944  -0.029   9.408  1.00  0.00     0.000 C 
BRANCH   3   4
ATOM      4  C   UNL     1      -2.341  -1.334  10.123  1.00  0.00     0.000 C 
BRANCH   4   5
ATOM      5  C   UNL     1      -3.301  -1.092  11.298  1.00  0.00     0.006 C 
BRANCH   5   6
ATOM      6  C   UNL     1      -4.045  -2.366  11.719  1.00  0.00     0.053 C 
BRANCH   6   7
ATOM      7  C   UNL     1      -5.214  -2.610  10.818  1.00  0.00     0.041 C 
ATOM      8  O   UNL     1      -5.766  -1.648  10.221  1.00  0.00    -0.550 OA
ATOM      9  O   UNL     1      -5.664  -3.905  10.598  1.00  0.00    -0.550 OA
ENDBRANCH   6   7
ENDBRANCH   5   6
ENDBRANCH   4   5
ENDBRANCH   3   4
ENDBRANCH   2   3
ENDBRANCH   1   2
BRANCH   1  10
ATOM     10  C   UNL     1      -2.463  -0.116   6.492  1.00  0.00     0.000 C 
BRANCH  10  11
ATOM     11  C   UNL     1      -2.594  -1.494   5.827  1.00  0.00    -0.000 C 
BRANCH  11  12
ATOM     12  C   UNL     1      -1.552  -2.501   6.337  1.00  0.00    -0.000 C 
BRANCH  12  13
ATOM     13  C   UNL     1      -2.174  -3.602   7.214  1.00  0.00    -0.000 C 
BRANCH  13  14
ATOM     14  C   UNL     1      -3.701  -3.464   7.347  1.00  0.00    -0.000 C 
BRANCH  14  15
ATOM     15  C   UNL     1      -4.482  -4.792   7.322  1.00  0.00    -0.000 C 
BRANCH  15  16
ATOM     16  C   UNL     1      -3.733  -5.942   6.617  1.00  0.00    -0.003 C 
ATOM     17  C   UNL     1      -4.684  -6.969   6.002  1.00  0.00     0.004 C 
ENDBRANCH  15  16
ENDBRANCH  14  15
ENDBRANCH  13  14
ENDBRANCH  12  13
ENDBRANCH  11  12
ENDBRANCH  10  11
ENDBRANCH   1  10
TORSDOF 13
ENDMDL
MODEL 8
REMARK VINA RESULT:    -3.239      3.115      5.046
REMARK INTER + INTRA:          -7.858
REMARK INTER:                  -6.776
REMARK INTRA:                  -1.081
REMARK UNBOUND:                -2.157
REMARK SMILES CCCCCCCCCCCCCCC(=O)[O-]
REMARK SMILES IDX 9 1 10 2 11 3 12 4 13 5 14 6 15 7 16 8 17 9 8 10 7 11 6 12
REMARK SMILES IDX 5 13 4 14 3 15 2 16 1 17
REMARK H PARENT
REMARK Flexibility Score: inf
ROOT
ATOM      1  C   UNL     1      -2.567  -0.067   9.293  1.00  0.00     0.000 C 
ENDROOT
BRANCH   1   2
ATOM      2  C   UNL     1      -3.129  -1.439   9.703  1.00  0.00     0.000 C 
BRANCH   2   3
ATOM      3  C   UNL     1      -3.128  -1.677  11.227  1.00  0.00     0.000 C 
BRANCH   3   4
ATOM      4  C   UNL     1      -4.373  -2.453  11.693  1.00  0.00     0.000 C 
BRANCH   4   5
ATOM      5  C   UNL     1      -5.484  -2.477  10.633  1.00  0.00     0.006 C 
BRANCH   5   6
ATOM      6  C   UNL     1      -6.168  -3.847  10.529  1.00  0.00     0.053 C 
BRANCH   6   7
ATOM      7  C   UNL     1      -7.595  -3.752  10.968  1.00  0.00     0.041 C 
ATOM      8  O   UNL     1      -8.523  -3.785  10.117  1.00  0.00    -0.550 OA
ATOM      9  O   UNL     1      -7.903  -3.676  12.319  1.00  0.00    -0.550 OA
ENDBRANCH   6   7
ENDBRANCH   5   6
ENDBRANCH   4   5
ENDBRANCH   3   4
ENDBRANCH   2   3
ENDBRANCH   1   2
BRANCH   1  10
ATOM     10  C   UNL     1      -1.740  -0.120   8.000  1.00  0.00     0.000 C 
BRANCH  10  11
ATOM     11  C   UNL     1      -2.437  -0.983   6.938  1.00  0.00    -0.000 C 
BRANCH  11  12
ATOM     12  C   UNL     1      -1.551  -2.132   6.432  1.00  0.00    -0.000 C 
BRANCH  12  13
ATOM     13  C   UNL     1      -1.958  -3.494   7.018  1.00  0.00    -0.000 C 
BRANCH  13  14
ATOM     14  C   UNL     1      -3.472  -3.754   6.926  1.00  0.00    -0.000 C 
BRANCH  14  15
ATOM     15  C   UNL     1      -3.897  -5.223   7.115  1.00  0.00    -0.000 C 
BRANCH  15  16
ATOM     16  C   UNL     1      -3.873  -6.050   5.813  1.00  0.00    -0.003 C 
ATOM     17  C   UNL     1      -4.826  -7.245   5.862  1.00  0.00     0.004 C 
ENDBRANCH  15  16
ENDBRANCH  14  15
ENDBRANCH  13  14
ENDBRANCH  12  13
ENDBRANCH  11  12
ENDBRANCH  10  11
ENDBRANCH   1  10
TORSDOF 13
ENDMDL
MODEL 9
REMARK VINA RESULT:    -3.229      1.703      2.514
REMARK INTER + INTRA:          -7.839
REMARK INTER:                  -6.058
REMARK INTRA:                  -1.781
REMARK UNBOUND:                -2.157
REMARK SMILES CCCCCCCCCCCCCCC(=O)[O-]
REMARK SMILES IDX 9 1 10 2 11 3 12 4 13 5 14 6 15 7 16 8 17 9 8 10 7 11 6 12
REMARK SMILES IDX 5 13 4 14 3 15 2 16 1 17
REMARK H PARENT
REMARK Flexibility Score: inf
ROOT
ATOM      1  C   UNL     1      -5.347  -2.002  11.500  1.00  0.00     0.000 C 
ENDROOT
BRANCH   1   2
ATOM      2  C   UNL     1      -3.874  -2.371  11.748  1.00  0.00     0.000 C 
BRANCH   2   3
ATOM      3  C   UNL     1      -2.888  -1.640  10.812  1.00  0.00     0.000 C 
BRANCH   3   4
ATOM      4  C   UNL     1      -3.569  -0.502  10.029  1.00  0.00     0.000 C 
BRANCH   4   5
ATOM      5  C   UNL     1      -3.030  -0.368   8.597  1.00  0.00     0.006 C 
BRANCH   5   6
ATOM      6  C   UNL     1      -2.272  -1.620   8.136  1.00  0.00     0.053 C 
BRANCH   6   7
ATOM      7  C   UNL     1      -1.812  -1.460   6.721  1.00  0.00     0.041 C 
ATOM      8  O   UNL     1      -2.186  -0.468   6.041  1.00  0.00    -0.550 OA
ATOM      9  O   UNL     1      -0.933  -2.381   6.169  1.00  0.00    -0.550 OA
ENDBRANCH   6   7
ENDBRANCH   5   6
ENDBRANCH   4   5
ENDBRANCH   3   4
ENDBRANCH   2   3
ENDBRANCH   1   2
BRANCH   1  10
ATOM     10  C   UNL     1      -6.237  -3.228  11.250  1.00  0.00     0.000 C 
BRANCH  10  11
ATOM     11  C   UNL     1      -5.911  -3.878   9.898  1.00  0.00    -0.000 C 
BRANCH  11  12
ATOM     12  C   UNL     1      -6.055  -2.901   8.720  1.00  0.00    -0.000 C 
BRANCH  12  13
ATOM     13  C   UNL     1      -5.433  -3.445   7.422  1.00  0.00    -0.000 C 
BRANCH  13  14
ATOM     14  C   UNL     1      -4.599  -4.718   7.649  1.00  0.00    -0.000 C 
BRANCH  14  15
ATOM     15  C   UNL     1      -3.381  -4.877   6.719  1.00  0.00    -0.000 C 
BRANCH  15  16
ATOM     16  C   UNL     1      -3.674  -5.693   5.443  1.00  0.00    -0.003 C 
ATOM     17  C   UNL     1      -3.918  -7.174   5.740  1.00  0.00     0.004 C 
ENDBRANCH  15  16
ENDBRANCH  14  15
ENDBRANCH  13  14
ENDBRANCH  12  13
ENDBRANCH  11  12
ENDBRANCH  10  11
ENDBRANCH   1  10
TORSDOF 13
ENDMDL
