MODEL 1
REMARK VINA RESULT:    -4.371      0.000      0.000
REMARK INTER + INTRA:          -9.857
REMARK INTER:                  -8.459
REMARK INTRA:                  -1.398
REMARK UNBOUND:                -1.398
REMARK SMILES CCCCCCCCCCCCCCCCCC(=O)[O-]
REMARK SMILES IDX 10 1 11 2 12 3 13 4 14 5 15 6 16 7 17 8 18 9 19 10 20 11
REMARK SMILES IDX 9 12 8 13 7 14 6 15 5 16 4 17 3 18 2 19 1 20
REMARK H PARENT
REMARK Flexibility Score: inf
ROOT
ATOM      1  C   UNL     1     -44.380  28.309  -0.548  1.00  0.00     0.000 C 
ENDROOT
BRANCH   1   2
ATOM      2  C   UNL     1     -42.948  27.856  -0.223  1.00  0.00     0.000 C 
BRANCH   2   3
ATOM      3  C   UNL     1     -42.729  27.786   1.296  1.00  0.00     0.000 C 
BRANCH   3   4
ATOM      4  C   UNL     1     -43.010  29.124   1.999  1.00  0.00     0.000 C 
BRANCH   4   5
ATOM      5  C   UNL     1     -44.015  28.987   3.153  1.00  0.00     0.000 C 
BRANCH   5   6
ATOM      6  C   UNL     1     -44.275  27.513   3.483  1.00  0.00     0.000 C 
BRANCH   6   7
ATOM      7  C   UNL     1     -44.181  27.261   4.992  1.00  0.00     0.006 C 
BRANCH   7   8
ATOM      8  C   UNL     1     -43.500  28.433   5.704  1.00  0.00     0.053 C 
BRANCH   8   9
ATOM      9  C   UNL     1     -43.080  28.036   7.083  1.00  0.00     0.041 C 
ATOM     10  O   UNL     1     -43.789  27.243   7.758  1.00  0.00    -0.550 OA
ATOM     11  O   UNL     1     -41.880  28.500   7.606  1.00  0.00    -0.550 OA
ENDBRANCH   8   9
ENDBRANCH   7   8
ENDBRANCH   6   7
ENDBRANCH   5   6
ENDBRANCH   4   5
ENDBRANCH   3   4
ENDBRANCH   2   3
ENDBRANCH   1   2
BRANCH   1  12
ATOM     12  C   UNL     1     -45.449  27.391   0.066  1.00  0.00     0.000 C 
BRANCH  12  13
ATOM     13  C   UNL     1     -46.370  26.764  -0.995  1.00  0.00    -0.000 C 
BRANCH  13  14
ATOM     14  C   UNL     1     -45.673  25.658  -1.802  1.00  0.00    -0.000 C 
BRANCH  14  15
ATOM     15  C   UNL     1     -45.851  25.827  -3.319  1.00  0.00    -0.000 C 
BRANCH  15  16
ATOM     16  C   UNL     1     -46.417  27.215  -3.653  1.00  0.00    -0.000 C 
BRANCH  16  17
ATOM     17  C   UNL     1     -46.845  27.343  -5.124  1.00  0.00    -0.000 C 
BRANCH  17  18
ATOM     18  C   UNL     1     -45.912  26.584  -6.080  1.00  0.00    -0.000 C 
BRANCH  18  19
ATOM     19  C   UNL     1     -45.670  27.389  -7.363  1.00  0.00    -0.003 C 
ATOM     20  C   UNL     1     -45.268  28.825  -7.045  1.00  0.00     0.004 C 
ENDBRANCH  18  19
ENDBRANCH  17  18
ENDBRANCH  16  17
ENDBRANCH  15  16
ENDBRANCH  14  15
ENDBRANCH  13  14
ENDBRANCH  12  13
ENDBRANCH   1  12
TORSDOF 16
ENDMDL
MODEL 2
REMARK VINA RESULT:    -4.363      1.863      2.353
REMARK INTER + INTRA:          -9.842
REMARK INTER:                  -8.657
REMARK INTRA:                  -1.185
REMARK UNBOUND:                -1.398
REMARK SMILES CCCCCCCCCCCCCCCCCC(=O)[O-]
REMARK SMILES IDX 10 1 11 2 12 3 13 4 14 5 15 6 16 7 17 8 18 9 19 10 20 11
REMARK SMILES IDX 9 12 8 13 7 14 6 15 5 16 4 17 3 18 2 19 1 20
REMARK H PARENT
REMARK Flexibility Score: inf
ROOT
ATOM      1  C   UNL     1     -44.014  27.334   0.109  1.00  0.00     0.000 C 
ENDROOT
BRANCH   1   2
ATOM      2  C   UNL     1     -42.612  27.845  -0.259  1.00  0.00     0.000 C 
BRANCH   2   3
ATOM      3  C   UNL     1     -42.423  29.300   0.195  1.00  0.00     0.000 C 
BRANCH   3   4
ATOM      4  C   UNL     1     -43.427  29.718   1.282  1.00  0.00     0.000 C 
BRANCH   4   5
ATOM      5  C   UNL     1     -42.760  29.961   2.644  1.00  0.00     0.000 C 
BRANCH   5   6
ATOM      6  C   UNL     1     -43.738  29.682   3.792  1.00  0.00     0.000 C 
BRANCH   6   7
ATOM      7  C   UNL     1     -43.133  28.705   4.806  1.00  0.00     0.006 C 
BRANCH   7   8
ATOM      8  C   UNL     1     -44.181  27.703   5.297  1.00  0.00     0.053 C 
BRANCH   8   9
ATOM      9  C   UNL     1     -44.880  27.064   4.139  1.00  0.00     0.041 C 
ATOM     10  O   UNL     1     -44.264  26.256   3.394  1.00  0.00    -0.550 OA
ATOM     11  O   UNL     1     -46.225  27.322   3.909  1.00  0.00    -0.550 OA
ENDBRANCH   8   9
ENDBRANCH   7   8
ENDBRANCH   6   7
ENDBRANCH   5   6
ENDBRANCH   4   5
ENDBRANCH   3   4
ENDBRANCH   2   3
ENDBRANCH   1   2
BRANCH   1  12
ATOM     12  C   UNL     1     -45.012  27.445  -1.054  1.00  0.00     0.000 C 
BRANCH  12  13
ATOM     13  C   UNL     1     -45.365  26.077  -1.663  1.00  0.00    -0.000 C 
BRANCH  13  14
ATOM     14  C   UNL     1     -45.933  26.192  -3.086  1.00  0.00    -0.000 C 
BRANCH  14  15
ATOM     15  C   UNL     1     -46.911  27.367  -3.243  1.00  0.00    -0.000 C 
BRANCH  15  16
ATOM     16  C   UNL     1     -46.329  28.445  -4.168  1.00  0.00    -0.000 C 
BRANCH  16  17
ATOM     17  C   UNL     1     -46.749  28.258  -5.635  1.00  0.00    -0.000 C 
BRANCH  17  18
ATOM     18  C   UNL     1     -45.551  28.239  -6.596  1.00  0.00    -0.000 C 
BRANCH  18  19
ATOM     19  C   UNL     1     -45.438  26.882  -7.303  1.00  0.00    -0.003 C 
ATOM     20  C   UNL     1     -46.601  25.968  -6.931  1.00  0.00     0.004 C 
ENDBRANCH  18  19
ENDBRANCH  17  18
ENDBRANCH  16  17
ENDBRANCH  15  16
ENDBRANCH  14  15
ENDBRANCH  13  14
ENDBRANCH  12  13
ENDBRANCH   1  12
TORSDOF 16
ENDMDL
MODEL 3
REMARK VINA RESULT:    -4.219      1.500      3.044
REMARK INTER + INTRA:          -9.563
REMARK INTER:                  -7.584
REMARK INTRA:                  -1.978
REMARK UNBOUND:                -1.398
REMARK SMILES CCCCCCCCCCCCCCCCCC(=O)[O-]
REMARK SMILES IDX 10 1 11 2 12 3 13 4 14 5 15 6 16 7 17 8 18 9 19 10 20 11
REMARK SMILES IDX 9 12 8 13 7 14 6 15 5 16 4 17 3 18 2 19 1 20
REMARK H PARENT
REMARK Flexibility Score: inf
ROOT
ATOM      1  C   UNL     1     -42.417  27.963   0.515  1.00  0.00     0.000 C 
ENDROOT
BRANCH   1   2
ATOM      2  C   UNL     1     -43.131  27.392   1.751  1.00  0.00     0.000 C 
BRANCH   2   3
ATOM      3  C   UNL     1     -43.280  28.466   2.840  1.00  0.00     0.000 C 
BRANCH   3   4
ATOM      4  C   UNL     1     -44.670  28.457   3.496  1.00  0.00     0.000 C 
BRANCH   4   5
ATOM      5  C   UNL     1     -44.970  27.143   4.233  1.00  0.00     0.000 C 
BRANCH   5   6
ATOM      6  C   UNL     1     -45.639  27.413   5.586  1.00  0.00     0.000 C 
BRANCH   6   7
ATOM      7  C   UNL     1     -44.623  27.324   6.730  1.00  0.00     0.006 C 
BRANCH   7   8
ATOM      8  C   UNL     1     -44.334  28.708   7.317  1.00  0.00     0.053 C 
BRANCH   8   9
ATOM      9  C   UNL     1     -42.924  29.116   7.030  1.00  0.00     0.041 C 
ATOM     10  O   UNL     1     -42.668  29.870   6.054  1.00  0.00    -0.550 OA
ATOM     11  O   UNL     1     -41.896  28.704   7.869  1.00  0.00    -0.550 OA
ENDBRANCH   8   9
ENDBRANCH   7   8
ENDBRANCH   6   7
ENDBRANCH   5   6
ENDBRANCH   4   5
ENDBRANCH   3   4
ENDBRANCH   2   3
ENDBRANCH   1   2
BRANCH   1  12
ATOM     12  C   UNL     1     -42.584  29.485   0.381  1.00  0.00     0.000 C 
BRANCH  12  13
ATOM     13  C   UNL     1     -43.657  29.873  -0.651  1.00  0.00    -0.000 C 
BRANCH  13  14
ATOM     14  C   UNL     1     -45.051  30.026  -0.024  1.00  0.00    -0.000 C 
BRANCH  14  15
ATOM     15  C   UNL     1     -45.945  28.797  -0.254  1.00  0.00    -0.000 C 
BRANCH  15  16
ATOM     16  C   UNL     1     -45.545  28.063  -1.542  1.00  0.00    -0.000 C 
BRANCH  16  17
ATOM     17  C   UNL     1     -45.237  26.576  -1.306  1.00  0.00    -0.000 C 
BRANCH  17  18
ATOM     18  C   UNL     1     -45.520  25.708  -2.543  1.00  0.00    -0.000 C 
BRANCH  18  19
ATOM     19  C   UNL     1     -46.633  26.323  -3.400  1.00  0.00    -0.003 C 
ATOM     20  C   UNL     1     -46.186  26.490  -4.848  1.00  0.00     0.004 C 
ENDBRANCH  18  19
ENDBRANCH  17  18
ENDBRANCH  16  17
ENDBRANCH  15  16
ENDBRANCH  14  15
ENDBRANCH  13  14
ENDBRANCH  12  13
ENDBRANCH   1  12
TORSDOF 16
ENDMDL
MODEL 4
REMARK VINA RESULT:    -4.218      0.958      1.442
REMARK INTER + INTRA:          -9.560
REMARK INTER:                  -8.186
REMARK INTRA:                  -1.375
REMARK UNBOUND:                -1.398
REMARK SMILES CCCCCCCCCCCCCCCCCC(=O)[O-]
REMARK SMILES IDX 10 1 11 2 12 3 13 4 14 5 15 6 16 7 17 8 18 9 19 10 20 11
REMARK SMILES IDX 9 12 8 13 7 14 6 15 5 16 4 17 3 18 2 19 1 20
REMARK H PARENT
REMARK Flexibility Score: inf
ROOT
ATOM      1  C   UNL     1     -44.399  29.388  -0.100  1.00  0.00     0.000 C 
ENDROOT
BRANCH   1   2
ATOM      2  C   UNL     1     -42.886  29.139  -0.197  1.00  0.00     0.000 C 
BRANCH   2   3
ATOM      3  C   UNL     1     -42.509  27.799   0.452  1.00  0.00     0.000 C 
BRANCH   3   4
ATOM      4  C   UNL     1     -43.422  27.435   1.635  1.00  0.00     0.000 C 
BRANCH   4   5
ATOM      5  C   UNL     1     -43.063  28.200   2.918  1.00  0.00     0.000 C 
BRANCH   5   6
ATOM      6  C   UNL     1     -44.313  28.465   3.766  1.00  0.00     0.000 C 
BRANCH   6   7
ATOM      7  C   UNL     1     -43.935  28.830   5.205  1.00  0.00     0.006 C 
BRANCH   7   8
ATOM      8  C   UNL     1     -43.952  27.595   6.109  1.00  0.00     0.053 C 
BRANCH   8   9
ATOM      9  C   UNL     1     -43.211  27.864   7.380  1.00  0.00     0.041 C 
ATOM     10  O   UNL     1     -42.095  28.449   7.351  1.00  0.00    -0.550 OA
ATOM     11  O   UNL     1     -43.773  27.516   8.601  1.00  0.00    -0.550 OA
ENDBRANCH   8   9
ENDBRANCH   7   8
ENDBRANCH   6   7
ENDBRANCH   5   6
ENDBRANCH   4   5
ENDBRANCH   3   4
ENDBRANCH   2   3
ENDBRANCH   1   2
BRANCH   1  12
ATOM     12  C   UNL     1     -45.147  29.017  -1.391  1.00  0.00     0.000 C 
BRANCH  12  13
ATOM     13  C   UNL     1     -46.192  27.910  -1.171  1.00  0.00    -0.000 C 
BRANCH  13  14
ATOM     14  C   UNL     1     -45.568  26.506  -1.148  1.00  0.00    -0.000 C 
BRANCH  14  15
ATOM     15  C   UNL     1     -45.490  25.867  -2.544  1.00  0.00    -0.000 C 
BRANCH  15  16
ATOM     16  C   UNL     1     -46.710  26.254  -3.392  1.00  0.00    -0.000 C 
BRANCH  16  17
ATOM     17  C   UNL     1     -46.348  26.524  -4.862  1.00  0.00    -0.000 C 
BRANCH  17  18
ATOM     18  C   UNL     1     -46.070  28.009  -5.140  1.00  0.00    -0.000 C 
BRANCH  18  19
ATOM     19  C   UNL     1     -45.613  28.218  -6.590  1.00  0.00    -0.003 C 
ATOM     20  C   UNL     1     -45.391  26.884  -7.296  1.00  0.00     0.004 C 
ENDBRANCH  18  19
ENDBRANCH  17  18
ENDBRANCH  16  17
ENDBRANCH  15  16
ENDBRANCH  14  15
ENDBRANCH  13  14
ENDBRANCH  12  13
ENDBRANCH   1  12
TORSDOF 16
ENDMDL
MODEL 5
REMARK VINA RESULT:    -4.169      1.044      1.787
REMARK INTER + INTRA:          -9.467
REMARK INTER:                  -8.318
REMARK INTRA:                  -1.149
REMARK UNBOUND:                -1.398
REMARK SMILES CCCCCCCCCCCCCCCCCC(=O)[O-]
REMARK SMILES IDX 10 1 11 2 12 3 13 4 14 5 15 6 16 7 17 8 18 9 19 10 20 11
REMARK SMILES IDX 9 12 8 13 7 14 6 15 5 16 4 17 3 18 2 19 1 20
REMARK H PARENT
REMARK Flexibility Score: inf
ROOT
ATOM      1  C   UNL     1     -42.646  27.678   0.820  1.00  0.00     0.000 C 
ENDROOT
BRANCH   1   2
ATOM      2  C   UNL     1     -43.341  27.463   2.174  1.00  0.00     0.000 C 
BRANCH   2   3
ATOM      3  C   UNL     1     -43.627  28.807   2.862  1.00  0.00     0.000 C 
BRANCH   3   4
ATOM      4  C   UNL     1     -45.009  28.849   3.532  1.00  0.00     0.000 C 
BRANCH   4   5
ATOM      5  C   UNL     1     -44.935  28.673   5.056  1.00  0.00     0.000 C 
BRANCH   5   6
ATOM      6  C   UNL     1     -44.820  27.190   5.432  1.00  0.00     0.000 C 
BRANCH   6   7
ATOM      7  C   UNL     1     -43.761  26.978   6.520  1.00  0.00     0.006 C 
BRANCH   7   8
ATOM      8  C   UNL     1     -42.779  28.151   6.568  1.00  0.00     0.053 C 
BRANCH   8   9
ATOM      9  C   UNL     1     -42.641  28.662   7.967  1.00  0.00     0.041 C 
ATOM     10  O   UNL     1     -43.482  28.336   8.847  1.00  0.00    -0.550 OA
ATOM     11  O   UNL     1     -41.556  29.456   8.314  1.00  0.00    -0.550 OA
ENDBRANCH   8   9
ENDBRANCH   7   8
ENDBRANCH   6   7
ENDBRANCH   5   6
ENDBRANCH   4   5
ENDBRANCH   3   4
ENDBRANCH   2   3
ENDBRANCH   1   2
BRANCH   1  12
ATOM     12  C   UNL     1     -43.618  28.127  -0.283  1.00  0.00     0.000 C 
BRANCH  12  13
ATOM     13  C   UNL     1     -44.861  27.226  -0.379  1.00  0.00    -0.000 C 
BRANCH  13  14
ATOM     14  C   UNL     1     -44.829  26.306  -1.610  1.00  0.00    -0.000 C 
BRANCH  14  15
ATOM     15  C   UNL     1     -46.185  25.637  -1.887  1.00  0.00    -0.000 C 
BRANCH  15  16
ATOM     16  C   UNL     1     -47.016  26.471  -2.873  1.00  0.00    -0.000 C 
BRANCH  16  17
ATOM     17  C   UNL     1     -46.375  26.554  -4.267  1.00  0.00    -0.000 C 
BRANCH  17  18
ATOM     18  C   UNL     1     -46.210  28.001  -4.758  1.00  0.00    -0.000 C 
BRANCH  18  19
ATOM     19  C   UNL     1     -45.911  28.038  -6.262  1.00  0.00    -0.003 C 
ATOM     20  C   UNL     1     -45.572  26.648  -6.792  1.00  0.00     0.004 C 
ENDBRANCH  18  19
ENDBRANCH  17  18
ENDBRANCH  16  17
ENDBRANCH  15  16
ENDBRANCH  14  15
ENDBRANCH  13  14
ENDBRANCH  12  13
ENDBRANCH   1  12
TORSDOF 16
ENDMDL
MODEL 6
REMARK VINA RESULT:    -4.101      1.103      2.252
REMARK INTER + INTRA:          -9.335
REMARK INTER:                  -7.985
REMARK INTRA:                  -1.349
REMARK UNBOUND:                -1.398
REMARK SMILES CCCCCCCCCCCCCCCCCC(=O)[O-]
REMARK SMILES IDX 10 1 11 2 12 3 13 4 14 5 15 6 16 7 17 8 18 9 19 10 20 11
REMARK SMILES IDX 9 12 8 13 7 14 6 15 5 16 4 17 3 18 2 19 1 20
REMARK H PARENT
REMARK Flexibility Score: inf
ROOT
ATOM      1  C   UNL     1     -45.706  26.799  -0.965  1.00  0.00     0.000 C 
ENDROOT
BRANCH   1   2
ATOM      2  C   UNL     1     -44.488  26.772  -0.029  1.00  0.00     0.000 C 
BRANCH   2   3
ATOM      3  C   UNL     1     -43.362  27.667  -0.570  1.00  0.00     0.000 C 
BRANCH   3   4
ATOM      4  C   UNL     1     -43.337  29.054   0.092  1.00  0.00     0.000 C 
BRANCH   4   5
ATOM      5  C   UNL     1     -44.102  29.090   1.423  1.00  0.00     0.000 C 
BRANCH   5   6
ATOM      6  C   UNL     1     -43.140  29.260   2.605  1.00  0.00     0.000 C 
BRANCH   6   7
ATOM      7  C   UNL     1     -43.567  28.391   3.793  1.00  0.00     0.006 C 
BRANCH   7   8
ATOM      8  C   UNL     1     -43.192  29.052   5.121  1.00  0.00     0.053 C 
BRANCH   8   9
ATOM      9  C   UNL     1     -42.978  28.017   6.180  1.00  0.00     0.041 C 
ATOM     10  O   UNL     1     -42.170  28.233   7.122  1.00  0.00    -0.550 OA
ATOM     11  O   UNL     1     -43.706  26.835   6.155  1.00  0.00    -0.550 OA
ENDBRANCH   8   9
ENDBRANCH   7   8
ENDBRANCH   6   7
ENDBRANCH   5   6
ENDBRANCH   4   5
ENDBRANCH   3   4
ENDBRANCH   2   3
ENDBRANCH   1   2
BRANCH   1  12
ATOM     12  C   UNL     1     -45.603  25.774  -2.106  1.00  0.00     0.000 C 
BRANCH  12  13
ATOM     13  C   UNL     1     -46.010  26.362  -3.468  1.00  0.00    -0.000 C 
BRANCH  13  14
ATOM     14  C   UNL     1     -46.831  27.654  -3.332  1.00  0.00    -0.000 C 
BRANCH  14  15
ATOM     15  C   UNL     1     -46.068  28.898  -3.813  1.00  0.00    -0.000 C 
BRANCH  15  16
ATOM     16  C   UNL     1     -46.536  29.320  -5.213  1.00  0.00    -0.000 C 
BRANCH  16  17
ATOM     17  C   UNL     1     -45.459  29.107  -6.289  1.00  0.00    -0.000 C 
BRANCH  17  18
ATOM     18  C   UNL     1     -45.924  28.171  -7.416  1.00  0.00    -0.000 C 
BRANCH  18  19
ATOM     19  C   UNL     1     -45.620  26.707  -7.073  1.00  0.00    -0.003 C 
ATOM     20  C   UNL     1     -46.790  25.800  -7.442  1.00  0.00     0.004 C 
ENDBRANCH  18  19
ENDBRANCH  17  18
ENDBRANCH  16  17
ENDBRANCH  15  16
ENDBRANCH  14  15
ENDBRANCH  13  14
ENDBRANCH  12  13
ENDBRANCH   1  12
TORSDOF 16
ENDMDL
MODEL 7
REMARK VINA RESULT:    -3.999      4.166      8.734
REMARK INTER + INTRA:          -9.137
REMARK INTER:                  -6.313
REMARK INTRA:                  -2.824
REMARK UNBOUND:                -1.398
REMARK SMILES CCCCCCCCCCCCCCCCCC(=O)[O-]
REMARK SMILES IDX 10 1 11 2 12 3 13 4 14 5 15 6 16 7 17 8 18 9 19 10 20 11
REMARK SMILES IDX 9 12 8 13 7 14 6 15 5 16 4 17 3 18 2 19 1 20
REMARK H PARENT
REMARK Flexibility Score: inf
ROOT
ATOM      1  C   UNL     1     -42.574  27.777   0.815  1.00  0.00     0.000 C 
ENDROOT
BRANCH   1   2
ATOM      2  C   UNL     1     -42.562  28.916  -0.216  1.00  0.00     0.000 C 
BRANCH   2   3
ATOM      3  C   UNL     1     -43.833  29.771  -0.102  1.00  0.00     0.000 C 
BRANCH   3   4
ATOM      4  C   UNL     1     -44.957  29.290  -1.034  1.00  0.00     0.000 C 
BRANCH   4   5
ATOM      5  C   UNL     1     -46.127  28.651  -0.271  1.00  0.00     0.000 C 
BRANCH   5   6
ATOM      6  C   UNL     1     -46.082  27.122  -0.378  1.00  0.00     0.000 C 
BRANCH   6   7
ATOM      7  C   UNL     1     -45.338  26.679  -1.643  1.00  0.00     0.006 C 
BRANCH   7   8
ATOM      8  C   UNL     1     -46.303  26.072  -2.664  1.00  0.00     0.053 C 
BRANCH   8   9
ATOM      9  C   UNL     1     -46.293  26.866  -3.932  1.00  0.00     0.041 C 
ATOM     10  O   UNL     1     -46.059  26.299  -5.032  1.00  0.00    -0.550 OA
ATOM     11  O   UNL     1     -46.591  28.222  -3.906  1.00  0.00    -0.550 OA
ENDBRANCH   8   9
ENDBRANCH   7   8
ENDBRANCH   6   7
ENDBRANCH   5   6
ENDBRANCH   4   5
ENDBRANCH   3   4
ENDBRANCH   2   3
ENDBRANCH   1   2
BRANCH   1  12
ATOM     12  C   UNL     1     -43.127  28.216   2.180  1.00  0.00     0.000 C 
BRANCH  12  13
ATOM     13  C   UNL     1     -44.159  27.225   2.747  1.00  0.00    -0.000 C 
BRANCH  13  14
ATOM     14  C   UNL     1     -45.377  27.930   3.363  1.00  0.00    -0.000 C 
BRANCH  14  15
ATOM     15  C   UNL     1     -45.297  29.461   3.254  1.00  0.00    -0.000 C 
BRANCH  15  16
ATOM     16  C   UNL     1     -45.465  30.118   4.631  1.00  0.00    -0.000 C 
BRANCH  16  17
ATOM     17  C   UNL     1     -45.357  29.111   5.787  1.00  0.00    -0.000 C 
BRANCH  17  18
ATOM     18  C   UNL     1     -44.115  29.343   6.661  1.00  0.00    -0.000 C 
BRANCH  18  19
ATOM     19  C   UNL     1     -43.025  28.309   6.350  1.00  0.00    -0.003 C 
ATOM     20  C   UNL     1     -43.578  26.889   6.415  1.00  0.00     0.004 C 
ENDBRANCH  18  19
ENDBRANCH  17  18
ENDBRANCH  16  17
ENDBRANCH  15  16
ENDBRANCH  14  15
ENDBRANCH  13  14
ENDBRANCH  12  13
ENDBRANCH   1  12
TORSDOF 16
ENDMDL
MODEL 8
REMARK VINA RESULT:    -3.971      4.886      9.888
REMARK INTER + INTRA:          -9.083
REMARK INTER:                  -7.855
REMARK INTRA:                  -1.228
REMARK UNBOUND:                -1.398
REMARK SMILES CCCCCCCCCCCCCCCCCC(=O)[O-]
REMARK SMILES IDX 10 1 11 2 12 3 13 4 14 5 15 6 16 7 17 8 18 9 19 10 20 11
REMARK SMILES IDX 9 12 8 13 7 14 6 15 5 16 4 17 3 18 2 19 1 20
REMARK H PARENT
REMARK Flexibility Score: inf
ROOT
ATOM      1  C   UNL     1     -42.953  27.909  -0.249  1.00  0.00     0.000 C 
ENDROOT
BRANCH   1   2
ATOM      2  C   UNL     1     -44.288  28.653  -0.411  1.00  0.00     0.000 C 
BRANCH   2   3
ATOM      3  C   UNL     1     -45.415  27.679  -0.785  1.00  0.00     0.000 C 
BRANCH   3   4
ATOM      4  C   UNL     1     -44.888  26.351  -1.355  1.00  0.00     0.000 C 
BRANCH   4   5
ATOM      5  C   UNL     1     -45.941  25.603  -2.186  1.00  0.00     0.000 C 
BRANCH   5   6
ATOM      6  C   UNL     1     -46.733  26.574  -3.071  1.00  0.00     0.000 C 
BRANCH   6   7
ATOM      7  C   UNL     1     -46.370  26.394  -4.548  1.00  0.00     0.006 C 
BRANCH   7   8
ATOM      8  C   UNL     1     -46.072  27.742  -5.210  1.00  0.00     0.053 C 
BRANCH   8   9
ATOM      9  C   UNL     1     -45.631  27.545  -6.625  1.00  0.00     0.041 C 
ATOM     10  O   UNL     1     -45.484  28.537  -7.387  1.00  0.00    -0.550 OA
ATOM     11  O   UNL     1     -45.333  26.271  -7.091  1.00  0.00    -0.550 OA
ENDBRANCH   8   9
ENDBRANCH   7   8
ENDBRANCH   6   7
ENDBRANCH   5   6
ENDBRANCH   4   5
ENDBRANCH   3   4
ENDBRANCH   2   3
ENDBRANCH   1   2
BRANCH   1  12
ATOM     12  C   UNL     1     -42.672  27.501   1.207  1.00  0.00     0.000 C 
BRANCH  12  13
ATOM     13  C   UNL     1     -43.374  28.417   2.224  1.00  0.00    -0.000 C 
BRANCH  13  14
ATOM     14  C   UNL     1     -44.049  27.631   3.359  1.00  0.00    -0.000 C 
BRANCH  14  15
ATOM     15  C   UNL     1     -45.558  27.904   3.456  1.00  0.00    -0.000 C 
BRANCH  15  16
ATOM     16  C   UNL     1     -45.902  28.622   4.769  1.00  0.00    -0.000 C 
BRANCH  16  17
ATOM     17  C   UNL     1     -44.667  28.875   5.648  1.00  0.00    -0.000 C 
BRANCH  17  18
ATOM     18  C   UNL     1     -44.707  28.089   6.968  1.00  0.00    -0.000 C 
BRANCH  18  19
ATOM     19  C   UNL     1     -43.314  27.560   7.333  1.00  0.00    -0.003 C 
ATOM     20  C   UNL     1     -42.450  28.659   7.943  1.00  0.00     0.004 C 
ENDBRANCH  18  19
ENDBRANCH  17  18
ENDBRANCH  16  17
ENDBRANCH  15  16
ENDBRANCH  14  15
ENDBRANCH  13  14
ENDBRANCH  12  13
ENDBRANCH   1  12
TORSDOF 16
ENDMDL
MODEL 9
REMARK VINA RESULT:    -3.950      4.061      8.506
REMARK INTER + INTRA:          -9.044
REMARK INTER:                  -6.763
REMARK INTRA:                  -2.280
REMARK UNBOUND:                -1.398
REMARK SMILES CCCCCCCCCCCCCCCCCC(=O)[O-]
REMARK SMILES IDX 10 1 11 2 12 3 13 4 14 5 15 6 16 7 17 8 18 9 19 10 20 11
REMARK SMILES IDX 9 12 8 13 7 14 6 15 5 16 4 17 3 18 2 19 1 20
REMARK H PARENT
REMARK Flexibility Score: inf
ROOT
ATOM      1  C   UNL     1     -43.361  27.600   2.074  1.00  0.00     0.000 C 
ENDROOT
BRANCH   1   2
ATOM      2  C   UNL     1     -42.519  28.011   0.856  1.00  0.00     0.000 C 
BRANCH   2   3
ATOM      3  C   UNL     1     -42.491  29.539   0.702  1.00  0.00     0.000 C 
BRANCH   3   4
ATOM      4  C   UNL     1     -43.156  30.018  -0.599  1.00  0.00     0.000 C 
BRANCH   4   5
ATOM      5  C   UNL     1     -44.684  30.123  -0.479  1.00  0.00     0.000 C 
BRANCH   5   6
ATOM      6  C   UNL     1     -45.378  29.195  -1.483  1.00  0.00     0.000 C 
BRANCH   6   7
ATOM      7  C   UNL     1     -45.857  27.908  -0.804  1.00  0.00     0.006 C 
BRANCH   7   8
ATOM      8  C   UNL     1     -44.945  26.729  -1.155  1.00  0.00     0.053 C 
BRANCH   8   9
ATOM      9  C   UNL     1     -45.659  25.759  -2.041  1.00  0.00     0.041 C 
ATOM     10  O   UNL     1     -45.892  24.588  -1.640  1.00  0.00    -0.550 OA
ATOM     11  O   UNL     1     -46.112  26.161  -3.291  1.00  0.00    -0.550 OA
ENDBRANCH   8   9
ENDBRANCH   7   8
ENDBRANCH   6   7
ENDBRANCH   5   6
ENDBRANCH   4   5
ENDBRANCH   3   4
ENDBRANCH   2   3
ENDBRANCH   1   2
BRANCH   1  12
ATOM     12  C   UNL     1     -44.009  28.800   2.782  1.00  0.00     0.000 C 
BRANCH  12  13
ATOM     13  C   UNL     1     -45.508  28.587   3.054  1.00  0.00    -0.000 C 
BRANCH  13  14
ATOM     14  C   UNL     1     -46.084  29.625   4.030  1.00  0.00    -0.000 C 
BRANCH  14  15
ATOM     15  C   UNL     1     -46.635  28.990   5.317  1.00  0.00    -0.000 C 
BRANCH  15  16
ATOM     16  C   UNL     1     -46.352  27.481   5.348  1.00  0.00    -0.000 C 
BRANCH  16  17
ATOM     17  C   UNL     1     -45.459  27.069   6.528  1.00  0.00    -0.000 C 
BRANCH  17  18
ATOM     18  C   UNL     1     -43.997  26.841   6.113  1.00  0.00    -0.000 C 
BRANCH  18  19
ATOM     19  C   UNL     1     -43.172  28.122   6.287  1.00  0.00    -0.003 C 
ATOM     20  C   UNL     1     -42.834  28.366   7.754  1.00  0.00     0.004 C 
ENDBRANCH  18  19
ENDBRANCH  17  18
ENDBRANCH  16  17
ENDBRANCH  15  16
ENDBRANCH  14  15
ENDBRANCH  13  14
ENDBRANCH  12  13
ENDBRANCH   1  12
TORSDOF 16
ENDMDL
