MODEL 1
REMARK VINA RESULT:    -4.603      0.000      0.000
REMARK INTER + INTRA:          -9.409
REMARK INTER:                  -7.159
REMARK INTRA:                  -2.249
REMARK UNBOUND:                -2.249
REMARK SMILES COc1cc(CNC(=O)CCCCC=CC(C)C)ccc1O
REMARK SMILES IDX 11 1 12 2 13 3 14 4 15 5 16 6 17 7 18 8 10 9 8 10 9 11 7 12
REMARK SMILES IDX 6 14 5 15 4 16 19 17 3 18 20 19 21 20 2 21 1 22 22 23
REMARK H PARENT 7 13 22 24
REMARK Flexibility Score: inf
ROOT
ATOM      1  C   UNL     1     -16.369  39.013 -30.281  1.00  0.00     0.010 C 
ENDROOT
BRANCH   1   2
ATOM      2  C   UNL     1     -17.783  39.406 -30.741  1.00  0.00     0.005 C 
BRANCH   2   3
ATOM      3  C   UNL     1     -18.907  38.602 -30.057  1.00  0.00     0.027 C 
BRANCH   3   4
ATOM      4  C   UNL     1     -18.964  38.867 -28.572  1.00  0.00    -0.031 C 
ATOM      5  C   UNL     1     -18.682  37.993 -27.583  1.00  0.00    -0.028 C 
BRANCH   5   6
ATOM      6  C   UNL     1     -18.350  36.515 -27.700  1.00  0.00     0.005 C 
ATOM      7  C   UNL     1     -16.847  36.263 -27.866  1.00  0.00     0.012 C 
ATOM      8  C   UNL     1     -18.966  35.648 -26.594  1.00  0.00     0.012 C 
ENDBRANCH   5   6
ENDBRANCH   3   4
ENDBRANCH   2   3
ENDBRANCH   1   2
BRANCH   1   9
ATOM      9  C   UNL     1     -15.724  40.066 -29.370  1.00  0.00     0.100 C 
BRANCH   9  10
ATOM     10  C   UNL     1     -14.995  39.400 -28.244  1.00  0.00     0.220 C 
ATOM     11  O   UNL     1     -14.123  38.526 -28.499  1.00  0.00    -0.275 OA
ATOM     12  N   UNL     1     -15.325  39.720 -26.885  1.00  0.00    -0.352 N 
ATOM     13  H   UNL     1     -16.025  40.472 -26.697  1.00  0.00     0.163 HD
BRANCH  12  14
ATOM     14  C   UNL     1     -14.780  38.979 -25.751  1.00  0.00     0.151 C 
BRANCH  14  15
ATOM     15  C   UNL     1     -15.898  38.390 -24.936  1.00  0.00    -0.025 A 
ATOM     16  C   UNL     1     -15.796  37.089 -24.419  1.00  0.00     0.056 A 
ATOM     17  C   UNL     1     -17.077  39.121 -24.735  1.00  0.00     0.009 A 
ATOM     18  C   UNL     1     -16.861  36.523 -23.689  1.00  0.00     0.160 A 
ATOM     19  C   UNL     1     -18.134  38.568 -24.009  1.00  0.00     0.050 A 
ATOM     20  C   UNL     1     -18.029  37.272 -23.485  1.00  0.00     0.157 A 
BRANCH  18  21
ATOM     21  O   UNL     1     -16.797  35.226 -23.157  1.00  0.00    -0.493 OA
ATOM     22  C   UNL     1     -16.252  34.903 -21.882  1.00  0.00     0.278 C 
ENDBRANCH  18  21
BRANCH  20  23
ATOM     23  O   UNL     1     -19.084  36.720 -22.762  1.00  0.00    -0.504 OA
ATOM     24  H   UNL     1     -20.050  36.905 -23.007  1.00  0.00     0.293 HD
ENDBRANCH  20  23
ENDBRANCH  14  15
ENDBRANCH  12  14
ENDBRANCH   9  10
ENDBRANCH   1   9
TORSDOF 10
ENDMDL
MODEL 2
REMARK VINA RESULT:    -4.560      0.921      2.004
REMARK INTER + INTRA:          -9.342
REMARK INTER:                  -7.064
REMARK INTRA:                  -2.278
REMARK UNBOUND:                -2.249
REMARK SMILES COc1cc(CNC(=O)CCCCC=CC(C)C)ccc1O
REMARK SMILES IDX 11 1 12 2 13 3 14 4 15 5 16 6 17 7 18 8 10 9 8 10 9 11 7 12
REMARK SMILES IDX 6 14 5 15 4 16 19 17 3 18 20 19 21 20 2 21 1 22 22 23
REMARK H PARENT 7 13 22 24
REMARK Flexibility Score: inf
ROOT
ATOM      1  C   UNL     1     -16.124  38.954 -29.882  1.00  0.00     0.010 C 
ENDROOT
BRANCH   1   2
ATOM      2  C   UNL     1     -17.503  39.537 -30.231  1.00  0.00     0.005 C 
BRANCH   2   3
ATOM      3  C   UNL     1     -18.685  38.750 -29.629  1.00  0.00     0.027 C 
BRANCH   3   4
ATOM      4  C   UNL     1     -18.740  38.882 -28.127  1.00  0.00    -0.031 C 
ATOM      5  C   UNL     1     -18.566  37.896 -27.221  1.00  0.00    -0.028 C 
BRANCH   5   6
ATOM      6  C   UNL     1     -18.383  36.409 -27.472  1.00  0.00     0.005 C 
ATOM      7  C   UNL     1     -16.920  36.035 -27.741  1.00  0.00     0.012 C 
ATOM      8  C   UNL     1     -19.027  35.513 -26.406  1.00  0.00     0.012 C 
ENDBRANCH   5   6
ENDBRANCH   3   4
ENDBRANCH   2   3
ENDBRANCH   1   2
BRANCH   1   9
ATOM      9  C   UNL     1     -15.377  39.779 -28.827  1.00  0.00     0.100 C 
BRANCH   9  10
ATOM     10  C   UNL     1     -14.722  38.874 -27.829  1.00  0.00     0.220 C 
ATOM     11  O   UNL     1     -13.917  37.990 -28.227  1.00  0.00    -0.275 OA
ATOM     12  N   UNL     1     -15.051  38.983 -26.437  1.00  0.00    -0.352 N 
ATOM     13  H   UNL     1     -15.694  39.746 -26.125  1.00  0.00     0.163 HD
BRANCH  12  14
ATOM     14  C   UNL     1     -14.586  38.018 -25.445  1.00  0.00     0.151 C 
BRANCH  14  15
ATOM     15  C   UNL     1     -15.750  37.498 -24.648  1.00  0.00    -0.025 A 
ATOM     16  C   UNL     1     -16.806  38.351 -24.287  1.00  0.00     0.056 A 
ATOM     17  C   UNL     1     -15.762  36.165 -24.213  1.00  0.00     0.009 A 
ATOM     18  C   UNL     1     -17.877  37.873 -23.506  1.00  0.00     0.160 A 
ATOM     19  C   UNL     1     -16.823  35.684 -23.444  1.00  0.00     0.050 A 
ATOM     20  C   UNL     1     -17.880  36.533 -23.090  1.00  0.00     0.157 A 
BRANCH  18  21
ATOM     21  O   UNL     1     -18.949  38.694 -23.124  1.00  0.00    -0.493 OA
ATOM     22  C   UNL     1     -19.481  39.748 -23.919  1.00  0.00     0.278 C 
ENDBRANCH  18  21
BRANCH  20  23
ATOM     23  O   UNL     1     -18.939  36.053 -22.321  1.00  0.00    -0.504 OA
ATOM     24  H   UNL     1     -18.802  35.329 -21.624  1.00  0.00     0.293 HD
ENDBRANCH  20  23
ENDBRANCH  14  15
ENDBRANCH  12  14
ENDBRANCH   9  10
ENDBRANCH   1   9
TORSDOF 10
ENDMDL
MODEL 3
REMARK VINA RESULT:    -4.146      1.329      2.126
REMARK INTER + INTRA:          -8.697
REMARK INTER:                  -6.775
REMARK INTRA:                  -1.922
REMARK UNBOUND:                -2.249
REMARK SMILES COc1cc(CNC(=O)CCCCC=CC(C)C)ccc1O
REMARK SMILES IDX 11 1 12 2 13 3 14 4 15 5 16 6 17 7 18 8 10 9 8 10 9 11 7 12
REMARK SMILES IDX 6 14 5 15 4 16 19 17 3 18 20 19 21 20 2 21 1 22 22 23
REMARK H PARENT 7 13 22 24
REMARK Flexibility Score: inf
ROOT
ATOM      1  C   UNL     1     -17.559  39.783 -28.856  1.00  0.00     0.010 C 
ENDROOT
BRANCH   1   2
ATOM      2  C   UNL     1     -18.556  39.176 -29.857  1.00  0.00     0.005 C 
BRANCH   2   3
ATOM      3  C   UNL     1     -18.766  37.657 -29.685  1.00  0.00     0.027 C 
BRANCH   3   4
ATOM      4  C   UNL     1     -17.587  37.001 -29.008  1.00  0.00    -0.031 C 
ATOM      5  C   UNL     1     -17.566  36.453 -27.774  1.00  0.00    -0.028 C 
BRANCH   5   6
ATOM      6  C   UNL     1     -18.665  36.452 -26.726  1.00  0.00     0.005 C 
ATOM      7  C   UNL     1     -18.739  35.127 -25.956  1.00  0.00     0.012 C 
ATOM      8  C   UNL     1     -18.635  37.667 -25.790  1.00  0.00     0.012 C 
ENDBRANCH   5   6
ENDBRANCH   3   4
ENDBRANCH   2   3
ENDBRANCH   1   2
BRANCH   1   9
ATOM      9  C   UNL     1     -16.168  40.007 -29.461  1.00  0.00     0.100 C 
BRANCH   9  10
ATOM     10  C   UNL     1     -15.115  39.867 -28.405  1.00  0.00     0.220 C 
ATOM     11  O   UNL     1     -13.927  39.615 -28.743  1.00  0.00    -0.275 OA
ATOM     12  N   UNL     1     -15.469  39.969 -27.019  1.00  0.00    -0.352 N 
ATOM     13  H   UNL     1     -16.453  40.213 -26.763  1.00  0.00     0.163 HD
BRANCH  12  14
ATOM     14  C   UNL     1     -14.527  39.665 -25.946  1.00  0.00     0.151 C 
BRANCH  14  15
ATOM     15  C   UNL     1     -14.980  38.443 -25.195  1.00  0.00    -0.025 A 
ATOM     16  C   UNL     1     -15.661  38.567 -23.973  1.00  0.00     0.056 A 
ATOM     17  C   UNL     1     -14.675  37.166 -25.687  1.00  0.00     0.009 A 
ATOM     18  C   UNL     1     -16.050  37.421 -23.251  1.00  0.00     0.160 A 
ATOM     19  C   UNL     1     -15.063  36.027 -24.980  1.00  0.00     0.050 A 
ATOM     20  C   UNL     1     -15.749  36.151 -23.764  1.00  0.00     0.157 A 
BRANCH  18  21
ATOM     21  O   UNL     1     -16.731  37.504 -22.026  1.00  0.00    -0.493 OA
ATOM     22  C   UNL     1     -18.144  37.406 -21.880  1.00  0.00     0.278 C 
ENDBRANCH  18  21
BRANCH  20  23
ATOM     23  O   UNL     1     -16.134  35.013 -23.056  1.00  0.00    -0.504 OA
ATOM     24  H   UNL     1     -15.977  34.930 -22.059  1.00  0.00     0.293 HD
ENDBRANCH  20  23
ENDBRANCH  14  15
ENDBRANCH  12  14
ENDBRANCH   9  10
ENDBRANCH   1   9
TORSDOF 10
ENDMDL
MODEL 4
REMARK VINA RESULT:    -4.080      1.919      3.428
REMARK INTER + INTRA:          -8.596
REMARK INTER:                  -7.750
REMARK INTRA:                  -0.845
REMARK UNBOUND:                -2.249
REMARK SMILES COc1cc(CNC(=O)CCCCC=CC(C)C)ccc1O
REMARK SMILES IDX 11 1 12 2 13 3 14 4 15 5 16 6 17 7 18 8 10 9 8 10 9 11 7 12
REMARK SMILES IDX 6 14 5 15 4 16 19 17 3 18 20 19 21 20 2 21 1 22 22 23
REMARK H PARENT 7 13 22 24
REMARK Flexibility Score: inf
ROOT
ATOM      1  C   UNL     1     -14.479  39.047 -27.923  1.00  0.00     0.010 C 
ENDROOT
BRANCH   1   2
ATOM      2  C   UNL     1     -15.051  38.882 -29.341  1.00  0.00     0.005 C 
BRANCH   2   3
ATOM      3  C   UNL     1     -16.050  39.986 -29.743  1.00  0.00     0.027 C 
BRANCH   3   4
ATOM      4  C   UNL     1     -16.834  39.610 -30.977  1.00  0.00    -0.031 C 
ATOM      5  C   UNL     1     -18.057  39.037 -31.015  1.00  0.00    -0.028 C 
BRANCH   5   6
ATOM      6  C   UNL     1     -18.894  38.529 -29.854  1.00  0.00     0.005 C 
ATOM      7  C   UNL     1     -18.437  37.150 -29.361  1.00  0.00     0.012 C 
ATOM      8  C   UNL     1     -19.046  39.535 -28.706  1.00  0.00     0.012 C 
ENDBRANCH   5   6
ENDBRANCH   3   4
ENDBRANCH   2   3
ENDBRANCH   1   2
BRANCH   1   9
ATOM      9  C   UNL     1     -14.459  37.733 -27.132  1.00  0.00     0.100 C 
BRANCH   9  10
ATOM     10  C   UNL     1     -15.851  37.346 -26.736  1.00  0.00     0.220 C 
ATOM     11  O   UNL     1     -16.692  38.244 -26.465  1.00  0.00    -0.275 OA
ATOM     12  N   UNL     1     -16.205  35.961 -26.616  1.00  0.00    -0.352 N 
ATOM     13  H   UNL     1     -15.502  35.233 -26.879  1.00  0.00     0.163 HD
BRANCH  12  14
ATOM     14  C   UNL     1     -17.483  35.524 -26.063  1.00  0.00     0.151 C 
BRANCH  14  15
ATOM     15  C   UNL     1     -17.522  35.790 -24.583  1.00  0.00    -0.025 A 
ATOM     16  C   UNL     1     -18.624  36.437 -24.003  1.00  0.00     0.056 A 
ATOM     17  C   UNL     1     -16.427  35.439 -23.781  1.00  0.00     0.009 A 
ATOM     18  C   UNL     1     -18.642  36.721 -22.622  1.00  0.00     0.160 A 
ATOM     19  C   UNL     1     -16.440  35.713 -22.412  1.00  0.00     0.050 A 
ATOM     20  C   UNL     1     -17.544  36.352 -21.831  1.00  0.00     0.157 A 
BRANCH  18  21
ATOM     21  O   UNL     1     -19.724  37.368 -22.005  1.00  0.00    -0.493 OA
ATOM     22  C   UNL     1     -20.227  38.643 -22.389  1.00  0.00     0.278 C 
ENDBRANCH  18  21
BRANCH  20  23
ATOM     23  O   UNL     1     -17.556  36.628 -20.465  1.00  0.00    -0.504 OA
ATOM     24  H   UNL     1     -18.106  37.387 -20.081  1.00  0.00     0.293 HD
ENDBRANCH  20  23
ENDBRANCH  14  15
ENDBRANCH  12  14
ENDBRANCH   9  10
ENDBRANCH   1   9
TORSDOF 10
ENDMDL
MODEL 5
REMARK VINA RESULT:    -4.027      1.903      2.985
REMARK INTER + INTRA:          -8.512
REMARK INTER:                  -7.785
REMARK INTRA:                  -0.727
REMARK UNBOUND:                -2.249
REMARK SMILES COc1cc(CNC(=O)CCCCC=CC(C)C)ccc1O
REMARK SMILES IDX 11 1 12 2 13 3 14 4 15 5 16 6 17 7 18 8 10 9 8 10 9 11 7 12
REMARK SMILES IDX 6 14 5 15 4 16 19 17 3 18 20 19 21 20 2 21 1 22 22 23
REMARK H PARENT 7 13 22 24
REMARK Flexibility Score: inf
ROOT
ATOM      1  C   UNL     1     -14.378  39.026 -28.080  1.00  0.00     0.010 C 
ENDROOT
BRANCH   1   2
ATOM      2  C   UNL     1     -15.191  38.741 -29.354  1.00  0.00     0.005 C 
BRANCH   2   3
ATOM      3  C   UNL     1     -16.106  39.906 -29.784  1.00  0.00     0.027 C 
BRANCH   3   4
ATOM      4  C   UNL     1     -16.935  39.551 -30.994  1.00  0.00    -0.031 C 
ATOM      5  C   UNL     1     -18.165  38.994 -30.996  1.00  0.00    -0.028 C 
BRANCH   5   6
ATOM      6  C   UNL     1     -18.971  38.488 -29.812  1.00  0.00     0.005 C 
ATOM      7  C   UNL     1     -18.486  37.121 -29.314  1.00  0.00     0.012 C 
ATOM      8  C   UNL     1     -19.112  39.506 -28.673  1.00  0.00     0.012 C 
ENDBRANCH   5   6
ENDBRANCH   3   4
ENDBRANCH   2   3
ENDBRANCH   1   2
BRANCH   1   9
ATOM      9  C   UNL     1     -14.354  37.839 -27.110  1.00  0.00     0.100 C 
BRANCH   9  10
ATOM     10  C   UNL     1     -15.751  37.430 -26.756  1.00  0.00     0.220 C 
ATOM     11  O   UNL     1     -16.615  38.316 -26.515  1.00  0.00    -0.275 OA
ATOM     12  N   UNL     1     -16.086  36.040 -26.642  1.00  0.00    -0.352 N 
ATOM     13  H   UNL     1     -15.364  35.323 -26.880  1.00  0.00     0.163 HD
BRANCH  12  14
ATOM     14  C   UNL     1     -17.375  35.584 -26.128  1.00  0.00     0.151 C 
BRANCH  14  15
ATOM     15  C   UNL     1     -17.467  35.862 -24.652  1.00  0.00    -0.025 A 
ATOM     16  C   UNL     1     -16.416  35.505 -23.792  1.00  0.00     0.056 A 
ATOM     17  C   UNL     1     -18.631  36.432 -24.119  1.00  0.00     0.009 A 
ATOM     18  C   UNL     1     -16.520  35.729 -22.404  1.00  0.00     0.160 A 
ATOM     19  C   UNL     1     -18.737  36.662 -22.746  1.00  0.00     0.050 A 
ATOM     20  C   UNL     1     -17.686  36.313 -21.888  1.00  0.00     0.157 A 
BRANCH  18  21
ATOM     21  O   UNL     1     -15.493  35.384 -21.512  1.00  0.00    -0.493 OA
ATOM     22  C   UNL     1     -14.123  35.734 -21.684  1.00  0.00     0.278 C 
ENDBRANCH  18  21
BRANCH  20  23
ATOM     23  O   UNL     1     -17.793  36.540 -20.517  1.00  0.00    -0.504 OA
ATOM     24  H   UNL     1     -18.524  36.109 -19.963  1.00  0.00     0.293 HD
ENDBRANCH  20  23
ENDBRANCH  14  15
ENDBRANCH  12  14
ENDBRANCH   9  10
ENDBRANCH   1   9
TORSDOF 10
ENDMDL
MODEL 6
REMARK VINA RESULT:    -3.991      1.810      3.751
REMARK INTER + INTRA:          -8.457
REMARK INTER:                  -7.139
REMARK INTRA:                  -1.317
REMARK UNBOUND:                -2.249
REMARK SMILES COc1cc(CNC(=O)CCCCC=CC(C)C)ccc1O
REMARK SMILES IDX 11 1 12 2 13 3 14 4 15 5 16 6 17 7 18 8 10 9 8 10 9 11 7 12
REMARK SMILES IDX 6 14 5 15 4 16 19 17 3 18 20 19 21 20 2 21 1 22 22 23
REMARK H PARENT 7 13 22 24
REMARK Flexibility Score: inf
ROOT
ATOM      1  C   UNL     1     -16.421  36.133 -27.420  1.00  0.00     0.010 C 
ENDROOT
BRANCH   1   2
ATOM      2  C   UNL     1     -17.793  36.522 -26.842  1.00  0.00     0.005 C 
BRANCH   2   3
ATOM      3  C   UNL     1     -18.475  37.688 -27.585  1.00  0.00     0.027 C 
BRANCH   3   4
ATOM      4  C   UNL     1     -18.782  37.336 -29.020  1.00  0.00    -0.031 C 
ATOM      5  C   UNL     1     -18.378  38.006 -30.121  1.00  0.00    -0.028 C 
BRANCH   5   6
ATOM      6  C   UNL     1     -17.621  39.321 -30.198  1.00  0.00     0.005 C 
ATOM      7  C   UNL     1     -16.123  39.153 -29.916  1.00  0.00     0.012 C 
ATOM      8  C   UNL     1     -17.886  40.119 -31.481  1.00  0.00     0.012 C 
ENDBRANCH   5   6
ENDBRANCH   3   4
ENDBRANCH   2   3
ENDBRANCH   1   2
BRANCH   1   9
ATOM      9  C   UNL     1     -15.313  37.124 -27.042  1.00  0.00     0.100 C 
BRANCH   9  10
ATOM     10  C   UNL     1     -15.008  37.026 -25.578  1.00  0.00     0.220 C 
ATOM     11  O   UNL     1     -14.438  35.995 -25.130  1.00  0.00    -0.275 OA
ATOM     12  N   UNL     1     -15.409  38.078 -24.689  1.00  0.00    -0.352 N 
ATOM     13  H   UNL     1     -15.848  38.939 -25.087  1.00  0.00     0.163 HD
BRANCH  12  14
ATOM     14  C   UNL     1     -15.301  37.960 -23.238  1.00  0.00     0.151 C 
BRANCH  14  15
ATOM     15  C   UNL     1     -16.518  37.269 -22.686  1.00  0.00    -0.025 A 
ATOM     16  C   UNL     1     -17.779  37.882 -22.755  1.00  0.00     0.056 A 
ATOM     17  C   UNL     1     -16.389  36.026 -22.050  1.00  0.00     0.009 A 
ATOM     18  C   UNL     1     -18.912  37.251 -22.202  1.00  0.00     0.160 A 
ATOM     19  C   UNL     1     -17.508  35.394 -21.506  1.00  0.00     0.050 A 
ATOM     20  C   UNL     1     -18.768  36.001 -21.581  1.00  0.00     0.157 A 
BRANCH  18  21
ATOM     21  O   UNL     1     -20.189  37.831 -22.249  1.00  0.00    -0.493 OA
ATOM     22  C   UNL     1     -20.648  38.845 -21.361  1.00  0.00     0.278 C 
ENDBRANCH  18  21
BRANCH  20  23
ATOM     23  O   UNL     1     -19.885  35.370 -21.035  1.00  0.00    -0.504 OA
ATOM     24  H   UNL     1     -20.711  35.180 -21.591  1.00  0.00     0.293 HD
ENDBRANCH  20  23
ENDBRANCH  14  15
ENDBRANCH  12  14
ENDBRANCH   9  10
ENDBRANCH   1   9
TORSDOF 10
ENDMDL
MODEL 7
REMARK VINA RESULT:    -3.943      4.245      7.766
REMARK INTER + INTRA:          -8.382
REMARK INTER:                  -7.586
REMARK INTRA:                  -0.797
REMARK UNBOUND:                -2.249
REMARK SMILES COc1cc(CNC(=O)CCCCC=CC(C)C)ccc1O
REMARK SMILES IDX 11 1 12 2 13 3 14 4 15 5 16 6 17 7 18 8 10 9 8 10 9 11 7 12
REMARK SMILES IDX 6 14 5 15 4 16 19 17 3 18 20 19 21 20 2 21 1 22 22 23
REMARK H PARENT 7 13 22 24
REMARK Flexibility Score: inf
ROOT
ATOM      1  C   UNL     1     -19.383  37.625 -21.086  1.00  0.00     0.010 C 
ENDROOT
BRANCH   1   2
ATOM      2  C   UNL     1     -20.699  37.019 -20.568  1.00  0.00     0.005 C 
BRANCH   2   3
ATOM      3  C   UNL     1     -21.391  37.866 -19.481  1.00  0.00     0.027 C 
BRANCH   3   4
ATOM      4  C   UNL     1     -22.457  38.762 -20.062  1.00  0.00    -0.031 C 
ATOM      5  C   UNL     1     -23.794  38.579 -19.993  1.00  0.00    -0.028 C 
BRANCH   5   6
ATOM      6  C   UNL     1     -24.553  37.393 -19.422  1.00  0.00     0.005 C 
ATOM      7  C   UNL     1     -25.084  37.662 -18.009  1.00  0.00     0.012 C 
ATOM      8  C   UNL     1     -25.636  36.839 -20.356  1.00  0.00     0.012 C 
ENDBRANCH   5   6
ENDBRANCH   3   4
ENDBRANCH   2   3
ENDBRANCH   1   2
BRANCH   1   9
ATOM      9  C   UNL     1     -19.440  37.989 -22.574  1.00  0.00     0.100 C 
BRANCH   9  10
ATOM     10  C   UNL     1     -19.016  36.819 -23.409  1.00  0.00     0.220 C 
ATOM     11  O   UNL     1     -18.149  36.020 -22.964  1.00  0.00    -0.275 OA
ATOM     12  N   UNL     1     -19.556  36.643 -24.726  1.00  0.00    -0.352 N 
ATOM     13  H   UNL     1     -20.300  37.298 -25.062  1.00  0.00     0.163 HD
BRANCH  12  14
ATOM     14  C   UNL     1     -19.052  35.632 -25.652  1.00  0.00     0.151 C 
BRANCH  14  15
ATOM     15  C   UNL     1     -18.268  36.290 -26.754  1.00  0.00    -0.025 A 
ATOM     16  C   UNL     1     -16.916  36.622 -26.568  1.00  0.00     0.056 A 
ATOM     17  C   UNL     1     -18.901  36.626 -27.959  1.00  0.00     0.009 A 
ATOM     18  C   UNL     1     -16.194  37.275 -27.587  1.00  0.00     0.160 A 
ATOM     19  C   UNL     1     -18.189  37.266 -28.974  1.00  0.00     0.050 A 
ATOM     20  C   UNL     1     -16.838  37.591 -28.792  1.00  0.00     0.157 A 
BRANCH  18  21
ATOM     21  O   UNL     1     -14.842  37.624 -27.439  1.00  0.00    -0.493 OA
ATOM     22  C   UNL     1     -14.376  38.746 -26.696  1.00  0.00     0.278 C 
ENDBRANCH  18  21
BRANCH  20  23
ATOM     23  O   UNL     1     -16.128  38.233 -29.805  1.00  0.00    -0.504 OA
ATOM     24  H   UNL     1     -16.531  38.383 -30.723  1.00  0.00     0.293 HD
ENDBRANCH  20  23
ENDBRANCH  14  15
ENDBRANCH  12  14
ENDBRANCH   9  10
ENDBRANCH   1   9
TORSDOF 10
ENDMDL
MODEL 8
REMARK VINA RESULT:    -3.888      2.624      4.556
REMARK INTER + INTRA:          -8.297
REMARK INTER:                  -7.391
REMARK INTRA:                  -0.906
REMARK UNBOUND:                -2.249
REMARK SMILES COc1cc(CNC(=O)CCCCC=CC(C)C)ccc1O
REMARK SMILES IDX 11 1 12 2 13 3 14 4 15 5 16 6 17 7 18 8 10 9 8 10 9 11 7 12
REMARK SMILES IDX 6 14 5 15 4 16 19 17 3 18 20 19 21 20 2 21 1 22 22 23
REMARK H PARENT 7 13 22 24
REMARK Flexibility Score: inf
ROOT
ATOM      1  C   UNL     1     -17.631  35.565 -26.153  1.00  0.00     0.010 C 
ENDROOT
BRANCH   1   2
ATOM      2  C   UNL     1     -18.698  36.672 -26.104  1.00  0.00     0.005 C 
BRANCH   2   3
ATOM      3  C   UNL     1     -18.639  37.648 -27.297  1.00  0.00     0.027 C 
BRANCH   3   4
ATOM      4  C   UNL     1     -18.682  36.922 -28.619  1.00  0.00    -0.031 C 
ATOM      5  C   UNL     1     -18.266  37.393 -29.815  1.00  0.00    -0.028 C 
BRANCH   5   6
ATOM      6  C   UNL     1     -17.762  38.785 -30.154  1.00  0.00     0.005 C 
ATOM      7  C   UNL     1     -16.275  38.967 -29.823  1.00  0.00     0.012 C 
ATOM      8  C   UNL     1     -18.101  39.242 -31.578  1.00  0.00     0.012 C 
ENDBRANCH   5   6
ENDBRANCH   3   4
ENDBRANCH   2   3
ENDBRANCH   1   2
BRANCH   1   9
ATOM      9  C   UNL     1     -16.208  36.099 -25.951  1.00  0.00     0.100 C 
BRANCH   9  10
ATOM     10  C   UNL     1     -15.895  36.200 -24.489  1.00  0.00     0.220 C 
ATOM     11  O   UNL     1     -15.052  37.048 -24.092  1.00  0.00    -0.275 OA
ATOM     12  N   UNL     1     -16.513  35.300 -23.559  1.00  0.00    -0.352 N 
ATOM     13  H   UNL     1     -17.235  34.628 -23.906  1.00  0.00     0.163 HD
BRANCH  12  14
ATOM     14  C   UNL     1     -16.116  35.229 -22.155  1.00  0.00     0.151 C 
BRANCH  14  15
ATOM     15  C   UNL     1     -16.966  36.159 -21.333  1.00  0.00    -0.025 A 
ATOM     16  C   UNL     1     -18.358  36.203 -21.516  1.00  0.00     0.056 A 
ATOM     17  C   UNL     1     -16.364  37.029 -20.414  1.00  0.00     0.009 A 
ATOM     18  C   UNL     1     -19.149  37.103 -20.774  1.00  0.00     0.160 A 
ATOM     19  C   UNL     1     -17.142  37.919 -19.672  1.00  0.00     0.050 A 
ATOM     20  C   UNL     1     -18.532  37.958 -19.848  1.00  0.00     0.157 A 
BRANCH  18  21
ATOM     21  O   UNL     1     -20.541  37.178 -20.929  1.00  0.00    -0.493 OA
ATOM     22  C   UNL     1     -21.484  36.544 -20.071  1.00  0.00     0.278 C 
ENDBRANCH  18  21
BRANCH  20  23
ATOM     23  O   UNL     1     -19.309  38.848 -19.108  1.00  0.00    -0.504 OA
ATOM     24  H   UNL     1     -18.924  39.364 -18.326  1.00  0.00     0.293 HD
ENDBRANCH  20  23
ENDBRANCH  14  15
ENDBRANCH  12  14
ENDBRANCH   9  10
ENDBRANCH   1   9
TORSDOF 10
ENDMDL
MODEL 9
REMARK VINA RESULT:    -3.885      1.881      3.686
REMARK INTER + INTRA:          -8.291
REMARK INTER:                  -7.272
REMARK INTRA:                  -1.019
REMARK UNBOUND:                -2.249
REMARK SMILES COc1cc(CNC(=O)CCCCC=CC(C)C)ccc1O
REMARK SMILES IDX 11 1 12 2 13 3 14 4 15 5 16 6 17 7 18 8 10 9 8 10 9 11 7 12
REMARK SMILES IDX 6 14 5 15 4 16 19 17 3 18 20 19 21 20 2 21 1 22 22 23
REMARK H PARENT 7 13 22 24
REMARK Flexibility Score: inf
ROOT
ATOM      1  C   UNL     1     -18.467  36.946 -27.473  1.00  0.00     0.010 C 
ENDROOT
BRANCH   1   2
ATOM      2  C   UNL     1     -18.459  38.410 -27.001  1.00  0.00     0.005 C 
BRANCH   2   3
ATOM      3  C   UNL     1     -18.939  39.412 -28.070  1.00  0.00     0.027 C 
BRANCH   3   4
ATOM      4  C   UNL     1     -19.176  38.742 -29.402  1.00  0.00    -0.031 C 
ATOM      5  C   UNL     1     -18.439  38.887 -30.524  1.00  0.00    -0.028 C 
BRANCH   5   6
ATOM      6  C   UNL     1     -17.271  39.828 -30.767  1.00  0.00     0.005 C 
ATOM      7  C   UNL     1     -16.015  39.416 -29.989  1.00  0.00     0.012 C 
ATOM      8  C   UNL     1     -16.978  40.088 -32.250  1.00  0.00     0.012 C 
ENDBRANCH   5   6
ENDBRANCH   3   4
ENDBRANCH   2   3
ENDBRANCH   1   2
BRANCH   1   9
ATOM      9  C   UNL     1     -17.095  36.473 -27.971  1.00  0.00     0.100 C 
BRANCH   9  10
ATOM     10  C   UNL     1     -16.052  36.715 -26.923  1.00  0.00     0.220 C 
ATOM     11  O   UNL     1     -15.105  37.511 -27.162  1.00  0.00    -0.275 OA
ATOM     12  N   UNL     1     -16.106  36.003 -25.678  1.00  0.00    -0.352 N 
ATOM     13  H   UNL     1     -16.919  35.374 -25.487  1.00  0.00     0.163 HD
BRANCH  12  14
ATOM     14  C   UNL     1     -15.027  36.061 -24.696  1.00  0.00     0.151 C 
BRANCH  14  15
ATOM     15  C   UNL     1     -15.589  36.346 -23.331  1.00  0.00    -0.025 A 
ATOM     16  C   UNL     1     -16.974  36.290 -23.103  1.00  0.00     0.056 A 
ATOM     17  C   UNL     1     -14.734  36.723 -22.286  1.00  0.00     0.009 A 
ATOM     18  C   UNL     1     -17.503  36.596 -21.833  1.00  0.00     0.160 A 
ATOM     19  C   UNL     1     -15.251  37.022 -21.025  1.00  0.00     0.050 A 
ATOM     20  C   UNL     1     -16.632  36.959 -20.795  1.00  0.00     0.157 A 
BRANCH  18  21
ATOM     21  O   UNL     1     -18.880  36.554 -21.567  1.00  0.00    -0.493 OA
ATOM     22  C   UNL     1     -19.792  37.607 -21.861  1.00  0.00     0.278 C 
ENDBRANCH  18  21
BRANCH  20  23
ATOM     23  O   UNL     1     -17.148  37.260 -19.536  1.00  0.00    -0.504 OA
ATOM     24  H   UNL     1     -18.118  37.529 -19.410  1.00  0.00     0.293 HD
ENDBRANCH  20  23
ENDBRANCH  14  15
ENDBRANCH  12  14
ENDBRANCH   9  10
ENDBRANCH   1   9
TORSDOF 10
ENDMDL
