MODEL 1
REMARK VINA RESULT:    -8.404      0.000      0.000
REMARK INTER + INTRA:         -10.430
REMARK INTER:                 -10.124
REMARK INTRA:                  -0.306
REMARK UNBOUND:                -0.306
REMARK SMILES O=c1c(O)c(-c2ccc(O)c(O)c2)oc2cc(O)cc(O)c12
REMARK SMILES IDX 5 1 3 2 2 3 1 4 22 5 20 6 19 7 17 8 16 9 15 10 14 11 6 12
REMARK SMILES IDX 7 13 8 14 9 15 13 16 11 17 10 18 12 20 4 22 21 24 18 26
REMARK H PARENT 10 19 12 21 4 23 21 25 18 27
REMARK Flexibility Score: inf
ROOT
ATOM      1  C   UNL     1      38.919  25.397  39.138  1.00  0.00     0.180 A 
ATOM      2  C   UNL     1      39.852  25.047  40.129  1.00  0.00     0.208 A 
ATOM      3  C   UNL     1      39.733  25.615  41.408  1.00  0.00     0.238 A 
ATOM      4  O   UNL     1      40.614  25.355  42.268  1.00  0.00    -0.285 OA
ATOM      5  C   UNL     1      38.651  26.484  41.696  1.00  0.00     0.111 A 
ATOM      6  C   UNL     1      38.407  27.082  42.969  1.00  0.00     0.134 A 
ATOM      7  C   UNL     1      37.366  28.009  43.108  1.00  0.00     0.093 A 
ATOM      8  C   UNL     1      36.523  28.311  42.040  1.00  0.00     0.123 A 
ATOM      9  C   UNL     1      36.718  27.691  40.806  1.00  0.00     0.094 A 
ATOM     10  C   UNL     1      37.772  26.791  40.625  1.00  0.00     0.146 A 
ATOM     11  O   UNL     1      37.935  26.240  39.428  1.00  0.00    -0.452 OA
ENDROOT
BRANCH   1  12
ATOM     12  C   UNL     1      38.987  24.852  37.764  1.00  0.00     0.025 A 
ATOM     13  C   UNL     1      38.103  23.830  37.383  1.00  0.00     0.016 A 
ATOM     14  C   UNL     1      38.134  23.314  36.084  1.00  0.00     0.051 A 
ATOM     15  C   UNL     1      39.040  23.823  35.144  1.00  0.00     0.157 A 
ATOM     16  C   UNL     1      39.881  25.373  36.810  1.00  0.00     0.062 A 
ATOM     17  C   UNL     1      39.912  24.857  35.507  1.00  0.00     0.158 A 
BRANCH  15  18
ATOM     18  O   UNL     1      39.077  23.309  33.849  1.00  0.00    -0.504 OA
ATOM     19  H   UNL     1      39.352  22.352  33.666  1.00  0.00     0.293 HD
ENDBRANCH  15  18
BRANCH  17  20
ATOM     20  O   UNL     1      40.802  25.372  34.566  1.00  0.00    -0.504 OA
ATOM     21  H   UNL     1      41.753  25.032  34.494  1.00  0.00     0.293 HD
ENDBRANCH  17  20
ENDBRANCH   1  12
BRANCH   2  22
ATOM     22  O   UNL     1      40.867  24.128  39.847  1.00  0.00    -0.502 OA
ATOM     23  H   UNL     1      41.679  24.368  39.292  1.00  0.00     0.293 HD
ENDBRANCH   2  22
BRANCH   6  24
ATOM     24  O   UNL     1      39.133  26.785  44.126  1.00  0.00    -0.507 OA
ATOM     25  H   UNL     1      40.139  26.796  44.196  1.00  0.00     0.293 HD
ENDBRANCH   6  24
BRANCH   8  26
ATOM     26  O   UNL     1      35.487  29.225  42.220  1.00  0.00    -0.508 OA
ATOM     27  H   UNL     1      35.524  29.932  42.944  1.00  0.00     0.293 HD
ENDBRANCH   8  26
TORSDOF 6
ENDMDL
MODEL 2
REMARK VINA RESULT:    -7.663      2.269      7.649
REMARK INTER + INTRA:          -9.537
REMARK INTER:                  -9.466
REMARK INTRA:                  -0.071
REMARK UNBOUND:                -0.306
REMARK SMILES O=c1c(O)c(-c2ccc(O)c(O)c2)oc2cc(O)cc(O)c12
REMARK SMILES IDX 5 1 3 2 2 3 1 4 22 5 20 6 19 7 17 8 16 9 15 10 14 11 6 12
REMARK SMILES IDX 7 13 8 14 9 15 13 16 11 17 10 18 12 20 4 22 21 24 18 26
REMARK H PARENT 10 19 12 21 4 23 21 25 18 27
REMARK Flexibility Score: inf
ROOT
ATOM      1  C   UNL     1      36.980  28.179  42.664  1.00  0.00     0.180 A 
ATOM      2  C   UNL     1      37.987  27.639  43.481  1.00  0.00     0.208 A 
ATOM      3  C   UNL     1      38.866  26.687  42.939  1.00  0.00     0.238 A 
ATOM      4  O   UNL     1      39.718  26.152  43.696  1.00  0.00    -0.285 OA
ATOM      5  C   UNL     1      38.762  26.328  41.573  1.00  0.00     0.111 A 
ATOM      6  C   UNL     1      39.627  25.408  40.907  1.00  0.00     0.134 A 
ATOM      7  C   UNL     1      39.363  25.050  39.578  1.00  0.00     0.093 A 
ATOM      8  C   UNL     1      38.306  25.625  38.874  1.00  0.00     0.123 A 
ATOM      9  C   UNL     1      37.489  26.566  39.498  1.00  0.00     0.094 A 
ATOM     10  C   UNL     1      37.703  26.916  40.833  1.00  0.00     0.146 A 
ATOM     11  O   UNL     1      36.887  27.800  41.396  1.00  0.00    -0.452 OA
ENDROOT
BRANCH   1  12
ATOM     12  C   UNL     1      36.008  29.176  43.167  1.00  0.00     0.025 A 
ATOM     13  C   UNL     1      35.821  30.375  42.461  1.00  0.00     0.016 A 
ATOM     14  C   UNL     1      34.894  31.321  42.905  1.00  0.00     0.051 A 
ATOM     15  C   UNL     1      34.128  31.074  44.053  1.00  0.00     0.157 A 
ATOM     16  C   UNL     1      35.222  28.924  44.307  1.00  0.00     0.062 A 
ATOM     17  C   UNL     1      34.290  29.872  44.752  1.00  0.00     0.158 A 
BRANCH  15  18
ATOM     18  O   UNL     1      33.204  32.017  44.501  1.00  0.00    -0.504 OA
ATOM     19  H   UNL     1      32.914  32.793  43.919  1.00  0.00     0.293 HD
ENDBRANCH  15  18
BRANCH  17  20
ATOM     20  O   UNL     1      33.517  29.623  45.885  1.00  0.00    -0.504 OA
ATOM     21  H   UNL     1      32.510  29.521  45.827  1.00  0.00     0.293 HD
ENDBRANCH  17  20
ENDBRANCH   1  12
BRANCH   2  22
ATOM     22  O   UNL     1      38.122  28.063  44.806  1.00  0.00    -0.502 OA
ATOM     23  H   UNL     1      37.410  28.608  45.278  1.00  0.00     0.293 HD
ENDBRANCH   2  22
BRANCH   6  24
ATOM     24  O   UNL     1      40.765  24.841  41.488  1.00  0.00    -0.507 OA
ATOM     25  H   UNL     1      40.850  23.878  41.772  1.00  0.00     0.293 HD
ENDBRANCH   6  24
BRANCH   8  26
ATOM     26  O   UNL     1      38.084  25.257  37.548  1.00  0.00    -0.508 OA
ATOM     27  H   UNL     1      38.172  24.295  37.243  1.00  0.00     0.293 HD
ENDBRANCH   8  26
TORSDOF 6
ENDMDL
MODEL 3
REMARK VINA RESULT:    -7.475      1.181      1.865
REMARK INTER + INTRA:          -9.310
REMARK INTER:                  -9.030
REMARK INTRA:                  -0.280
REMARK UNBOUND:                -0.306
REMARK SMILES O=c1c(O)c(-c2ccc(O)c(O)c2)oc2cc(O)cc(O)c12
REMARK SMILES IDX 5 1 3 2 2 3 1 4 22 5 20 6 19 7 17 8 16 9 15 10 14 11 6 12
REMARK SMILES IDX 7 13 8 14 9 15 13 16 11 17 10 18 12 20 4 22 21 24 18 26
REMARK H PARENT 10 19 12 21 4 23 21 25 18 27
REMARK Flexibility Score: inf
ROOT
ATOM      1  C   UNL     1      38.494  26.102  39.955  1.00  0.00     0.180 A 
ATOM      2  C   UNL     1      39.248  25.730  41.080  1.00  0.00     0.208 A 
ATOM      3  C   UNL     1      38.965  26.328  42.318  1.00  0.00     0.238 A 
ATOM      4  O   UNL     1      39.693  26.046  43.306  1.00  0.00    -0.285 OA
ATOM      5  C   UNL     1      37.895  27.250  42.428  1.00  0.00     0.111 A 
ATOM      6  C   UNL     1      37.491  27.884  43.642  1.00  0.00     0.134 A 
ATOM      7  C   UNL     1      36.486  28.860  43.609  1.00  0.00     0.093 A 
ATOM      8  C   UNL     1      35.829  29.178  42.422  1.00  0.00     0.123 A 
ATOM      9  C   UNL     1      36.178  28.525  41.240  1.00  0.00     0.094 A 
ATOM     10  C   UNL     1      37.202  27.575  41.232  1.00  0.00     0.146 A 
ATOM     11  O   UNL     1      37.518  26.994  40.081  1.00  0.00    -0.452 OA
ENDROOT
BRANCH   1  12
ATOM     12  C   UNL     1      38.742  25.526  38.614  1.00  0.00     0.025 A 
ATOM     13  C   UNL     1      39.835  25.981  37.859  1.00  0.00     0.016 A 
ATOM     14  C   UNL     1      40.102  25.437  36.600  1.00  0.00     0.051 A 
ATOM     15  C   UNL     1      39.287  24.421  36.083  1.00  0.00     0.157 A 
ATOM     16  C   UNL     1      37.939  24.491  38.099  1.00  0.00     0.062 A 
ATOM     17  C   UNL     1      38.207  23.945  36.837  1.00  0.00     0.158 A 
BRANCH  15  18
ATOM     18  O   UNL     1      39.547  23.878  34.826  1.00  0.00    -0.504 OA
ATOM     19  H   UNL     1      40.371  23.314  34.653  1.00  0.00     0.293 HD
ENDBRANCH  15  18
BRANCH  17  20
ATOM     20  O   UNL     1      37.408  22.923  36.326  1.00  0.00    -0.504 OA
ATOM     21  H   UNL     1      36.468  23.101  35.992  1.00  0.00     0.293 HD
ENDBRANCH  17  20
ENDBRANCH   1  12
BRANCH   2  22
ATOM     22  O   UNL     1      40.249  24.760  40.967  1.00  0.00    -0.502 OA
ATOM     23  H   UNL     1      40.254  24.067  40.228  1.00  0.00     0.293 HD
ENDBRANCH   2  22
BRANCH   6  24
ATOM     24  O   UNL     1      38.019  27.578  44.899  1.00  0.00    -0.507 OA
ATOM     25  H   UNL     1      37.621  27.866  45.779  1.00  0.00     0.293 HD
ENDBRANCH   6  24
BRANCH   8  26
ATOM     26  O   UNL     1      34.822  30.142  42.431  1.00  0.00    -0.508 OA
ATOM     27  H   UNL     1      33.972  30.015  42.967  1.00  0.00     0.293 HD
ENDBRANCH   8  26
TORSDOF 6
ENDMDL
MODEL 4
REMARK VINA RESULT:    -6.776      4.220      7.766
REMARK INTER + INTRA:          -8.469
REMARK INTER:                  -8.345
REMARK INTRA:                  -0.124
REMARK UNBOUND:                -0.306
REMARK SMILES O=c1c(O)c(-c2ccc(O)c(O)c2)oc2cc(O)cc(O)c12
REMARK SMILES IDX 5 1 3 2 2 3 1 4 22 5 20 6 19 7 17 8 16 9 15 10 14 11 6 12
REMARK SMILES IDX 7 13 8 14 9 15 13 16 11 17 10 18 12 20 4 22 21 24 18 26
REMARK H PARENT 10 19 12 21 4 23 21 25 18 27
REMARK Flexibility Score: inf
ROOT
ATOM      1  C   UNL     1      35.679  30.086  43.021  1.00  0.00     0.180 A 
ATOM      2  C   UNL     1      34.773  30.178  44.091  1.00  0.00     0.208 A 
ATOM      3  C   UNL     1      33.936  31.302  44.181  1.00  0.00     0.238 A 
ATOM      4  O   UNL     1      33.180  31.413  45.181  1.00  0.00    -0.285 OA
ATOM      5  C   UNL     1      33.977  32.294  43.171  1.00  0.00     0.111 A 
ATOM      6  C   UNL     1      33.143  33.453  43.136  1.00  0.00     0.134 A 
ATOM      7  C   UNL     1      33.346  34.420  42.143  1.00  0.00     0.093 A 
ATOM      8  C   UNL     1      34.306  34.240  41.149  1.00  0.00     0.123 A 
ATOM      9  C   UNL     1      35.088  33.086  41.141  1.00  0.00     0.094 A 
ATOM     10  C   UNL     1      34.937  32.121  42.139  1.00  0.00     0.146 A 
ATOM     11  O   UNL     1      35.717  31.048  42.107  1.00  0.00    -0.452 OA
ENDROOT
BRANCH   1  12
ATOM     12  C   UNL     1      36.603  28.940  42.867  1.00  0.00     0.025 A 
ATOM     13  C   UNL     1      37.552  28.679  43.868  1.00  0.00     0.016 A 
ATOM     14  C   UNL     1      38.420  27.590  43.753  1.00  0.00     0.051 A 
ATOM     15  C   UNL     1      38.341  26.738  42.643  1.00  0.00     0.157 A 
ATOM     16  C   UNL     1      36.514  28.070  41.764  1.00  0.00     0.062 A 
ATOM     17  C   UNL     1      37.384  26.977  41.650  1.00  0.00     0.158 A 
BRANCH  15  18
ATOM     18  O   UNL     1      39.208  25.652  42.524  1.00  0.00    -0.504 OA
ATOM     19  H   UNL     1      39.124  24.839  43.122  1.00  0.00     0.293 HD
ENDBRANCH  15  18
BRANCH  17  20
ATOM     20  O   UNL     1      37.298  26.118  40.554  1.00  0.00    -0.504 OA
ATOM     21  H   UNL     1      37.091  26.464  39.625  1.00  0.00     0.293 HD
ENDBRANCH  17  20
ENDBRANCH   1  12
BRANCH   2  22
ATOM     22  O   UNL     1      34.694  29.151  45.036  1.00  0.00    -0.502 OA
ATOM     23  H   UNL     1      34.367  28.221  44.803  1.00  0.00     0.293 HD
ENDBRANCH   2  22
BRANCH   6  24
ATOM     24  O   UNL     1      32.094  33.689  44.029  1.00  0.00    -0.507 OA
ATOM     25  H   UNL     1      32.169  34.224  44.880  1.00  0.00     0.293 HD
ENDBRANCH   6  24
BRANCH   8  26
ATOM     26  O   UNL     1      34.468  35.216  40.167  1.00  0.00    -0.508 OA
ATOM     27  H   UNL     1      35.102  35.083  39.388  1.00  0.00     0.293 HD
ENDBRANCH   8  26
TORSDOF 6
ENDMDL
MODEL 5
REMARK VINA RESULT:    -6.728      4.322      7.933
REMARK INTER + INTRA:          -8.411
REMARK INTER:                  -8.215
REMARK INTRA:                  -0.196
REMARK UNBOUND:                -0.306
REMARK SMILES O=c1c(O)c(-c2ccc(O)c(O)c2)oc2cc(O)cc(O)c12
REMARK SMILES IDX 5 1 3 2 2 3 1 4 22 5 20 6 19 7 17 8 16 9 15 10 14 11 6 12
REMARK SMILES IDX 7 13 8 14 9 15 13 16 11 17 10 18 12 20 4 22 21 24 18 26
REMARK H PARENT 10 19 12 21 4 23 21 25 18 27
REMARK Flexibility Score: inf
ROOT
ATOM      1  C   UNL     1      35.651  30.268  43.335  1.00  0.00     0.180 A 
ATOM      2  C   UNL     1      35.615  31.429  42.544  1.00  0.00     0.208 A 
ATOM      3  C   UNL     1      34.778  32.489  42.929  1.00  0.00     0.238 A 
ATOM      4  O   UNL     1      34.693  33.495  42.177  1.00  0.00    -0.285 OA
ATOM      5  C   UNL     1      34.029  32.397  44.128  1.00  0.00     0.111 A 
ATOM      6  C   UNL     1      33.183  33.428  44.638  1.00  0.00     0.134 A 
ATOM      7  C   UNL     1      32.409  33.184  45.780  1.00  0.00     0.093 A 
ATOM      8  C   UNL     1      32.499  31.974  46.466  1.00  0.00     0.123 A 
ATOM      9  C   UNL     1      33.364  30.981  46.008  1.00  0.00     0.094 A 
ATOM     10  C   UNL     1      34.120  31.178  44.850  1.00  0.00     0.146 A 
ATOM     11  O   UNL     1      34.914  30.198  44.437  1.00  0.00    -0.452 OA
ENDROOT
BRANCH   1  12
ATOM     12  C   UNL     1      36.497  29.104  42.987  1.00  0.00     0.025 A 
ATOM     13  C   UNL     1      37.525  28.713  43.860  1.00  0.00     0.016 A 
ATOM     14  C   UNL     1      38.322  27.604  43.563  1.00  0.00     0.051 A 
ATOM     15  C   UNL     1      38.094  26.863  42.396  1.00  0.00     0.157 A 
ATOM     16  C   UNL     1      36.258  28.344  41.827  1.00  0.00     0.062 A 
ATOM     17  C   UNL     1      37.057  27.231  41.530  1.00  0.00     0.158 A 
BRANCH  15  18
ATOM     18  O   UNL     1      38.889  25.758  42.095  1.00  0.00    -0.504 OA
ATOM     19  H   UNL     1      39.829  25.666  42.461  1.00  0.00     0.293 HD
ENDBRANCH  15  18
BRANCH  17  20
ATOM     20  O   UNL     1      36.823  26.482  40.378  1.00  0.00    -0.504 OA
ATOM     21  H   UNL     1      36.567  25.503  40.425  1.00  0.00     0.293 HD
ENDBRANCH  17  20
ENDBRANCH   1  12
BRANCH   2  22
ATOM     22  O   UNL     1      36.419  31.531  41.405  1.00  0.00    -0.502 OA
ATOM     23  H   UNL     1      36.543  30.763  40.757  1.00  0.00     0.293 HD
ENDBRANCH   2  22
BRANCH   6  24
ATOM     24  O   UNL     1      33.084  34.707  44.082  1.00  0.00    -0.507 OA
ATOM     25  H   UNL     1      33.417  34.967  43.167  1.00  0.00     0.293 HD
ENDBRANCH   6  24
BRANCH   8  26
ATOM     26  O   UNL     1      31.727  31.773  47.608  1.00  0.00    -0.508 OA
ATOM     27  H   UNL     1      30.950  31.122  47.615  1.00  0.00     0.293 HD
ENDBRANCH   8  26
TORSDOF 6
ENDMDL
MODEL 6
REMARK VINA RESULT:    -6.680      8.191     12.588
REMARK INTER + INTRA:          -8.354
REMARK INTER:                  -8.119
REMARK INTRA:                  -0.234
REMARK UNBOUND:                -0.306
REMARK SMILES O=c1c(O)c(-c2ccc(O)c(O)c2)oc2cc(O)cc(O)c12
REMARK SMILES IDX 5 1 3 2 2 3 1 4 22 5 20 6 19 7 17 8 16 9 15 10 14 11 6 12
REMARK SMILES IDX 7 13 8 14 9 15 13 16 11 17 10 18 12 20 4 22 21 24 18 26
REMARK H PARENT 10 19 12 21 4 23 21 25 18 27
REMARK Flexibility Score: inf
ROOT
ATOM      1  C   UNL     1      36.515  33.965  46.560  1.00  0.00     0.180 A 
ATOM      2  C   UNL     1      35.241  33.515  46.943  1.00  0.00     0.208 A 
ATOM      3  C   UNL     1      34.445  32.842  46.002  1.00  0.00     0.238 A 
ATOM      4  O   UNL     1      33.277  32.507  46.328  1.00  0.00    -0.285 OA
ATOM      5  C   UNL     1      34.955  32.580  44.706  1.00  0.00     0.111 A 
ATOM      6  C   UNL     1      34.253  31.868  43.686  1.00  0.00     0.134 A 
ATOM      7  C   UNL     1      34.816  31.761  42.407  1.00  0.00     0.093 A 
ATOM      8  C   UNL     1      36.078  32.283  42.130  1.00  0.00     0.123 A 
ATOM      9  C   UNL     1      36.795  32.932  43.133  1.00  0.00     0.094 A 
ATOM     10  C   UNL     1      36.246  33.089  44.408  1.00  0.00     0.146 A 
ATOM     11  O   UNL     1      36.954  33.734  45.328  1.00  0.00    -0.452 OA
ENDROOT
BRANCH   1  12
ATOM     12  C   UNL     1      37.406  34.694  47.491  1.00  0.00     0.025 A 
ATOM     13  C   UNL     1      38.047  33.992  48.524  1.00  0.00     0.016 A 
ATOM     14  C   UNL     1      38.909  34.655  49.402  1.00  0.00     0.051 A 
ATOM     15  C   UNL     1      39.154  36.026  49.250  1.00  0.00     0.157 A 
ATOM     16  C   UNL     1      37.672  36.067  47.329  1.00  0.00     0.062 A 
ATOM     17  C   UNL     1      38.537  36.732  48.209  1.00  0.00     0.158 A 
BRANCH  15  18
ATOM     18  O   UNL     1      40.011  36.692  50.125  1.00  0.00    -0.504 OA
ATOM     19  H   UNL     1      39.659  37.333  50.826  1.00  0.00     0.293 HD
ENDBRANCH  15  18
BRANCH  17  20
ATOM     20  O   UNL     1      38.795  38.092  48.051  1.00  0.00    -0.504 OA
ATOM     21  H   UNL     1      38.314  38.646  47.352  1.00  0.00     0.293 HD
ENDBRANCH  17  20
ENDBRANCH   1  12
BRANCH   2  22
ATOM     22  O   UNL     1      34.787  33.716  48.249  1.00  0.00    -0.502 OA
ATOM     23  H   UNL     1      34.045  34.368  48.473  1.00  0.00     0.293 HD
ENDBRANCH   2  22
BRANCH   6  24
ATOM     24  O   UNL     1      33.025  31.229  43.880  1.00  0.00    -0.507 OA
ATOM     25  H   UNL     1      32.161  31.490  43.432  1.00  0.00     0.293 HD
ENDBRANCH   6  24
BRANCH   8  26
ATOM     26  O   UNL     1      36.613  32.143  40.850  1.00  0.00    -0.508 OA
ATOM     27  H   UNL     1      37.613  32.114  40.695  1.00  0.00     0.293 HD
ENDBRANCH   8  26
TORSDOF 6
ENDMDL
MODEL 7
REMARK VINA RESULT:    -6.675      4.336      7.926
REMARK INTER + INTRA:          -8.347
REMARK INTER:                  -8.040
REMARK INTRA:                  -0.307
REMARK UNBOUND:                -0.306
REMARK SMILES O=c1c(O)c(-c2ccc(O)c(O)c2)oc2cc(O)cc(O)c12
REMARK SMILES IDX 5 1 3 2 2 3 1 4 22 5 20 6 19 7 17 8 16 9 15 10 14 11 6 12
REMARK SMILES IDX 7 13 8 14 9 15 13 16 11 17 10 18 12 20 4 22 21 24 18 26
REMARK H PARENT 10 19 12 21 4 23 21 25 18 27
REMARK Flexibility Score: inf
ROOT
ATOM      1  C   UNL     1      35.956  30.136  43.801  1.00  0.00     0.180 A 
ATOM      2  C   UNL     1      34.722  30.021  44.461  1.00  0.00     0.208 A 
ATOM      3  C   UNL     1      34.162  31.161  45.063  1.00  0.00     0.238 A 
ATOM      4  O   UNL     1      33.094  31.036  45.716  1.00  0.00    -0.285 OA
ATOM      5  C   UNL     1      34.818  32.411  44.950  1.00  0.00     0.111 A 
ATOM      6  C   UNL     1      34.321  33.640  45.482  1.00  0.00     0.134 A 
ATOM      7  C   UNL     1      35.109  34.796  45.401  1.00  0.00     0.093 A 
ATOM      8  C   UNL     1      36.342  34.783  44.753  1.00  0.00     0.123 A 
ATOM      9  C   UNL     1      36.812  33.601  44.181  1.00  0.00     0.094 A 
ATOM     10  C   UNL     1      36.069  32.423  44.279  1.00  0.00     0.146 A 
ATOM     11  O   UNL     1      36.564  31.315  43.740  1.00  0.00    -0.452 OA
ENDROOT
BRANCH   1  12
ATOM     12  C   UNL     1      36.615  28.978  43.155  1.00  0.00     0.025 A 
ATOM     13  C   UNL     1      36.235  28.604  41.857  1.00  0.00     0.016 A 
ATOM     14  C   UNL     1      36.858  27.528  41.219  1.00  0.00     0.051 A 
ATOM     15  C   UNL     1      37.880  26.820  41.866  1.00  0.00     0.157 A 
ATOM     16  C   UNL     1      37.656  28.277  43.792  1.00  0.00     0.062 A 
ATOM     17  C   UNL     1      38.282  27.199  43.152  1.00  0.00     0.158 A 
BRANCH  15  18
ATOM     18  O   UNL     1      38.502  25.744  41.234  1.00  0.00    -0.504 OA
ATOM     19  H   UNL     1      37.967  24.979  40.840  1.00  0.00     0.293 HD
ENDBRANCH  15  18
BRANCH  17  20
ATOM     20  O   UNL     1      39.310  26.502  43.786  1.00  0.00    -0.504 OA
ATOM     21  H   UNL     1      40.275  26.599  43.494  1.00  0.00     0.293 HD
ENDBRANCH  17  20
ENDBRANCH   1  12
BRANCH   2  22
ATOM     22  O   UNL     1      34.052  28.795  44.495  1.00  0.00    -0.502 OA
ATOM     23  H   UNL     1      34.481  27.951  44.857  1.00  0.00     0.293 HD
ENDBRANCH   2  22
BRANCH   6  24
ATOM     24  O   UNL     1      33.062  33.785  46.072  1.00  0.00    -0.507 OA
ATOM     25  H   UNL     1      32.892  34.200  46.975  1.00  0.00     0.293 HD
ENDBRANCH   6  24
BRANCH   8  26
ATOM     26  O   UNL     1      37.090  35.956  44.676  1.00  0.00    -0.508 OA
ATOM     27  H   UNL     1      36.666  36.865  44.819  1.00  0.00     0.293 HD
ENDBRANCH   8  26
TORSDOF 6
ENDMDL
MODEL 8
REMARK VINA RESULT:    -6.564      7.479     11.501
REMARK INTER + INTRA:          -8.213
REMARK INTER:                  -7.971
REMARK INTRA:                  -0.241
REMARK UNBOUND:                -0.306
REMARK SMILES O=c1c(O)c(-c2ccc(O)c(O)c2)oc2cc(O)cc(O)c12
REMARK SMILES IDX 5 1 3 2 2 3 1 4 22 5 20 6 19 7 17 8 16 9 15 10 14 11 6 12
REMARK SMILES IDX 7 13 8 14 9 15 13 16 11 17 10 18 12 20 4 22 21 24 18 26
REMARK H PARENT 10 19 12 21 4 23 21 25 18 27
REMARK Flexibility Score: inf
ROOT
ATOM      1  C   UNL     1      35.602  33.471  46.107  1.00  0.00     0.180 A 
ATOM      2  C   UNL     1      34.526  34.300  46.468  1.00  0.00     0.208 A 
ATOM      3  C   UNL     1      34.687  35.201  47.533  1.00  0.00     0.238 A 
ATOM      4  O   UNL     1      33.698  35.886  47.900  1.00  0.00    -0.285 OA
ATOM      5  C   UNL     1      35.940  35.301  48.188  1.00  0.00     0.111 A 
ATOM      6  C   UNL     1      36.230  36.210  49.250  1.00  0.00     0.134 A 
ATOM      7  C   UNL     1      37.473  36.146  49.893  1.00  0.00     0.093 A 
ATOM      8  C   UNL     1      38.457  35.253  49.472  1.00  0.00     0.123 A 
ATOM      9  C   UNL     1      38.203  34.398  48.400  1.00  0.00     0.094 A 
ATOM     10  C   UNL     1      36.960  34.411  47.763  1.00  0.00     0.146 A 
ATOM     11  O   UNL     1      36.753  33.565  46.760  1.00  0.00    -0.452 OA
ENDROOT
BRANCH   1  12
ATOM     12  C   UNL     1      35.503  32.487  45.005  1.00  0.00     0.025 A 
ATOM     13  C   UNL     1      36.253  32.685  43.835  1.00  0.00     0.016 A 
ATOM     14  C   UNL     1      36.193  31.758  42.790  1.00  0.00     0.051 A 
ATOM     15  C   UNL     1      35.393  30.614  42.908  1.00  0.00     0.157 A 
ATOM     16  C   UNL     1      34.718  31.326  45.126  1.00  0.00     0.062 A 
ATOM     17  C   UNL     1      34.658  30.396  44.079  1.00  0.00     0.158 A 
BRANCH  15  18
ATOM     18  O   UNL     1      35.327  29.689  41.867  1.00  0.00    -0.504 OA
ATOM     19  H   UNL     1      34.548  29.673  41.220  1.00  0.00     0.293 HD
ENDBRANCH  15  18
BRANCH  17  20
ATOM     20  O   UNL     1      33.875  29.249  44.199  1.00  0.00    -0.504 OA
ATOM     21  H   UNL     1      32.921  29.220  43.859  1.00  0.00     0.293 HD
ENDBRANCH  17  20
ENDBRANCH   1  12
BRANCH   2  22
ATOM     22  O   UNL     1      33.322  34.240  45.759  1.00  0.00    -0.502 OA
ATOM     23  H   UNL     1      32.899  33.364  45.480  1.00  0.00     0.293 HD
ENDBRANCH   2  22
BRANCH   6  24
ATOM     24  O   UNL     1      35.352  37.204  49.693  1.00  0.00    -0.507 OA
ATOM     25  H   UNL     1      34.363  37.228  49.500  1.00  0.00     0.293 HD
ENDBRANCH   6  24
BRANCH   8  26
ATOM     26  O   UNL     1      39.688  35.229  50.124  1.00  0.00    -0.508 OA
ATOM     27  H   UNL     1      40.038  36.037  50.625  1.00  0.00     0.293 HD
ENDBRANCH   8  26
TORSDOF 6
ENDMDL
MODEL 9
REMARK VINA RESULT:    -6.478      8.967     11.837
REMARK INTER + INTRA:          -8.110
REMARK INTER:                  -7.868
REMARK INTRA:                  -0.241
REMARK UNBOUND:                -0.306
REMARK SMILES O=c1c(O)c(-c2ccc(O)c(O)c2)oc2cc(O)cc(O)c12
REMARK SMILES IDX 5 1 3 2 2 3 1 4 22 5 20 6 19 7 17 8 16 9 15 10 14 11 6 12
REMARK SMILES IDX 7 13 8 14 9 15 13 16 11 17 10 18 12 20 4 22 21 24 18 26
REMARK H PARENT 10 19 12 21 4 23 21 25 18 27
REMARK Flexibility Score: inf
ROOT
ATOM      1  C   UNL     1      34.957  33.195  44.582  1.00  0.00     0.180 A 
ATOM      2  C   UNL     1      34.318  31.960  44.384  1.00  0.00     0.208 A 
ATOM      3  C   UNL     1      33.713  31.696  43.144  1.00  0.00     0.238 A 
ATOM      4  O   UNL     1      33.078  30.620  42.999  1.00  0.00    -0.285 OA
ATOM      5  C   UNL     1      33.803  32.649  42.100  1.00  0.00     0.111 A 
ATOM      6  C   UNL     1      33.266  32.470  40.789  1.00  0.00     0.134 A 
ATOM      7  C   UNL     1      33.323  33.525  39.869  1.00  0.00     0.093 A 
ATOM      8  C   UNL     1      33.952  34.727  40.190  1.00  0.00     0.123 A 
ATOM      9  C   UNL     1      34.529  34.893  41.449  1.00  0.00     0.094 A 
ATOM     10  C   UNL     1      34.455  33.873  42.401  1.00  0.00     0.146 A 
ATOM     11  O   UNL     1      34.997  34.081  43.595  1.00  0.00    -0.452 OA
ENDROOT
BRANCH   1  12
ATOM     12  C   UNL     1      35.604  33.550  45.865  1.00  0.00     0.025 A 
ATOM     13  C   UNL     1      37.001  33.686  45.920  1.00  0.00     0.016 A 
ATOM     14  C   UNL     1      37.631  34.042  47.115  1.00  0.00     0.051 A 
ATOM     15  C   UNL     1      36.874  34.282  48.269  1.00  0.00     0.157 A 
ATOM     16  C   UNL     1      34.846  33.813  47.022  1.00  0.00     0.062 A 
ATOM     17  C   UNL     1      35.479  34.171  48.220  1.00  0.00     0.158 A 
BRANCH  15  18
ATOM     18  O   UNL     1      37.499  34.634  49.463  1.00  0.00    -0.504 OA
ATOM     19  H   UNL     1      37.605  33.971  50.222  1.00  0.00     0.293 HD
ENDBRANCH  15  18
BRANCH  17  20
ATOM     20  O   UNL     1      34.727  34.425  49.366  1.00  0.00    -0.504 OA
ATOM     21  H   UNL     1      33.863  34.954  49.327  1.00  0.00     0.293 HD
ENDBRANCH  17  20
ENDBRANCH   1  12
BRANCH   2  22
ATOM     22  O   UNL     1      34.307  31.001  45.402  1.00  0.00    -0.502 OA
ATOM     23  H   UNL     1      33.644  30.236  45.421  1.00  0.00     0.293 HD
ENDBRANCH   2  22
BRANCH   6  24
ATOM     24  O   UNL     1      32.694  31.278  40.333  1.00  0.00    -0.507 OA
ATOM     25  H   UNL     1      31.830  30.885  40.672  1.00  0.00     0.293 HD
ENDBRANCH   6  24
BRANCH   8  26
ATOM     26  O   UNL     1      34.005  35.748  39.244  1.00  0.00    -0.508 OA
ATOM     27  H   UNL     1      34.586  36.568  39.380  1.00  0.00     0.293 HD
ENDBRANCH   8  26
TORSDOF 6
ENDMDL
