MODEL 1
REMARK VINA RESULT:    -5.070      0.000      0.000
REMARK INTER + INTRA:          -5.864
REMARK INTER:                  -5.812
REMARK INTRA:                  -0.053
REMARK UNBOUND:                -0.053
REMARK SMILES O=C([O-])c1cc(O)c(O)c(O)c1
REMARK SMILES IDX 4 1 5 2 12 3 6 4 10 5 8 6 2 7 1 8 3 9 7 10 11 12 9 14
REMARK H PARENT 7 11 11 13 9 15
REMARK Flexibility Score: inf
ROOT
ATOM      1  C   UNL     1     -14.671   7.818   8.349  1.00  0.00     0.005 A 
ATOM      2  C   UNL     1     -13.346   7.871   7.888  1.00  0.00     0.060 A 
ATOM      3  C   UNL     1     -14.922   7.354   9.650  1.00  0.00     0.060 A 
ATOM      4  C   UNL     1     -12.282   7.469   8.704  1.00  0.00     0.162 A 
ATOM      5  C   UNL     1     -13.866   6.949  10.477  1.00  0.00     0.162 A 
ATOM      6  C   UNL     1     -12.544   7.003  10.015  1.00  0.00     0.200 A 
ENDROOT
BRANCH   1   7
ATOM      7  C   UNL     1     -15.785   8.246   7.473  1.00  0.00     0.072 C 
ATOM      8  O   UNL     1     -16.976   8.191   7.877  1.00  0.00    -0.545 OA
ATOM      9  O   UNL     1     -15.530   8.718   6.189  1.00  0.00    -0.545 OA
ENDBRANCH   1   7
BRANCH   4  10
ATOM     10  O   UNL     1     -10.991   7.550   8.177  1.00  0.00    -0.504 OA
ATOM     11  H   UNL     1     -10.181   7.116   8.594  1.00  0.00     0.293 HD
ENDBRANCH   4  10
BRANCH   5  12
ATOM     12  O   UNL     1     -14.125   6.490  11.767  1.00  0.00    -0.504 OA
ATOM     13  H   UNL     1     -13.379   6.332  12.435  1.00  0.00     0.293 HD
ENDBRANCH   5  12
BRANCH   6  14
ATOM     14  O   UNL     1     -11.529   6.587  10.880  1.00  0.00    -0.502 OA
ATOM     15  H   UNL     1     -11.607   5.800  11.509  1.00  0.00     0.293 HD
ENDBRANCH   6  14
TORSDOF 4
ENDMDL
MODEL 2
REMARK VINA RESULT:    -5.043      0.069      2.437
REMARK INTER + INTRA:          -5.833
REMARK INTER:                  -5.781
REMARK INTRA:                  -0.053
REMARK UNBOUND:                -0.053
REMARK SMILES O=C([O-])c1cc(O)c(O)c(O)c1
REMARK SMILES IDX 4 1 5 2 12 3 6 4 10 5 8 6 2 7 1 8 3 9 7 10 11 12 9 14
REMARK H PARENT 7 11 11 13 9 15
REMARK Flexibility Score: inf
ROOT
ATOM      1  C   UNL     1     -14.688   7.810   8.349  1.00  0.00     0.005 A 
ATOM      2  C   UNL     1     -14.914   7.337   9.651  1.00  0.00     0.060 A 
ATOM      3  C   UNL     1     -13.372   7.882   7.868  1.00  0.00     0.060 A 
ATOM      4  C   UNL     1     -13.849   6.940  10.468  1.00  0.00     0.162 A 
ATOM      5  C   UNL     1     -12.297   7.486   8.675  1.00  0.00     0.162 A 
ATOM      6  C   UNL     1     -12.524   7.014   9.975  1.00  0.00     0.200 A 
ENDROOT
BRANCH   1   7
ATOM      7  C   UNL     1     -15.826   8.228   7.498  1.00  0.00     0.072 C 
ATOM      8  O   UNL     1     -17.006   8.173   7.934  1.00  0.00    -0.545 OA
ATOM      9  O   UNL     1     -15.606   8.687   6.204  1.00  0.00    -0.545 OA
ENDBRANCH   1   7
BRANCH   4  10
ATOM     10  O   UNL     1     -14.150   6.480  11.752  1.00  0.00    -0.504 OA
ATOM     11  H   UNL     1     -14.997   6.708  12.251  1.00  0.00     0.293 HD
ENDBRANCH   4  10
BRANCH   5  12
ATOM     12  O   UNL     1     -10.993   7.561   8.189  1.00  0.00    -0.504 OA
ATOM     13  H   UNL     1     -10.760   7.273   7.246  1.00  0.00     0.293 HD
ENDBRANCH   5  12
BRANCH   6  14
ATOM     14  O   UNL     1     -11.417   6.634  10.737  1.00  0.00    -0.502 OA
ATOM     15  H   UNL     1     -10.708   5.986  10.423  1.00  0.00     0.293 HD
ENDBRANCH   6  14
TORSDOF 4
ENDMDL
MODEL 3
REMARK VINA RESULT:    -4.981      1.711      2.457
REMARK INTER + INTRA:          -5.762
REMARK INTER:                  -5.709
REMARK INTRA:                  -0.053
REMARK UNBOUND:                -0.053
REMARK SMILES O=C([O-])c1cc(O)c(O)c(O)c1
REMARK SMILES IDX 4 1 5 2 12 3 6 4 10 5 8 6 2 7 1 8 3 9 7 10 11 12 9 14
REMARK H PARENT 7 11 11 13 9 15
REMARK Flexibility Score: inf
ROOT
ATOM      1  C   UNL     1     -13.185   7.511   9.516  1.00  0.00     0.005 A 
ATOM      2  C   UNL     1     -11.941   8.018   9.923  1.00  0.00     0.060 A 
ATOM      3  C   UNL     1     -13.956   6.780  10.433  1.00  0.00     0.060 A 
ATOM      4  C   UNL     1     -11.465   7.804  11.222  1.00  0.00     0.162 A 
ATOM      5  C   UNL     1     -13.492   6.560  11.736  1.00  0.00     0.162 A 
ATOM      6  C   UNL     1     -12.250   7.066  12.141  1.00  0.00     0.200 A 
ENDROOT
BRANCH   1   7
ATOM      7  C   UNL     1     -13.673   7.746   8.138  1.00  0.00     0.072 C 
ATOM      8  O   UNL     1     -12.921   8.263   7.271  1.00  0.00    -0.545 OA
ATOM      9  O   UNL     1     -14.971   7.397   7.782  1.00  0.00    -0.545 OA
ENDBRANCH   1   7
BRANCH   4  10
ATOM     10  O   UNL     1     -10.219   8.338  11.555  1.00  0.00    -0.504 OA
ATOM     11  H   UNL     1      -9.697   8.969  10.965  1.00  0.00     0.293 HD
ENDBRANCH   4  10
BRANCH   5  12
ATOM     12  O   UNL     1     -14.265   5.833  12.640  1.00  0.00    -0.504 OA
ATOM     13  H   UNL     1     -15.263   5.715  12.512  1.00  0.00     0.293 HD
ENDBRANCH   5  12
BRANCH   6  14
ATOM     14  O   UNL     1     -11.835   6.817  13.451  1.00  0.00    -0.502 OA
ATOM     15  H   UNL     1     -10.918   6.474  13.700  1.00  0.00     0.293 HD
ENDBRANCH   6  14
TORSDOF 4
ENDMDL
MODEL 4
REMARK VINA RESULT:    -4.975      1.683      3.242
REMARK INTER + INTRA:          -5.755
REMARK INTER:                  -5.702
REMARK INTRA:                  -0.053
REMARK UNBOUND:                -0.053
REMARK SMILES O=C([O-])c1cc(O)c(O)c(O)c1
REMARK SMILES IDX 4 1 5 2 12 3 6 4 10 5 8 6 2 7 1 8 3 9 7 10 11 12 9 14
REMARK H PARENT 7 11 11 13 9 15
REMARK Flexibility Score: inf
ROOT
ATOM      1  C   UNL     1     -13.226   7.523   9.465  1.00  0.00     0.005 A 
ATOM      2  C   UNL     1     -13.983   6.791  10.393  1.00  0.00     0.060 A 
ATOM      3  C   UNL     1     -11.975   8.028   9.853  1.00  0.00     0.060 A 
ATOM      4  C   UNL     1     -13.508   6.561  11.690  1.00  0.00     0.162 A 
ATOM      5  C   UNL     1     -11.487   7.803  11.146  1.00  0.00     0.162 A 
ATOM      6  C   UNL     1     -12.244   7.072  12.072  1.00  0.00     0.200 A 
ENDROOT
BRANCH   1   7
ATOM      7  C   UNL     1     -13.744   7.759   8.098  1.00  0.00     0.072 C 
ATOM      8  O   UNL     1     -13.008   8.269   7.213  1.00  0.00    -0.545 OA
ATOM      9  O   UNL     1     -15.052   7.417   7.772  1.00  0.00    -0.545 OA
ENDBRANCH   1   7
BRANCH   4  10
ATOM     10  O   UNL     1     -14.316   5.824  12.557  1.00  0.00    -0.504 OA
ATOM     11  H   UNL     1     -14.524   4.842  12.443  1.00  0.00     0.293 HD
ENDBRANCH   4  10
BRANCH   5  12
ATOM     12  O   UNL     1     -10.243   8.308  11.522  1.00  0.00    -0.504 OA
ATOM     13  H   UNL     1     -10.017   8.495  12.492  1.00  0.00     0.293 HD
ENDBRANCH   5  12
BRANCH   6  14
ATOM     14  O   UNL     1     -11.711   6.879  13.349  1.00  0.00    -0.502 OA
ATOM     15  H   UNL     1     -11.308   6.010  13.669  1.00  0.00     0.293 HD
ENDBRANCH   6  14
TORSDOF 4
ENDMDL
MODEL 5
REMARK VINA RESULT:    -4.844      1.615      4.408
REMARK INTER + INTRA:          -5.605
REMARK INTER:                  -5.552
REMARK INTRA:                  -0.053
REMARK UNBOUND:                -0.053
REMARK SMILES O=C([O-])c1cc(O)c(O)c(O)c1
REMARK SMILES IDX 4 1 5 2 12 3 6 4 10 5 8 6 2 7 1 8 3 9 7 10 11 12 9 14
REMARK H PARENT 7 11 11 13 9 15
REMARK Flexibility Score: inf
ROOT
ATOM      1  C   UNL     1     -12.365   7.236  11.058  1.00  0.00     0.005 A 
ATOM      2  C   UNL     1     -11.708   7.465   9.839  1.00  0.00     0.060 A 
ATOM      3  C   UNL     1     -13.767   7.166  11.074  1.00  0.00     0.060 A 
ATOM      4  C   UNL     1     -12.430   7.624   8.649  1.00  0.00     0.162 A 
ATOM      5  C   UNL     1     -14.501   7.322   9.892  1.00  0.00     0.162 A 
ATOM      6  C   UNL     1     -13.843   7.551   8.675  1.00  0.00     0.200 A 
ENDROOT
BRANCH   1   7
ATOM      7  C   UNL     1     -11.587   7.071  12.306  1.00  0.00     0.072 C 
ATOM      8  O   UNL     1     -10.328   7.102  12.286  1.00  0.00    -0.545 OA
ATOM      9  O   UNL     1     -12.237   6.881  13.521  1.00  0.00    -0.545 OA
ENDBRANCH   1   7
BRANCH   4  10
ATOM     10  O   UNL     1     -11.708   7.849   7.476  1.00  0.00    -0.504 OA
ATOM     11  H   UNL     1     -10.708   7.981   7.442  1.00  0.00     0.293 HD
ENDBRANCH   4  10
BRANCH   5  12
ATOM     12  O   UNL     1     -15.893   7.251   9.917  1.00  0.00    -0.504 OA
ATOM     13  H   UNL     1     -16.447   7.381   9.079  1.00  0.00     0.293 HD
ENDBRANCH   5  12
BRANCH   6  14
ATOM     14  O   UNL     1     -14.623   7.700   7.526  1.00  0.00    -0.502 OA
ATOM     15  H   UNL     1     -14.391   8.316   6.759  1.00  0.00     0.293 HD
ENDBRANCH   6  14
TORSDOF 4
ENDMDL
MODEL 6
REMARK VINA RESULT:    -4.820      1.594      4.986
REMARK INTER + INTRA:          -5.577
REMARK INTER:                  -5.524
REMARK INTRA:                  -0.053
REMARK UNBOUND:                -0.053
REMARK SMILES O=C([O-])c1cc(O)c(O)c(O)c1
REMARK SMILES IDX 4 1 5 2 12 3 6 4 10 5 8 6 2 7 1 8 3 9 7 10 11 12 9 14
REMARK H PARENT 7 11 11 13 9 15
REMARK Flexibility Score: inf
ROOT
ATOM      1  C   UNL     1     -12.396   7.247  11.052  1.00  0.00     0.005 A 
ATOM      2  C   UNL     1     -13.797   7.164  11.019  1.00  0.00     0.060 A 
ATOM      3  C   UNL     1     -11.699   7.493   9.859  1.00  0.00     0.060 A 
ATOM      4  C   UNL     1     -14.501   7.322   9.818  1.00  0.00     0.162 A 
ATOM      5  C   UNL     1     -12.391   7.655   8.652  1.00  0.00     0.162 A 
ATOM      6  C   UNL     1     -13.790   7.572   8.620  1.00  0.00     0.200 A 
ENDROOT
BRANCH   1   7
ATOM      7  C   UNL     1     -11.668   7.075  12.329  1.00  0.00     0.072 C 
ATOM      8  O   UNL     1     -10.410   7.021  12.348  1.00  0.00    -0.545 OA
ATOM      9  O   UNL     1     -12.364   6.973  13.529  1.00  0.00    -0.545 OA
ENDBRANCH   1   7
BRANCH   4  10
ATOM     10  O   UNL     1     -15.893   7.227   9.863  1.00  0.00    -0.504 OA
ATOM     11  H   UNL     1     -16.419   6.995  10.693  1.00  0.00     0.293 HD
ENDBRANCH   4  10
BRANCH   5  12
ATOM     12  O   UNL     1     -11.691   7.900   7.471  1.00  0.00    -0.504 OA
ATOM     13  H   UNL     1     -11.913   8.688   6.875  1.00  0.00     0.293 HD
ENDBRANCH   5  12
BRANCH   6  14
ATOM     14  O   UNL     1     -14.429   7.740   7.389  1.00  0.00    -0.502 OA
ATOM     15  H   UNL     1     -14.155   8.421   6.696  1.00  0.00     0.293 HD
ENDBRANCH   6  14
TORSDOF 4
ENDMDL
MODEL 7
REMARK VINA RESULT:    -4.590     12.869     13.414
REMARK INTER + INTRA:          -5.314
REMARK INTER:                  -5.261
REMARK INTRA:                  -0.052
REMARK UNBOUND:                -0.053
REMARK SMILES O=C([O-])c1cc(O)c(O)c(O)c1
REMARK SMILES IDX 4 1 5 2 12 3 6 4 10 5 8 6 2 7 1 8 3 9 7 10 11 12 9 14
REMARK H PARENT 7 11 11 13 9 15
REMARK Flexibility Score: inf
ROOT
ATOM      1  C   UNL     1     -25.949   1.196  10.424  1.00  0.00     0.005 A 
ATOM      2  C   UNL     1     -25.215   0.002  10.334  1.00  0.00     0.060 A 
ATOM      3  C   UNL     1     -25.726   2.053  11.512  1.00  0.00     0.060 A 
ATOM      4  C   UNL     1     -24.272  -0.339  11.311  1.00  0.00     0.162 A 
ATOM      5  C   UNL     1     -24.784   1.724  12.495  1.00  0.00     0.162 A 
ATOM      6  C   UNL     1     -24.052   0.532  12.405  1.00  0.00     0.200 A 
ENDROOT
BRANCH   1   7
ATOM      7  C   UNL     1     -26.944   1.541   9.383  1.00  0.00     0.072 C 
ATOM      8  O   UNL     1     -27.409   2.709   9.303  1.00  0.00    -0.545 OA
ATOM      9  O   UNL     1     -27.379   0.579   8.478  1.00  0.00    -0.545 OA
ENDBRANCH   1   7
BRANCH   4  10
ATOM     10  O   UNL     1     -23.581  -1.542  11.155  1.00  0.00    -0.504 OA
ATOM     11  H   UNL     1     -22.627  -1.610  10.829  1.00  0.00     0.293 HD
ENDBRANCH   4  10
BRANCH   5  12
ATOM     12  O   UNL     1     -24.568   2.582  13.573  1.00  0.00    -0.504 OA
ATOM     13  H   UNL     1     -23.859   3.305  13.543  1.00  0.00     0.293 HD
ENDBRANCH   5  12
BRANCH   6  14
ATOM     14  O   UNL     1     -23.126   0.252  13.413  1.00  0.00    -0.502 OA
ATOM     15  H   UNL     1     -23.272   0.460  14.390  1.00  0.00     0.293 HD
ENDBRANCH   6  14
TORSDOF 4
ENDMDL
MODEL 8
REMARK VINA RESULT:    -4.581     13.081     14.320
REMARK INTER + INTRA:          -5.303
REMARK INTER:                  -5.251
REMARK INTRA:                  -0.052
REMARK UNBOUND:                -0.053
REMARK SMILES O=C([O-])c1cc(O)c(O)c(O)c1
REMARK SMILES IDX 4 1 5 2 12 3 6 4 10 5 8 6 2 7 1 8 3 9 7 10 11 12 9 14
REMARK H PARENT 7 11 11 13 9 15
REMARK Flexibility Score: inf
ROOT
ATOM      1  C   UNL     1     -25.382   1.325  11.501  1.00  0.00     0.005 A 
ATOM      2  C   UNL     1     -26.058   2.410  10.922  1.00  0.00     0.060 A 
ATOM      3  C   UNL     1     -25.387   0.087  10.840  1.00  0.00     0.060 A 
ATOM      4  C   UNL     1     -26.733   2.272   9.703  1.00  0.00     0.162 A 
ATOM      5  C   UNL     1     -26.057  -0.064   9.619  1.00  0.00     0.162 A 
ATOM      6  C   UNL     1     -26.732   1.020   9.042  1.00  0.00     0.200 A 
ENDROOT
BRANCH   1   7
ATOM      7  C   UNL     1     -24.674   1.488  12.791  1.00  0.00     0.072 C 
ATOM      8  O   UNL     1     -24.875   2.502  13.510  1.00  0.00    -0.545 OA
ATOM      9  O   UNL     1     -23.777   0.520  13.230  1.00  0.00    -0.545 OA
ENDBRANCH   1   7
BRANCH   4  10
ATOM     10  O   UNL     1     -27.383   3.396   9.189  1.00  0.00    -0.504 OA
ATOM     11  H   UNL     1     -26.928   4.117   8.649  1.00  0.00     0.293 HD
ENDBRANCH   4  10
BRANCH   5  12
ATOM     12  O   UNL     1     -26.057  -1.297   8.969  1.00  0.00    -0.504 OA
ATOM     13  H   UNL     1     -25.767  -1.388   8.003  1.00  0.00     0.293 HD
ENDBRANCH   5  12
BRANCH   6  14
ATOM     14  O   UNL     1     -27.385   0.815   7.825  1.00  0.00    -0.502 OA
ATOM     15  H   UNL     1     -28.299   1.183   7.602  1.00  0.00     0.293 HD
ENDBRANCH   6  14
TORSDOF 4
ENDMDL
MODEL 9
REMARK VINA RESULT:    -4.549     13.054     14.382
REMARK INTER + INTRA:          -5.267
REMARK INTER:                  -5.214
REMARK INTRA:                  -0.052
REMARK UNBOUND:                -0.053
REMARK SMILES O=C([O-])c1cc(O)c(O)c(O)c1
REMARK SMILES IDX 4 1 5 2 12 3 6 4 10 5 8 6 2 7 1 8 3 9 7 10 11 12 9 14
REMARK H PARENT 7 11 11 13 9 15
REMARK Flexibility Score: inf
ROOT
ATOM      1  C   UNL     1     -25.431   1.297  11.303  1.00  0.00     0.005 A 
ATOM      2  C   UNL     1     -25.500   0.083  10.601  1.00  0.00     0.060 A 
ATOM      3  C   UNL     1     -26.105   2.418  10.795  1.00  0.00     0.060 A 
ATOM      4  C   UNL     1     -26.228  -0.020   9.410  1.00  0.00     0.162 A 
ATOM      5  C   UNL     1     -26.837   2.328   9.604  1.00  0.00     0.162 A 
ATOM      6  C   UNL     1     -26.906   1.115   8.904  1.00  0.00     0.200 A 
ENDROOT
BRANCH   1   7
ATOM      7  C   UNL     1     -24.656   1.389  12.562  1.00  0.00     0.072 C 
ATOM      8  O   UNL     1     -24.790   2.381  13.325  1.00  0.00    -0.545 OA
ATOM      9  O   UNL     1     -23.769   0.379  12.918  1.00  0.00    -0.545 OA
ENDBRANCH   1   7
BRANCH   4  10
ATOM     10  O   UNL     1     -26.251  -1.260   8.767  1.00  0.00    -0.504 OA
ATOM     11  H   UNL     1     -26.584  -2.112   9.193  1.00  0.00     0.293 HD
ENDBRANCH   4  10
BRANCH   5  12
ATOM     12  O   UNL     1     -27.505   3.446   9.107  1.00  0.00    -0.504 OA
ATOM     13  H   UNL     1     -28.507   3.554   9.205  1.00  0.00     0.293 HD
ENDBRANCH   5  12
BRANCH   6  14
ATOM     14  O   UNL     1     -27.649   1.080   7.722  1.00  0.00    -0.502 OA
ATOM     15  H   UNL     1     -27.495   0.418   6.975  1.00  0.00     0.293 HD
ENDBRANCH   6  14
TORSDOF 4
ENDMDL
