MODEL 1
REMARK VINA RESULT:    12.787      0.000      0.000
REMARK INTER + INTRA:          16.991
REMARK INTER:                  16.898
REMARK INTRA:                   0.092
REMARK UNBOUND:                 0.092
REMARK SMILES CC[C@H](C=C[C@H](C)[C@H]1CC[C@@H]2[C@@H]3CC=C4C[C@H](O)CC[C@@]4(C)[C@@H]3CC[C@@]21C)C(C)C
REMARK SMILES IDX 6 1 7 2 5 3 4 4 3 5 2 6 1 7 28 8 29 9 30 10 8 11 9 12 26 13
REMARK SMILES IDX 10 14 11 15 25 16 27 17 12 18 24 19 23 20 13 21 21 22 14 23
REMARK SMILES IDX 15 24 20 25 22 26 16 27 19 28 17 29 18 30
REMARK H PARENT 18 31
REMARK Flexibility Score: inf
ROOT
ATOM      1  C   UNL     1      24.517  27.402  27.784  1.00  0.00     0.012 C 
ATOM      2  C   UNL     1      23.779  28.322  28.773  1.00  0.00     0.012 C 
ENDROOT
BRANCH   1   3
ATOM      3  C   UNL     1      25.790  26.913  28.464  1.00  0.00    -0.028 C 
ATOM      4  C   UNL     1      26.946  26.543  27.873  1.00  0.00    -0.027 C 
BRANCH   4   5
ATOM      5  C   UNL     1      27.228  26.424  26.381  1.00  0.00     0.014 C 
BRANCH   5   6
ATOM      6  C   UNL     1      28.411  27.368  26.022  1.00  0.00     0.004 C 
ATOM      7  C   UNL     1      27.978  28.774  25.631  1.00  0.00     0.004 C 
ENDBRANCH   5   6
BRANCH   5   8
ATOM      8  C   UNL     1      27.612  24.940  26.041  1.00  0.00    -0.011 C 
ATOM      9  C   UNL     1      26.621  24.288  25.058  1.00  0.00     0.008 C 
ATOM     10  C   UNL     1      27.705  24.054  27.289  1.00  0.00     0.008 C 
ENDBRANCH   5   8
ENDBRANCH   4   5
ENDBRANCH   1   3
BRANCH   1  11
ATOM     11  C   UNL     1      23.612  26.182  27.391  1.00  0.00     0.002 C 
ATOM     12  C   UNL     1      24.145  24.822  27.870  1.00  0.00     0.005 C 
ATOM     13  C   UNL     1      22.137  26.206  27.889  1.00  0.00    -0.026 C 
ATOM     14  C   UNL     1      22.944  23.875  27.978  1.00  0.00     0.005 C 
ATOM     15  C   UNL     1      21.677  24.725  27.784  1.00  0.00    -0.001 C 
ATOM     16  C   UNL     1      21.250  27.146  27.031  1.00  0.00     0.007 C 
ATOM     17  C   UNL     1      22.051  26.626  29.384  1.00  0.00     0.012 C 
ATOM     18  C   UNL     1      20.859  24.388  26.493  1.00  0.00     0.000 C 
ATOM     19  C   UNL     1      19.797  26.692  27.046  1.00  0.00     0.005 C 
ATOM     20  C   UNL     1      19.582  25.292  26.368  1.00  0.00     0.003 C 
ATOM     21  C   UNL     1      21.712  24.310  25.189  1.00  0.00     0.031 C 
ATOM     22  C   UNL     1      18.995  25.339  24.899  1.00  0.00    -0.008 C 
ATOM     23  C   UNL     1      21.362  25.298  24.118  1.00  0.00    -0.027 C 
ATOM     24  C   UNL     1      20.081  25.652  23.883  1.00  0.00    -0.065 C 
ATOM     25  C   UNL     1      18.399  23.955  24.487  1.00  0.00     0.014 C 
ATOM     26  C   UNL     1      17.862  26.408  24.815  1.00  0.00     0.016 C 
ATOM     27  C   UNL     1      19.641  25.767  22.447  1.00  0.00     0.063 C 
ATOM     28  C   UNL     1      17.987  23.875  22.991  1.00  0.00     0.033 C 
ATOM     29  C   UNL     1      19.075  24.402  22.013  1.00  0.00     0.118 C 
BRANCH  29  30
ATOM     30  O   UNL     1      18.547  24.525  20.719  1.00  0.00    -0.393 OA
ATOM     31  H   UNL     1      17.596  24.238  20.768  1.00  0.00     0.210 HD
ENDBRANCH  29  30
ENDBRANCH   1  11
TORSDOF 6
ENDMDL
MODEL 2
REMARK VINA RESULT:    13.413      2.623      7.777
REMARK INTER + INTRA:          17.818
REMARK INTER:                  14.004
REMARK INTRA:                   3.814
REMARK UNBOUND:                 0.092
REMARK SMILES CC[C@H](C=C[C@H](C)[C@H]1CC[C@@H]2[C@@H]3CC=C4C[C@H](O)CC[C@@]4(C)[C@@H]3CC[C@@]21C)C(C)C
REMARK SMILES IDX 6 1 7 2 5 3 4 4 3 5 2 6 1 7 28 8 29 9 30 10 8 11 9 12 26 13
REMARK SMILES IDX 10 14 11 15 25 16 27 17 12 18 24 19 23 20 13 21 21 22 14 23
REMARK SMILES IDX 15 24 20 25 22 26 16 27 19 28 17 29 18 30
REMARK H PARENT 18 31
REMARK Flexibility Score: inf
ROOT
ATOM      1  C   UNL     1      22.437  24.571  27.079  1.00  0.00     0.012 C 
ATOM      2  C   UNL     1      20.988  25.090  27.049  1.00  0.00     0.012 C 
ENDROOT
BRANCH   1   3
ATOM      3  C   UNL     1      22.834  24.210  25.653  1.00  0.00    -0.028 C 
ATOM      4  C   UNL     1      22.019  24.048  24.590  1.00  0.00    -0.027 C 
BRANCH   4   5
ATOM      5  C   UNL     1      20.495  24.085  24.575  1.00  0.00     0.014 C 
BRANCH   5   6
ATOM      6  C   UNL     1      20.025  25.444  25.169  1.00  0.00     0.004 C 
ATOM      7  C   UNL     1      18.544  25.481  25.520  1.00  0.00     0.004 C 
ENDBRANCH   5   6
BRANCH   5   8
ATOM      8  C   UNL     1      19.986  23.948  23.096  1.00  0.00    -0.011 C 
ATOM      9  C   UNL     1      20.470  25.103  22.199  1.00  0.00     0.008 C 
ATOM     10  C   UNL     1      18.456  23.876  23.003  1.00  0.00     0.008 C 
ENDBRANCH   5   8
ENDBRANCH   4   5
ENDBRANCH   1   3
BRANCH   1  11
ATOM     11  C   UNL     1      23.402  25.670  27.647  1.00  0.00     0.002 C 
ATOM     12  C   UNL     1      22.942  26.286  28.978  1.00  0.00     0.005 C 
ATOM     13  C   UNL     1      24.876  25.245  27.918  1.00  0.00    -0.026 C 
ATOM     14  C   UNL     1      24.191  26.825  29.686  1.00  0.00     0.005 C 
ATOM     15  C   UNL     1      25.411  26.332  28.890  1.00  0.00    -0.001 C 
ATOM     16  C   UNL     1      25.709  25.180  26.611  1.00  0.00     0.007 C 
ATOM     17  C   UNL     1      24.945  23.875  28.651  1.00  0.00     0.012 C 
ATOM     18  C   UNL     1      26.241  27.468  28.203  1.00  0.00     0.000 C 
ATOM     19  C   UNL     1      27.185  25.436  26.890  1.00  0.00     0.005 C 
ATOM     20  C   UNL     1      27.469  26.887  27.417  1.00  0.00     0.003 C 
ATOM     21  C   UNL     1      25.390  28.488  27.388  1.00  0.00     0.031 C 
ATOM     22  C   UNL     1      28.048  27.892  26.340  1.00  0.00    -0.008 C 
ATOM     23  C   UNL     1      25.684  28.562  25.920  1.00  0.00    -0.027 C 
ATOM     24  C   UNL     1      26.944  28.442  25.452  1.00  0.00    -0.065 C 
ATOM     25  C   UNL     1      28.714  29.129  27.024  1.00  0.00     0.014 C 
ATOM     26  C   UNL     1      29.124  27.173  25.468  1.00  0.00     0.016 C 
ATOM     27  C   UNL     1      27.372  29.382  24.355  1.00  0.00     0.063 C 
ATOM     28  C   UNL     1      29.124  30.246  26.026  1.00  0.00     0.033 C 
ATOM     29  C   UNL     1      28.007  30.621  25.011  1.00  0.00     0.118 C 
BRANCH  29  30
ATOM     30  O   UNL     1      28.524  31.450  24.004  1.00  0.00    -0.393 OA
ATOM     31  H   UNL     1      28.270  32.382  24.240  1.00  0.00     0.210 HD
ENDBRANCH  29  30
ENDBRANCH   1  11
TORSDOF 6
ENDMDL
MODEL 3
REMARK VINA RESULT:    13.743     12.050     16.243
REMARK INTER + INTRA:          18.254
REMARK INTER:                  15.239
REMARK INTRA:                   3.015
REMARK UNBOUND:                 0.092
REMARK SMILES CC[C@H](C=C[C@H](C)[C@H]1CC[C@@H]2[C@@H]3CC=C4C[C@H](O)CC[C@@]4(C)[C@@H]3CC[C@@]21C)C(C)C
REMARK SMILES IDX 6 1 7 2 5 3 4 4 3 5 2 6 1 7 28 8 29 9 30 10 8 11 9 12 26 13
REMARK SMILES IDX 10 14 11 15 25 16 27 17 12 18 24 19 23 20 13 21 21 22 14 23
REMARK SMILES IDX 15 24 20 25 22 26 16 27 19 28 17 29 18 30
REMARK H PARENT 18 31
REMARK Flexibility Score: inf
ROOT
ATOM      1  C   UNL     1      26.233  36.155  20.133  1.00  0.00     0.012 C 
ATOM      2  C   UNL     1      25.206  36.225  18.989  1.00  0.00     0.012 C 
ENDROOT
BRANCH   1   3
ATOM      3  C   UNL     1      26.968  34.825  20.020  1.00  0.00    -0.028 C 
ATOM      4  C   UNL     1      27.925  34.344  20.840  1.00  0.00    -0.027 C 
BRANCH   4   5
ATOM      5  C   UNL     1      28.581  35.054  22.018  1.00  0.00     0.014 C 
BRANCH   5   6
ATOM      6  C   UNL     1      27.516  35.950  22.713  1.00  0.00     0.004 C 
ATOM      7  C   UNL     1      26.573  35.184  23.631  1.00  0.00     0.004 C 
ENDBRANCH   5   6
BRANCH   5   8
ATOM      8  C   UNL     1      29.120  33.986  23.034  1.00  0.00    -0.011 C 
ATOM      9  C   UNL     1      28.344  32.657  22.957  1.00  0.00     0.008 C 
ATOM     10  C   UNL     1      29.082  34.480  24.486  1.00  0.00     0.008 C 
ENDBRANCH   5   8
ENDBRANCH   4   5
ENDBRANCH   1   3
BRANCH   1  11
ATOM     11  C   UNL     1      27.251  37.345  20.029  1.00  0.00     0.002 C 
ATOM     12  C   UNL     1      28.550  36.999  19.282  1.00  0.00     0.005 C 
ATOM     13  C   UNL     1      26.751  38.645  19.333  1.00  0.00    -0.026 C 
ATOM     14  C   UNL     1      29.121  38.311  18.732  1.00  0.00     0.005 C 
ATOM     15  C   UNL     1      28.056  39.398  18.953  1.00  0.00    -0.001 C 
ATOM     16  C   UNL     1      25.849  39.492  20.268  1.00  0.00     0.007 C 
ATOM     17  C   UNL     1      25.986  38.325  18.018  1.00  0.00     0.012 C 
ATOM     18  C   UNL     1      28.474  40.523  19.958  1.00  0.00     0.000 C 
ATOM     19  C   UNL     1      25.916  40.969  19.903  1.00  0.00     0.005 C 
ATOM     20  C   UNL     1      27.339  41.595  20.127  1.00  0.00     0.003 C 
ATOM     21  C   UNL     1      29.060  40.002  21.306  1.00  0.00     0.031 C 
ATOM     22  C   UNL     1      27.494  42.461  21.442  1.00  0.00    -0.008 C 
ATOM     23  C   UNL     1      28.294  40.372  22.540  1.00  0.00    -0.027 C 
ATOM     24  C   UNL     1      27.702  41.578  22.661  1.00  0.00    -0.065 C 
ATOM     25  C   UNL     1      28.746  43.391  21.359  1.00  0.00     0.014 C 
ATOM     26  C   UNL     1      26.229  43.354  21.640  1.00  0.00     0.016 C 
ATOM     27  C   UNL     1      27.821  42.284  23.987  1.00  0.00     0.063 C 
ATOM     28  C   UNL     1      29.069  44.122  22.692  1.00  0.00     0.033 C 
ATOM     29  C   UNL     1      29.068  43.186  23.934  1.00  0.00     0.118 C 
BRANCH  29  30
ATOM     30  O   UNL     1      29.125  43.944  25.113  1.00  0.00    -0.393 OA
ATOM     31  H   UNL     1      28.612  43.443  25.802  1.00  0.00     0.210 HD
ENDBRANCH  29  30
ENDBRANCH   1  11
TORSDOF 6
ENDMDL
MODEL 4
REMARK VINA RESULT:    14.002      5.048      7.272
REMARK INTER + INTRA:          18.597
REMARK INTER:                  15.131
REMARK INTRA:                   3.466
REMARK UNBOUND:                 0.092
REMARK SMILES CC[C@H](C=C[C@H](C)[C@H]1CC[C@@H]2[C@@H]3CC=C4C[C@H](O)CC[C@@]4(C)[C@@H]3CC[C@@]21C)C(C)C
REMARK SMILES IDX 6 1 7 2 5 3 4 4 3 5 2 6 1 7 28 8 29 9 30 10 8 11 9 12 26 13
REMARK SMILES IDX 10 14 11 15 25 16 27 17 12 18 24 19 23 20 13 21 21 22 14 23
REMARK SMILES IDX 15 24 20 25 22 26 16 27 19 28 17 29 18 30
REMARK H PARENT 18 31
REMARK Flexibility Score: inf
ROOT
ATOM      1  C   UNL     1      26.939  25.222  24.867  1.00  0.00     0.012 C 
ATOM      2  C   UNL     1      26.488  23.932  24.160  1.00  0.00     0.012 C 
ENDROOT
BRANCH   1   3
ATOM      3  C   UNL     1      26.359  26.404  24.099  1.00  0.00    -0.028 C 
ATOM      4  C   UNL     1      26.687  27.706  24.224  1.00  0.00    -0.027 C 
BRANCH   4   5
ATOM      5  C   UNL     1      27.643  28.329  25.235  1.00  0.00     0.014 C 
BRANCH   5   6
ATOM      6  C   UNL     1      29.078  27.796  24.955  1.00  0.00     0.004 C 
ATOM      7  C   UNL     1      29.123  26.323  24.575  1.00  0.00     0.004 C 
ENDBRANCH   5   6
BRANCH   5   8
ATOM      8  C   UNL     1      27.618  29.891  25.081  1.00  0.00    -0.011 C 
ATOM      9  C   UNL     1      27.353  30.333  23.629  1.00  0.00     0.008 C 
ATOM     10  C   UNL     1      28.919  30.552  25.555  1.00  0.00     0.008 C 
ENDBRANCH   5   8
ENDBRANCH   4   5
ENDBRANCH   1   3
BRANCH   1  11
ATOM     11  C   UNL     1      26.431  25.241  26.352  1.00  0.00     0.002 C 
ATOM     12  C   UNL     1      25.946  23.877  26.869  1.00  0.00     0.005 C 
ATOM     13  C   UNL     1      27.439  25.719  27.438  1.00  0.00    -0.026 C 
ATOM     14  C   UNL     1      26.080  23.896  28.396  1.00  0.00     0.005 C 
ATOM     15  C   UNL     1      26.851  25.173  28.769  1.00  0.00    -0.001 C 
ATOM     16  C   UNL     1      27.578  27.264  27.461  1.00  0.00     0.007 C 
ATOM     17  C   UNL     1      28.839  25.072  27.236  1.00  0.00     0.012 C 
ATOM     18  C   UNL     1      26.022  26.217  29.590  1.00  0.00     0.000 C 
ATOM     19  C   UNL     1      27.975  27.758  28.845  1.00  0.00     0.005 C 
ATOM     20  C   UNL     1      26.877  27.488  29.934  1.00  0.00     0.003 C 
ATOM     21  C   UNL     1      24.617  26.539  28.995  1.00  0.00     0.031 C 
ATOM     22  C   UNL     1      25.994  28.742  30.325  1.00  0.00    -0.008 C 
ATOM     23  C   UNL     1      24.390  27.962  28.584  1.00  0.00    -0.027 C 
ATOM     24  C   UNL     1      24.901  28.986  29.298  1.00  0.00    -0.065 C 
ATOM     25  C   UNL     1      25.267  28.516  31.689  1.00  0.00     0.014 C 
ATOM     26  C   UNL     1      26.898  30.007  30.453  1.00  0.00     0.016 C 
ATOM     27  C   UNL     1      24.015  30.182  29.534  1.00  0.00     0.063 C 
ATOM     28  C   UNL     1      24.233  29.622  32.034  1.00  0.00     0.033 C 
ATOM     29  C   UNL     1      23.269  29.965  30.863  1.00  0.00     0.118 C 
BRANCH  29  30
ATOM     30  O   UNL     1      22.534  31.123  31.161  1.00  0.00    -0.393 OA
ATOM     31  H   UNL     1      23.171  31.885  31.120  1.00  0.00     0.210 HD
ENDBRANCH  29  30
ENDBRANCH   1  11
TORSDOF 6
ENDMDL
MODEL 5
REMARK VINA RESULT:    14.084     13.218     17.304
REMARK INTER + INTRA:          18.704
REMARK INTER:                  18.555
REMARK INTRA:                   0.149
REMARK UNBOUND:                 0.092
REMARK SMILES CC[C@H](C=C[C@H](C)[C@H]1CC[C@@H]2[C@@H]3CC=C4C[C@H](O)CC[C@@]4(C)[C@@H]3CC[C@@]21C)C(C)C
REMARK SMILES IDX 6 1 7 2 5 3 4 4 3 5 2 6 1 7 28 8 29 9 30 10 8 11 9 12 26 13
REMARK SMILES IDX 10 14 11 15 25 16 27 17 12 18 24 19 23 20 13 21 21 22 14 23
REMARK SMILES IDX 15 24 20 25 22 26 16 27 19 28 17 29 18 30
REMARK H PARENT 18 31
REMARK Flexibility Score: inf
ROOT
ATOM      1  C   UNL     1      25.296  38.511  17.567  1.00  0.00     0.012 C 
ATOM      2  C   UNL     1      26.106  38.633  16.264  1.00  0.00     0.012 C 
ENDROOT
BRANCH   1   3
ATOM      3  C   UNL     1      24.616  37.147  17.569  1.00  0.00    -0.028 C 
ATOM      4  C   UNL     1      23.701  36.687  18.446  1.00  0.00    -0.027 C 
BRANCH   4   5
ATOM      5  C   UNL     1      23.199  37.376  19.709  1.00  0.00     0.014 C 
BRANCH   5   6
ATOM      6  C   UNL     1      21.745  37.870  19.461  1.00  0.00     0.004 C 
ATOM      7  C   UNL     1      21.384  39.131  20.234  1.00  0.00     0.004 C 
ENDBRANCH   5   6
BRANCH   5   8
ATOM      8  C   UNL     1      23.215  36.354  20.901  1.00  0.00    -0.011 C 
ATOM      9  C   UNL     1      24.392  36.596  21.865  1.00  0.00     0.008 C 
ATOM     10  C   UNL     1      23.273  34.896  20.427  1.00  0.00     0.008 C 
ENDBRANCH   5   8
ENDBRANCH   4   5
ENDBRANCH   1   3
BRANCH   1  11
ATOM     11  C   UNL     1      26.239  38.646  18.813  1.00  0.00     0.002 C 
ATOM     12  C   UNL     1      26.771  37.307  19.349  1.00  0.00     0.005 C 
ATOM     13  C   UNL     1      27.518  39.518  18.642  1.00  0.00    -0.026 C 
ATOM     14  C   UNL     1      28.080  37.601  20.091  1.00  0.00     0.005 C 
ATOM     15  C   UNL     1      28.444  39.068  19.806  1.00  0.00    -0.001 C 
ATOM     16  C   UNL     1      27.200  41.034  18.712  1.00  0.00     0.007 C 
ATOM     17  C   UNL     1      28.246  39.198  17.305  1.00  0.00     0.012 C 
ATOM     18  C   UNL     1      28.410  40.002  21.062  1.00  0.00     0.000 C 
ATOM     19  C   UNL     1      28.403  41.824  19.210  1.00  0.00     0.005 C 
ATOM     20  C   UNL     1      28.795  41.478  20.691  1.00  0.00     0.003 C 
ATOM     21  C   UNL     1      27.115  39.882  21.923  1.00  0.00     0.031 C 
ATOM     22  C   UNL     1      28.328  42.533  21.775  1.00  0.00    -0.008 C 
ATOM     23  C   UNL     1      26.288  41.125  22.039  1.00  0.00    -0.027 C 
ATOM     24  C   UNL     1      26.862  42.342  22.130  1.00  0.00    -0.065 C 
ATOM     25  C   UNL     1      29.124  42.362  23.107  1.00  0.00     0.014 C 
ATOM     26  C   UNL     1      28.564  43.980  21.242  1.00  0.00     0.016 C 
ATOM     27  C   UNL     1      26.282  43.316  23.124  1.00  0.00     0.063 C 
ATOM     28  C   UNL     1      28.580  43.231  24.274  1.00  0.00     0.033 C 
ATOM     29  C   UNL     1      27.038  43.143  24.454  1.00  0.00     0.118 C 
BRANCH  29  30
ATOM     30  O   UNL     1      26.597  44.125  25.353  1.00  0.00    -0.393 OA
ATOM     31  H   UNL     1      26.883  45.002  24.984  1.00  0.00     0.210 HD
ENDBRANCH  29  30
ENDBRANCH   1  11
TORSDOF 6
ENDMDL
MODEL 6
REMARK VINA RESULT:    14.334     12.870     16.221
REMARK INTER + INTRA:          19.035
REMARK INTER:                  18.622
REMARK INTRA:                   0.412
REMARK UNBOUND:                 0.092
REMARK SMILES CC[C@H](C=C[C@H](C)[C@H]1CC[C@@H]2[C@@H]3CC=C4C[C@H](O)CC[C@@]4(C)[C@@H]3CC[C@@]21C)C(C)C
REMARK SMILES IDX 6 1 7 2 5 3 4 4 3 5 2 6 1 7 28 8 29 9 30 10 8 11 9 12 26 13
REMARK SMILES IDX 10 14 11 15 25 16 27 17 12 18 24 19 23 20 13 21 21 22 14 23
REMARK SMILES IDX 15 24 20 25 22 26 16 27 19 28 17 29 18 30
REMARK H PARENT 18 31
REMARK Flexibility Score: inf
ROOT
ATOM      1  C   UNL     1      27.285  42.868  19.847  1.00  0.00     0.012 C 
ATOM      2  C   UNL     1      27.015  43.846  18.691  1.00  0.00     0.012 C 
ENDROOT
BRANCH   1   3
ATOM      3  C   UNL     1      26.190  43.063  20.889  1.00  0.00    -0.028 C 
ATOM      4  C   UNL     1      26.334  43.137  22.228  1.00  0.00    -0.027 C 
BRANCH   4   5
ATOM      5  C   UNL     1      27.611  42.940  23.036  1.00  0.00     0.014 C 
BRANCH   5   6
ATOM      6  C   UNL     1      28.576  44.123  22.737  1.00  0.00     0.004 C 
ATOM      7  C   UNL     1      29.125  44.125  21.317  1.00  0.00     0.004 C 
ENDBRANCH   5   6
BRANCH   5   8
ATOM      8  C   UNL     1      27.260  42.916  24.566  1.00  0.00    -0.011 C 
ATOM      9  C   UNL     1      25.839  43.437  24.850  1.00  0.00     0.008 C 
ATOM     10  C   UNL     1      28.249  43.729  25.411  1.00  0.00     0.008 C 
ENDBRANCH   5   8
ENDBRANCH   4   5
ENDBRANCH   1   3
BRANCH   1  11
ATOM     11  C   UNL     1      27.277  41.388  19.327  1.00  0.00     0.002 C 
ATOM     12  C   UNL     1      28.104  41.164  18.050  1.00  0.00     0.005 C 
ATOM     13  C   UNL     1      27.793  40.291  20.306  1.00  0.00    -0.026 C 
ATOM     14  C   UNL     1      28.509  39.686  18.023  1.00  0.00     0.005 C 
ATOM     15  C   UNL     1      28.122  39.084  19.384  1.00  0.00    -0.001 C 
ATOM     16  C   UNL     1      26.732  39.925  21.377  1.00  0.00     0.007 C 
ATOM     17  C   UNL     1      29.111  40.730  21.004  1.00  0.00     0.012 C 
ATOM     18  C   UNL     1      27.002  37.992  19.317  1.00  0.00     0.000 C 
ATOM     19  C   UNL     1      26.917  38.495  21.864  1.00  0.00     0.005 C 
ATOM     20  C   UNL     1      26.666  37.425  20.742  1.00  0.00     0.003 C 
ATOM     21  C   UNL     1      25.748  38.402  18.486  1.00  0.00     0.031 C 
ATOM     22  C   UNL     1      25.262  36.699  20.806  1.00  0.00    -0.008 C 
ATOM     23  C   UNL     1      24.453  38.460  19.238  1.00  0.00    -0.027 C 
ATOM     24  C   UNL     1      24.167  37.567  20.208  1.00  0.00    -0.065 C 
ATOM     25  C   UNL     1      25.273  35.377  19.974  1.00  0.00     0.014 C 
ATOM     26  C   UNL     1      24.914  36.347  22.286  1.00  0.00     0.016 C 
ATOM     27  C   UNL     1      22.769  37.004  20.247  1.00  0.00     0.063 C 
ATOM     28  C   UNL     1      23.873  34.719  19.832  1.00  0.00     0.033 C 
ATOM     29  C   UNL     1      22.754  35.713  19.409  1.00  0.00     0.118 C 
BRANCH  29  30
ATOM     30  O   UNL     1      21.494  35.109  19.536  1.00  0.00    -0.393 OA
ATOM     31  H   UNL     1      21.172  35.308  20.455  1.00  0.00     0.210 HD
ENDBRANCH  29  30
ENDBRANCH   1  11
TORSDOF 6
ENDMDL
