MODEL 1
REMARK VINA RESULT:    -5.762      0.000      0.000
REMARK INTER + INTRA:          -7.038
REMARK INTER:                  -6.772
REMARK INTRA:                  -0.265
REMARK UNBOUND:                -0.265
REMARK SMILES O=c1cc(-c2ccc(O)c(O)c2)oc2cc(O)cc(O)c12
REMARK SMILES IDX 4 1 3 2 2 3 1 4 21 5 19 6 18 7 16 8 15 9 14 10 13 11 5 12
REMARK SMILES IDX 6 13 7 14 8 15 12 16 10 17 9 18 11 20 20 22 17 24
REMARK H PARENT 9 19 11 21 20 23 17 25
REMARK Flexibility Score: inf
ROOT
ATOM      1  C   UNL     1     120.418 128.226 129.019  1.00  0.00     0.138 A 
ATOM      2  C   UNL     1     119.215 128.346 128.308  1.00  0.00     0.100 A 
ATOM      3  C   UNL     1     118.131 127.534 128.644  1.00  0.00     0.197 A 
ATOM      4  O   UNL     1     117.085 127.626 127.952  1.00  0.00    -0.289 OA
ATOM      5  C   UNL     1     118.243 126.621 129.721  1.00  0.00     0.107 A 
ATOM      6  C   UNL     1     117.192 125.767 130.176  1.00  0.00     0.134 A 
ATOM      7  C   UNL     1     117.452 124.834 131.188  1.00  0.00     0.093 A 
ATOM      8  C   UNL     1     118.702 124.765 131.802  1.00  0.00     0.123 A 
ATOM      9  C   UNL     1     119.721 125.630 131.400  1.00  0.00     0.094 A 
ATOM     10  C   UNL     1     119.504 126.547 130.369  1.00  0.00     0.146 A 
ATOM     11  O   UNL     1     120.507 127.340 130.004  1.00  0.00    -0.456 OA
ENDROOT
BRANCH   1  12
ATOM     12  C   UNL     1     121.602 129.066 128.706  1.00  0.00     0.021 A 
ATOM     13  C   UNL     1     122.798 128.508 128.218  1.00  0.00     0.016 A 
ATOM     14  C   UNL     1     123.900 129.323 127.942  1.00  0.00     0.051 A 
ATOM     15  C   UNL     1     123.828 130.706 128.153  1.00  0.00     0.157 A 
ATOM     16  C   UNL     1     121.542 130.454 128.928  1.00  0.00     0.062 A 
ATOM     17  C   UNL     1     122.644 131.272 128.651  1.00  0.00     0.158 A 
BRANCH  15  18
ATOM     18  O   UNL     1     124.928 131.515 127.875  1.00  0.00    -0.504 OA
ATOM     19  H   UNL     1     124.853 132.321 127.265  1.00  0.00     0.293 HD
ENDBRANCH  15  18
BRANCH  17  20
ATOM     20  O   UNL     1     122.541 132.645 128.876  1.00  0.00    -0.504 OA
ATOM     21  H   UNL     1     122.381 133.304 128.123  1.00  0.00     0.293 HD
ENDBRANCH  17  20
ENDBRANCH   1  12
BRANCH   6  22
ATOM     22  O   UNL     1     115.883 125.806 129.688  1.00  0.00    -0.507 OA
ATOM     23  H   UNL     1     115.513 126.519 129.079  1.00  0.00     0.293 HD
ENDBRANCH   6  22
BRANCH   8  24
ATOM     24  O   UNL     1     118.919 123.836 132.817  1.00  0.00    -0.508 OA
ATOM     25  H   UNL     1     118.255 123.094 133.008  1.00  0.00     0.293 HD
ENDBRANCH   8  24
TORSDOF 5
ENDMDL
MODEL 2
REMARK VINA RESULT:    -5.613      0.859      1.510
REMARK INTER + INTRA:          -6.863
REMARK INTER:                  -6.554
REMARK INTRA:                  -0.309
REMARK UNBOUND:                -0.265
REMARK SMILES O=c1cc(-c2ccc(O)c(O)c2)oc2cc(O)cc(O)c12
REMARK SMILES IDX 4 1 3 2 2 3 1 4 21 5 19 6 18 7 16 8 15 9 14 10 13 11 5 12
REMARK SMILES IDX 6 13 7 14 8 15 12 16 10 17 9 18 11 20 20 22 17 24
REMARK H PARENT 9 19 11 21 20 23 17 25
REMARK Flexibility Score: inf
ROOT
ATOM      1  C   UNL     1     120.533 128.115 129.078  1.00  0.00     0.138 A 
ATOM      2  C   UNL     1     119.366 128.292 128.322  1.00  0.00     0.100 A 
ATOM      3  C   UNL     1     118.235 127.524 128.607  1.00  0.00     0.197 A 
ATOM      4  O   UNL     1     117.223 127.666 127.875  1.00  0.00    -0.289 OA
ATOM      5  C   UNL     1     118.264 126.600 129.680  1.00  0.00     0.107 A 
ATOM      6  C   UNL     1     117.161 125.789 130.085  1.00  0.00     0.134 A 
ATOM      7  C   UNL     1     117.340 124.839 131.099  1.00  0.00     0.093 A 
ATOM      8  C   UNL     1     118.560 124.712 131.761  1.00  0.00     0.123 A 
ATOM      9  C   UNL     1     119.631 125.535 131.408  1.00  0.00     0.094 A 
ATOM     10  C   UNL     1     119.494 126.468 130.377  1.00  0.00     0.146 A 
ATOM     11  O   UNL     1     120.544 127.219 130.059  1.00  0.00    -0.456 OA
ENDROOT
BRANCH   1  12
ATOM     12  C   UNL     1     121.763 128.906 128.820  1.00  0.00     0.021 A 
ATOM     13  C   UNL     1     121.713 130.179 128.222  1.00  0.00     0.016 A 
ATOM     14  C   UNL     1     122.889 130.896 127.982  1.00  0.00     0.051 A 
ATOM     15  C   UNL     1     124.132 130.352 128.328  1.00  0.00     0.157 A 
ATOM     16  C   UNL     1     123.016 128.361 129.151  1.00  0.00     0.062 A 
ATOM     17  C   UNL     1     124.195 129.078 128.913  1.00  0.00     0.158 A 
BRANCH  15  18
ATOM     18  O   UNL     1     125.303 131.071 128.088  1.00  0.00    -0.504 OA
ATOM     19  H   UNL     1     125.444 131.582 127.225  1.00  0.00     0.293 HD
ENDBRANCH  15  18
BRANCH  17  20
ATOM     20  O   UNL     1     125.418 128.506 129.265  1.00  0.00    -0.504 OA
ATOM     21  H   UNL     1     125.695 127.586 128.943  1.00  0.00     0.293 HD
ENDBRANCH  17  20
ENDBRANCH   1  12
BRANCH   6  22
ATOM     22  O   UNL     1     115.875 125.888 129.546  1.00  0.00    -0.507 OA
ATOM     23  H   UNL     1     115.019 125.828 130.074  1.00  0.00     0.293 HD
ENDBRANCH   6  22
BRANCH   8  24
ATOM     24  O   UNL     1     118.696 123.768 132.776  1.00  0.00    -0.508 OA
ATOM     25  H   UNL     1     118.582 122.777 132.597  1.00  0.00     0.293 HD
ENDBRANCH   8  24
TORSDOF 5
ENDMDL
MODEL 3
REMARK VINA RESULT:    -5.313     14.469     18.722
REMARK INTER + INTRA:          -6.510
REMARK INTER:                  -6.233
REMARK INTRA:                  -0.278
REMARK UNBOUND:                -0.265
REMARK SMILES O=c1cc(-c2ccc(O)c(O)c2)oc2cc(O)cc(O)c12
REMARK SMILES IDX 4 1 3 2 2 3 1 4 21 5 19 6 18 7 16 8 15 9 14 10 13 11 5 12
REMARK SMILES IDX 6 13 7 14 8 15 12 16 10 17 9 18 11 20 20 22 17 24
REMARK H PARENT 9 19 11 21 20 23 17 25
REMARK Flexibility Score: inf
ROOT
ATOM      1  C   UNL     1     130.780 138.743 137.476  1.00  0.00     0.138 A 
ATOM      2  C   UNL     1     131.200 138.887 138.806  1.00  0.00     0.100 A 
ATOM      3  C   UNL     1     132.528 139.217 139.079  1.00  0.00     0.197 A 
ATOM      4  O   UNL     1     132.887 139.284 140.282  1.00  0.00    -0.289 OA
ATOM      5  C   UNL     1     133.432 139.437 138.012  1.00  0.00     0.107 A 
ATOM      6  C   UNL     1     134.801 139.812 138.168  1.00  0.00     0.134 A 
ATOM      7  C   UNL     1     135.624 139.906 137.039  1.00  0.00     0.093 A 
ATOM      8  C   UNL     1     135.116 139.698 135.757  1.00  0.00     0.123 A 
ATOM      9  C   UNL     1     133.768 139.381 135.588  1.00  0.00     0.094 A 
ATOM     10  C   UNL     1     132.929 139.246 136.697  1.00  0.00     0.146 A 
ATOM     11  O   UNL     1     131.655 138.924 136.494  1.00  0.00    -0.456 OA
ENDROOT
BRANCH   1  12
ATOM     12  C   UNL     1     129.378 138.396 137.129  1.00  0.00     0.021 A 
ATOM     13  C   UNL     1     129.075 137.471 136.111  1.00  0.00     0.016 A 
ATOM     14  C   UNL     1     127.746 137.172 135.800  1.00  0.00     0.051 A 
ATOM     15  C   UNL     1     126.699 137.794 136.492  1.00  0.00     0.157 A 
ATOM     16  C   UNL     1     128.322 139.026 137.810  1.00  0.00     0.062 A 
ATOM     17  C   UNL     1     126.990 138.726 137.500  1.00  0.00     0.158 A 
BRANCH  15  18
ATOM     18  O   UNL     1     125.375 137.491 136.179  1.00  0.00    -0.504 OA
ATOM     19  H   UNL     1     124.607 138.064 136.511  1.00  0.00     0.293 HD
ENDBRANCH  15  18
BRANCH  17  20
ATOM     20  O   UNL     1     125.970 139.366 138.206  1.00  0.00    -0.504 OA
ATOM     21  H   UNL     1     126.142 140.189 138.771  1.00  0.00     0.293 HD
ENDBRANCH  17  20
ENDBRANCH   1  12
BRANCH   6  22
ATOM     22  O   UNL     1     135.394 140.121 139.397  1.00  0.00    -0.507 OA
ATOM     23  H   UNL     1     135.849 140.993 139.617  1.00  0.00     0.293 HD
ENDBRANCH   6  22
BRANCH   8  24
ATOM     24  O   UNL     1     135.961 139.816 134.656  1.00  0.00    -0.508 OA
ATOM     25  H   UNL     1     135.601 140.019 133.731  1.00  0.00     0.293 HD
ENDBRANCH   8  24
TORSDOF 5
ENDMDL
MODEL 4
REMARK VINA RESULT:    -5.273      1.530      7.086
REMARK INTER + INTRA:          -6.463
REMARK INTER:                  -6.160
REMARK INTRA:                  -0.303
REMARK UNBOUND:                -0.265
REMARK SMILES O=c1cc(-c2ccc(O)c(O)c2)oc2cc(O)cc(O)c12
REMARK SMILES IDX 4 1 3 2 2 3 1 4 21 5 19 6 18 7 16 8 15 9 14 10 13 11 5 12
REMARK SMILES IDX 6 13 7 14 8 15 12 16 10 17 9 18 11 20 20 22 17 24
REMARK H PARENT 9 19 11 21 20 23 17 25
REMARK Flexibility Score: inf
ROOT
ATOM      1  C   UNL     1     120.530 128.194 129.775  1.00  0.00     0.138 A 
ATOM      2  C   UNL     1     120.464 129.568 130.045  1.00  0.00     0.100 A 
ATOM      3  C   UNL     1     121.580 130.372 129.811  1.00  0.00     0.197 A 
ATOM      4  O   UNL     1     121.507 131.590 130.115  1.00  0.00    -0.289 OA
ATOM      5  C   UNL     1     122.759 129.802 129.272  1.00  0.00     0.107 A 
ATOM      6  C   UNL     1     123.947 130.530 128.960  1.00  0.00     0.134 A 
ATOM      7  C   UNL     1     125.084 129.839 128.522  1.00  0.00     0.093 A 
ATOM      8  C   UNL     1     125.059 128.459 128.329  1.00  0.00     0.123 A 
ATOM      9  C   UNL     1     123.888 127.743 128.582  1.00  0.00     0.094 A 
ATOM     10  C   UNL     1     122.747 128.399 129.053  1.00  0.00     0.146 A 
ATOM     11  O   UNL     1     121.658 127.677 129.299  1.00  0.00    -0.456 OA
ENDROOT
BRANCH   1  12
ATOM     12  C   UNL     1     119.373 127.292 130.002  1.00  0.00     0.021 A 
ATOM     13  C   UNL     1     118.047 127.728 129.818  1.00  0.00     0.016 A 
ATOM     14  C   UNL     1     116.977 126.859 130.049  1.00  0.00     0.051 A 
ATOM     15  C   UNL     1     117.211 125.545 130.474  1.00  0.00     0.157 A 
ATOM     16  C   UNL     1     119.599 125.975 130.442  1.00  0.00     0.062 A 
ATOM     17  C   UNL     1     118.528 125.103 130.672  1.00  0.00     0.158 A 
BRANCH  15  18
ATOM     18  O   UNL     1     116.141 124.681 130.701  1.00  0.00    -0.504 OA
ATOM     19  H   UNL     1     116.277 123.681 130.793  1.00  0.00     0.293 HD
ENDBRANCH  15  18
BRANCH  17  20
ATOM     20  O   UNL     1     118.795 123.801 131.098  1.00  0.00    -0.504 OA
ATOM     21  H   UNL     1     118.219 123.016 130.821  1.00  0.00     0.293 HD
ENDBRANCH  17  20
ENDBRANCH   1  12
BRANCH   6  22
ATOM     22  O   UNL     1     124.057 131.921 129.041  1.00  0.00    -0.507 OA
ATOM     23  H   UNL     1     124.472 132.426 129.809  1.00  0.00     0.293 HD
ENDBRANCH   6  22
BRANCH   8  24
ATOM     24  O   UNL     1     126.205 127.808 127.877  1.00  0.00    -0.508 OA
ATOM     25  H   UNL     1     126.555 127.943 126.936  1.00  0.00     0.293 HD
ENDBRANCH   8  24
TORSDOF 5
ENDMDL
MODEL 5
REMARK VINA RESULT:    -5.257      1.478      3.339
REMARK INTER + INTRA:          -6.444
REMARK INTER:                  -6.179
REMARK INTRA:                  -0.264
REMARK UNBOUND:                -0.265
REMARK SMILES O=c1cc(-c2ccc(O)c(O)c2)oc2cc(O)cc(O)c12
REMARK SMILES IDX 4 1 3 2 2 3 1 4 21 5 19 6 18 7 16 8 15 9 14 10 13 11 5 12
REMARK SMILES IDX 6 13 7 14 8 15 12 16 10 17 9 18 11 20 20 22 17 24
REMARK H PARENT 9 19 11 21 20 23 17 25
REMARK Flexibility Score: inf
ROOT
ATOM      1  C   UNL     1     121.552 127.434 130.408  1.00  0.00     0.138 A 
ATOM      2  C   UNL     1     121.755 126.661 131.560  1.00  0.00     0.100 A 
ATOM      3  C   UNL     1     120.727 125.847 132.037  1.00  0.00     0.197 A 
ATOM      4  O   UNL     1     120.921 125.210 133.103  1.00  0.00    -0.289 OA
ATOM      5  C   UNL     1     119.499 125.781 131.334  1.00  0.00     0.107 A 
ATOM      6  C   UNL     1     118.391 124.960 131.706  1.00  0.00     0.134 A 
ATOM      7  C   UNL     1     117.192 125.054 130.988  1.00  0.00     0.093 A 
ATOM      8  C   UNL     1     117.079 125.891 129.879  1.00  0.00     0.123 A 
ATOM      9  C   UNL     1     118.171 126.660 129.476  1.00  0.00     0.094 A 
ATOM     10  C   UNL     1     119.370 126.615 130.192  1.00  0.00     0.146 A 
ATOM     11  O   UNL     1     120.380 127.378 129.785  1.00  0.00    -0.456 OA
ENDROOT
BRANCH   1  12
ATOM     12  C   UNL     1     122.612 128.315 129.856  1.00  0.00     0.021 A 
ATOM     13  C   UNL     1     122.476 129.716 129.838  1.00  0.00     0.016 A 
ATOM     14  C   UNL     1     123.487 130.519 129.302  1.00  0.00     0.051 A 
ATOM     15  C   UNL     1     124.646 129.938 128.771  1.00  0.00     0.157 A 
ATOM     16  C   UNL     1     123.772 127.739 129.308  1.00  0.00     0.062 A 
ATOM     17  C   UNL     1     124.787 128.542 128.773  1.00  0.00     0.158 A 
BRANCH  15  18
ATOM     18  O   UNL     1     125.652 130.743 128.239  1.00  0.00    -0.504 OA
ATOM     19  H   UNL     1     126.580 130.379 128.055  1.00  0.00     0.293 HD
ENDBRANCH  15  18
BRANCH  17  20
ATOM     20  O   UNL     1     125.927 127.932 128.248  1.00  0.00    -0.504 OA
ATOM     21  H   UNL     1     126.745 127.743 128.814  1.00  0.00     0.293 HD
ENDBRANCH  17  20
ENDBRANCH   1  12
BRANCH   6  22
ATOM     22  O   UNL     1     118.421 124.029 132.749  1.00  0.00    -0.507 OA
ATOM     23  H   UNL     1     117.616 123.716 133.269  1.00  0.00     0.293 HD
ENDBRANCH   6  22
BRANCH   8  24
ATOM     24  O   UNL     1     115.875 125.946 129.180  1.00  0.00    -0.508 OA
ATOM     25  H   UNL     1     115.808 126.391 128.273  1.00  0.00     0.293 HD
ENDBRANCH   8  24
TORSDOF 5
ENDMDL
MODEL 6
REMARK VINA RESULT:    -5.103     10.846     15.519
REMARK INTER + INTRA:          -6.262
REMARK INTER:                  -5.947
REMARK INTRA:                  -0.316
REMARK UNBOUND:                -0.265
REMARK SMILES O=c1cc(-c2ccc(O)c(O)c2)oc2cc(O)cc(O)c12
REMARK SMILES IDX 4 1 3 2 2 3 1 4 21 5 19 6 18 7 16 8 15 9 14 10 13 11 5 12
REMARK SMILES IDX 6 13 7 14 8 15 12 16 10 17 9 18 11 20 20 22 17 24
REMARK H PARENT 9 19 11 21 20 23 17 25
REMARK Flexibility Score: inf
ROOT
ATOM      1  C   UNL     1     132.523 134.357 129.484  1.00  0.00     0.138 A 
ATOM      2  C   UNL     1     133.791 134.548 130.052  1.00  0.00     0.100 A 
ATOM      3  C   UNL     1     134.253 135.843 130.290  1.00  0.00     0.197 A 
ATOM      4  O   UNL     1     135.415 135.982 130.748  1.00  0.00    -0.289 OA
ATOM      5  C   UNL     1     133.425 136.952 129.989  1.00  0.00     0.107 A 
ATOM      6  C   UNL     1     133.777 138.317 130.221  1.00  0.00     0.134 A 
ATOM      7  C   UNL     1     132.915 139.333 129.790  1.00  0.00     0.093 A 
ATOM      8  C   UNL     1     131.691 139.036 129.192  1.00  0.00     0.123 A 
ATOM      9  C   UNL     1     131.314 137.705 129.006  1.00  0.00     0.094 A 
ATOM     10  C   UNL     1     132.168 136.669 129.393  1.00  0.00     0.146 A 
ATOM     11  O   UNL     1     131.779 135.415 129.181  1.00  0.00    -0.456 OA
ENDROOT
BRANCH   1  12
ATOM     12  C   UNL     1     131.981 133.002 129.212  1.00  0.00     0.021 A 
ATOM     13  C   UNL     1     132.801 131.858 129.234  1.00  0.00     0.016 A 
ATOM     14  C   UNL     1     132.264 130.596 128.964  1.00  0.00     0.051 A 
ATOM     15  C   UNL     1     130.903 130.455 128.661  1.00  0.00     0.157 A 
ATOM     16  C   UNL     1     130.619 132.854 128.894  1.00  0.00     0.062 A 
ATOM     17  C   UNL     1     130.079 131.591 128.624  1.00  0.00     0.158 A 
BRANCH  15  18
ATOM     18  O   UNL     1     130.371 129.195 128.394  1.00  0.00    -0.504 OA
ATOM     19  H   UNL     1     129.638 128.797 128.968  1.00  0.00     0.293 HD
ENDBRANCH  15  18
BRANCH  17  20
ATOM     20  O   UNL     1     128.721 131.486 128.322  1.00  0.00    -0.504 OA
ATOM     21  H   UNL     1     128.392 131.292 127.384  1.00  0.00     0.293 HD
ENDBRANCH  17  20
ENDBRANCH   1  12
BRANCH   6  22
ATOM     22  O   UNL     1     134.939 138.726 130.882  1.00  0.00    -0.507 OA
ATOM     23  H   UNL     1     135.029 138.835 131.880  1.00  0.00     0.293 HD
ENDBRANCH   6  22
BRANCH   8  24
ATOM     24  O   UNL     1     130.852 140.073 128.791  1.00  0.00    -0.508 OA
ATOM     25  H   UNL     1     130.955 140.520 127.888  1.00  0.00     0.293 HD
ENDBRANCH   8  24
TORSDOF 5
ENDMDL
MODEL 7
REMARK VINA RESULT:    -5.079      1.816      2.028
REMARK INTER + INTRA:          -6.235
REMARK INTER:                  -5.942
REMARK INTRA:                  -0.294
REMARK UNBOUND:                -0.265
REMARK SMILES O=c1cc(-c2ccc(O)c(O)c2)oc2cc(O)cc(O)c12
REMARK SMILES IDX 4 1 3 2 2 3 1 4 21 5 19 6 18 7 16 8 15 9 14 10 13 11 5 12
REMARK SMILES IDX 6 13 7 14 8 15 12 16 10 17 9 18 11 20 20 22 17 24
REMARK H PARENT 9 19 11 21 20 23 17 25
REMARK Flexibility Score: inf
ROOT
ATOM      1  C   UNL     1     120.724 128.830 130.490  1.00  0.00     0.138 A 
ATOM      2  C   UNL     1     119.808 129.078 129.457  1.00  0.00     0.100 A 
ATOM      3  C   UNL     1     118.802 128.149 129.188  1.00  0.00     0.197 A 
ATOM      4  O   UNL     1     118.032 128.373 128.220  1.00  0.00    -0.289 OA
ATOM      5  C   UNL     1     118.692 126.981 129.981  1.00  0.00     0.107 A 
ATOM      6  C   UNL     1     117.686 125.980 129.821  1.00  0.00     0.134 A 
ATOM      7  C   UNL     1     117.738 124.819 130.603  1.00  0.00     0.093 A 
ATOM      8  C   UNL     1     118.721 124.649 131.576  1.00  0.00     0.123 A 
ATOM      9  C   UNL     1     119.680 125.643 131.776  1.00  0.00     0.094 A 
ATOM     10  C   UNL     1     119.676 126.797 130.989  1.00  0.00     0.146 A 
ATOM     11  O   UNL     1     120.618 127.711 131.199  1.00  0.00    -0.456 OA
ENDROOT
BRANCH   1  12
ATOM     12  C   UNL     1     121.811 129.785 130.821  1.00  0.00     0.021 A 
ATOM     13  C   UNL     1     122.576 129.657 131.996  1.00  0.00     0.016 A 
ATOM     14  C   UNL     1     123.587 130.577 132.286  1.00  0.00     0.051 A 
ATOM     15  C   UNL     1     123.847 131.642 131.414  1.00  0.00     0.157 A 
ATOM     16  C   UNL     1     122.069 130.864 129.957  1.00  0.00     0.062 A 
ATOM     17  C   UNL     1     123.082 131.786 130.246  1.00  0.00     0.158 A 
BRANCH  15  18
ATOM     18  O   UNL     1     124.858 132.557 131.706  1.00  0.00    -0.504 OA
ATOM     19  H   UNL     1     124.781 133.533 131.446  1.00  0.00     0.293 HD
ENDBRANCH  15  18
BRANCH  17  20
ATOM     20  O   UNL     1     123.313 132.838 129.358  1.00  0.00    -0.504 OA
ATOM     21  H   UNL     1     122.668 133.613 129.263  1.00  0.00     0.293 HD
ENDBRANCH  17  20
ENDBRANCH   1  12
BRANCH   6  22
ATOM     22  O   UNL     1     116.611 126.084 128.934  1.00  0.00    -0.507 OA
ATOM     23  H   UNL     1     116.306 125.357 128.305  1.00  0.00     0.293 HD
ENDBRANCH   6  22
BRANCH   8  24
ATOM     24  O   UNL     1     118.732 123.487 132.346  1.00  0.00    -0.508 OA
ATOM     25  H   UNL     1     119.444 122.777 132.224  1.00  0.00     0.293 HD
ENDBRANCH   8  24
TORSDOF 5
ENDMDL
