MODEL 1
REMARK VINA RESULT:    -6.774      0.000      0.000
REMARK INTER + INTRA:         -10.248
REMARK INTER:                  -8.952
REMARK INTRA:                  -1.296
REMARK UNBOUND:                -1.296
REMARK SMILES CC[C@H](C=C[C@@H](C)[C@@H]1CC[C@@H]2[C@H]3CC=C4C[C@@H](O)CC[C@@]4(C)[C@H]3CC[C@@]21C)C(C)C
REMARK SMILES IDX 6 1 7 2 5 3 4 4 3 5 2 6 1 7 28 8 29 9 30 10 8 11 9 12 26 13
REMARK SMILES IDX 10 14 11 15 25 16 27 17 12 18 24 19 23 20 13 21 21 22 14 23
REMARK SMILES IDX 15 24 20 25 22 26 16 27 19 28 17 29 18 30
REMARK H PARENT 18 31
REMARK Flexibility Score: inf
ROOT
ATOM      1  C   UNL     1     173.841 169.247 173.112  1.00  0.00     0.012 C 
ATOM      2  C   UNL     1     172.641 169.776 172.304  1.00  0.00     0.012 C 
ENDROOT
BRANCH   1   3
ATOM      3  C   UNL     1     175.006 170.202 172.947  1.00  0.00    -0.028 C 
ATOM      4  C   UNL     1     176.286 169.791 172.906  1.00  0.00    -0.027 C 
BRANCH   4   5
ATOM      5  C   UNL     1     177.421 170.730 172.538  1.00  0.00     0.014 C 
BRANCH   5   6
ATOM      6  C   UNL     1     177.800 170.612 171.037  1.00  0.00     0.004 C 
ATOM      7  C   UNL     1     177.197 169.385 170.355  1.00  0.00     0.004 C 
ENDBRANCH   5   6
BRANCH   5   8
ATOM      8  C   UNL     1     177.059 172.191 172.954  1.00  0.00    -0.011 C 
ATOM      9  C   UNL     1     178.030 172.747 174.008  1.00  0.00     0.008 C 
ATOM     10  C   UNL     1     176.962 173.162 171.762  1.00  0.00     0.008 C 
ENDBRANCH   5   8
ENDBRANCH   4   5
ENDBRANCH   1   3
BRANCH   1  11
ATOM     11  C   UNL     1     174.177 167.757 172.744  1.00  0.00     0.002 C 
ATOM     12  C   UNL     1     173.267 167.244 171.610  1.00  0.00     0.005 C 
ATOM     13  C   UNL     1     174.060 166.679 173.874  1.00  0.00    -0.026 C 
ATOM     14  C   UNL     1     172.993 165.767 171.865  1.00  0.00     0.005 C 
ATOM     15  C   UNL     1     173.843 165.370 173.073  1.00  0.00    -0.001 C 
ATOM     16  C   UNL     1     172.848 166.959 174.800  1.00  0.00     0.007 C 
ATOM     17  C   UNL     1     175.368 166.598 174.698  1.00  0.00     0.012 C 
ATOM     18  C   UNL     1     173.240 164.157 173.852  1.00  0.00     0.000 C 
ATOM     19  C   UNL     1     172.455 165.767 175.672  1.00  0.00     0.005 C 
ATOM     20  C   UNL     1     172.072 164.535 174.816  1.00  0.00     0.003 C 
ATOM     21  C   UNL     1     174.343 163.270 174.508  1.00  0.00     0.031 C 
ATOM     22  C   UNL     1     171.623 163.282 175.664  1.00  0.00    -0.008 C 
ATOM     23  C   UNL     1     174.058 162.798 175.912  1.00  0.00    -0.027 C 
ATOM     24  C   UNL     1     172.820 162.752 176.441  1.00  0.00    -0.065 C 
ATOM     25  C   UNL     1     170.487 163.647 176.669  1.00  0.00     0.014 C 
ATOM     26  C   UNL     1     171.098 162.174 174.710  1.00  0.00     0.016 C 
ATOM     27  C   UNL     1     172.638 162.273 177.867  1.00  0.00     0.063 C 
ATOM     28  C   UNL     1     170.089 162.494 177.617  1.00  0.00     0.033 C 
ATOM     29  C   UNL     1     171.272 161.588 178.040  1.00  0.00     0.118 C 
BRANCH  29  30
ATOM     30  O   UNL     1     171.102 161.192 179.378  1.00  0.00    -0.393 OA
ATOM     31  H   UNL     1     172.006 160.986 179.735  1.00  0.00     0.210 HD
ENDBRANCH  29  30
ENDBRANCH   1  11
TORSDOF 6
ENDMDL
MODEL 2
REMARK VINA RESULT:    -6.764      5.097      7.009
REMARK INTER + INTRA:         -10.235
REMARK INTER:                  -9.043
REMARK INTRA:                  -1.192
REMARK UNBOUND:                -1.296
REMARK SMILES CC[C@H](C=C[C@@H](C)[C@@H]1CC[C@@H]2[C@H]3CC=C4C[C@@H](O)CC[C@@]4(C)[C@H]3CC[C@@]21C)C(C)C
REMARK SMILES IDX 6 1 7 2 5 3 4 4 3 5 2 6 1 7 28 8 29 9 30 10 8 11 9 12 26 13
REMARK SMILES IDX 10 14 11 15 25 16 27 17 12 18 24 19 23 20 13 21 21 22 14 23
REMARK SMILES IDX 15 24 20 25 22 26 16 27 19 28 17 29 18 30
REMARK H PARENT 18 31
REMARK Flexibility Score: inf
ROOT
ATOM      1  C   UNL     1     175.804 167.987 172.357  1.00  0.00     0.012 C 
ATOM      2  C   UNL     1     174.632 167.666 173.305  1.00  0.00     0.012 C 
ENDROOT
BRANCH   1   3
ATOM      3  C   UNL     1     176.269 169.406 172.612  1.00  0.00    -0.028 C 
ATOM      4  C   UNL     1     176.909 170.141 171.686  1.00  0.00    -0.027 C 
BRANCH   4   5
ATOM      5  C   UNL     1     177.186 171.622 171.883  1.00  0.00     0.014 C 
BRANCH   5   6
ATOM      6  C   UNL     1     176.048 172.501 171.297  1.00  0.00     0.004 C 
ATOM      7  C   UNL     1     174.961 171.693 170.589  1.00  0.00     0.004 C 
ENDBRANCH   5   6
BRANCH   5   8
ATOM      8  C   UNL     1     177.456 171.916 173.393  1.00  0.00    -0.011 C 
ATOM      9  C   UNL     1     178.885 172.429 173.631  1.00  0.00     0.008 C 
ATOM     10  C   UNL     1     176.436 172.883 174.022  1.00  0.00     0.008 C 
ENDBRANCH   5   8
ENDBRANCH   4   5
ENDBRANCH   1   3
BRANCH   1  11
ATOM     11  C   UNL     1     175.437 167.692 170.859  1.00  0.00     0.002 C 
ATOM     12  C   UNL     1     173.976 167.214 170.726  1.00  0.00     0.005 C 
ATOM     13  C   UNL     1     176.283 166.620 170.094  1.00  0.00    -0.026 C 
ATOM     14  C   UNL     1     173.923 166.193 169.596  1.00  0.00     0.005 C 
ATOM     15  C   UNL     1     175.317 166.162 168.972  1.00  0.00    -0.001 C 
ATOM     16  C   UNL     1     176.653 165.429 171.015  1.00  0.00     0.007 C 
ATOM     17  C   UNL     1     177.558 167.253 169.485  1.00  0.00     0.012 C 
ATOM     18  C   UNL     1     175.632 164.794 168.284  1.00  0.00     0.000 C 
ATOM     19  C   UNL     1     177.140 164.195 170.255  1.00  0.00     0.005 C 
ATOM     20  C   UNL     1     176.065 163.667 169.274  1.00  0.00     0.003 C 
ATOM     21  C   UNL     1     176.576 164.956 167.053  1.00  0.00     0.031 C 
ATOM     22  C   UNL     1     176.500 162.372 168.485  1.00  0.00    -0.008 C 
ATOM     23  C   UNL     1     177.672 163.927 166.925  1.00  0.00    -0.027 C 
ATOM     24  C   UNL     1     177.634 162.725 167.533  1.00  0.00    -0.065 C 
ATOM     25  C   UNL     1     176.982 161.246 169.452  1.00  0.00     0.014 C 
ATOM     26  C   UNL     1     175.292 161.834 167.669  1.00  0.00     0.016 C 
ATOM     27  C   UNL     1     178.792 161.764 167.353  1.00  0.00     0.063 C 
ATOM     28  C   UNL     1     177.540 159.996 168.737  1.00  0.00     0.033 C 
ATOM     29  C   UNL     1     178.305 160.307 167.427  1.00  0.00     0.118 C 
BRANCH  29  30
ATOM     30  O   UNL     1     179.397 159.431 167.303  1.00  0.00    -0.393 OA
ATOM     31  H   UNL     1     179.322 158.771 168.041  1.00  0.00     0.210 HD
ENDBRANCH  29  30
ENDBRANCH   1  11
TORSDOF 6
ENDMDL
MODEL 3
REMARK VINA RESULT:    -6.511      1.226      1.607
REMARK INTER + INTRA:          -9.900
REMARK INTER:                  -8.974
REMARK INTRA:                  -0.927
REMARK UNBOUND:                -1.296
REMARK SMILES CC[C@H](C=C[C@@H](C)[C@@H]1CC[C@@H]2[C@H]3CC=C4C[C@@H](O)CC[C@@]4(C)[C@H]3CC[C@@]21C)C(C)C
REMARK SMILES IDX 6 1 7 2 5 3 4 4 3 5 2 6 1 7 28 8 29 9 30 10 8 11 9 12 26 13
REMARK SMILES IDX 10 14 11 15 25 16 27 17 12 18 24 19 23 20 13 21 21 22 14 23
REMARK SMILES IDX 15 24 20 25 22 26 16 27 19 28 17 29 18 30
REMARK H PARENT 18 31
REMARK Flexibility Score: inf
ROOT
ATOM      1  C   UNL     1     174.570 169.772 171.949  1.00  0.00     0.012 C 
ATOM      2  C   UNL     1     173.579 170.436 170.973  1.00  0.00     0.012 C 
ENDROOT
BRANCH   1   3
ATOM      3  C   UNL     1     175.870 170.549 171.936  1.00  0.00    -0.028 C 
ATOM      4  C   UNL     1     176.382 171.134 173.033  1.00  0.00    -0.027 C 
BRANCH   4   5
ATOM      5  C   UNL     1     177.778 171.731 173.051  1.00  0.00     0.014 C 
BRANCH   5   6
ATOM      6  C   UNL     1     178.574 171.365 171.769  1.00  0.00     0.004 C 
ATOM      7  C   UNL     1     179.947 172.032 171.697  1.00  0.00     0.004 C 
ENDBRANCH   5   6
BRANCH   5   8
ATOM      8  C   UNL     1     177.694 173.272 173.288  1.00  0.00    -0.011 C 
ATOM      9  C   UNL     1     177.316 174.031 172.006  1.00  0.00     0.008 C 
ATOM     10  C   UNL     1     176.743 173.666 174.434  1.00  0.00     0.008 C 
ENDBRANCH   5   8
ENDBRANCH   4   5
ENDBRANCH   1   3
BRANCH   1  11
ATOM     11  C   UNL     1     174.737 168.239 171.652  1.00  0.00     0.002 C 
ATOM     12  C   UNL     1     173.783 167.781 170.530  1.00  0.00     0.005 C 
ATOM     13  C   UNL     1     174.489 167.234 172.827  1.00  0.00    -0.026 C 
ATOM     14  C   UNL     1     173.341 166.358 170.848  1.00  0.00     0.005 C 
ATOM     15  C   UNL     1     174.130 165.923 172.083  1.00  0.00    -0.001 C 
ATOM     16  C   UNL     1     173.309 167.692 173.724  1.00  0.00     0.007 C 
ATOM     17  C   UNL     1     175.772 167.043 173.672  1.00  0.00     0.012 C 
ATOM     18  C   UNL     1     173.387 164.822 172.908  1.00  0.00     0.000 C 
ATOM     19  C   UNL     1     172.776 166.593 174.644  1.00  0.00     0.005 C 
ATOM     20  C   UNL     1     172.262 165.375 173.838  1.00  0.00     0.003 C 
ATOM     21  C   UNL     1     174.377 163.847 173.617  1.00  0.00     0.031 C 
ATOM     22  C   UNL     1     171.667 164.221 174.735  1.00  0.00    -0.008 C 
ATOM     23  C   UNL     1     174.028 163.475 175.037  1.00  0.00    -0.027 C 
ATOM     24  C   UNL     1     172.789 163.595 175.551  1.00  0.00    -0.065 C 
ATOM     25  C   UNL     1     170.571 164.758 175.708  1.00  0.00     0.014 C 
ATOM     26  C   UNL     1     171.026 163.137 173.825  1.00  0.00     0.016 C 
ATOM     27  C   UNL     1     172.542 163.206 176.995  1.00  0.00     0.063 C 
ATOM     28  C   UNL     1     170.037 163.702 176.701  1.00  0.00     0.033 C 
ATOM     29  C   UNL     1     171.106 162.689 177.181  1.00  0.00     0.118 C 
BRANCH  29  30
ATOM     30  O   UNL     1     170.881 162.376 178.532  1.00  0.00    -0.393 OA
ATOM     31  H   UNL     1     171.066 161.406 178.638  1.00  0.00     0.210 HD
ENDBRANCH  29  30
ENDBRANCH   1  11
TORSDOF 6
ENDMDL
MODEL 4
REMARK VINA RESULT:    -6.392      5.592      8.917
REMARK INTER + INTRA:          -9.743
REMARK INTER:                  -8.714
REMARK INTRA:                  -1.030
REMARK UNBOUND:                -1.296
REMARK SMILES CC[C@H](C=C[C@@H](C)[C@@H]1CC[C@@H]2[C@H]3CC=C4C[C@@H](O)CC[C@@]4(C)[C@H]3CC[C@@]21C)C(C)C
REMARK SMILES IDX 6 1 7 2 5 3 4 4 3 5 2 6 1 7 28 8 29 9 30 10 8 11 9 12 26 13
REMARK SMILES IDX 10 14 11 15 25 16 27 17 12 18 24 19 23 20 13 21 21 22 14 23
REMARK SMILES IDX 15 24 20 25 22 26 16 27 19 28 17 29 18 30
REMARK H PARENT 18 31
REMARK Flexibility Score: inf
ROOT
ATOM      1  C   UNL     1     175.596 168.490 171.679  1.00  0.00     0.012 C 
ATOM      2  C   UNL     1     175.844 167.316 172.647  1.00  0.00     0.012 C 
ENDROOT
BRANCH   1   3
ATOM      3  C   UNL     1     176.188 169.751 172.272  1.00  0.00    -0.028 C 
ATOM      4  C   UNL     1     177.026 170.553 171.593  1.00  0.00    -0.027 C 
BRANCH   4   5
ATOM      5  C   UNL     1     177.448 171.913 172.124  1.00  0.00     0.014 C 
BRANCH   5   6
ATOM      6  C   UNL     1     176.581 173.055 171.530  1.00  0.00     0.004 C 
ATOM      7  C   UNL     1     177.318 174.391 171.438  1.00  0.00     0.004 C 
ENDBRANCH   5   6
BRANCH   5   8
ATOM      8  C   UNL     1     177.439 171.899 173.686  1.00  0.00    -0.011 C 
ATOM      9  C   UNL     1     178.861 171.916 174.269  1.00  0.00     0.008 C 
ATOM     10  C   UNL     1     176.602 173.035 174.304  1.00  0.00     0.008 C 
ENDBRANCH   5   8
ENDBRANCH   4   5
ENDBRANCH   1   3
BRANCH   1  11
ATOM     11  C   UNL     1     174.078 168.614 171.294  1.00  0.00     0.002 C 
ATOM     12  C   UNL     1     173.348 167.266 171.463  1.00  0.00     0.005 C 
ATOM     13  C   UNL     1     173.726 169.086 169.844  1.00  0.00    -0.026 C 
ATOM     14  C   UNL     1     172.290 167.171 170.370  1.00  0.00     0.005 C 
ATOM     15  C   UNL     1     172.300 168.513 169.637  1.00  0.00    -0.001 C 
ATOM     16  C   UNL     1     174.708 168.491 168.802  1.00  0.00     0.007 C 
ATOM     17  C   UNL     1     173.706 170.630 169.753  1.00  0.00     0.012 C 
ATOM     18  C   UNL     1     171.795 168.390 168.163  1.00  0.00     0.000 C 
ATOM     19  C   UNL     1     174.211 168.597 167.360  1.00  0.00     0.005 C 
ATOM     20  C   UNL     1     172.867 167.852 167.164  1.00  0.00     0.003 C 
ATOM     21  C   UNL     1     171.068 169.683 167.679  1.00  0.00     0.031 C 
ATOM     22  C   UNL     1     172.321 167.897 165.685  1.00  0.00    -0.008 C 
ATOM     23  C   UNL     1     171.400 170.138 166.279  1.00  0.00    -0.027 C 
ATOM     24  C   UNL     1     171.928 169.328 165.342  1.00  0.00    -0.065 C 
ATOM     25  C   UNL     1     173.393 167.407 164.662  1.00  0.00     0.014 C 
ATOM     26  C   UNL     1     171.073 166.979 165.566  1.00  0.00     0.016 C 
ATOM     27  C   UNL     1     172.238 169.884 163.967  1.00  0.00     0.063 C 
ATOM     28  C   UNL     1     172.965 167.545 163.184  1.00  0.00     0.033 C 
ATOM     29  C   UNL     1     172.092 168.792 162.894  1.00  0.00     0.118 C 
BRANCH  29  30
ATOM     30  O   UNL     1     172.427 169.313 161.632  1.00  0.00    -0.393 OA
ATOM     31  H   UNL     1     171.772 170.033 161.434  1.00  0.00     0.210 HD
ENDBRANCH  29  30
ENDBRANCH   1  11
TORSDOF 6
ENDMDL
MODEL 5
REMARK VINA RESULT:    -6.323      6.079      9.596
REMARK INTER + INTRA:          -9.652
REMARK INTER:                  -8.365
REMARK INTRA:                  -1.287
REMARK UNBOUND:                -1.296
REMARK SMILES CC[C@H](C=C[C@@H](C)[C@@H]1CC[C@@H]2[C@H]3CC=C4C[C@@H](O)CC[C@@]4(C)[C@H]3CC[C@@]21C)C(C)C
REMARK SMILES IDX 6 1 7 2 5 3 4 4 3 5 2 6 1 7 28 8 29 9 30 10 8 11 9 12 26 13
REMARK SMILES IDX 10 14 11 15 25 16 27 17 12 18 24 19 23 20 13 21 21 22 14 23
REMARK SMILES IDX 15 24 20 25 22 26 16 27 19 28 17 29 18 30
REMARK H PARENT 18 31
REMARK Flexibility Score: inf
ROOT
ATOM      1  C   UNL     1     171.302 170.045 166.680  1.00  0.00     0.012 C 
ATOM      2  C   UNL     1     169.876 169.723 167.166  1.00  0.00     0.012 C 
ENDROOT
BRANCH   1   3
ATOM      3  C   UNL     1     171.283 170.214 165.174  1.00  0.00    -0.028 C 
ATOM      4  C   UNL     1     171.417 169.181 164.323  1.00  0.00    -0.027 C 
BRANCH   4   5
ATOM      5  C   UNL     1     171.194 169.336 162.828  1.00  0.00     0.014 C 
BRANCH   5   6
ATOM      6  C   UNL     1     172.180 168.462 162.008  1.00  0.00     0.004 C 
ATOM      7  C   UNL     1     172.776 167.305 162.808  1.00  0.00     0.004 C 
ENDBRANCH   5   6
BRANCH   5   8
ATOM      8  C   UNL     1     169.699 169.044 162.482  1.00  0.00    -0.011 C 
ATOM      9  C   UNL     1     169.516 168.661 161.005  1.00  0.00     0.008 C 
ATOM     10  C   UNL     1     169.057 167.975 163.387  1.00  0.00     0.008 C 
ENDBRANCH   5   8
ENDBRANCH   4   5
ENDBRANCH   1   3
BRANCH   1  11
ATOM     11  C   UNL     1     172.343 168.987 167.193  1.00  0.00     0.002 C 
ATOM     12  C   UNL     1     171.691 167.995 168.177  1.00  0.00     0.005 C 
ATOM     13  C   UNL     1     173.617 169.514 167.936  1.00  0.00    -0.026 C 
ATOM     14  C   UNL     1     172.734 167.626 169.225  1.00  0.00     0.005 C 
ATOM     15  C   UNL     1     174.040 168.293 168.791  1.00  0.00    -0.001 C 
ATOM     16  C   UNL     1     173.282 170.726 168.844  1.00  0.00     0.007 C 
ATOM     17  C   UNL     1     174.733 169.881 166.928  1.00  0.00     0.012 C 
ATOM     18  C   UNL     1     174.995 168.572 169.997  1.00  0.00     0.000 C 
ATOM     19  C   UNL     1     174.372 171.045 169.867  1.00  0.00     0.005 C 
ATOM     20  C   UNL     1     174.631 169.849 170.817  1.00  0.00     0.003 C 
ATOM     21  C   UNL     1     176.499 168.484 169.591  1.00  0.00     0.031 C 
ATOM     22  C   UNL     1     175.724 170.133 171.918  1.00  0.00    -0.008 C 
ATOM     23  C   UNL     1     177.396 169.556 170.159  1.00  0.00    -0.027 C 
ATOM     24  C   UNL     1     177.081 170.287 171.246  1.00  0.00    -0.065 C 
ATOM     25  C   UNL     1     175.406 171.433 172.721  1.00  0.00     0.014 C 
ATOM     26  C   UNL     1     175.776 168.942 172.914  1.00  0.00     0.016 C 
ATOM     27  C   UNL     1     178.045 171.350 171.731  1.00  0.00     0.063 C 
ATOM     28  C   UNL     1     176.504 171.836 173.730  1.00  0.00     0.033 C 
ATOM     29  C   UNL     1     177.944 171.520 173.256  1.00  0.00     0.118 C 
BRANCH  29  30
ATOM     30  O   UNL     1     178.811 172.541 173.682  1.00  0.00    -0.393 OA
ATOM     31  H   UNL     1     178.465 173.391 173.302  1.00  0.00     0.210 HD
ENDBRANCH  29  30
ENDBRANCH   1  11
TORSDOF 6
ENDMDL
MODEL 6
REMARK VINA RESULT:    -6.321      5.745      8.885
REMARK INTER + INTRA:          -9.650
REMARK INTER:                  -8.077
REMARK INTRA:                  -1.572
REMARK UNBOUND:                -1.296
REMARK SMILES CC[C@H](C=C[C@@H](C)[C@@H]1CC[C@@H]2[C@H]3CC=C4C[C@@H](O)CC[C@@]4(C)[C@H]3CC[C@@]21C)C(C)C
REMARK SMILES IDX 6 1 7 2 5 3 4 4 3 5 2 6 1 7 28 8 29 9 30 10 8 11 9 12 26 13
REMARK SMILES IDX 10 14 11 15 25 16 27 17 12 18 24 19 23 20 13 21 21 22 14 23
REMARK SMILES IDX 15 24 20 25 22 26 16 27 19 28 17 29 18 30
REMARK H PARENT 18 31
REMARK Flexibility Score: inf
ROOT
ATOM      1  C   UNL     1     170.399 169.619 168.371  1.00  0.00     0.012 C 
ATOM      2  C   UNL     1     168.858 169.666 168.358  1.00  0.00     0.012 C 
ENDROOT
BRANCH   1   3
ATOM      3  C   UNL     1     170.877 168.829 167.170  1.00  0.00    -0.028 C 
ATOM      4  C   UNL     1     171.614 169.373 166.185  1.00  0.00    -0.027 C 
BRANCH   4   5
ATOM      5  C   UNL     1     172.255 168.527 165.098  1.00  0.00     0.014 C 
BRANCH   5   6
ATOM      6  C   UNL     1     172.040 169.145 163.690  1.00  0.00     0.004 C 
ATOM      7  C   UNL     1     170.969 170.235 163.662  1.00  0.00     0.004 C 
ENDBRANCH   5   6
BRANCH   5   8
ATOM      8  C   UNL     1     173.762 168.291 165.428  1.00  0.00    -0.011 C 
ATOM      9  C   UNL     1     174.362 169.450 166.240  1.00  0.00     0.008 C 
ATOM     10  C   UNL     1     174.031 166.953 166.143  1.00  0.00     0.008 C 
ENDBRANCH   5   8
ENDBRANCH   4   5
ENDBRANCH   1   3
BRANCH   1  11
ATOM     11  C   UNL     1     170.951 169.094 169.744  1.00  0.00     0.002 C 
ATOM     12  C   UNL     1     170.255 169.793 170.930  1.00  0.00     0.005 C 
ATOM     13  C   UNL     1     172.483 169.251 170.026  1.00  0.00    -0.026 C 
ATOM     14  C   UNL     1     171.283 169.953 172.043  1.00  0.00     0.005 C 
ATOM     15  C   UNL     1     172.547 169.233 171.574  1.00  0.00    -0.001 C 
ATOM     16  C   UNL     1     173.025 170.595 169.474  1.00  0.00     0.007 C 
ATOM     17  C   UNL     1     173.279 168.061 169.438  1.00  0.00     0.012 C 
ATOM     18  C   UNL     1     173.841 169.810 172.235  1.00  0.00     0.000 C 
ATOM     19  C   UNL     1     174.395 170.980 170.033  1.00  0.00     0.005 C 
ATOM     20  C   UNL     1     174.361 171.126 171.574  1.00  0.00     0.003 C 
ATOM     21  C   UNL     1     174.940 168.721 172.432  1.00  0.00     0.031 C 
ATOM     22  C   UNL     1     175.741 171.557 172.205  1.00  0.00    -0.008 C 
ATOM     23  C   UNL     1     176.349 169.140 172.092  1.00  0.00    -0.027 C 
ATOM     24  C   UNL     1     176.745 170.426 172.029  1.00  0.00    -0.065 C 
ATOM     25  C   UNL     1     176.305 172.845 171.528  1.00  0.00     0.014 C 
ATOM     26  C   UNL     1     175.550 171.842 173.721  1.00  0.00     0.016 C 
ATOM     27  C   UNL     1     178.181 170.744 171.666  1.00  0.00     0.063 C 
ATOM     28  C   UNL     1     177.715 173.248 172.015  1.00  0.00     0.033 C 
ATOM     29  C   UNL     1     178.637 172.048 172.343  1.00  0.00     0.118 C 
BRANCH  29  30
ATOM     30  O   UNL     1     179.954 172.351 171.959  1.00  0.00    -0.393 OA
ATOM     31  H   UNL     1     180.347 171.517 171.591  1.00  0.00     0.210 HD
ENDBRANCH  29  30
ENDBRANCH   1  11
TORSDOF 6
ENDMDL
MODEL 7
REMARK VINA RESULT:    -6.290      3.043      9.046
REMARK INTER + INTRA:          -9.609
REMARK INTER:                  -8.267
REMARK INTRA:                  -1.342
REMARK UNBOUND:                -1.296
REMARK SMILES CC[C@H](C=C[C@@H](C)[C@@H]1CC[C@@H]2[C@H]3CC=C4C[C@@H](O)CC[C@@]4(C)[C@H]3CC[C@@]21C)C(C)C
REMARK SMILES IDX 6 1 7 2 5 3 4 4 3 5 2 6 1 7 28 8 29 9 30 10 8 11 9 12 26 13
REMARK SMILES IDX 10 14 11 15 25 16 27 17 12 18 24 19 23 20 13 21 21 22 14 23
REMARK SMILES IDX 15 24 20 25 22 26 16 27 19 28 17 29 18 30
REMARK H PARENT 18 31
REMARK Flexibility Score: inf
ROOT
ATOM      1  C   UNL     1     173.931 163.802 173.689  1.00  0.00     0.012 C 
ATOM      2  C   UNL     1     174.402 163.027 172.443  1.00  0.00     0.012 C 
ENDROOT
BRANCH   1   3
ATOM      3  C   UNL     1     173.268 162.835 174.649  1.00  0.00    -0.028 C 
ATOM      4  C   UNL     1     172.701 163.227 175.804  1.00  0.00    -0.027 C 
BRANCH   4   5
ATOM      5  C   UNL     1     171.866 162.282 176.652  1.00  0.00     0.014 C 
BRANCH   5   6
ATOM      6  C   UNL     1     172.513 162.037 178.041  1.00  0.00     0.004 C 
ATOM      7  C   UNL     1     171.496 161.960 179.179  1.00  0.00     0.004 C 
ENDBRANCH   5   6
BRANCH   5   8
ATOM      8  C   UNL     1     170.402 162.814 176.755  1.00  0.00    -0.011 C 
ATOM      9  C   UNL     1     170.264 164.234 176.181  1.00  0.00     0.008 C 
ATOM     10  C   UNL     1     169.363 161.880 176.106  1.00  0.00     0.008 C 
ENDBRANCH   5   8
ENDBRANCH   4   5
ENDBRANCH   1   3
BRANCH   1  11
ATOM     11  C   UNL     1     173.038 165.035 173.303  1.00  0.00     0.002 C 
ATOM     12  C   UNL     1     172.723 165.045 171.793  1.00  0.00     0.005 C 
ATOM     13  C   UNL     1     173.593 166.466 173.609  1.00  0.00    -0.026 C 
ATOM     14  C   UNL     1     172.672 166.498 171.339  1.00  0.00     0.005 C 
ATOM     15  C   UNL     1     172.822 167.352 172.597  1.00  0.00    -0.001 C 
ATOM     16  C   UNL     1     175.120 166.548 173.352  1.00  0.00     0.007 C 
ATOM     17  C   UNL     1     173.261 166.890 175.060  1.00  0.00     0.012 C 
ATOM     18  C   UNL     1     173.424 168.762 172.292  1.00  0.00     0.000 C 
ATOM     19  C   UNL     1     175.651 167.979 173.265  1.00  0.00     0.005 C 
ATOM     20  C   UNL     1     174.976 168.769 172.118  1.00  0.00     0.003 C 
ATOM     21  C   UNL     1     172.889 169.856 173.266  1.00  0.00     0.031 C 
ATOM     22  C   UNL     1     175.510 170.245 171.957  1.00  0.00    -0.008 C 
ATOM     23  C   UNL     1     173.915 170.836 173.782  1.00  0.00    -0.027 C 
ATOM     24  C   UNL     1     175.096 171.060 173.174  1.00  0.00    -0.065 C 
ATOM     25  C   UNL     1     177.065 170.281 171.828  1.00  0.00     0.014 C 
ATOM     26  C   UNL     1     174.897 170.880 170.679  1.00  0.00     0.016 C 
ATOM     27  C   UNL     1     176.065 172.056 173.778  1.00  0.00     0.063 C 
ATOM     28  C   UNL     1     177.662 171.705 171.795  1.00  0.00     0.033 C 
ATOM     29  C   UNL     1     176.908 172.727 172.682  1.00  0.00     0.118 C 
BRANCH  29  30
ATOM     30  O   UNL     1     177.832 173.613 173.263  1.00  0.00    -0.393 OA
ATOM     31  H   UNL     1     178.433 173.067 173.836  1.00  0.00     0.210 HD
ENDBRANCH  29  30
ENDBRANCH   1  11
TORSDOF 6
ENDMDL
MODEL 8
REMARK VINA RESULT:    -6.275      5.069      6.705
REMARK INTER + INTRA:          -9.589
REMARK INTER:                  -8.597
REMARK INTRA:                  -0.992
REMARK UNBOUND:                -1.296
REMARK SMILES CC[C@H](C=C[C@@H](C)[C@@H]1CC[C@@H]2[C@H]3CC=C4C[C@@H](O)CC[C@@]4(C)[C@H]3CC[C@@]21C)C(C)C
REMARK SMILES IDX 6 1 7 2 5 3 4 4 3 5 2 6 1 7 28 8 29 9 30 10 8 11 9 12 26 13
REMARK SMILES IDX 10 14 11 15 25 16 27 17 12 18 24 19 23 20 13 21 21 22 14 23
REMARK SMILES IDX 15 24 20 25 22 26 16 27 19 28 17 29 18 30
REMARK H PARENT 18 31
REMARK Flexibility Score: inf
ROOT
ATOM      1  C   UNL     1     174.210 170.164 170.455  1.00  0.00     0.012 C 
ATOM      2  C   UNL     1     174.294 169.616 169.017  1.00  0.00     0.012 C 
ENDROOT
BRANCH   1   3
ATOM      3  C   UNL     1     175.604 170.517 170.931  1.00  0.00    -0.028 C 
ATOM      4  C   UNL     1     175.835 171.364 171.949  1.00  0.00    -0.027 C 
BRANCH   4   5
ATOM      5  C   UNL     1     177.221 171.549 172.544  1.00  0.00     0.014 C 
BRANCH   5   6
ATOM      6  C   UNL     1     178.328 171.016 171.595  1.00  0.00     0.004 C 
ATOM      7  C   UNL     1     179.635 171.802 171.687  1.00  0.00     0.004 C 
ENDBRANCH   5   6
BRANCH   5   8
ATOM      8  C   UNL     1     177.434 173.045 172.939  1.00  0.00    -0.011 C 
ATOM      9  C   UNL     1     177.041 174.001 171.801  1.00  0.00     0.008 C 
ATOM     10  C   UNL     1     176.711 173.445 174.238  1.00  0.00     0.008 C 
ENDBRANCH   5   8
ENDBRANCH   4   5
ENDBRANCH   1   3
BRANCH   1  11
ATOM     11  C   UNL     1     173.438 169.182 171.406  1.00  0.00     0.002 C 
ATOM     12  C   UNL     1     173.191 167.822 170.722  1.00  0.00     0.005 C 
ATOM     13  C   UNL     1     172.034 169.628 171.937  1.00  0.00    -0.026 C 
ATOM     14  C   UNL     1     171.844 167.297 171.204  1.00  0.00     0.005 C 
ATOM     15  C   UNL     1     171.352 168.276 172.270  1.00  0.00    -0.001 C 
ATOM     16  C   UNL     1     171.233 170.388 170.848  1.00  0.00     0.007 C 
ATOM     17  C   UNL     1     172.173 170.492 173.213  1.00  0.00     0.012 C 
ATOM     18  C   UNL     1     169.794 168.283 172.400  1.00  0.00     0.000 C 
ATOM     19  C   UNL     1     169.742 170.516 171.162  1.00  0.00     0.005 C 
ATOM     20  C   UNL     1     169.068 169.130 171.307  1.00  0.00     0.003 C 
ATOM     21  C   UNL     1     169.325 168.586 173.855  1.00  0.00     0.031 C 
ATOM     22  C   UNL     1     167.519 169.200 171.598  1.00  0.00    -0.008 C 
ATOM     23  C   UNL     1     168.158 169.536 173.985  1.00  0.00    -0.027 C 
ATOM     24  C   UNL     1     167.297 169.793 172.982  1.00  0.00    -0.065 C 
ATOM     25  C   UNL     1     166.776 170.080 170.544  1.00  0.00     0.014 C 
ATOM     26  C   UNL     1     166.919 167.767 171.550  1.00  0.00     0.016 C 
ATOM     27  C   UNL     1     166.164 170.772 173.208  1.00  0.00     0.063 C 
ATOM     28  C   UNL     1     165.276 170.292 170.843  1.00  0.00     0.033 C 
ATOM     29  C   UNL     1     164.942 170.397 172.352  1.00  0.00     0.118 C 
BRANCH  29  30
ATOM     30  O   UNL     1     163.918 171.341 172.540  1.00  0.00    -0.393 OA
ATOM     31  H   UNL     1     163.882 171.895 171.716  1.00  0.00     0.210 HD
ENDBRANCH  29  30
ENDBRANCH   1  11
TORSDOF 6
ENDMDL
MODEL 9
REMARK VINA RESULT:    -6.002      5.142      6.643
REMARK INTER + INTRA:          -9.228
REMARK INTER:                  -8.234
REMARK INTRA:                  -0.994
REMARK UNBOUND:                -1.296
REMARK SMILES CC[C@H](C=C[C@@H](C)[C@@H]1CC[C@@H]2[C@H]3CC=C4C[C@@H](O)CC[C@@]4(C)[C@H]3CC[C@@]21C)C(C)C
REMARK SMILES IDX 6 1 7 2 5 3 4 4 3 5 2 6 1 7 28 8 29 9 30 10 8 11 9 12 26 13
REMARK SMILES IDX 10 14 11 15 25 16 27 17 12 18 24 19 23 20 13 21 21 22 14 23
REMARK SMILES IDX 15 24 20 25 22 26 16 27 19 28 17 29 18 30
REMARK H PARENT 18 31
REMARK Flexibility Score: inf
ROOT
ATOM      1  C   UNL     1     172.854 170.275 173.456  1.00  0.00     0.012 C 
ATOM      2  C   UNL     1     173.226 171.080 174.716  1.00  0.00     0.012 C 
ENDROOT
BRANCH   1   3
ATOM      3  C   UNL     1     174.090 170.107 172.596  1.00  0.00    -0.028 C 
ATOM      4  C   UNL     1     175.268 170.683 172.892  1.00  0.00    -0.027 C 
BRANCH   4   5
ATOM      5  C   UNL     1     176.543 170.343 172.139  1.00  0.00     0.014 C 
BRANCH   5   6
ATOM      6  C   UNL     1     176.254 169.985 170.656  1.00  0.00     0.004 C 
ATOM      7  C   UNL     1     176.597 168.539 170.303  1.00  0.00     0.004 C 
ENDBRANCH   5   6
BRANCH   5   8
ATOM      8  C   UNL     1     177.575 171.506 172.288  1.00  0.00    -0.011 C 
ATOM      9  C   UNL     1     176.999 172.849 171.812  1.00  0.00     0.008 C 
ATOM     10  C   UNL     1     178.137 171.648 173.715  1.00  0.00     0.008 C 
ENDBRANCH   5   8
ENDBRANCH   4   5
ENDBRANCH   1   3
BRANCH   1  11
ATOM     11  C   UNL     1     171.631 170.910 172.702  1.00  0.00     0.002 C 
ATOM     12  C   UNL     1     170.740 171.720 173.666  1.00  0.00     0.005 C 
ATOM     13  C   UNL     1     170.647 169.945 171.958  1.00  0.00    -0.026 C 
ATOM     14  C   UNL     1     169.296 171.564 173.207  1.00  0.00     0.005 C 
ATOM     15  C   UNL     1     169.339 170.774 171.898  1.00  0.00    -0.001 C 
ATOM     16  C   UNL     1     170.426 168.636 172.759  1.00  0.00     0.007 C 
ATOM     17  C   UNL     1     171.154 169.631 170.530  1.00  0.00     0.012 C 
ATOM     18  C   UNL     1     168.015 169.986 171.634  1.00  0.00     0.000 C 
ATOM     19  C   UNL     1     169.214 167.830 172.294  1.00  0.00     0.005 C 
ATOM     20  C   UNL     1     167.903 168.645 172.424  1.00  0.00     0.003 C 
ATOM     21  C   UNL     1     167.700 169.856 170.112  1.00  0.00     0.031 C 
ATOM     22  C   UNL     1     166.611 167.850 171.990  1.00  0.00    -0.008 C 
ATOM     23  C   UNL     1     167.205 168.505 169.657  1.00  0.00    -0.027 C 
ATOM     24  C   UNL     1     166.663 167.596 170.490  1.00  0.00    -0.065 C 
ATOM     25  C   UNL     1     166.501 166.482 172.733  1.00  0.00     0.014 C 
ATOM     26  C   UNL     1     165.350 168.693 172.325  1.00  0.00     0.016 C 
ATOM     27  C   UNL     1     166.206 166.261 169.937  1.00  0.00     0.063 C 
ATOM     28  C   UNL     1     165.325 165.600 172.260  1.00  0.00     0.033 C 
ATOM     29  C   UNL     1     165.017 165.716 170.747  1.00  0.00     0.118 C 
BRANCH  29  30
ATOM     30  O   UNL     1     164.637 164.457 170.250  1.00  0.00    -0.393 OA
ATOM     31  H   UNL     1     165.093 163.776 170.810  1.00  0.00     0.210 HD
ENDBRANCH  29  30
ENDBRANCH   1  11
TORSDOF 6
ENDMDL
