MODEL 1
REMARK VINA RESULT:    -4.548      0.000      0.000
REMARK INTER + INTRA:          -5.794
REMARK INTER:                  -5.612
REMARK INTRA:                  -0.182
REMARK UNBOUND:                -0.182
REMARK SMILES CCCCC(=O)c1ccccc1
REMARK SMILES IDX 4 1 3 2 2 3 1 4 5 5 6 6 7 7 8 8 12 9 9 10 11 11 10 12
REMARK H PARENT
REMARK Flexibility Score: inf
ROOT
ATOM      1  C   UNL     1      31.586 167.975 156.438  1.00  0.00     0.081 C 
ENDROOT
BRANCH   1   2
ATOM      2  C   UNL     1      32.605 166.832 156.315  1.00  0.00     0.008 C 
BRANCH   2   3
ATOM      3  C   UNL     1      33.497 166.755 157.559  1.00  0.00    -0.003 C 
ATOM      4  C   UNL     1      33.305 165.430 158.293  1.00  0.00     0.004 C 
ENDBRANCH   2   3
ENDBRANCH   1   2
BRANCH   1   5
ATOM      5  C   UNL     1      30.414 167.831 155.495  1.00  0.00     0.162 C 
ATOM      6  O   UNL     1      30.245 166.743 154.875  1.00  0.00    -0.294 OA
BRANCH   5   7
ATOM      7  C   UNL     1      29.450 168.945 155.281  1.00  0.00     0.017 A 
ATOM      8  C   UNL     1      28.064 168.686 155.272  1.00  0.00     0.012 A 
ATOM      9  C   UNL     1      29.889 170.271 155.084  1.00  0.00     0.012 A 
ATOM     10  C   UNL     1      27.148 169.723 155.072  1.00  0.00     0.001 A 
ATOM     11  C   UNL     1      28.967 171.303 154.885  1.00  0.00     0.001 A 
ATOM     12  C   UNL     1      27.598 171.030 154.879  1.00  0.00     0.000 A 
ENDBRANCH   5   7
ENDBRANCH   1   5
TORSDOF 4
ENDMDL
MODEL 2
REMARK VINA RESULT:    -4.496      0.836      1.670
REMARK INTER + INTRA:          -5.729
REMARK INTER:                  -5.471
REMARK INTRA:                  -0.259
REMARK UNBOUND:                -0.182
REMARK SMILES CCCCC(=O)c1ccccc1
REMARK SMILES IDX 4 1 3 2 2 3 1 4 5 5 6 6 7 7 8 8 12 9 9 10 11 11 10 12
REMARK H PARENT
REMARK Flexibility Score: inf
ROOT
ATOM      1  C   UNL     1      32.020 167.609 156.993  1.00  0.00     0.081 C 
ENDROOT
BRANCH   1   2
ATOM      2  C   UNL     1      33.344 166.843 156.853  1.00  0.00     0.008 C 
BRANCH   2   3
ATOM      3  C   UNL     1      33.524 165.843 158.000  1.00  0.00    -0.003 C 
ATOM      4  C   UNL     1      32.183 165.485 158.636  1.00  0.00     0.004 C 
ENDBRANCH   2   3
ENDBRANCH   1   2
BRANCH   1   5
ATOM      5  C   UNL     1      31.106 167.441 155.801  1.00  0.00     0.162 C 
ATOM      6  O   UNL     1      31.310 166.493 154.991  1.00  0.00    -0.294 OA
BRANCH   5   7
ATOM      7  C   UNL     1      29.968 168.369 155.560  1.00  0.00     0.017 A 
ATOM      8  C   UNL     1      30.213 169.682 155.106  1.00  0.00     0.012 A 
ATOM      9  C   UNL     1      28.632 167.969 155.774  1.00  0.00     0.012 A 
ATOM     10  C   UNL     1      29.153 170.564 154.875  1.00  0.00     0.001 A 
ATOM     11  C   UNL     1      27.578 168.857 155.541  1.00  0.00     0.001 A 
ATOM     12  C   UNL     1      27.838 170.153 155.093  1.00  0.00     0.000 A 
ENDBRANCH   5   7
ENDBRANCH   1   5
TORSDOF 4
ENDMDL
MODEL 3
REMARK VINA RESULT:    -4.280      1.112      5.250
REMARK INTER + INTRA:          -5.462
REMARK INTER:                  -5.164
REMARK INTRA:                  -0.299
REMARK UNBOUND:                -0.182
REMARK SMILES CCCCC(=O)c1ccccc1
REMARK SMILES IDX 4 1 3 2 2 3 1 4 5 5 6 6 7 7 8 8 12 9 9 10 11 11 10 12
REMARK H PARENT
REMARK Flexibility Score: inf
ROOT
ATOM      1  C   UNL     1      28.720 168.420 155.340  1.00  0.00     0.081 C 
ENDROOT
BRANCH   1   2
ATOM      2  C   UNL     1      29.538 169.634 154.875  1.00  0.00     0.008 C 
BRANCH   2   3
ATOM      3  C   UNL     1      28.683 170.906 154.876  1.00  0.00    -0.003 C 
ATOM      4  C   UNL     1      29.534 172.142 155.156  1.00  0.00     0.004 C 
ENDBRANCH   2   3
ENDBRANCH   1   2
BRANCH   1   5
ATOM      5  C   UNL     1      29.543 167.158 155.459  1.00  0.00     0.162 C 
ATOM      6  O   UNL     1      29.156 166.106 154.875  1.00  0.00    -0.294 OA
BRANCH   5   7
ATOM      7  C   UNL     1      30.804 167.126 156.251  1.00  0.00     0.017 A 
ATOM      8  C   UNL     1      32.050 167.143 155.592  1.00  0.00     0.012 A 
ATOM      9  C   UNL     1      30.787 167.080 157.660  1.00  0.00     0.012 A 
ATOM     10  C   UNL     1      33.242 167.113 156.323  1.00  0.00     0.001 A 
ATOM     11  C   UNL     1      31.983 167.051 158.384  1.00  0.00     0.001 A 
ATOM     12  C   UNL     1      33.208 167.067 157.717  1.00  0.00     0.000 A 
ENDBRANCH   5   7
ENDBRANCH   1   5
TORSDOF 4
ENDMDL
MODEL 4
REMARK VINA RESULT:    -4.187      2.706      5.567
REMARK INTER + INTRA:          -5.348
REMARK INTER:                  -4.903
REMARK INTRA:                  -0.445
REMARK UNBOUND:                -0.182
REMARK SMILES CCCCC(=O)c1ccccc1
REMARK SMILES IDX 4 1 3 2 2 3 1 4 5 5 6 6 7 7 8 8 12 9 9 10 11 11 10 12
REMARK H PARENT
REMARK Flexibility Score: inf
ROOT
ATOM      1  C   UNL     1      33.079 167.115 156.679  1.00  0.00     0.081 C 
ENDROOT
BRANCH   1   2
ATOM      2  C   UNL     1      32.027 166.745 155.624  1.00  0.00     0.008 C 
BRANCH   2   3
ATOM      3  C   UNL     1      31.383 168.000 155.025  1.00  0.00    -0.003 C 
ATOM      4  C   UNL     1      30.020 168.274 155.656  1.00  0.00     0.004 C 
ENDBRANCH   2   3
ENDBRANCH   1   2
BRANCH   1   5
ATOM      5  C   UNL     1      33.130 166.143 157.836  1.00  0.00     0.162 C 
ATOM      6  O   UNL     1      34.026 165.253 157.861  1.00  0.00    -0.294 OA
BRANCH   5   7
ATOM      7  C   UNL     1      32.145 166.213 158.951  1.00  0.00     0.017 A 
ATOM      8  C   UNL     1      32.072 165.166 159.893  1.00  0.00     0.012 A 
ATOM      9  C   UNL     1      31.271 167.311 159.094  1.00  0.00     0.012 A 
ATOM     10  C   UNL     1      31.152 165.219 160.944  1.00  0.00     0.001 A 
ATOM     11  C   UNL     1      30.354 167.356 160.149  1.00  0.00     0.001 A 
ATOM     12  C   UNL     1      30.294 166.312 161.072  1.00  0.00     0.000 A 
ENDBRANCH   5   7
ENDBRANCH   1   5
TORSDOF 4
ENDMDL
MODEL 5
REMARK VINA RESULT:    -4.137      3.501      5.855
REMARK INTER + INTRA:          -5.286
REMARK INTER:                  -4.983
REMARK INTRA:                  -0.303
REMARK UNBOUND:                -0.182
REMARK SMILES CCCCC(=O)c1ccccc1
REMARK SMILES IDX 4 1 3 2 2 3 1 4 5 5 6 6 7 7 8 8 12 9 9 10 11 11 10 12
REMARK H PARENT
REMARK Flexibility Score: inf
ROOT
ATOM      1  C   UNL     1      32.181 167.462 157.828  1.00  0.00     0.081 C 
ENDROOT
BRANCH   1   2
ATOM      2  C   UNL     1      32.925 167.127 156.527  1.00  0.00     0.008 C 
BRANCH   2   3
ATOM      3  C   UNL     1      32.046 167.408 155.303  1.00  0.00    -0.003 C 
ATOM      4  C   UNL     1      30.929 166.376 155.177  1.00  0.00     0.004 C 
ENDBRANCH   2   3
ENDBRANCH   1   2
BRANCH   1   5
ATOM      5  C   UNL     1      32.012 166.269 158.741  1.00  0.00     0.162 C 
ATOM      6  O   UNL     1      32.494 165.152 158.399  1.00  0.00    -0.294 OA
BRANCH   5   7
ATOM      7  C   UNL     1      31.289 166.381 160.038  1.00  0.00     0.017 A 
ATOM      8  C   UNL     1      30.208 167.277 160.167  1.00  0.00     0.012 A 
ATOM      9  C   UNL     1      31.659 165.606 161.157  1.00  0.00     0.012 A 
ATOM     10  C   UNL     1      29.521 167.393 161.378  1.00  0.00     0.001 A 
ATOM     11  C   UNL     1      30.966 165.727 162.365  1.00  0.00     0.001 A 
ATOM     12  C   UNL     1      29.900 166.619 162.476  1.00  0.00     0.000 A 
ENDBRANCH   5   7
ENDBRANCH   1   5
TORSDOF 4
ENDMDL
MODEL 6
REMARK VINA RESULT:    -4.134     22.507     23.504
REMARK INTER + INTRA:          -5.283
REMARK INTER:                  -4.562
REMARK INTRA:                  -0.721
REMARK UNBOUND:                -0.182
REMARK SMILES CCCCC(=O)c1ccccc1
REMARK SMILES IDX 4 1 3 2 2 3 1 4 5 5 6 6 7 7 8 8 12 9 9 10 11 11 10 12
REMARK H PARENT
REMARK Flexibility Score: inf
ROOT
ATOM      1  C   UNL     1      40.616 181.376 174.191  1.00  0.00     0.081 C 
ENDROOT
BRANCH   1   2
ATOM      2  C   UNL     1      40.424 182.883 173.964  1.00  0.00     0.008 C 
BRANCH   2   3
ATOM      3  C   UNL     1      39.434 183.470 174.977  1.00  0.00    -0.003 C 
ATOM      4  C   UNL     1      38.417 184.379 174.291  1.00  0.00     0.004 C 
ENDBRANCH   2   3
ENDBRANCH   1   2
BRANCH   1   5
ATOM      5  C   UNL     1      39.816 180.523 173.232  1.00  0.00     0.162 C 
ATOM      6  O   UNL     1      40.264 179.395 172.884  1.00  0.00    -0.294 OA
BRANCH   5   7
ATOM      7  C   UNL     1      38.510 180.985 172.689  1.00  0.00     0.017 A 
ATOM      8  C   UNL     1      38.437 181.521 171.387  1.00  0.00     0.012 A 
ATOM      9  C   UNL     1      37.324 180.900 173.449  1.00  0.00     0.012 A 
ATOM     10  C   UNL     1      37.216 181.957 170.864  1.00  0.00     0.001 A 
ATOM     11  C   UNL     1      36.107 181.338 172.919  1.00  0.00     0.001 A 
ATOM     12  C   UNL     1      36.053 181.867 171.629  1.00  0.00     0.000 A 
ENDBRANCH   5   7
ENDBRANCH   1   5
TORSDOF 4
ENDMDL
MODEL 7
REMARK VINA RESULT:    -4.104      3.876      5.742
REMARK INTER + INTRA:          -5.245
REMARK INTER:                  -5.013
REMARK INTRA:                  -0.232
REMARK UNBOUND:                -0.182
REMARK SMILES CCCCC(=O)c1ccccc1
REMARK SMILES IDX 4 1 3 2 2 3 1 4 5 5 6 6 7 7 8 8 12 9 9 10 11 11 10 12
REMARK H PARENT
REMARK Flexibility Score: inf
ROOT
ATOM      1  C   UNL     1      29.554 167.089 160.022  1.00  0.00     0.081 C 
ENDROOT
BRANCH   1   2
ATOM      2  C   UNL     1      29.448 167.797 161.380  1.00  0.00     0.008 C 
BRANCH   2   3
ATOM      3  C   UNL     1      28.293 168.805 161.387  1.00  0.00    -0.003 C 
ATOM      4  C   UNL     1      28.666 170.066 162.163  1.00  0.00     0.004 C 
ENDBRANCH   2   3
ENDBRANCH   1   2
BRANCH   1   5
ATOM      5  C   UNL     1      30.957 166.626 159.700  1.00  0.00     0.162 C 
ATOM      6  O   UNL     1      31.623 166.006 160.576  1.00  0.00    -0.294 OA
BRANCH   5   7
ATOM      7  C   UNL     1      31.572 166.885 158.369  1.00  0.00     0.017 A 
ATOM      8  C   UNL     1      32.940 166.613 158.160  1.00  0.00     0.012 A 
ATOM      9  C   UNL     1      30.816 167.402 157.296  1.00  0.00     0.012 A 
ATOM     10  C   UNL     1      33.530 166.851 156.915  1.00  0.00     0.001 A 
ATOM     11  C   UNL     1      31.414 167.636 156.054  1.00  0.00     0.001 A 
ATOM     12  C   UNL     1      32.768 167.362 155.864  1.00  0.00     0.000 A 
ENDBRANCH   5   7
ENDBRANCH   1   5
TORSDOF 4
ENDMDL
MODEL 8
REMARK VINA RESULT:    -4.078     22.120     23.317
REMARK INTER + INTRA:          -5.213
REMARK INTER:                  -4.861
REMARK INTRA:                  -0.352
REMARK UNBOUND:                -0.182
REMARK SMILES CCCCC(=O)c1ccccc1
REMARK SMILES IDX 4 1 3 2 2 3 1 4 5 5 6 6 7 7 8 8 12 9 9 10 11 11 10 12
REMARK H PARENT
REMARK Flexibility Score: inf
ROOT
ATOM      1  C   UNL     1      35.879 182.529 171.385  1.00  0.00     0.081 C 
ENDROOT
BRANCH   1   2
ATOM      2  C   UNL     1      36.485 182.483 169.974  1.00  0.00     0.008 C 
BRANCH   2   3
ATOM      3  C   UNL     1      36.447 183.867 169.315  1.00  0.00    -0.003 C 
ATOM      4  C   UNL     1      36.106 183.761 167.831  1.00  0.00     0.004 C 
ENDBRANCH   2   3
ENDBRANCH   1   2
BRANCH   1   5
ATOM      5  C   UNL     1      36.652 181.707 172.391  1.00  0.00     0.162 C 
ATOM      6  O   UNL     1      36.165 180.620 172.810  1.00  0.00    -0.294 OA
BRANCH   5   7
ATOM      7  C   UNL     1      37.978 182.153 172.900  1.00  0.00     0.017 A 
ATOM      8  C   UNL     1      38.078 183.328 173.674  1.00  0.00     0.012 A 
ATOM      9  C   UNL     1      39.154 181.423 172.629  1.00  0.00     0.012 A 
ATOM     10  C   UNL     1      39.317 183.757 174.158  1.00  0.00     0.001 A 
ATOM     11  C   UNL     1      40.390 181.859 173.118  1.00  0.00     0.001 A 
ATOM     12  C   UNL     1      40.471 183.024 173.880  1.00  0.00     0.000 A 
ENDBRANCH   5   7
ENDBRANCH   1   5
TORSDOF 4
ENDMDL
MODEL 9
REMARK VINA RESULT:    -4.002      3.397      5.408
REMARK INTER + INTRA:          -5.120
REMARK INTER:                  -4.599
REMARK INTRA:                  -0.522
REMARK UNBOUND:                -0.182
REMARK SMILES CCCCC(=O)c1ccccc1
REMARK SMILES IDX 4 1 3 2 2 3 1 4 5 5 6 6 7 7 8 8 12 9 9 10 11 11 10 12
REMARK H PARENT
REMARK Flexibility Score: inf
ROOT
ATOM      1  C   UNL     1      30.070 167.427 160.532  1.00  0.00     0.081 C 
ENDROOT
BRANCH   1   2
ATOM      2  C   UNL     1      29.378 166.440 161.484  1.00  0.00     0.008 C 
BRANCH   2   3
ATOM      3  C   UNL     1      30.282 165.238 161.781  1.00  0.00    -0.003 C 
ATOM      4  C   UNL     1      31.644 165.689 162.303  1.00  0.00     0.004 C 
ENDBRANCH   2   3
ENDBRANCH   1   2
BRANCH   1   5
ATOM      5  C   UNL     1      30.054 166.973 159.090  1.00  0.00     0.162 C 
ATOM      6  O   UNL     1      28.962 166.622 158.561  1.00  0.00    -0.294 OA
BRANCH   5   7
ATOM      7  C   UNL     1      31.301 166.933 158.277  1.00  0.00     0.017 A 
ATOM      8  C   UNL     1      31.333 167.543 157.006  1.00  0.00     0.012 A 
ATOM      9  C   UNL     1      32.467 166.294 158.748  1.00  0.00     0.012 A 
ATOM     10  C   UNL     1      32.497 167.513 156.232  1.00  0.00     0.001 A 
ATOM     11  C   UNL     1      33.627 166.268 157.968  1.00  0.00     0.001 A 
ATOM     12  C   UNL     1      33.642 166.876 156.712  1.00  0.00     0.000 A 
ENDBRANCH   5   7
ENDBRANCH   1   5
TORSDOF 4
ENDMDL
