MODEL 1
REMARK VINA RESULT:    -5.788      0.000      0.000
REMARK INTER + INTRA:          -5.842
REMARK INTER:                  -6.295
REMARK INTRA:                   0.453
REMARK UNBOUND:                 0.453
REMARK SMILES C=C1C[C@@]2(O)O[C@@]3(C[C@@H]2C(C)C)[C@H](C)CC[C@@H]13
REMARK SMILES IDX 14 1 13 2 15 3 16 4 17 5 7 6 8 7 9 8 4 9 6 10 3 11 2 12 1 13
REMARK SMILES IDX 10 14 11 15 12 16 5 17
REMARK H PARENT 5 18
REMARK Flexibility Score: inf
ROOT
ATOM      1  C   UNL     1     -11.044  18.900 -11.579  1.00  0.00     0.011 C 
ATOM      2  C   UNL     1     -10.755  19.250 -10.105  1.00  0.00     0.019 C 
ATOM      3  C   UNL     1     -10.190  20.673  -9.996  1.00  0.00     0.007 C 
ATOM      4  C   UNL     1      -8.664  20.547  -9.935  1.00  0.00     0.011 C 
ATOM      5  C   UNL     1      -8.343  19.047  -9.880  1.00  0.00     0.047 C 
ATOM      6  C   UNL     1      -9.666  18.375  -9.459  1.00  0.00     0.081 C 
ATOM      7  C   UNL     1      -9.704  16.882  -9.807  1.00  0.00     0.046 C 
ATOM      8  C   UNL     1      -9.130  16.220  -8.554  1.00  0.00     0.054 C 
ATOM      9  C   UNL     1      -8.924  17.424  -7.590  1.00  0.00     0.173 C 
ATOM     10  O   UNL     1      -9.781  18.443  -8.053  1.00  0.00    -0.342 OA
ATOM     11  C   UNL     1      -7.468  17.959  -7.643  1.00  0.00     0.096 C 
ATOM     12  C   UNL     1      -7.204  18.724  -8.925  1.00  0.00    -0.066 C 
ATOM     13  C   UNL     1      -5.958  19.126  -9.209  1.00  0.00     0.008 C 
ENDROOT
BRANCH   8  14
ATOM     14  C   UNL     1     -10.010  15.058  -7.987  1.00  0.00    -0.009 C 
ATOM     15  C   UNL     1      -9.326  14.387  -6.786  1.00  0.00     0.008 C 
ATOM     16  C   UNL     1     -10.417  13.992  -9.026  1.00  0.00     0.008 C 
ENDBRANCH   8  14
BRANCH   9  17
ATOM     17  O   UNL     1      -9.240  17.083  -6.262  1.00  0.00    -0.365 OA
ATOM     18  H   UNL     1     -10.135  16.652  -6.272  1.00  0.00     0.214 HD
ENDBRANCH   9  17
TORSDOF 2
ENDMDL
MODEL 2
REMARK VINA RESULT:    -5.649      2.004      3.585
REMARK INTER + INTRA:          -5.690
REMARK INTER:                  -5.431
REMARK INTRA:                  -0.260
REMARK UNBOUND:                 0.453
REMARK SMILES C=C1C[C@@]2(O)O[C@@]3(C[C@@H]2C(C)C)[C@H](C)CC[C@@H]13
REMARK SMILES IDX 14 1 13 2 15 3 16 4 17 5 7 6 8 7 9 8 4 9 6 10 3 11 2 12 1 13
REMARK SMILES IDX 10 14 11 15 12 16 5 17
REMARK H PARENT 5 18
REMARK Flexibility Score: inf
ROOT
ATOM      1  C   UNL     1      -9.336  22.247  -7.717  1.00  0.00     0.011 C 
ATOM      2  C   UNL     1      -8.670  21.553  -8.923  1.00  0.00     0.019 C 
ATOM      3  C   UNL     1      -8.973  22.323 -10.215  1.00  0.00     0.007 C 
ATOM      4  C   UNL     1     -10.168  21.631 -10.881  1.00  0.00     0.011 C 
ATOM      5  C   UNL     1     -10.483  20.384 -10.045  1.00  0.00     0.047 C 
ATOM      6  C   UNL     1      -9.212  20.140  -9.205  1.00  0.00     0.081 C 
ATOM      7  C   UNL     1      -9.479  19.260  -7.977  1.00  0.00     0.046 C 
ATOM      8  C   UNL     1      -9.234  17.847  -8.506  1.00  0.00     0.054 C 
ATOM      9  C   UNL     1      -8.754  18.100  -9.964  1.00  0.00     0.173 C 
ATOM     10  O   UNL     1      -8.279  19.427  -9.991  1.00  0.00    -0.342 OA
ATOM     11  C   UNL     1      -9.920  17.983 -10.980  1.00  0.00     0.096 C 
ATOM     12  C   UNL     1     -10.847  19.179 -10.899  1.00  0.00    -0.066 C 
ATOM     13  C   UNL     1     -11.992  19.176 -11.598  1.00  0.00     0.008 C 
ENDROOT
BRANCH   8  14
ATOM     14  C   UNL     1      -8.261  16.996  -7.624  1.00  0.00    -0.009 C 
ATOM     15  C   UNL     1      -9.040  16.132  -6.622  1.00  0.00     0.008 C 
ATOM     16  C   UNL     1      -7.178  17.814  -6.887  1.00  0.00     0.008 C 
ENDBRANCH   8  14
BRANCH   9  17
ATOM     17  O   UNL     1      -7.731  17.206 -10.334  1.00  0.00    -0.365 OA
ATOM     18  H   UNL     1      -8.153  16.322 -10.493  1.00  0.00     0.214 HD
ENDBRANCH   9  17
TORSDOF 2
ENDMDL
MODEL 3
REMARK VINA RESULT:    -5.222      2.743      4.508
REMARK INTER + INTRA:          -5.227
REMARK INTER:                  -5.046
REMARK INTRA:                  -0.181
REMARK UNBOUND:                 0.453
REMARK SMILES C=C1C[C@@]2(O)O[C@@]3(C[C@@H]2C(C)C)[C@H](C)CC[C@@H]13
REMARK SMILES IDX 14 1 13 2 15 3 16 4 17 5 7 6 8 7 9 8 4 9 6 10 3 11 2 12 1 13
REMARK SMILES IDX 10 14 11 15 12 16 5 17
REMARK H PARENT 5 18
REMARK Flexibility Score: inf
ROOT
ATOM      1  C   UNL     1     -11.039  18.551 -11.623  1.00  0.00     0.011 C 
ATOM      2  C   UNL     1     -11.302  19.353 -10.332  1.00  0.00     0.019 C 
ATOM      3  C   UNL     1     -12.616  20.138 -10.452  1.00  0.00     0.007 C 
ATOM      4  C   UNL     1     -12.251  21.562 -10.884  1.00  0.00     0.011 C 
ATOM      5  C   UNL     1     -10.719  21.644 -10.895  1.00  0.00     0.047 C 
ATOM      6  C   UNL     1     -10.252  20.441 -10.050  1.00  0.00     0.081 C 
ATOM      7  C   UNL     1      -8.792  20.060 -10.325  1.00  0.00     0.046 C 
ATOM      8  C   UNL     1      -8.018  20.898  -9.308  1.00  0.00     0.054 C 
ATOM      9  C   UNL     1      -9.150  21.591  -8.497  1.00  0.00     0.173 C 
ATOM     10  O   UNL     1     -10.302  20.800  -8.684  1.00  0.00    -0.342 OA
ATOM     11  C   UNL     1      -9.451  23.015  -9.032  1.00  0.00     0.096 C 
ATOM     12  C   UNL     1     -10.197  22.966 -10.351  1.00  0.00    -0.066 C 
ATOM     13  C   UNL     1     -10.405  24.100 -11.034  1.00  0.00     0.008 C 
ENDROOT
BRANCH   8  14
ATOM     14  C   UNL     1      -6.994  20.079  -8.455  1.00  0.00    -0.009 C 
ATOM     15  C   UNL     1      -5.679  19.874  -9.221  1.00  0.00     0.008 C 
ATOM     16  C   UNL     1      -7.523  18.723  -7.940  1.00  0.00     0.008 C 
ENDBRANCH   8  14
BRANCH   9  17
ATOM     17  O   UNL     1      -8.830  21.673  -7.128  1.00  0.00    -0.365 OA
ATOM     18  H   UNL     1      -8.036  21.096  -6.975  1.00  0.00     0.214 HD
ENDBRANCH   9  17
TORSDOF 2
ENDMDL
MODEL 4
REMARK VINA RESULT:    -4.996      2.196      3.497
REMARK INTER + INTRA:          -4.980
REMARK INTER:                  -4.803
REMARK INTRA:                  -0.177
REMARK UNBOUND:                 0.453
REMARK SMILES C=C1C[C@@]2(O)O[C@@]3(C[C@@H]2C(C)C)[C@H](C)CC[C@@H]13
REMARK SMILES IDX 14 1 13 2 15 3 16 4 17 5 7 6 8 7 9 8 4 9 6 10 3 11 2 12 1 13
REMARK SMILES IDX 10 14 11 15 12 16 5 17
REMARK H PARENT 5 18
REMARK Flexibility Score: inf
ROOT
ATOM      1  C   UNL     1     -12.935  19.699  -9.022  1.00  0.00     0.011 C 
ATOM      2  C   UNL     1     -11.956  20.703  -8.380  1.00  0.00     0.019 C 
ATOM      3  C   UNL     1     -12.305  22.135  -8.807  1.00  0.00     0.007 C 
ATOM      4  C   UNL     1     -11.393  22.487  -9.988  1.00  0.00     0.011 C 
ATOM      5  C   UNL     1     -10.427  21.309 -10.170  1.00  0.00     0.047 C 
ATOM      6  C   UNL     1     -10.497  20.531  -8.840  1.00  0.00     0.081 C 
ATOM      7  C   UNL     1      -9.997  19.087  -8.976  1.00  0.00     0.046 C 
ATOM      8  C   UNL     1      -8.505  19.207  -8.666  1.00  0.00     0.054 C 
ATOM      9  C   UNL     1      -8.350  20.709  -8.288  1.00  0.00     0.173 C 
ATOM     10  O   UNL     1      -9.634  21.147  -7.907  1.00  0.00    -0.342 OA
ATOM     11  C   UNL     1      -7.888  21.561  -9.499  1.00  0.00     0.096 C 
ATOM     12  C   UNL     1      -9.010  21.756 -10.500  1.00  0.00    -0.066 C 
ATOM     13  C   UNL     1      -8.749  22.338 -11.678  1.00  0.00     0.008 C 
ENDROOT
BRANCH   8  14
ATOM     14  C   UNL     1      -7.994  18.194  -7.590  1.00  0.00    -0.009 C 
ATOM     15  C   UNL     1      -6.597  17.666  -7.952  1.00  0.00     0.008 C 
ATOM     16  C   UNL     1      -8.949  17.014  -7.311  1.00  0.00     0.008 C 
ENDBRANCH   8  14
BRANCH   9  17
ATOM     17  O   UNL     1      -7.438  20.883  -7.229  1.00  0.00    -0.365 OA
ATOM     18  H   UNL     1      -6.610  20.390  -7.468  1.00  0.00     0.214 HD
ENDBRANCH   9  17
TORSDOF 2
ENDMDL
MODEL 5
REMARK VINA RESULT:    -4.973      1.511      3.310
REMARK INTER + INTRA:          -4.955
REMARK INTER:                  -4.846
REMARK INTRA:                  -0.109
REMARK UNBOUND:                 0.453
REMARK SMILES C=C1C[C@@]2(O)O[C@@]3(C[C@@H]2C(C)C)[C@H](C)CC[C@@H]13
REMARK SMILES IDX 14 1 13 2 15 3 16 4 17 5 7 6 8 7 9 8 4 9 6 10 3 11 2 12 1 13
REMARK SMILES IDX 10 14 11 15 12 16 5 17
REMARK H PARENT 5 18
REMARK Flexibility Score: inf
ROOT
ATOM      1  C   UNL     1      -6.807  20.095  -6.755  1.00  0.00     0.011 C 
ATOM      2  C   UNL     1      -6.835  19.392  -8.127  1.00  0.00     0.019 C 
ATOM      3  C   UNL     1      -6.729  20.425  -9.257  1.00  0.00     0.007 C 
ATOM      4  C   UNL     1      -8.156  20.718  -9.733  1.00  0.00     0.011 C 
ATOM      5  C   UNL     1      -9.085  19.766  -8.969  1.00  0.00     0.047 C 
ATOM      6  C   UNL     1      -8.157  18.661  -8.425  1.00  0.00     0.081 C 
ATOM      7  C   UNL     1      -8.782  17.891  -7.254  1.00  0.00     0.046 C 
ATOM      8  C   UNL     1      -9.513  16.742  -7.948  1.00  0.00     0.054 C 
ATOM      9  C   UNL     1      -9.130  16.939  -9.443  1.00  0.00     0.173 C 
ATOM     10  O   UNL     1      -7.945  17.704  -9.442  1.00  0.00    -0.342 OA
ATOM     11  C   UNL     1     -10.216  17.734 -10.214  1.00  0.00     0.096 C 
ATOM     12  C   UNL     1     -10.198  19.203  -9.841  1.00  0.00    -0.066 C 
ATOM     13  C   UNL     1     -11.165  20.011 -10.296  1.00  0.00     0.008 C 
ENDROOT
BRANCH   8  14
ATOM     14  C   UNL     1      -9.186  15.330  -7.359  1.00  0.00    -0.009 C 
ATOM     15  C   UNL     1     -10.399  14.394  -7.469  1.00  0.00     0.008 C 
ATOM     16  C   UNL     1      -8.660  15.344  -5.907  1.00  0.00     0.008 C 
ENDBRANCH   8  14
BRANCH   9  17
ATOM     17  O   UNL     1      -8.917  15.707 -10.088  1.00  0.00    -0.365 OA
ATOM     18  H   UNL     1      -8.018  15.743 -10.508  1.00  0.00     0.214 HD
ENDBRANCH   9  17
TORSDOF 2
ENDMDL
MODEL 6
REMARK VINA RESULT:    -4.857      2.178      4.540
REMARK INTER + INTRA:          -4.829
REMARK INTER:                  -4.595
REMARK INTRA:                  -0.234
REMARK UNBOUND:                 0.453
REMARK SMILES C=C1C[C@@]2(O)O[C@@]3(C[C@@H]2C(C)C)[C@H](C)CC[C@@H]13
REMARK SMILES IDX 14 1 13 2 15 3 16 4 17 5 7 6 8 7 9 8 4 9 6 10 3 11 2 12 1 13
REMARK SMILES IDX 10 14 11 15 12 16 5 17
REMARK H PARENT 5 18
REMARK Flexibility Score: inf
ROOT
ATOM      1  C   UNL     1      -9.380  16.528  -9.379  1.00  0.00     0.011 C 
ATOM      2  C   UNL     1      -8.830  17.762 -10.122  1.00  0.00     0.019 C 
ATOM      3  C   UNL     1      -7.295  17.753 -10.107  1.00  0.00     0.007 C 
ATOM      4  C   UNL     1      -6.851  18.650  -8.947  1.00  0.00     0.011 C 
ATOM      5  C   UNL     1      -8.121  19.282  -8.363  1.00  0.00     0.047 C 
ATOM      6  C   UNL     1      -9.192  19.102  -9.458  1.00  0.00     0.081 C 
ATOM      7  C   UNL     1     -10.620  19.221  -8.909  1.00  0.00     0.046 C 
ATOM      8  C   UNL     1     -10.922  20.713  -9.053  1.00  0.00     0.054 C 
ATOM      9  C   UNL     1      -9.652  21.256  -9.768  1.00  0.00     0.173 C 
ATOM     10  O   UNL     1      -9.057  20.146 -10.400  1.00  0.00    -0.342 OA
ATOM     11  C   UNL     1      -8.630  21.840  -8.756  1.00  0.00     0.096 C 
ATOM     12  C   UNL     1      -7.929  20.743  -7.981  1.00  0.00    -0.066 C 
ATOM     13  C   UNL     1      -7.125  21.067  -6.959  1.00  0.00     0.008 C 
ENDROOT
BRANCH   8  14
ATOM     14  C   UNL     1     -12.275  21.022  -9.776  1.00  0.00    -0.009 C 
ATOM     15  C   UNL     1     -13.115  22.020  -8.965  1.00  0.00     0.008 C 
ATOM     16  C   UNL     1     -13.120  19.778 -10.121  1.00  0.00     0.008 C 
ENDBRANCH   8  14
BRANCH   9  17
ATOM     17  O   UNL     1      -9.976  22.245 -10.716  1.00  0.00    -0.365 OA
ATOM     18  H   UNL     1      -9.228  22.899 -10.730  1.00  0.00     0.214 HD
ENDBRANCH   9  17
TORSDOF 2
ENDMDL
MODEL 7
REMARK VINA RESULT:    -4.855      2.550      4.672
REMARK INTER + INTRA:          -4.827
REMARK INTER:                  -4.617
REMARK INTRA:                  -0.210
REMARK UNBOUND:                 0.453
REMARK SMILES C=C1C[C@@]2(O)O[C@@]3(C[C@@H]2C(C)C)[C@H](C)CC[C@@H]13
REMARK SMILES IDX 14 1 13 2 15 3 16 4 17 5 7 6 8 7 9 8 4 9 6 10 3 11 2 12 1 13
REMARK SMILES IDX 10 14 11 15 12 16 5 17
REMARK H PARENT 5 18
REMARK Flexibility Score: inf
ROOT
ATOM      1  C   UNL     1      -9.165  24.020 -10.310  1.00  0.00     0.011 C 
ATOM      2  C   UNL     1      -9.910  22.782 -10.849  1.00  0.00     0.019 C 
ATOM      3  C   UNL     1     -11.340  23.157 -11.258  1.00  0.00     0.007 C 
ATOM      4  C   UNL     1     -12.253  22.799 -10.080  1.00  0.00     0.011 C 
ATOM      5  C   UNL     1     -11.376  22.100  -9.034  1.00  0.00     0.047 C 
ATOM      6  C   UNL     1     -10.110  21.671  -9.803  1.00  0.00     0.081 C 
ATOM      7  C   UNL     1      -8.921  21.396  -8.872  1.00  0.00     0.046 C 
ATOM      8  C   UNL     1      -9.066  19.907  -8.557  1.00  0.00     0.054 C 
ATOM      9  C   UNL     1     -10.278  19.483  -9.436  1.00  0.00     0.173 C 
ATOM     10  O   UNL     1     -10.371  20.448 -10.460  1.00  0.00    -0.342 OA
ATOM     11  C   UNL     1     -11.604  19.503  -8.633  1.00  0.00     0.096 C 
ATOM     12  C   UNL     1     -12.075  20.921  -8.373  1.00  0.00    -0.066 C 
ATOM     13  C   UNL     1     -13.122  21.131  -7.564  1.00  0.00     0.008 C 
ENDROOT
BRANCH   8  14
ATOM     14  C   UNL     1      -7.759  19.078  -8.782  1.00  0.00    -0.009 C 
ATOM     15  C   UNL     1      -7.525  18.096  -7.625  1.00  0.00     0.008 C 
ATOM     16  C   UNL     1      -6.491  19.925  -9.020  1.00  0.00     0.008 C 
ENDBRANCH   8  14
BRANCH   9  17
ATOM     17  O   UNL     1     -10.093  18.201  -9.986  1.00  0.00    -0.365 OA
ATOM     18  H   UNL     1      -9.685  18.319 -10.884  1.00  0.00     0.214 HD
ENDBRANCH   9  17
TORSDOF 2
ENDMDL
MODEL 8
REMARK VINA RESULT:    -4.847      2.185      5.642
REMARK INTER + INTRA:          -4.819
REMARK INTER:                  -4.613
REMARK INTRA:                  -0.206
REMARK UNBOUND:                 0.453
REMARK SMILES C=C1C[C@@]2(O)O[C@@]3(C[C@@H]2C(C)C)[C@H](C)CC[C@@H]13
REMARK SMILES IDX 14 1 13 2 15 3 16 4 17 5 7 6 8 7 9 8 4 9 6 10 3 11 2 12 1 13
REMARK SMILES IDX 10 14 11 15 12 16 5 17
REMARK H PARENT 5 18
REMARK Flexibility Score: inf
ROOT
ATOM      1  C   UNL     1      -6.344  20.189  -9.001  1.00  0.00     0.011 C 
ATOM      2  C   UNL     1      -7.727  19.878  -8.396  1.00  0.00     0.019 C 
ATOM      3  C   UNL     1      -7.830  18.389  -8.039  1.00  0.00     0.007 C 
ATOM      4  C   UNL     1      -8.537  17.694  -9.207  1.00  0.00     0.011 C 
ATOM      5  C   UNL     1      -8.961  18.795 -10.189  1.00  0.00     0.047 C 
ATOM      6  C   UNL     1      -8.898  20.100  -9.370  1.00  0.00     0.081 C 
ATOM      7  C   UNL     1      -8.812  21.348 -10.258  1.00  0.00     0.046 C 
ATOM      8  C   UNL     1     -10.278  21.719 -10.477  1.00  0.00     0.054 C 
ATOM      9  C   UNL     1     -11.033  20.683  -9.594  1.00  0.00     0.173 C 
ATOM     10  O   UNL     1     -10.100  20.234  -8.638  1.00  0.00    -0.342 OA
ATOM     11  C   UNL     1     -11.502  19.458 -10.422  1.00  0.00     0.096 C 
ATOM     12  C   UNL     1     -10.340  18.554 -10.783  1.00  0.00    -0.066 C 
ATOM     13  C   UNL     1     -10.537  17.530 -11.625  1.00  0.00     0.008 C 
ENDROOT
BRANCH   8  14
ATOM     14  C   UNL     1     -10.609  23.217 -10.173  1.00  0.00    -0.009 C 
ATOM     15  C   UNL     1     -11.535  23.804 -11.249  1.00  0.00     0.008 C 
ATOM     16  C   UNL     1      -9.375  24.124  -9.985  1.00  0.00     0.008 C 
ENDBRANCH   8  14
BRANCH   9  17
ATOM     17  O   UNL     1     -12.147  21.261  -8.957  1.00  0.00    -0.365 OA
ATOM     18  H   UNL     1     -12.540  21.920  -9.588  1.00  0.00     0.214 HD
ENDBRANCH   9  17
TORSDOF 2
ENDMDL
MODEL 9
REMARK VINA RESULT:    -4.842      3.044      5.344
REMARK INTER + INTRA:          -4.813
REMARK INTER:                  -4.549
REMARK INTRA:                  -0.265
REMARK UNBOUND:                 0.453
REMARK SMILES C=C1C[C@@]2(O)O[C@@]3(C[C@@H]2C(C)C)[C@H](C)CC[C@@H]13
REMARK SMILES IDX 14 1 13 2 15 3 16 4 17 5 7 6 8 7 9 8 4 9 6 10 3 11 2 12 1 13
REMARK SMILES IDX 10 14 11 15 12 16 5 17
REMARK H PARENT 5 18
REMARK Flexibility Score: inf
ROOT
ATOM      1  C   UNL     1     -13.101  19.533  -9.825  1.00  0.00     0.011 C 
ATOM      2  C   UNL     1     -11.989  20.157 -10.692  1.00  0.00     0.019 C 
ATOM      3  C   UNL     1     -11.419  19.111 -11.660  1.00  0.00     0.007 C 
ATOM      4  C   UNL     1     -10.153  18.541 -11.011  1.00  0.00     0.011 C 
ATOM      5  C   UNL     1      -9.914  19.341  -9.724  1.00  0.00     0.047 C 
ATOM      6  C   UNL     1     -10.760  20.620  -9.891  1.00  0.00     0.081 C 
ATOM      7  C   UNL     1     -11.047  21.314  -8.553  1.00  0.00     0.046 C 
ATOM      8  C   UNL     1      -9.870  22.278  -8.404  1.00  0.00     0.054 C 
ATOM      9  C   UNL     1      -9.095  22.087  -9.740  1.00  0.00     0.173 C 
ATOM     10  O   UNL     1     -10.024  21.553 -10.655  1.00  0.00    -0.342 OA
ATOM     11  C   UNL     1      -7.931  21.074  -9.588  1.00  0.00     0.096 C 
ATOM     12  C   UNL     1      -8.444  19.651  -9.487  1.00  0.00    -0.066 C 
ATOM     13  C   UNL     1      -7.588  18.660  -9.200  1.00  0.00     0.008 C 
ENDROOT
BRANCH   8  14
ATOM     14  C   UNL     1     -10.289  23.751  -8.084  1.00  0.00    -0.009 C 
ATOM     15  C   UNL     1     -10.057  24.078  -6.601  1.00  0.00     0.008 C 
ATOM     16  C   UNL     1     -11.736  24.111  -8.483  1.00  0.00     0.008 C 
ENDBRANCH   8  14
BRANCH   9  17
ATOM     17  O   UNL     1      -8.582  23.308 -10.218  1.00  0.00    -0.365 OA
ATOM     18  H   UNL     1      -7.667  23.410  -9.848  1.00  0.00     0.214 HD
ENDBRANCH   9  17
TORSDOF 2
ENDMDL
