MODEL 1
REMARK VINA RESULT:    -4.829      0.000      0.000
REMARK INTER + INTRA:          -4.829
REMARK INTER:                  -4.829
REMARK INTRA:                   0.000
REMARK UNBOUND:                 0.000
REMARK SMILES CC1=CC[C@@H]2C[C@H]1C2(C)C
REMARK SMILES IDX 1 1 2 2 3 3 4 4 5 5 6 6 7 7 8 8 9 9 10 10
REMARK H PARENT
REMARK Flexibility Score: inf
ROOT
ATOM      1  C   UNL     1       4.396   8.391  11.533  1.00  0.00     0.039 C 
ATOM      2  C   UNL     1       5.271   7.466  12.323  1.00  0.00    -0.074 C 
ATOM      3  C   UNL     1       5.028   6.124  12.369  1.00  0.00    -0.027 C 
ATOM      4  C   UNL     1       5.984   5.224  13.177  1.00  0.00     0.031 C 
ATOM      5  C   UNL     1       7.092   6.096  13.864  1.00  0.00    -0.000 C 
ATOM      6  C   UNL     1       6.348   7.286  14.506  1.00  0.00     0.013 C 
ATOM      7  C   UNL     1       6.469   7.980  13.136  1.00  0.00     0.021 C 
ATOM      8  C   UNL     1       7.707   7.091  12.842  1.00  0.00    -0.026 C 
ATOM      9  C   UNL     1       7.941   6.610  11.382  1.00  0.00     0.012 C 
ATOM     10  C   UNL     1       9.022   7.726  13.360  1.00  0.00     0.012 C 
ENDROOT
TORSDOF 0
ENDMDL
MODEL 2
REMARK VINA RESULT:    -4.435      0.964      2.647
REMARK INTER + INTRA:          -4.435
REMARK INTER:                  -4.435
REMARK INTRA:                   0.000
REMARK UNBOUND:                 0.000
REMARK SMILES CC1=CC[C@@H]2C[C@H]1C2(C)C
REMARK SMILES IDX 1 1 2 2 3 3 4 4 5 5 6 6 7 7 8 8 9 9 10 10
REMARK H PARENT
REMARK Flexibility Score: inf
ROOT
ATOM      1  C   UNL     1       5.068   4.875  12.749  1.00  0.00     0.039 C 
ATOM      2  C   UNL     1       5.606   6.253  12.510  1.00  0.00    -0.074 C 
ATOM      3  C   UNL     1       4.775   7.328  12.379  1.00  0.00    -0.027 C 
ATOM      4  C   UNL     1       5.395   8.723  12.163  1.00  0.00     0.031 C 
ATOM      5  C   UNL     1       6.958   8.611  12.090  1.00  0.00    -0.000 C 
ATOM      6  C   UNL     1       7.248   7.430  11.141  1.00  0.00     0.013 C 
ATOM      7  C   UNL     1       7.112   6.523  12.379  1.00  0.00     0.021 C 
ATOM      8  C   UNL     1       7.492   7.742  13.262  1.00  0.00    -0.026 C 
ATOM      9  C   UNL     1       6.823   7.881  14.658  1.00  0.00     0.012 C 
ATOM     10  C   UNL     1       9.025   7.881  13.442  1.00  0.00     0.012 C 
ENDROOT
TORSDOF 0
ENDMDL
MODEL 3
REMARK VINA RESULT:    -4.154      4.324      6.843
REMARK INTER + INTRA:          -4.154
REMARK INTER:                  -4.154
REMARK INTRA:                   0.000
REMARK UNBOUND:                 0.000
REMARK SMILES CC1=CC[C@@H]2C[C@H]1C2(C)C
REMARK SMILES IDX 1 1 2 2 3 3 4 4 5 5 6 6 7 7 8 8 9 9 10 10
REMARK H PARENT
REMARK Flexibility Score: inf
ROOT
ATOM      1  C   UNL     1       4.057   9.369  11.534  1.00  0.00     0.039 C 
ATOM      2  C   UNL     1       3.354  10.690  11.475  1.00  0.00    -0.074 C 
ATOM      3  C   UNL     1       2.134  10.821  10.875  1.00  0.00    -0.027 C 
ATOM      4  C   UNL     1       1.452  12.204  10.875  1.00  0.00     0.031 C 
ATOM      5  C   UNL     1       2.377  13.260  11.574  1.00  0.00    -0.000 C 
ATOM      6  C   UNL     1       3.784  13.042  10.980  1.00  0.00     0.013 C 
ATOM      7  C   UNL     1       3.973  11.966  12.066  1.00  0.00     0.021 C 
ATOM      8  C   UNL     1       2.910  12.703  12.923  1.00  0.00    -0.026 C 
ATOM      9  C   UNL     1       1.955  11.853  13.807  1.00  0.00     0.012 C 
ATOM     10  C   UNL     1       3.535  13.810  13.808  1.00  0.00     0.012 C 
ENDROOT
TORSDOF 0
ENDMDL
MODEL 4
REMARK VINA RESULT:    -4.122      0.993      2.053
REMARK INTER + INTRA:          -4.122
REMARK INTER:                  -4.122
REMARK INTRA:                   0.000
REMARK UNBOUND:                 0.000
REMARK SMILES CC1=CC[C@@H]2C[C@H]1C2(C)C
REMARK SMILES IDX 1 1 2 2 3 3 4 4 5 5 6 6 7 7 8 8 9 9 10 10
REMARK H PARENT
REMARK Flexibility Score: inf
ROOT
ATOM      1  C   UNL     1       4.641   8.438  11.276  1.00  0.00     0.039 C 
ATOM      2  C   UNL     1       5.551   7.828  12.297  1.00  0.00    -0.074 C 
ATOM      3  C   UNL     1       5.259   7.875  13.630  1.00  0.00    -0.027 C 
ATOM      4  C   UNL     1       6.224   7.202  14.626  1.00  0.00     0.031 C 
ATOM      5  C   UNL     1       7.450   6.594  13.859  1.00  0.00    -0.000 C 
ATOM      6  C   UNL     1       7.918   7.692  12.881  1.00  0.00     0.013 C 
ATOM      7  C   UNL     1       6.865   7.137  11.902  1.00  0.00     0.021 C 
ATOM      8  C   UNL     1       6.967   5.771  12.634  1.00  0.00    -0.026 C 
ATOM      9  C   UNL     1       5.679   4.911  12.774  1.00  0.00     0.012 C 
ATOM     10  C   UNL     1       8.088   4.875  12.050  1.00  0.00     0.012 C 
ENDROOT
TORSDOF 0
ENDMDL
MODEL 5
REMARK VINA RESULT:    -3.956      1.019      3.214
REMARK INTER + INTRA:          -3.956
REMARK INTER:                  -3.956
REMARK INTRA:                   0.000
REMARK UNBOUND:                 0.000
REMARK SMILES CC1=CC[C@@H]2C[C@H]1C2(C)C
REMARK SMILES IDX 1 1 2 2 3 3 4 4 5 5 6 6 7 7 8 8 9 9 10 10
REMARK H PARENT
REMARK Flexibility Score: inf
ROOT
ATOM      1  C   UNL     1       8.118   8.596  14.776  1.00  0.00     0.039 C 
ATOM      2  C   UNL     1       7.364   7.620  13.925  1.00  0.00    -0.074 C 
ATOM      3  C   UNL     1       7.151   6.335  14.334  1.00  0.00    -0.027 C 
ATOM      4  C   UNL     1       6.341   5.391  13.423  1.00  0.00     0.031 C 
ATOM      5  C   UNL     1       5.934   6.135  12.104  1.00  0.00    -0.000 C 
ATOM      6  C   UNL     1       7.212   6.848  11.615  1.00  0.00     0.013 C 
ATOM      7  C   UNL     1       6.809   8.007  12.546  1.00  0.00     0.021 C 
ATOM      8  C   UNL     1       5.336   7.530  12.433  1.00  0.00    -0.026 C 
ATOM      9  C   UNL     1       4.416   7.672  13.678  1.00  0.00     0.012 C 
ATOM     10  C   UNL     1       4.608   8.158  11.218  1.00  0.00     0.012 C 
ENDROOT
TORSDOF 0
ENDMDL
MODEL 6
REMARK VINA RESULT:    -3.577      1.079      2.374
REMARK INTER + INTRA:          -3.577
REMARK INTER:                  -3.577
REMARK INTRA:                   0.000
REMARK UNBOUND:                 0.000
REMARK SMILES CC1=CC[C@@H]2C[C@H]1C2(C)C
REMARK SMILES IDX 1 1 2 2 3 3 4 4 5 5 6 6 7 7 8 8 9 9 10 10
REMARK H PARENT
REMARK Flexibility Score: inf
ROOT
ATOM      1  C   UNL     1       4.636   8.880  12.041  1.00  0.00     0.039 C 
ATOM      2  C   UNL     1       5.679   7.808  12.112  1.00  0.00    -0.074 C 
ATOM      3  C   UNL     1       6.800   7.853  11.334  1.00  0.00    -0.027 C 
ATOM      4  C   UNL     1       7.848   6.731  11.477  1.00  0.00     0.031 C 
ATOM      5  C   UNL     1       7.363   5.673  12.528  1.00  0.00    -0.000 C 
ATOM      6  C   UNL     1       5.891   5.377  12.173  1.00  0.00     0.013 C 
ATOM      7  C   UNL     1       5.534   6.596  13.045  1.00  0.00     0.021 C 
ATOM      8  C   UNL     1       6.863   6.381  13.817  1.00  0.00    -0.026 C 
ATOM      9  C   UNL     1       7.633   7.632  14.326  1.00  0.00     0.012 C 
ATOM     10  C   UNL     1       6.701   5.395  15.001  1.00  0.00     0.012 C 
ENDROOT
TORSDOF 0
ENDMDL
MODEL 7
REMARK VINA RESULT:    -3.566      4.069      6.902
REMARK INTER + INTRA:          -3.566
REMARK INTER:                  -3.566
REMARK INTRA:                   0.000
REMARK UNBOUND:                 0.000
REMARK SMILES CC1=CC[C@@H]2C[C@H]1C2(C)C
REMARK SMILES IDX 1 1 2 2 3 3 4 4 5 5 6 6 7 7 8 8 9 9 10 10
REMARK H PARENT
REMARK Flexibility Score: inf
ROOT
ATOM      1  C   UNL     1       4.195   9.118  11.886  1.00  0.00     0.039 C 
ATOM      2  C   UNL     1       3.529  10.460  11.860  1.00  0.00    -0.074 C 
ATOM      3  C   UNL     1       3.833  11.386  10.904  1.00  0.00    -0.027 C 
ATOM      4  C   UNL     1       3.089  12.737  10.918  1.00  0.00     0.031 C 
ATOM      5  C   UNL     1       2.098  12.794  12.132  1.00  0.00    -0.000 C 
ATOM      6  C   UNL     1       2.900  12.289  13.349  1.00  0.00     0.013 C 
ATOM      7  C   UNL     1       2.489  10.869  12.913  1.00  0.00     0.021 C 
ATOM      8  C   UNL     1       1.256  11.490  12.203  1.00  0.00    -0.026 C 
ATOM      9  C   UNL     1       0.767  10.846  10.875  1.00  0.00     0.012 C 
ATOM     10  C   UNL     1       0.040  11.629  13.153  1.00  0.00     0.012 C 
ENDROOT
TORSDOF 0
ENDMDL
MODEL 8
REMARK VINA RESULT:    -3.304      4.134      6.489
REMARK INTER + INTRA:          -3.304
REMARK INTER:                  -3.304
REMARK INTRA:                   0.000
REMARK UNBOUND:                 0.000
REMARK SMILES CC1=CC[C@@H]2C[C@H]1C2(C)C
REMARK SMILES IDX 1 1 2 2 3 3 4 4 5 5 6 6 7 7 8 8 9 9 10 10
REMARK H PARENT
REMARK Flexibility Score: inf
ROOT
ATOM      1  C   UNL     1       3.298  13.499  14.171  1.00  0.00     0.039 C 
ATOM      2  C   UNL     1       2.723  12.648  13.081  1.00  0.00    -0.074 C 
ATOM      3  C   UNL     1       1.995  13.192  12.062  1.00  0.00    -0.027 C 
ATOM      4  C   UNL     1       1.455  12.262  10.957  1.00  0.00     0.031 C 
ATOM      5  C   UNL     1       1.843  10.774  11.269  1.00  0.00    -0.000 C 
ATOM      6  C   UNL     1       1.503  10.558  12.759  1.00  0.00     0.013 C 
ATOM      7  C   UNL     1       2.904  11.122  13.063  1.00  0.00     0.021 C 
ATOM      8  C   UNL     1       3.347  10.675  11.644  1.00  0.00    -0.026 C 
ATOM      9  C   UNL     1       4.366  11.561  10.875  1.00  0.00     0.012 C 
ATOM     10  C   UNL     1       3.861   9.213  11.624  1.00  0.00     0.012 C 
ENDROOT
TORSDOF 0
ENDMDL
