MODEL 1
REMARK VINA RESULT:    -3.791      0.000      0.000
REMARK INTER + INTRA:          -4.249
REMARK INTER:                  -4.234
REMARK INTRA:                  -0.015
REMARK UNBOUND:                -0.015
REMARK SMILES CCCC(=O)[O-]
REMARK SMILES IDX 3 1 4 2 5 3 6 4 2 5 1 6
REMARK H PARENT
REMARK Flexibility Score: inf
ROOT
ATOM      1  C   UNL     1     -12.240   2.323  -9.292  1.00  0.00     0.052 C 
ENDROOT
BRANCH   1   2
ATOM      2  C   UNL     1     -11.751   3.554  -8.597  1.00  0.00     0.041 C 
ATOM      3  O   UNL     1     -10.568   3.612  -8.169  1.00  0.00    -0.550 OA
ATOM      4  O   UNL     1     -12.586   4.656  -8.464  1.00  0.00    -0.550 OA
ENDBRANCH   1   2
BRANCH   1   5
ATOM      5  C   UNL     1     -11.161   1.236  -9.278  1.00  0.00     0.003 C 
ATOM      6  C   UNL     1     -11.408   0.201 -10.372  1.00  0.00     0.004 C 
ENDBRANCH   1   5
TORSDOF 2
ENDMDL
MODEL 2
REMARK VINA RESULT:    -3.669      1.188      1.579
REMARK INTER + INTRA:          -4.113
REMARK INTER:                  -4.103
REMARK INTRA:                  -0.010
REMARK UNBOUND:                -0.015
REMARK SMILES CCCC(=O)[O-]
REMARK SMILES IDX 3 1 4 2 5 3 6 4 2 5 1 6
REMARK H PARENT
REMARK Flexibility Score: inf
ROOT
ATOM      1  C   UNL     1     -12.057   2.374  -9.307  1.00  0.00     0.052 C 
ENDROOT
BRANCH   1   2
ATOM      2  C   UNL     1     -11.670   3.583  -8.517  1.00  0.00     0.041 C 
ATOM      3  O   UNL     1     -10.518   3.669  -8.015  1.00  0.00    -0.550 OA
ATOM      4  O   UNL     1     -12.563   4.637  -8.375  1.00  0.00    -0.550 OA
ENDBRANCH   1   2
BRANCH   1   5
ATOM      5  C   UNL     1     -13.550   2.410  -9.645  1.00  0.00     0.003 C 
ATOM      6  C   UNL     1     -14.030   1.059 -10.167  1.00  0.00     0.004 C 
ENDBRANCH   1   5
TORSDOF 2
ENDMDL
MODEL 3
REMARK VINA RESULT:    -3.532      2.242      3.180
REMARK INTER + INTRA:          -3.960
REMARK INTER:                  -3.922
REMARK INTRA:                  -0.037
REMARK UNBOUND:                -0.015
REMARK SMILES CCCC(=O)[O-]
REMARK SMILES IDX 3 1 4 2 5 3 6 4 2 5 1 6
REMARK H PARENT
REMARK Flexibility Score: inf
ROOT
ATOM      1  C   UNL     1     -12.968   0.874 -10.029  1.00  0.00     0.052 C 
ENDROOT
BRANCH   1   2
ATOM      2  C   UNL     1     -11.683   1.346  -9.425  1.00  0.00     0.041 C 
ATOM      3  O   UNL     1     -11.567   2.538  -9.035  1.00  0.00    -0.550 OA
ATOM      4  O   UNL     1     -10.630   0.458  -9.247  1.00  0.00    -0.550 OA
ENDBRANCH   1   2
BRANCH   1   5
ATOM      5  C   UNL     1     -14.047   1.954  -9.904  1.00  0.00     0.003 C 
ATOM      6  C   UNL     1     -15.121   1.547  -8.900  1.00  0.00     0.004 C 
ENDBRANCH   1   5
TORSDOF 2
ENDMDL
MODEL 4
REMARK VINA RESULT:    -3.530      2.316      3.577
REMARK INTER + INTRA:          -3.958
REMARK INTER:                  -3.922
REMARK INTRA:                  -0.036
REMARK UNBOUND:                -0.015
REMARK SMILES CCCC(=O)[O-]
REMARK SMILES IDX 3 1 4 2 5 3 6 4 2 5 1 6
REMARK H PARENT
REMARK Flexibility Score: inf
ROOT
ATOM      1  C   UNL     1     -11.361   2.597  -8.869  1.00  0.00     0.052 C 
ENDROOT
BRANCH   1   2
ATOM      2  C   UNL     1     -11.892   1.414  -9.613  1.00  0.00     0.041 C 
ATOM      3  O   UNL     1     -13.123   1.321  -9.862  1.00  0.00    -0.550 OA
ATOM      4  O   UNL     1     -11.022   0.436 -10.077  1.00  0.00    -0.550 OA
ENDBRANCH   1   2
BRANCH   1   5
ATOM      5  C   UNL     1     -11.933   3.895  -9.447  1.00  0.00     0.003 C 
ATOM      6  C   UNL     1     -12.874   4.572  -8.456  1.00  0.00     0.004 C 
ENDBRANCH   1   5
TORSDOF 2
ENDMDL
MODEL 5
REMARK VINA RESULT:    -3.525      2.778      3.700
REMARK INTER + INTRA:          -3.952
REMARK INTER:                  -3.929
REMARK INTRA:                  -0.023
REMARK UNBOUND:                -0.015
REMARK SMILES CCCC(=O)[O-]
REMARK SMILES IDX 3 1 4 2 5 3 6 4 2 5 1 6
REMARK H PARENT
REMARK Flexibility Score: inf
ROOT
ATOM      1  C   UNL     1     -13.061   0.235 -10.388  1.00  0.00     0.052 C 
ENDROOT
BRANCH   1   2
ATOM      2  C   UNL     1     -11.573   0.292 -10.253  1.00  0.00     0.041 C 
ATOM      3  O   UNL     1     -10.837  -0.266 -11.110  1.00  0.00    -0.550 OA
ATOM      4  O   UNL     1     -10.995   1.002  -9.208  1.00  0.00    -0.550 OA
ENDBRANCH   1   2
BRANCH   1   5
ATOM      5  C   UNL     1     -13.694   1.540  -9.895  1.00  0.00     0.003 C 
ATOM      6  C   UNL     1     -14.970   1.268  -9.104  1.00  0.00     0.004 C 
ENDBRANCH   1   5
TORSDOF 2
ENDMDL
MODEL 6
REMARK VINA RESULT:    -3.444      2.852      3.687
REMARK INTER + INTRA:          -3.861
REMARK INTER:                  -3.854
REMARK INTRA:                  -0.007
REMARK UNBOUND:                -0.015
REMARK SMILES CCCC(=O)[O-]
REMARK SMILES IDX 3 1 4 2 5 3 6 4 2 5 1 6
REMARK H PARENT
REMARK Flexibility Score: inf
ROOT
ATOM      1  C   UNL     1     -11.321   1.332  -9.334  1.00  0.00     0.052 C 
ENDROOT
BRANCH   1   2
ATOM      2  C   UNL     1     -11.873   0.390 -10.355  1.00  0.00     0.041 C 
ATOM      3  O   UNL     1     -11.096  -0.254 -11.109  1.00  0.00    -0.550 OA
ATOM      4  O   UNL     1     -13.244   0.183 -10.443  1.00  0.00    -0.550 OA
ENDBRANCH   1   2
BRANCH   1   5
ATOM      5  C   UNL     1     -12.193   2.588  -9.237  1.00  0.00     0.003 C 
ATOM      6  C   UNL     1     -11.388   3.780  -8.729  1.00  0.00     0.004 C 
ENDBRANCH   1   5
TORSDOF 2
ENDMDL
MODEL 7
REMARK VINA RESULT:    -3.376      3.825      4.816
REMARK INTER + INTRA:          -3.785
REMARK INTER:                  -3.749
REMARK INTRA:                  -0.037
REMARK UNBOUND:                -0.015
REMARK SMILES CCCC(=O)[O-]
REMARK SMILES IDX 3 1 4 2 5 3 6 4 2 5 1 6
REMARK H PARENT
REMARK Flexibility Score: inf
ROOT
ATOM      1  C   UNL     1     -10.876  -0.511 -10.676  1.00  0.00     0.052 C 
ENDROOT
BRANCH   1   2
ATOM      2  C   UNL     1     -10.886  -1.791  -9.904  1.00  0.00     0.041 C 
ATOM      3  O   UNL     1     -10.127  -1.936  -8.909  1.00  0.00    -0.550 OA
ATOM      4  O   UNL     1     -11.766  -2.807 -10.251  1.00  0.00    -0.550 OA
ENDBRANCH   1   2
BRANCH   1   5
ATOM      5  C   UNL     1     -12.042   0.384 -10.245  1.00  0.00     0.003 C 
ATOM      6  C   UNL     1     -11.562   1.515  -9.340  1.00  0.00     0.004 C 
ENDBRANCH   1   5
TORSDOF 2
ENDMDL
MODEL 8
REMARK VINA RESULT:    -3.148     15.883     16.700
REMARK INTER + INTRA:          -3.531
REMARK INTER:                  -3.463
REMARK INTRA:                  -0.068
REMARK UNBOUND:                -0.015
REMARK SMILES CCCC(=O)[O-]
REMARK SMILES IDX 3 1 4 2 5 3 6 4 2 5 1 6
REMARK H PARENT
REMARK Flexibility Score: inf
ROOT
ATOM      1  C   UNL     1     -10.982   6.070   7.487  1.00  0.00     0.052 C 
ENDROOT
BRANCH   1   2
ATOM      2  C   UNL     1     -10.296   5.489   6.293  1.00  0.00     0.041 C 
ATOM      3  O   UNL     1      -9.082   5.745   6.073  1.00  0.00    -0.550 OA
ATOM      4  O   UNL     1     -10.980   4.624   5.449  1.00  0.00    -0.550 OA
ENDBRANCH   1   2
BRANCH   1   5
ATOM      5  C   UNL     1     -10.273   5.641   8.775  1.00  0.00     0.003 C 
ATOM      6  C   UNL     1     -10.594   4.191   9.124  1.00  0.00     0.004 C 
ENDBRANCH   1   5
TORSDOF 2
ENDMDL
MODEL 9
REMARK VINA RESULT:    -3.127     15.963     16.742
REMARK INTER + INTRA:          -3.508
REMARK INTER:                  -3.453
REMARK INTRA:                  -0.055
REMARK UNBOUND:                -0.015
REMARK SMILES CCCC(=O)[O-]
REMARK SMILES IDX 3 1 4 2 5 3 6 4 2 5 1 6
REMARK H PARENT
REMARK Flexibility Score: inf
ROOT
ATOM      1  C   UNL     1      -9.665   5.759   7.336  1.00  0.00     0.052 C 
ENDROOT
BRANCH   1   2
ATOM      2  C   UNL     1     -10.777   5.847   6.341  1.00  0.00     0.041 C 
ATOM      3  O   UNL     1     -10.845   5.021   5.392  1.00  0.00    -0.550 OA
ATOM      4  O   UNL     1     -11.769   6.808   6.488  1.00  0.00    -0.550 OA
ENDBRANCH   1   2
BRANCH   1   5
ATOM      5  C   UNL     1     -10.224   5.656   8.758  1.00  0.00     0.003 C 
ATOM      6  C   UNL     1     -10.536   4.208   9.124  1.00  0.00     0.004 C 
ENDBRANCH   1   5
TORSDOF 2
ENDMDL
