MODEL 1
REMARK VINA RESULT:    -4.304      0.000      0.000
REMARK INTER + INTRA:          -5.002
REMARK INTER:                  -4.933
REMARK INTRA:                  -0.069
REMARK UNBOUND:                -0.069
REMARK SMILES C=Cc1ccc(O)c(OC)c1
REMARK SMILES IDX 8 1 6 2 5 3 4 4 3 5 11 6 9 7 10 8 7 9 2 11 1 12
REMARK H PARENT 7 10
REMARK Flexibility Score: inf
ROOT
ATOM      1  C   UNL     1      83.839  31.591  65.539  1.00  0.00     0.161 A 
ATOM      2  C   UNL     1      83.608  31.658  66.919  1.00  0.00     0.157 A 
ATOM      3  C   UNL     1      84.643  32.028  67.786  1.00  0.00     0.051 A 
ATOM      4  C   UNL     1      85.909  32.337  67.284  1.00  0.00     0.012 A 
ATOM      5  C   UNL     1      86.157  32.288  65.900  1.00  0.00    -0.022 A 
ATOM      6  C   UNL     1      85.118  31.904  65.036  1.00  0.00     0.058 A 
ENDROOT
BRANCH   1   7
ATOM      7  O   UNL     1      82.777  31.213  64.702  1.00  0.00    -0.493 OA
ATOM      8  C   UNL     1      82.464  29.868  64.354  1.00  0.00     0.278 C 
ENDBRANCH   1   7
BRANCH   2   9
ATOM      9  O   UNL     1      82.346  31.351  67.422  1.00  0.00    -0.504 OA
ATOM     10  H   UNL     1      81.751  30.662  66.977  1.00  0.00     0.293 HD
ENDBRANCH   2   9
BRANCH   5  11
ATOM     11  C   UNL     1      87.487  32.598  65.314  1.00  0.00     0.000 C 
ATOM     12  C   UNL     1      88.118  33.763  65.463  1.00  0.00     0.009 C 
ENDBRANCH   5  11
TORSDOF 3
ENDMDL
MODEL 2
REMARK VINA RESULT:    -4.164      2.299      4.021
REMARK INTER + INTRA:          -4.841
REMARK INTER:                  -4.768
REMARK INTRA:                  -0.073
REMARK UNBOUND:                -0.069
REMARK SMILES C=Cc1ccc(O)c(OC)c1
REMARK SMILES IDX 8 1 6 2 5 3 4 4 3 5 11 6 9 7 10 8 7 9 2 11 1 12
REMARK H PARENT 7 10
REMARK Flexibility Score: inf
ROOT
ATOM      1  C   UNL     1      86.173  31.744  65.964  1.00  0.00     0.161 A 
ATOM      2  C   UNL     1      85.913  32.116  67.290  1.00  0.00     0.157 A 
ATOM      3  C   UNL     1      84.598  32.131  67.770  1.00  0.00     0.051 A 
ATOM      4  C   UNL     1      83.538  31.773  66.935  1.00  0.00     0.012 A 
ATOM      5  C   UNL     1      83.779  31.384  65.604  1.00  0.00    -0.022 A 
ATOM      6  C   UNL     1      85.100  31.383  65.125  1.00  0.00     0.058 A 
ENDROOT
BRANCH   1   7
ATOM      7  O   UNL     1      87.504  31.745  65.519  1.00  0.00    -0.493 OA
ATOM      8  C   UNL     1      87.979  31.013  64.393  1.00  0.00     0.278 C 
ENDBRANCH   1   7
BRANCH   2   9
ATOM      9  O   UNL     1      86.970  32.473  68.125  1.00  0.00    -0.504 OA
ATOM     10  H   UNL     1      86.970  33.349  68.635  1.00  0.00     0.293 HD
ENDBRANCH   2   9
BRANCH   5  11
ATOM     11  C   UNL     1      82.687  31.003  64.672  1.00  0.00     0.000 C 
ATOM     12  C   UNL     1      82.469  29.759  64.241  1.00  0.00     0.009 C 
ENDBRANCH   5  11
TORSDOF 3
ENDMDL
MODEL 3
REMARK VINA RESULT:    -3.802     16.270     16.904
REMARK INTER + INTRA:          -4.427
REMARK INTER:                  -4.335
REMARK INTRA:                  -0.092
REMARK UNBOUND:                -0.069
REMARK SMILES C=Cc1ccc(O)c(OC)c1
REMARK SMILES IDX 8 1 6 2 5 3 4 4 3 5 11 6 9 7 10 8 7 9 2 11 1 12
REMARK H PARENT 7 10
REMARK Flexibility Score: inf
ROOT
ATOM      1  C   UNL     1      74.344  33.935  53.191  1.00  0.00     0.161 A 
ATOM      2  C   UNL     1      74.564  35.318  53.208  1.00  0.00     0.157 A 
ATOM      3  C   UNL     1      73.892  36.125  54.134  1.00  0.00     0.051 A 
ATOM      4  C   UNL     1      73.002  35.558  55.049  1.00  0.00     0.012 A 
ATOM      5  C   UNL     1      72.777  34.169  55.057  1.00  0.00    -0.022 A 
ATOM      6  C   UNL     1      73.445  33.367  54.117  1.00  0.00     0.058 A 
ENDROOT
BRANCH   1   7
ATOM      7  O   UNL     1      75.034  33.160  52.245  1.00  0.00    -0.493 OA
ATOM      8  C   UNL     1      76.292  32.535  52.477  1.00  0.00     0.278 C 
ENDBRANCH   1   7
BRANCH   2   9
ATOM      9  O   UNL     1      75.452  35.886  52.296  1.00  0.00    -0.504 OA
ATOM     10  H   UNL     1      75.830  36.817  52.433  1.00  0.00     0.293 HD
ENDBRANCH   2   9
BRANCH   5  11
ATOM     11  C   UNL     1      71.835  33.517  56.002  1.00  0.00     0.000 C 
ATOM     12  C   UNL     1      70.887  34.164  56.681  1.00  0.00     0.009 C 
ENDBRANCH   5  11
TORSDOF 3
ENDMDL
MODEL 4
REMARK VINA RESULT:    -3.784      1.528      2.534
REMARK INTER + INTRA:          -4.406
REMARK INTER:                  -4.316
REMARK INTRA:                  -0.090
REMARK UNBOUND:                -0.069
REMARK SMILES C=Cc1ccc(O)c(OC)c1
REMARK SMILES IDX 8 1 6 2 5 3 4 4 3 5 11 6 9 7 10 8 7 9 2 11 1 12
REMARK H PARENT 7 10
REMARK Flexibility Score: inf
ROOT
ATOM      1  C   UNL     1      84.988  31.308  65.489  1.00  0.00     0.161 A 
ATOM      2  C   UNL     1      85.567  30.084  65.128  1.00  0.00     0.157 A 
ATOM      3  C   UNL     1      86.958  29.969  65.025  1.00  0.00     0.051 A 
ATOM      4  C   UNL     1      87.779  31.069  65.284  1.00  0.00     0.012 A 
ATOM      5  C   UNL     1      87.218  32.303  65.661  1.00  0.00    -0.022 A 
ATOM      6  C   UNL     1      85.820  32.415  65.751  1.00  0.00     0.058 A 
ENDROOT
BRANCH   1   7
ATOM      7  O   UNL     1      83.589  31.385  65.579  1.00  0.00    -0.493 OA
ATOM      8  C   UNL     1      82.872  31.673  66.775  1.00  0.00     0.278 C 
ENDBRANCH   1   7
BRANCH   2   9
ATOM      9  O   UNL     1      84.750  28.985  64.870  1.00  0.00    -0.504 OA
ATOM     10  H   UNL     1      84.641  28.235  65.542  1.00  0.00     0.293 HD
ENDBRANCH   2   9
BRANCH   5  11
ATOM     11  C   UNL     1      88.044  33.505  65.940  1.00  0.00     0.000 C 
ATOM     12  C   UNL     1      88.125  34.563  65.131  1.00  0.00     0.009 C 
ENDBRANCH   5  11
TORSDOF 3
ENDMDL
MODEL 5
REMARK VINA RESULT:    -3.676     16.310     17.233
REMARK INTER + INTRA:          -4.282
REMARK INTER:                  -4.191
REMARK INTRA:                  -0.091
REMARK UNBOUND:                -0.069
REMARK SMILES C=Cc1ccc(O)c(OC)c1
REMARK SMILES IDX 8 1 6 2 5 3 4 4 3 5 11 6 9 7 10 8 7 9 2 11 1 12
REMARK H PARENT 7 10
REMARK Flexibility Score: inf
ROOT
ATOM      1  C   UNL     1      73.275  34.885  53.653  1.00  0.00     0.161 A 
ATOM      2  C   UNL     1      73.936  33.662  53.481  1.00  0.00     0.157 A 
ATOM      3  C   UNL     1      73.730  32.618  54.392  1.00  0.00     0.051 A 
ATOM      4  C   UNL     1      72.863  32.787  55.473  1.00  0.00     0.012 A 
ATOM      5  C   UNL     1      72.179  34.003  55.656  1.00  0.00    -0.022 A 
ATOM      6  C   UNL     1      72.401  35.050  54.746  1.00  0.00     0.058 A 
ENDROOT
BRANCH   1   7
ATOM      7  O   UNL     1      73.511  35.908  52.721  1.00  0.00    -0.493 OA
ATOM      8  C   UNL     1      72.734  36.125  51.547  1.00  0.00     0.278 C 
ENDBRANCH   1   7
BRANCH   2   9
ATOM      9  O   UNL     1      74.801  33.491  52.402  1.00  0.00    -0.504 OA
ATOM     10  H   UNL     1      75.785  33.293  52.537  1.00  0.00     0.293 HD
ENDBRANCH   2   9
BRANCH   5  11
ATOM     11  C   UNL     1      71.254  34.237  56.794  1.00  0.00     0.000 C 
ATOM     12  C   UNL     1      70.836  33.285  57.629  1.00  0.00     0.009 C 
ENDBRANCH   5  11
TORSDOF 3
ENDMDL
MODEL 6
REMARK VINA RESULT:    -3.462      2.523      3.448
REMARK INTER + INTRA:          -4.036
REMARK INTER:                  -3.980
REMARK INTRA:                  -0.056
REMARK UNBOUND:                -0.069
REMARK SMILES C=Cc1ccc(O)c(OC)c1
REMARK SMILES IDX 8 1 6 2 5 3 4 4 3 5 11 6 9 7 10 8 7 9 2 11 1 12
REMARK H PARENT 7 10
REMARK Flexibility Score: inf
ROOT
ATOM      1  C   UNL     1      87.139  30.437  65.311  1.00  0.00     0.161 A 
ATOM      2  C   UNL     1      85.752  30.510  65.126  1.00  0.00     0.157 A 
ATOM      3  C   UNL     1      85.128  31.755  64.985  1.00  0.00     0.051 A 
ATOM      4  C   UNL     1      85.880  32.930  65.020  1.00  0.00     0.012 A 
ATOM      5  C   UNL     1      87.276  32.878  65.191  1.00  0.00    -0.022 A 
ATOM      6  C   UNL     1      87.895  31.626  65.345  1.00  0.00     0.058 A 
ENDROOT
BRANCH   1   7
ATOM      7  O   UNL     1      87.728  29.171  65.453  1.00  0.00    -0.493 OA
ATOM      8  C   UNL     1      88.125  28.338  64.367  1.00  0.00     0.278 C 
ENDBRANCH   1   7
BRANCH   2   9
ATOM      9  O   UNL     1      84.999  29.338  65.090  1.00  0.00    -0.504 OA
ATOM     10  H   UNL     1      84.431  29.097  64.286  1.00  0.00     0.293 HD
ENDBRANCH   2   9
BRANCH   5  11
ATOM     11  C   UNL     1      88.122  34.098  65.245  1.00  0.00     0.000 C 
ATOM     12  C   UNL     1      87.761  35.282  64.750  1.00  0.00     0.009 C 
ENDBRANCH   5  11
TORSDOF 3
ENDMDL
MODEL 7
REMARK VINA RESULT:    -3.307     16.247     16.801
REMARK INTER + INTRA:          -3.859
REMARK INTER:                  -3.790
REMARK INTRA:                  -0.069
REMARK UNBOUND:                -0.069
REMARK SMILES C=Cc1ccc(O)c(OC)c1
REMARK SMILES IDX 8 1 6 2 5 3 4 4 3 5 11 6 9 7 10 8 7 9 2 11 1 12
REMARK H PARENT 7 10
REMARK Flexibility Score: inf
ROOT
ATOM      1  C   UNL     1      75.124  35.145  52.517  1.00  0.00     0.161 A 
ATOM      2  C   UNL     1      75.098  33.759  52.716  1.00  0.00     0.157 A 
ATOM      3  C   UNL     1      76.211  32.980  52.376  1.00  0.00     0.051 A 
ATOM      4  C   UNL     1      77.355  33.578  51.843  1.00  0.00     0.012 A 
ATOM      5  C   UNL     1      77.406  34.971  51.649  1.00  0.00    -0.022 A 
ATOM      6  C   UNL     1      76.281  35.745  51.980  1.00  0.00     0.058 A 
ENDROOT
BRANCH   1   7
ATOM      7  O   UNL     1      73.988  35.892  52.867  1.00  0.00    -0.493 OA
ATOM      8  C   UNL     1      72.879  36.125  52.003  1.00  0.00     0.278 C 
ENDBRANCH   1   7
BRANCH   2   9
ATOM      9  O   UNL     1      73.958  33.160  53.248  1.00  0.00    -0.504 OA
ATOM     10  H   UNL     1      73.450  32.443  52.742  1.00  0.00     0.293 HD
ENDBRANCH   2   9
BRANCH   5  11
ATOM     11  C   UNL     1      78.594  35.656  51.077  1.00  0.00     0.000 C 
ATOM     12  C   UNL     1      79.483  35.070  50.275  1.00  0.00     0.009 C 
ENDBRANCH   5  11
TORSDOF 3
ENDMDL
