MODEL 1
REMARK VINA RESULT:    -4.095      0.000      0.000
REMARK INTER + INTRA:          -6.588
REMARK INTER:                  -6.010
REMARK INTRA:                  -0.579
REMARK UNBOUND:                -0.579
REMARK SMILES O=C([O-])CCCCCCCC(=O)[O-]
REMARK SMILES IDX 7 1 6 2 5 3 4 4 2 5 1 6 3 7 8 8 9 9 10 10 11 11 12 12 13 13
REMARK H PARENT
REMARK Flexibility Score: inf
ROOT
ATOM      1  C   UNL     1      30.793   6.324 -24.604  1.00  0.00     0.000 C 
ENDROOT
BRANCH   1   2
ATOM      2  C   UNL     1      31.523   6.037 -23.283  1.00  0.00     0.000 C 
BRANCH   2   3
ATOM      3  C   UNL     1      30.917   4.819 -22.575  1.00  0.00     0.006 C 
BRANCH   3   4
ATOM      4  C   UNL     1      29.391   4.929 -22.497  1.00  0.00     0.053 C 
BRANCH   4   5
ATOM      5  C   UNL     1      28.952   5.137 -21.083  1.00  0.00     0.041 C 
ATOM      6  O   UNL     1      29.715   4.832 -20.130  1.00  0.00    -0.550 OA
ATOM      7  O   UNL     1      27.716   5.716 -20.818  1.00  0.00    -0.550 OA
ENDBRANCH   4   5
ENDBRANCH   3   4
ENDBRANCH   2   3
ENDBRANCH   1   2
BRANCH   1   8
ATOM      8  C   UNL     1      31.696   6.136 -25.832  1.00  0.00     0.000 C 
BRANCH   8   9
ATOM      9  C   UNL     1      32.010   4.659 -26.117  1.00  0.00     0.006 C 
BRANCH   9  10
ATOM     10  C   UNL     1      30.730   3.878 -26.431  1.00  0.00     0.053 C 
BRANCH  10  11
ATOM     11  C   UNL     1      30.408   3.966 -27.889  1.00  0.00     0.041 C 
ATOM     12  O   UNL     1      29.214   3.880 -28.280  1.00  0.00    -0.550 OA
ATOM     13  O   UNL     1      31.421   4.190 -28.813  1.00  0.00    -0.550 OA
ENDBRANCH  10  11
ENDBRANCH   9  10
ENDBRANCH   8   9
ENDBRANCH   1   8
TORSDOF 8
ENDMDL
MODEL 2
REMARK VINA RESULT:    -4.006     24.003     24.607
REMARK INTER + INTRA:          -6.459
REMARK INTER:                  -6.181
REMARK INTRA:                  -0.278
REMARK UNBOUND:                -0.579
REMARK SMILES O=C([O-])CCCCCCCC(=O)[O-]
REMARK SMILES IDX 7 1 6 2 5 3 4 4 2 5 1 6 3 7 8 8 9 9 10 10 11 11 12 12 13 13
REMARK H PARENT
REMARK Flexibility Score: inf
ROOT
ATOM      1  C   UNL     1      12.204  22.548 -23.557  1.00  0.00     0.000 C 
ENDROOT
BRANCH   1   2
ATOM      2  C   UNL     1      13.027  22.167 -22.318  1.00  0.00     0.000 C 
BRANCH   2   3
ATOM      3  C   UNL     1      12.866  23.212 -21.208  1.00  0.00     0.006 C 
BRANCH   3   4
ATOM      4  C   UNL     1      11.941  22.701 -20.099  1.00  0.00     0.053 C 
BRANCH   4   5
ATOM      5  C   UNL     1      12.738  22.099 -18.987  1.00  0.00     0.041 C 
ATOM      6  O   UNL     1      12.179  21.780 -17.906  1.00  0.00    -0.550 OA
ATOM      7  O   UNL     1      14.093  21.844 -19.163  1.00  0.00    -0.550 OA
ENDBRANCH   4   5
ENDBRANCH   3   4
ENDBRANCH   2   3
ENDBRANCH   1   2
BRANCH   1   8
ATOM      8  C   UNL     1      12.993  23.416 -24.548  1.00  0.00     0.000 C 
BRANCH   8   9
ATOM      9  C   UNL     1      13.734  22.584 -25.606  1.00  0.00     0.006 C 
BRANCH   9  10
ATOM     10  C   UNL     1      12.903  22.464 -26.888  1.00  0.00     0.053 C 
BRANCH  10  11
ATOM     11  C   UNL     1      12.588  21.030 -27.175  1.00  0.00     0.041 C 
ATOM     12  O   UNL     1      12.622  20.176 -26.250  1.00  0.00    -0.550 OA
ATOM     13  O   UNL     1      12.209  20.644 -28.455  1.00  0.00    -0.550 OA
ENDBRANCH  10  11
ENDBRANCH   9  10
ENDBRANCH   8   9
ENDBRANCH   1   8
TORSDOF 8
ENDMDL
MODEL 3
REMARK VINA RESULT:    -3.993     23.440     24.923
REMARK INTER + INTRA:          -6.439
REMARK INTER:                  -6.113
REMARK INTRA:                  -0.326
REMARK UNBOUND:                -0.579
REMARK SMILES O=C([O-])CCCCCCCC(=O)[O-]
REMARK SMILES IDX 7 1 6 2 5 3 4 4 2 5 1 6 3 7 8 8 9 9 10 10 11 11 12 12 13 13
REMARK H PARENT
REMARK Flexibility Score: inf
ROOT
ATOM      1  C   UNL     1      13.582  22.261 -23.900  1.00  0.00     0.000 C 
ENDROOT
BRANCH   1   2
ATOM      2  C   UNL     1      13.832  22.987 -25.230  1.00  0.00     0.000 C 
BRANCH   2   3
ATOM      3  C   UNL     1      13.149  22.255 -26.392  1.00  0.00     0.006 C 
BRANCH   3   4
ATOM      4  C   UNL     1      12.610  20.893 -25.945  1.00  0.00     0.053 C 
BRANCH   4   5
ATOM      5  C   UNL     1      12.433  19.987 -27.121  1.00  0.00     0.041 C 
ATOM      6  O   UNL     1      12.166  20.465 -28.254  1.00  0.00    -0.550 OA
ATOM      7  O   UNL     1      12.610  18.617 -26.976  1.00  0.00    -0.550 OA
ENDBRANCH   4   5
ENDBRANCH   3   4
ENDBRANCH   2   3
ENDBRANCH   1   2
BRANCH   1   8
ATOM      8  C   UNL     1      12.627  23.033 -22.975  1.00  0.00     0.000 C 
BRANCH   8   9
ATOM      9  C   UNL     1      12.237  22.230 -21.725  1.00  0.00     0.006 C 
BRANCH   9  10
ATOM     10  C   UNL     1      12.512  23.035 -20.450  1.00  0.00     0.053 C 
BRANCH  10  11
ATOM     11  C   UNL     1      13.737  22.523 -19.762  1.00  0.00     0.041 C 
ATOM     12  O   UNL     1      14.856  23.059 -19.979  1.00  0.00    -0.550 OA
ATOM     13  O   UNL     1      13.637  21.486 -18.845  1.00  0.00    -0.550 OA
ENDBRANCH  10  11
ENDBRANCH   9  10
ENDBRANCH   8   9
ENDBRANCH   1   8
TORSDOF 8
ENDMDL
MODEL 4
REMARK VINA RESULT:    -3.972      0.908      6.384
REMARK INTER + INTRA:          -6.409
REMARK INTER:                  -5.948
REMARK INTRA:                  -0.461
REMARK UNBOUND:                -0.579
REMARK SMILES O=C([O-])CCCCCCCC(=O)[O-]
REMARK SMILES IDX 7 1 6 2 5 3 4 4 2 5 1 6 3 7 8 8 9 9 10 10 11 11 12 12 13 13
REMARK H PARENT
REMARK Flexibility Score: inf
ROOT
ATOM      1  C   UNL     1      31.018   6.057 -24.218  1.00  0.00     0.000 C 
ENDROOT
BRANCH   1   2
ATOM      2  C   UNL     1      30.371   5.889 -25.601  1.00  0.00     0.000 C 
BRANCH   2   3
ATOM      3  C   UNL     1      30.630   4.485 -26.161  1.00  0.00     0.006 C 
BRANCH   3   4
ATOM      4  C   UNL     1      31.397   4.553 -27.485  1.00  0.00     0.053 C 
BRANCH   4   5
ATOM      5  C   UNL     1      30.491   4.240 -28.633  1.00  0.00     0.041 C 
ATOM      6  O   UNL     1      29.305   3.875 -28.422  1.00  0.00    -0.550 OA
ATOM      7  O   UNL     1      30.941   4.399 -29.937  1.00  0.00    -0.550 OA
ENDBRANCH   4   5
ENDBRANCH   3   4
ENDBRANCH   2   3
ENDBRANCH   1   2
BRANCH   1   8
ATOM      8  C   UNL     1      31.351   4.712 -23.553  1.00  0.00     0.000 C 
BRANCH   8   9
ATOM      9  C   UNL     1      30.724   4.570 -22.157  1.00  0.00     0.006 C 
BRANCH   9  10
ATOM     10  C   UNL     1      29.245   4.968 -22.178  1.00  0.00     0.053 C 
BRANCH  10  11
ATOM     11  C   UNL     1      28.895   5.749 -20.951  1.00  0.00     0.041 C 
ATOM     12  O   UNL     1      29.805   6.220 -20.219  1.00  0.00    -0.550 OA
ATOM     13  O   UNL     1      27.564   5.997 -20.641  1.00  0.00    -0.550 OA
ENDBRANCH  10  11
ENDBRANCH   9  10
ENDBRANCH   8   9
ENDBRANCH   1   8
TORSDOF 8
ENDMDL
MODEL 5
REMARK VINA RESULT:    -3.942     23.192     24.958
REMARK INTER + INTRA:          -6.364
REMARK INTER:                  -6.050
REMARK INTRA:                  -0.314
REMARK UNBOUND:                -0.579
REMARK SMILES O=C([O-])CCCCCCCC(=O)[O-]
REMARK SMILES IDX 7 1 6 2 5 3 4 4 2 5 1 6 3 7 8 8 9 9 10 10 11 11 12 12 13 13
REMARK H PARENT
REMARK Flexibility Score: inf
ROOT
ATOM      1  C   UNL     1      13.049  22.923 -21.617  1.00  0.00     0.000 C 
ENDROOT
BRANCH   1   2
ATOM      2  C   UNL     1      12.275  22.531 -22.885  1.00  0.00     0.000 C 
BRANCH   2   3
ATOM      3  C   UNL     1      12.662  23.431 -24.064  1.00  0.00     0.006 C 
BRANCH   3   4
ATOM      4  C   UNL     1      13.772  22.793 -24.904  1.00  0.00     0.053 C 
BRANCH   4   5
ATOM      5  C   UNL     1      13.189  22.026 -26.048  1.00  0.00     0.041 C 
ATOM      6  O   UNL     1      13.074  22.564 -27.179  1.00  0.00    -0.550 OA
ATOM      7  O   UNL     1      12.818  20.698 -25.876  1.00  0.00    -0.550 OA
ENDBRANCH   4   5
ENDBRANCH   3   4
ENDBRANCH   2   3
ENDBRANCH   1   2
BRANCH   1   8
ATOM      8  C   UNL     1      12.168  22.908 -20.358  1.00  0.00     0.000 C 
BRANCH   8   9
ATOM      9  C   UNL     1      12.219  21.565 -19.615  1.00  0.00     0.006 C 
BRANCH   9  10
ATOM     10  C   UNL     1      13.190  21.631 -18.431  1.00  0.00     0.053 C 
BRANCH  10  11
ATOM     11  C   UNL     1      14.488  20.976 -18.781  1.00  0.00     0.041 C 
ATOM     12  O   UNL     1      14.499  19.840 -19.322  1.00  0.00    -0.550 OA
ATOM     13  O   UNL     1      15.686  21.642 -18.554  1.00  0.00    -0.550 OA
ENDBRANCH  10  11
ENDBRANCH   9  10
ENDBRANCH   8   9
ENDBRANCH   1   8
TORSDOF 8
ENDMDL
MODEL 6
REMARK VINA RESULT:    -3.895      1.470      2.218
REMARK INTER + INTRA:          -6.295
REMARK INTER:                  -5.873
REMARK INTRA:                  -0.423
REMARK UNBOUND:                -0.579
REMARK SMILES O=C([O-])CCCCCCCC(=O)[O-]
REMARK SMILES IDX 7 1 6 2 5 3 4 4 2 5 1 6 3 7 8 8 9 9 10 10 11 11 12 12 13 13
REMARK H PARENT
REMARK Flexibility Score: inf
ROOT
ATOM      1  C   UNL     1      31.075   4.890 -23.294  1.00  0.00     0.000 C 
ENDROOT
BRANCH   1   2
ATOM      2  C   UNL     1      31.227   4.641 -21.786  1.00  0.00     0.000 C 
BRANCH   2   3
ATOM      3  C   UNL     1      29.872   4.740 -21.074  1.00  0.00     0.006 C 
BRANCH   3   4
ATOM      4  C   UNL     1      29.674   6.128 -20.457  1.00  0.00     0.053 C 
BRANCH   4   5
ATOM      5  C   UNL     1      28.225   6.378 -20.186  1.00  0.00     0.041 C 
ATOM      6  O   UNL     1      27.856   7.458 -19.656  1.00  0.00    -0.550 OA
ATOM      7  O   UNL     1      27.274   5.437 -20.563  1.00  0.00    -0.550 OA
ENDBRANCH   4   5
ENDBRANCH   3   4
ENDBRANCH   2   3
ENDBRANCH   1   2
BRANCH   1   8
ATOM      8  C   UNL     1      29.667   4.557 -23.810  1.00  0.00     0.000 C 
BRANCH   8   9
ATOM      9  C   UNL     1      29.658   4.164 -25.295  1.00  0.00     0.006 C 
BRANCH   9  10
ATOM     10  C   UNL     1      31.084   4.077 -25.847  1.00  0.00     0.053 C 
BRANCH  10  11
ATOM     11  C   UNL     1      31.235   4.955 -27.048  1.00  0.00     0.041 C 
ATOM     12  O   UNL     1      31.304   4.448 -28.199  1.00  0.00    -0.550 OA
ATOM     13  O   UNL     1      31.252   6.336 -26.903  1.00  0.00    -0.550 OA
ENDBRANCH  10  11
ENDBRANCH   9  10
ENDBRANCH   8   9
ENDBRANCH   1   8
TORSDOF 8
ENDMDL
MODEL 7
REMARK VINA RESULT:    -3.895     22.326     24.000
REMARK INTER + INTRA:          -6.295
REMARK INTER:                  -5.952
REMARK INTRA:                  -0.343
REMARK UNBOUND:                -0.579
REMARK SMILES O=C([O-])CCCCCCCC(=O)[O-]
REMARK SMILES IDX 7 1 6 2 5 3 4 4 2 5 1 6 3 7 8 8 9 9 10 10 11 11 12 12 13 13
REMARK H PARENT
REMARK Flexibility Score: inf
ROOT
ATOM      1  C   UNL     1      12.021  22.637 -19.689  1.00  0.00     0.000 C 
ENDROOT
BRANCH   1   2
ATOM      2  C   UNL     1      12.905  21.939 -18.644  1.00  0.00     0.000 C 
BRANCH   2   3
ATOM      3  C   UNL     1      14.278  21.590 -19.231  1.00  0.00     0.006 C 
BRANCH   3   4
ATOM      4  C   UNL     1      14.890  20.380 -18.520  1.00  0.00     0.053 C 
BRANCH   4   5
ATOM      5  C   UNL     1      16.166  20.761 -17.839  1.00  0.00     0.041 C 
ATOM      6  O   UNL     1      16.679  21.892 -18.042  1.00  0.00    -0.550 OA
ATOM      7  O   UNL     1      16.763  19.885 -16.942  1.00  0.00    -0.550 OA
ENDBRANCH   4   5
ENDBRANCH   3   4
ENDBRANCH   2   3
ENDBRANCH   1   2
BRANCH   1   8
ATOM      8  C   UNL     1      12.806  23.057 -20.941  1.00  0.00     0.000 C 
BRANCH   8   9
ATOM      9  C   UNL     1      12.236  22.444 -22.230  1.00  0.00     0.006 C 
BRANCH   9  10
ATOM     10  C   UNL     1      12.670  23.251 -23.458  1.00  0.00     0.053 C 
BRANCH  10  11
ATOM     11  C   UNL     1      13.360  22.368 -24.449  1.00  0.00     0.041 C 
ATOM     12  O   UNL     1      14.022  22.872 -25.393  1.00  0.00    -0.550 OA
ATOM     13  O   UNL     1      13.312  20.988 -24.301  1.00  0.00    -0.550 OA
ENDBRANCH  10  11
ENDBRANCH   9  10
ENDBRANCH   8   9
ENDBRANCH   1   8
TORSDOF 8
ENDMDL
MODEL 8
REMARK VINA RESULT:    -3.888      1.244      5.392
REMARK INTER + INTRA:          -6.285
REMARK INTER:                  -5.762
REMARK INTRA:                  -0.523
REMARK UNBOUND:                -0.579
REMARK SMILES O=C([O-])CCCCCCCC(=O)[O-]
REMARK SMILES IDX 7 1 6 2 5 3 4 4 2 5 1 6 3 7 8 8 9 9 10 10 11 11 12 12 13 13
REMARK H PARENT
REMARK Flexibility Score: inf
ROOT
ATOM      1  C   UNL     1      30.951   6.683 -24.768  1.00  0.00     0.000 C 
ENDROOT
BRANCH   1   2
ATOM      2  C   UNL     1      31.750   5.895 -25.817  1.00  0.00     0.000 C 
BRANCH   2   3
ATOM      3  C   UNL     1      31.446   4.395 -25.725  1.00  0.00     0.006 C 
BRANCH   3   4
ATOM      4  C   UNL     1      30.562   3.939 -26.889  1.00  0.00     0.053 C 
BRANCH   4   5
ATOM      5  C   UNL     1      29.118   3.990 -26.502  1.00  0.00     0.041 C 
ATOM      6  O   UNL     1      28.781   3.875 -25.296  1.00  0.00    -0.550 OA
ATOM      7  O   UNL     1      28.147   4.215 -27.471  1.00  0.00    -0.550 OA
ENDBRANCH   4   5
ENDBRANCH   3   4
ENDBRANCH   2   3
ENDBRANCH   1   2
BRANCH   1   8
ATOM      8  C   UNL     1      31.738   6.903 -23.467  1.00  0.00     0.000 C 
BRANCH   8   9
ATOM      9  C   UNL     1      31.388   5.873 -22.382  1.00  0.00     0.006 C 
BRANCH   9  10
ATOM     10  C   UNL     1      29.898   5.519 -22.424  1.00  0.00     0.053 C 
BRANCH  10  11
ATOM     11  C   UNL     1      29.325   5.502 -21.042  1.00  0.00     0.041 C 
ATOM     12  O   UNL     1      28.269   6.139 -20.786  1.00  0.00    -0.550 OA
ATOM     13  O   UNL     1      29.929   4.744 -20.048  1.00  0.00    -0.550 OA
ENDBRANCH  10  11
ENDBRANCH   9  10
ENDBRANCH   8   9
ENDBRANCH   1   8
TORSDOF 8
ENDMDL
MODEL 9
REMARK VINA RESULT:    -3.856      2.120      6.243
REMARK INTER + INTRA:          -6.238
REMARK INTER:                  -5.773
REMARK INTRA:                  -0.465
REMARK UNBOUND:                -0.579
REMARK SMILES O=C([O-])CCCCCCCC(=O)[O-]
REMARK SMILES IDX 7 1 6 2 5 3 4 4 2 5 1 6 3 7 8 8 9 9 10 10 11 11 12 12 13 13
REMARK H PARENT
REMARK Flexibility Score: inf
ROOT
ATOM      1  C   UNL     1      31.043   5.656 -21.711  1.00  0.00     0.000 C 
ENDROOT
BRANCH   1   2
ATOM      2  C   UNL     1      30.669   4.339 -22.406  1.00  0.00     0.000 C 
BRANCH   2   3
ATOM      3  C   UNL     1      31.339   4.234 -23.781  1.00  0.00     0.006 C 
BRANCH   3   4
ATOM      4  C   UNL     1      30.335   4.504 -24.906  1.00  0.00     0.053 C 
BRANCH   4   5
ATOM      5  C   UNL     1      30.689   5.762 -25.634  1.00  0.00     0.041 C 
ATOM      6  O   UNL     1      30.698   6.864 -25.027  1.00  0.00    -0.550 OA
ATOM      7  O   UNL     1      31.057   5.709 -26.972  1.00  0.00    -0.550 OA
ENDBRANCH   4   5
ENDBRANCH   3   4
ENDBRANCH   2   3
ENDBRANCH   1   2
BRANCH   1   8
ATOM      8  C   UNL     1      31.180   5.504 -20.188  1.00  0.00     0.000 C 
BRANCH   8   9
ATOM      9  C   UNL     1      29.857   5.119 -19.510  1.00  0.00     0.006 C 
BRANCH   9  10
ATOM     10  C   UNL     1      29.049   6.367 -19.137  1.00  0.00     0.053 C 
BRANCH  10  11
ATOM     11  C   UNL     1      27.876   6.524 -20.052  1.00  0.00     0.041 C 
ATOM     12  O   UNL     1      27.277   7.628 -20.130  1.00  0.00    -0.550 OA
ATOM     13  O   UNL     1      27.474   5.464 -20.856  1.00  0.00    -0.550 OA
ENDBRANCH  10  11
ENDBRANCH   9  10
ENDBRANCH   8   9
ENDBRANCH   1   8
TORSDOF 8
ENDMDL
