MODEL 1
REMARK VINA RESULT:    -4.028      0.000      0.000
REMARK INTER + INTRA:          -7.221
REMARK INTER:                  -6.148
REMARK INTRA:                  -1.073
REMARK UNBOUND:                -1.073
REMARK SMILES CCCCCCCCCCC(=O)[O-]
REMARK SMILES IDX 7 1 8 2 9 3 10 4 11 5 12 6 13 7 6 8 5 9 4 10 3 11 2 12 1 13
REMARK H PARENT
REMARK Flexibility Score: inf
ROOT
ATOM      1  C   UNL     1      17.034  52.118 158.664  1.00  0.00     0.000 C 
ENDROOT
BRANCH   1   2
ATOM      2  C   UNL     1      16.669  52.807 159.987  1.00  0.00     0.000 C 
BRANCH   2   3
ATOM      3  C   UNL     1      17.791  53.751 160.442  1.00  0.00     0.006 C 
BRANCH   3   4
ATOM      4  C   UNL     1      19.026  53.665 159.535  1.00  0.00     0.053 C 
BRANCH   4   5
ATOM      5  C   UNL     1      20.297  53.673 160.327  1.00  0.00     0.041 C 
ATOM      6  O   UNL     1      20.305  54.097 161.513  1.00  0.00    -0.550 OA
ATOM      7  O   UNL     1      21.482  53.243 159.742  1.00  0.00    -0.550 OA
ENDBRANCH   4   5
ENDBRANCH   3   4
ENDBRANCH   2   3
ENDBRANCH   1   2
BRANCH   1   8
ATOM      8  C   UNL     1      15.808  51.858 157.775  1.00  0.00     0.000 C 
BRANCH   8   9
ATOM      9  C   UNL     1      14.534  52.535 158.311  1.00  0.00    -0.000 C 
BRANCH   9  10
ATOM     10  C   UNL     1      13.870  53.452 157.272  1.00  0.00    -0.000 C 
BRANCH  10  11
ATOM     11  C   UNL     1      14.888  54.116 156.333  1.00  0.00    -0.000 C 
BRANCH  11  12
ATOM     12  C   UNL     1      15.119  55.580 156.721  1.00  0.00    -0.003 C 
ATOM     13  C   UNL     1      16.377  55.735 157.571  1.00  0.00     0.004 C 
ENDBRANCH  11  12
ENDBRANCH  10  11
ENDBRANCH   9  10
ENDBRANCH   8   9
ENDBRANCH   1   8
TORSDOF 9
ENDMDL
MODEL 2
REMARK VINA RESULT:    -3.993      1.123      3.063
REMARK INTER + INTRA:          -7.167
REMARK INTER:                  -6.169
REMARK INTRA:                  -0.997
REMARK UNBOUND:                -1.073
REMARK SMILES CCCCCCCCCCC(=O)[O-]
REMARK SMILES IDX 7 1 8 2 9 3 10 4 11 5 12 6 13 7 6 8 5 9 4 10 3 11 2 12 1 13
REMARK H PARENT
REMARK Flexibility Score: inf
ROOT
ATOM      1  C   UNL     1      16.984  55.143 158.420  1.00  0.00     0.000 C 
ENDROOT
BRANCH   1   2
ATOM      2  C   UNL     1      18.434  55.051 157.923  1.00  0.00     0.000 C 
BRANCH   2   3
ATOM      3  C   UNL     1      19.064  53.706 158.314  1.00  0.00     0.006 C 
BRANCH   3   4
ATOM      4  C   UNL     1      19.021  53.463 159.828  1.00  0.00     0.053 C 
BRANCH   4   5
ATOM      5  C   UNL     1      20.359  53.688 160.464  1.00  0.00     0.041 C 
ATOM      6  O   UNL     1      21.410  53.303 159.886  1.00  0.00    -0.550 OA
ATOM      7  O   UNL     1      20.442  54.292 161.712  1.00  0.00    -0.550 OA
ENDBRANCH   4   5
ENDBRANCH   3   4
ENDBRANCH   2   3
ENDBRANCH   1   2
BRANCH   1   8
ATOM      8  C   UNL     1      15.978  55.343 157.276  1.00  0.00     0.000 C 
BRANCH   8   9
ATOM      9  C   UNL     1      14.896  54.250 157.241  1.00  0.00    -0.000 C 
BRANCH   9  10
ATOM     10  C   UNL     1      15.422  52.882 157.706  1.00  0.00    -0.000 C 
BRANCH  10  11
ATOM     11  C   UNL     1      14.576  52.275 158.834  1.00  0.00    -0.000 C 
BRANCH  11  12
ATOM     12  C   UNL     1      15.463  51.577 159.871  1.00  0.00    -0.003 C 
ATOM     13  C   UNL     1      16.506  50.689 159.197  1.00  0.00     0.004 C 
ENDBRANCH  11  12
ENDBRANCH  10  11
ENDBRANCH   9  10
ENDBRANCH   8   9
ENDBRANCH   1   8
TORSDOF 9
ENDMDL
MODEL 3
REMARK VINA RESULT:    -3.980      1.975      3.185
REMARK INTER + INTRA:          -7.147
REMARK INTER:                  -5.885
REMARK INTRA:                  -1.262
REMARK UNBOUND:                -1.073
REMARK SMILES CCCCCCCCCCC(=O)[O-]
REMARK SMILES IDX 7 1 8 2 9 3 10 4 11 5 12 6 13 7 6 8 5 9 4 10 3 11 2 12 1 13
REMARK H PARENT
REMARK Flexibility Score: inf
ROOT
ATOM      1  C   UNL     1      16.798  53.845 156.446  1.00  0.00     0.000 C 
ENDROOT
BRANCH   1   2
ATOM      2  C   UNL     1      18.101  53.490 157.179  1.00  0.00     0.000 C 
BRANCH   2   3
ATOM      3  C   UNL     1      18.601  54.677 158.015  1.00  0.00     0.006 C 
BRANCH   3   4
ATOM      4  C   UNL     1      17.501  55.260 158.912  1.00  0.00     0.053 C 
BRANCH   4   5
ATOM      5  C   UNL     1      17.888  55.224 160.359  1.00  0.00     0.041 C 
ATOM      6  O   UNL     1      17.837  56.272 161.056  1.00  0.00    -0.550 OA
ATOM      7  O   UNL     1      18.338  54.039 160.928  1.00  0.00    -0.550 OA
ENDBRANCH   4   5
ENDBRANCH   3   4
ENDBRANCH   2   3
ENDBRANCH   1   2
BRANCH   1   8
ATOM      8  C   UNL     1      16.056  52.604 155.926  1.00  0.00     0.000 C 
BRANCH   8   9
ATOM      9  C   UNL     1      14.634  52.482 156.501  1.00  0.00    -0.000 C 
BRANCH   9  10
ATOM     10  C   UNL     1      14.491  53.159 157.874  1.00  0.00    -0.000 C 
BRANCH  10  11
ATOM     11  C   UNL     1      14.455  52.149 159.030  1.00  0.00    -0.000 C 
BRANCH  11  12
ATOM     12  C   UNL     1      15.842  51.990 159.663  1.00  0.00    -0.003 C 
ATOM     13  C   UNL     1      16.509  50.693 159.215  1.00  0.00     0.004 C 
ENDBRANCH  11  12
ENDBRANCH  10  11
ENDBRANCH   9  10
ENDBRANCH   8   9
ENDBRANCH   1   8
TORSDOF 9
ENDMDL
MODEL 4
REMARK VINA RESULT:    -3.944      1.437      2.978
REMARK INTER + INTRA:          -7.092
REMARK INTER:                  -5.770
REMARK INTRA:                  -1.322
REMARK UNBOUND:                -1.073
REMARK SMILES CCCCCCCCCCC(=O)[O-]
REMARK SMILES IDX 7 1 8 2 9 3 10 4 11 5 12 6 13 7 6 8 5 9 4 10 3 11 2 12 1 13
REMARK H PARENT
REMARK Flexibility Score: inf
ROOT
ATOM      1  C   UNL     1      17.795  53.666 156.883  1.00  0.00     0.000 C 
ENDROOT
BRANCH   1   2
ATOM      2  C   UNL     1      18.699  53.715 158.125  1.00  0.00     0.000 C 
BRANCH   2   3
ATOM      3  C   UNL     1      18.040  54.526 159.250  1.00  0.00     0.006 C 
BRANCH   3   4
ATOM      4  C   UNL     1      18.168  53.835 160.615  1.00  0.00     0.053 C 
BRANCH   4   5
ATOM      5  C   UNL     1      19.222  54.475 161.464  1.00  0.00     0.041 C 
ATOM      6  O   UNL     1      20.417  54.083 161.396  1.00  0.00    -0.550 OA
ATOM      7  O   UNL     1      18.879  55.483 162.356  1.00  0.00    -0.550 OA
ENDBRANCH   4   5
ENDBRANCH   3   4
ENDBRANCH   2   3
ENDBRANCH   1   2
BRANCH   1   8
ATOM      8  C   UNL     1      16.489  54.454 157.071  1.00  0.00     0.000 C 
BRANCH   8   9
ATOM      9  C   UNL     1      15.253  53.675 156.589  1.00  0.00    -0.000 C 
BRANCH   9  10
ATOM     10  C   UNL     1      15.111  52.308 157.277  1.00  0.00    -0.000 C 
BRANCH  10  11
ATOM     11  C   UNL     1      14.516  52.416 158.688  1.00  0.00    -0.000 C 
BRANCH  11  12
ATOM     12  C   UNL     1      15.280  51.526 159.675  1.00  0.00    -0.003 C 
ATOM     13  C   UNL     1      16.476  50.857 159.004  1.00  0.00     0.004 C 
ENDBRANCH  11  12
ENDBRANCH  10  11
ENDBRANCH   9  10
ENDBRANCH   8   9
ENDBRANCH   1   8
TORSDOF 9
ENDMDL
MODEL 5
REMARK VINA RESULT:    -3.914      2.664      4.654
REMARK INTER + INTRA:          -7.046
REMARK INTER:                  -5.781
REMARK INTRA:                  -1.265
REMARK UNBOUND:                -1.073
REMARK SMILES CCCCCCCCCCC(=O)[O-]
REMARK SMILES IDX 7 1 8 2 9 3 10 4 11 5 12 6 13 7 6 8 5 9 4 10 3 11 2 12 1 13
REMARK H PARENT
REMARK Flexibility Score: inf
ROOT
ATOM      1  C   UNL     1      16.363  54.838 157.196  1.00  0.00     0.000 C 
ENDROOT
BRANCH   1   2
ATOM      2  C   UNL     1      14.946  54.253 157.297  1.00  0.00     0.000 C 
BRANCH   2   3
ATOM      3  C   UNL     1      14.993  52.725 157.447  1.00  0.00     0.006 C 
BRANCH   3   4
ATOM      4  C   UNL     1      14.883  52.282 158.912  1.00  0.00     0.053 C 
BRANCH   4   5
ATOM      5  C   UNL     1      15.761  51.104 159.203  1.00  0.00     0.041 C 
ATOM      6  O   UNL     1      16.696  50.799 158.417  1.00  0.00    -0.550 OA
ATOM      7  O   UNL     1      15.523  50.321 160.326  1.00  0.00    -0.550 OA
ENDBRANCH   4   5
ENDBRANCH   3   4
ENDBRANCH   2   3
ENDBRANCH   1   2
BRANCH   1   8
ATOM      8  C   UNL     1      17.295  53.983 156.324  1.00  0.00     0.000 C 
BRANCH   8   9
ATOM      9  C   UNL     1      18.482  53.407 157.117  1.00  0.00    -0.000 C 
BRANCH   9  10
ATOM     10  C   UNL     1      18.822  54.241 158.362  1.00  0.00    -0.000 C 
BRANCH  10  11
ATOM     11  C   UNL     1      18.759  53.421 159.658  1.00  0.00    -0.000 C 
BRANCH  11  12
ATOM     12  C   UNL     1      17.814  54.073 160.674  1.00  0.00    -0.003 C 
ATOM     13  C   UNL     1      17.827  55.593 160.544  1.00  0.00     0.004 C 
ENDBRANCH  11  12
ENDBRANCH  10  11
ENDBRANCH   9  10
ENDBRANCH   8   9
ENDBRANCH   1   8
TORSDOF 9
ENDMDL
MODEL 6
REMARK VINA RESULT:    -3.913      2.592      4.814
REMARK INTER + INTRA:          -7.046
REMARK INTER:                  -5.788
REMARK INTRA:                  -1.257
REMARK UNBOUND:                -1.073
REMARK SMILES CCCCCCCCCCC(=O)[O-]
REMARK SMILES IDX 7 1 8 2 9 3 10 4 11 5 12 6 13 7 6 8 5 9 4 10 3 11 2 12 1 13
REMARK H PARENT
REMARK Flexibility Score: inf
ROOT
ATOM      1  C   UNL     1      15.291  54.957 157.123  1.00  0.00     0.000 C 
ENDROOT
BRANCH   1   2
ATOM      2  C   UNL     1      15.559  53.830 156.114  1.00  0.00     0.000 C 
BRANCH   2   3
ATOM      3  C   UNL     1      15.149  52.467 156.692  1.00  0.00     0.006 C 
BRANCH   3   4
ATOM      4  C   UNL     1      14.755  52.559 158.172  1.00  0.00     0.053 C 
BRANCH   4   5
ATOM      5  C   UNL     1      15.395  51.476 158.985  1.00  0.00     0.041 C 
ATOM      6  O   UNL     1      14.901  51.137 160.092  1.00  0.00    -0.550 OA
ATOM      7  O   UNL     1      16.559  50.865 158.534  1.00  0.00    -0.550 OA
ENDBRANCH   4   5
ENDBRANCH   3   4
ENDBRANCH   2   3
ENDBRANCH   1   2
BRANCH   1   8
ATOM      8  C   UNL     1      16.522  55.846 157.358  1.00  0.00     0.000 C 
BRANCH   8   9
ATOM      9  C   UNL     1      17.755  55.370 156.569  1.00  0.00    -0.000 C 
BRANCH   9  10
ATOM     10  C   UNL     1      18.913  54.943 157.484  1.00  0.00    -0.000 C 
BRANCH  10  11
ATOM     11  C   UNL     1      18.663  53.588 158.161  1.00  0.00    -0.000 C 
BRANCH  11  12
ATOM     12  C   UNL     1      18.968  53.659 159.662  1.00  0.00    -0.003 C 
ATOM     13  C   UNL     1      17.690  53.835 160.478  1.00  0.00     0.004 C 
ENDBRANCH  11  12
ENDBRANCH  10  11
ENDBRANCH   9  10
ENDBRANCH   8   9
ENDBRANCH   1   8
TORSDOF 9
ENDMDL
MODEL 7
REMARK VINA RESULT:    -3.868      2.396      4.173
REMARK INTER + INTRA:          -6.976
REMARK INTER:                  -5.828
REMARK INTRA:                  -1.148
REMARK UNBOUND:                -1.073
REMARK SMILES CCCCCCCCCCC(=O)[O-]
REMARK SMILES IDX 7 1 8 2 9 3 10 4 11 5 12 6 13 7 6 8 5 9 4 10 3 11 2 12 1 13
REMARK H PARENT
REMARK Flexibility Score: inf
ROOT
ATOM      1  C   UNL     1      15.243  53.891 156.076  1.00  0.00     0.000 C 
ENDROOT
BRANCH   1   2
ATOM      2  C   UNL     1      15.173  55.106 157.014  1.00  0.00     0.000 C 
BRANCH   2   3
ATOM      3  C   UNL     1      15.841  56.332 156.375  1.00  0.00     0.006 C 
BRANCH   3   4
ATOM      4  C   UNL     1      17.208  56.641 157.000  1.00  0.00     0.053 C 
BRANCH   4   5
ATOM      5  C   UNL     1      17.070  57.294 158.341  1.00  0.00     0.041 C 
ATOM      6  O   UNL     1      16.676  58.487 158.429  1.00  0.00    -0.550 OA
ATOM      7  O   UNL     1      17.408  56.594 159.493  1.00  0.00    -0.550 OA
ENDBRANCH   4   5
ENDBRANCH   3   4
ENDBRANCH   2   3
ENDBRANCH   1   2
BRANCH   1   8
ATOM      8  C   UNL     1      14.789  52.591 156.757  1.00  0.00     0.000 C 
BRANCH   8   9
ATOM      9  C   UNL     1      14.308  52.816 158.201  1.00  0.00    -0.000 C 
BRANCH   9  10
ATOM     10  C   UNL     1      14.939  51.828 159.195  1.00  0.00    -0.000 C 
BRANCH  10  11
ATOM     11  C   UNL     1      16.451  51.665 158.986  1.00  0.00    -0.000 C 
BRANCH  11  12
ATOM     12  C   UNL     1      17.203  52.933 159.406  1.00  0.00    -0.003 C 
ATOM     13  C   UNL     1      18.235  53.336 158.355  1.00  0.00     0.004 C 
ENDBRANCH  11  12
ENDBRANCH  10  11
ENDBRANCH   9  10
ENDBRANCH   8   9
ENDBRANCH   1   8
TORSDOF 9
ENDMDL
MODEL 8
REMARK VINA RESULT:    -3.815      1.139      2.934
REMARK INTER + INTRA:          -6.896
REMARK INTER:                  -5.844
REMARK INTRA:                  -1.052
REMARK UNBOUND:                -1.073
REMARK SMILES CCCCCCCCCCC(=O)[O-]
REMARK SMILES IDX 7 1 8 2 9 3 10 4 11 5 12 6 13 7 6 8 5 9 4 10 3 11 2 12 1 13
REMARK H PARENT
REMARK Flexibility Score: inf
ROOT
ATOM      1  C   UNL     1      16.347  55.740 157.349  1.00  0.00     0.000 C 
ENDROOT
BRANCH   1   2
ATOM      2  C   UNL     1      17.137  55.158 158.531  1.00  0.00     0.000 C 
BRANCH   2   3
ATOM      3  C   UNL     1      18.627  55.022 158.181  1.00  0.00     0.006 C 
BRANCH   3   4
ATOM      4  C   UNL     1      19.231  53.715 158.712  1.00  0.00     0.053 C 
BRANCH   4   5
ATOM      5  C   UNL     1      20.264  53.970 159.767  1.00  0.00     0.041 C 
ATOM      6  O   UNL     1      21.333  53.304 159.784  1.00  0.00    -0.550 OA
ATOM      7  O   UNL     1      20.031  54.923 160.751  1.00  0.00    -0.550 OA
ENDBRANCH   4   5
ENDBRANCH   3   4
ENDBRANCH   2   3
ENDBRANCH   1   2
BRANCH   1   8
ATOM      8  C   UNL     1      15.101  54.911 157.005  1.00  0.00     0.000 C 
BRANCH   8   9
ATOM      9  C   UNL     1      15.439  53.639 156.207  1.00  0.00    -0.000 C 
BRANCH   9  10
ATOM     10  C   UNL     1      15.079  52.352 156.967  1.00  0.00    -0.000 C 
BRANCH  10  11
ATOM     11  C   UNL     1      14.348  52.630 158.288  1.00  0.00    -0.000 C 
BRANCH  11  12
ATOM     12  C   UNL     1      14.972  51.833 159.439  1.00  0.00    -0.003 C 
ATOM     13  C   UNL     1      16.331  51.262 159.043  1.00  0.00     0.004 C 
ENDBRANCH  11  12
ENDBRANCH  10  11
ENDBRANCH   9  10
ENDBRANCH   8   9
ENDBRANCH   1   8
TORSDOF 9
ENDMDL
MODEL 9
REMARK VINA RESULT:    -3.808      2.411      3.526
REMARK INTER + INTRA:          -6.884
REMARK INTER:                  -5.723
REMARK INTRA:                  -1.161
REMARK UNBOUND:                -1.073
REMARK SMILES CCCCCCCCCCC(=O)[O-]
REMARK SMILES IDX 7 1 8 2 9 3 10 4 11 5 12 6 13 7 6 8 5 9 4 10 3 11 2 12 1 13
REMARK H PARENT
REMARK Flexibility Score: inf
ROOT
ATOM      1  C   UNL     1      18.627  53.537 157.713  1.00  0.00     0.000 C 
ENDROOT
BRANCH   1   2
ATOM      2  C   UNL     1      18.994  53.624 159.202  1.00  0.00     0.000 C 
BRANCH   2   3
ATOM      3  C   UNL     1      17.806  54.134 160.031  1.00  0.00     0.006 C 
BRANCH   3   4
ATOM      4  C   UNL     1      18.225  55.197 161.054  1.00  0.00     0.053 C 
BRANCH   4   5
ATOM      5  C   UNL     1      17.775  56.567 160.648  1.00  0.00     0.041 C 
ATOM      6  O   UNL     1      17.418  56.792 159.461  1.00  0.00    -0.550 OA
ATOM      7  O   UNL     1      17.783  57.603 161.574  1.00  0.00    -0.550 OA
ENDBRANCH   4   5
ENDBRANCH   3   4
ENDBRANCH   2   3
ENDBRANCH   1   2
BRANCH   1   8
ATOM      8  C   UNL     1      17.168  53.932 157.439  1.00  0.00     0.000 C 
BRANCH   8   9
ATOM      9  C   UNL     1      16.485  53.004 156.419  1.00  0.00    -0.000 C 
BRANCH   9  10
ATOM     10  C   UNL     1      15.428  52.094 157.064  1.00  0.00    -0.000 C 
BRANCH  10  11
ATOM     11  C   UNL     1      14.779  52.727 158.303  1.00  0.00    -0.000 C 
BRANCH  11  12
ATOM     12  C   UNL     1      14.830  51.770 159.499  1.00  0.00    -0.003 C 
ATOM     13  C   UNL     1      16.100  50.923 159.476  1.00  0.00     0.004 C 
ENDBRANCH  11  12
ENDBRANCH  10  11
ENDBRANCH   9  10
ENDBRANCH   8   9
ENDBRANCH   1   8
TORSDOF 9
ENDMDL
