MODEL 1
REMARK VINA RESULT:    -4.981      0.000      0.000
REMARK INTER + INTRA:          -5.847
REMARK INTER:                  -5.563
REMARK INTRA:                  -0.284
REMARK UNBOUND:                -0.284
REMARK SMILES CC(=O)c1ccc(O)cc1O
REMARK SMILES IDX 4 1 10 2 9 3 7 4 6 5 5 6 2 7 1 8 3 9 11 10 8 12
REMARK H PARENT 11 11 8 13
REMARK Flexibility Score: inf
ROOT
ATOM      1  C   UNL     1       1.337 -20.093  -5.596  1.00  0.00     0.059 A 
ATOM      2  C   UNL     1       1.999 -20.336  -6.825  1.00  0.00     0.130 A 
ATOM      3  C   UNL     1       1.760 -21.530  -7.518  1.00  0.00     0.093 A 
ATOM      4  C   UNL     1       0.850 -22.469  -7.028  1.00  0.00     0.119 A 
ATOM      5  C   UNL     1       0.171 -22.219  -5.831  1.00  0.00     0.047 A 
ATOM      6  C   UNL     1       0.413 -21.042  -5.121  1.00  0.00     0.019 A 
ENDROOT
BRANCH   1   7
ATOM      7  C   UNL     1       1.616 -18.888  -4.779  1.00  0.00     0.163 C 
ATOM      8  C   UNL     1       1.566 -18.938  -3.282  1.00  0.00     0.093 C 
ATOM      9  O   UNL     1       1.981 -17.819  -5.338  1.00  0.00    -0.294 OA
ENDBRANCH   1   7
BRANCH   2  10
ATOM     10  O   UNL     1       2.873 -19.411  -7.401  1.00  0.00    -0.507 OA
ATOM     11  H   UNL     1       3.860 -19.585  -7.532  1.00  0.00     0.293 HD
ENDBRANCH   2  10
BRANCH   4  12
ATOM     12  O   UNL     1       0.623 -23.644  -7.741  1.00  0.00    -0.508 OA
ATOM     13  H   UNL     1      -0.218 -24.193  -7.604  1.00  0.00     0.293 HD
ENDBRANCH   4  12
TORSDOF 3
ENDMDL
MODEL 2
REMARK VINA RESULT:    -4.980      1.189      3.969
REMARK INTER + INTRA:          -5.847
REMARK INTER:                  -5.613
REMARK INTRA:                  -0.234
REMARK UNBOUND:                -0.284
REMARK SMILES CC(=O)c1ccc(O)cc1O
REMARK SMILES IDX 4 1 10 2 9 3 7 4 6 5 5 6 2 7 1 8 3 9 11 10 8 12
REMARK H PARENT 11 11 8 13
REMARK Flexibility Score: inf
ROOT
ATOM      1  C   UNL     1       1.030 -21.012  -5.928  1.00  0.00     0.059 A 
ATOM      2  C   UNL     1       1.773 -19.851  -6.259  1.00  0.00     0.130 A 
ATOM      3  C   UNL     1       1.821 -18.778  -5.360  1.00  0.00     0.093 A 
ATOM      4  C   UNL     1       1.173 -18.852  -4.126  1.00  0.00     0.119 A 
ATOM      5  C   UNL     1       0.463 -20.006  -3.782  1.00  0.00     0.047 A 
ATOM      6  C   UNL     1       0.392 -21.077  -4.675  1.00  0.00     0.019 A 
ENDROOT
BRANCH   1   7
ATOM      7  C   UNL     1       0.874 -22.141  -6.875  1.00  0.00     0.163 C 
ATOM      8  C   UNL     1       0.201 -23.413  -6.460  1.00  0.00     0.093 C 
ATOM      9  O   UNL     1       1.238 -22.011  -8.075  1.00  0.00    -0.294 OA
ENDBRANCH   1   7
BRANCH   2  10
ATOM     10  O   UNL     1       2.496 -19.739  -7.449  1.00  0.00    -0.507 OA
ATOM     11  H   UNL     1       2.501 -18.905  -8.020  1.00  0.00     0.293 HD
ENDBRANCH   2  10
BRANCH   4  12
ATOM     12  O   UNL     1       1.243 -17.773  -3.247  1.00  0.00    -0.508 OA
ATOM     13  H   UNL     1       1.994 -17.688  -2.572  1.00  0.00     0.293 HD
ENDBRANCH   4  12
TORSDOF 3
ENDMDL
MODEL 3
REMARK VINA RESULT:    -4.879      1.353      2.268
REMARK INTER + INTRA:          -5.734
REMARK INTER:                  -5.457
REMARK INTRA:                  -0.277
REMARK UNBOUND:                -0.284
REMARK SMILES CC(=O)c1ccc(O)cc1O
REMARK SMILES IDX 4 1 10 2 9 3 7 4 6 5 5 6 2 7 1 8 3 9 11 10 8 12
REMARK H PARENT 11 11 8 13
REMARK Flexibility Score: inf
ROOT
ATOM      1  C   UNL     1       1.615 -20.000  -6.022  1.00  0.00     0.059 A 
ATOM      2  C   UNL     1       0.815 -20.909  -5.285  1.00  0.00     0.130 A 
ATOM      3  C   UNL     1       0.434 -22.126  -5.866  1.00  0.00     0.093 A 
ATOM      4  C   UNL     1       0.862 -22.469  -7.150  1.00  0.00     0.119 A 
ATOM      5  C   UNL     1       1.677 -21.589  -7.868  1.00  0.00     0.047 A 
ATOM      6  C   UNL     1       2.050 -20.365  -7.310  1.00  0.00     0.019 A 
ENDROOT
BRANCH   1   7
ATOM      7  C   UNL     1       1.976 -18.664  -5.491  1.00  0.00     0.163 C 
ATOM      8  C   UNL     1       3.101 -17.873  -6.085  1.00  0.00     0.093 C 
ATOM      9  O   UNL     1       1.282 -18.141  -4.578  1.00  0.00    -0.294 OA
ENDBRANCH   1   7
BRANCH   2  10
ATOM     10  O   UNL     1       0.406 -20.655  -3.974  1.00  0.00    -0.507 OA
ATOM     11  H   UNL     1       1.037 -20.359  -3.242  1.00  0.00     0.293 HD
ENDBRANCH   2  10
BRANCH   4  12
ATOM     12  O   UNL     1       0.476 -23.689  -7.700  1.00  0.00    -0.508 OA
ATOM     13  H   UNL     1      -0.168 -24.307  -7.220  1.00  0.00     0.293 HD
ENDBRANCH   4  12
TORSDOF 3
ENDMDL
MODEL 4
REMARK VINA RESULT:    -4.775      1.748      4.068
REMARK INTER + INTRA:          -5.618
REMARK INTER:                  -5.532
REMARK INTRA:                  -0.086
REMARK UNBOUND:                -0.284
REMARK SMILES CC(=O)c1ccc(O)cc1O
REMARK SMILES IDX 4 1 10 2 9 3 7 4 6 5 5 6 2 7 1 8 3 9 11 10 8 12
REMARK H PARENT 11 11 8 13
REMARK Flexibility Score: inf
ROOT
ATOM      1  C   UNL     1       1.516 -21.241  -6.030  1.00  0.00     0.059 A 
ATOM      2  C   UNL     1       2.870 -21.049  -5.653  1.00  0.00     0.130 A 
ATOM      3  C   UNL     1       3.169 -20.433  -4.431  1.00  0.00     0.093 A 
ATOM      4  C   UNL     1       2.149 -20.035  -3.564  1.00  0.00     0.119 A 
ATOM      5  C   UNL     1       0.814 -20.249  -3.918  1.00  0.00     0.047 A 
ATOM      6  C   UNL     1       0.499 -20.846  -5.141  1.00  0.00     0.019 A 
ENDROOT
BRANCH   1   7
ATOM      7  C   UNL     1       1.142 -21.809  -7.347  1.00  0.00     0.163 C 
ATOM      8  C   UNL     1       1.380 -21.047  -8.615  1.00  0.00     0.093 C 
ATOM      9  O   UNL     1       0.689 -22.983  -7.421  1.00  0.00    -0.294 OA
ENDBRANCH   1   7
BRANCH   2  10
ATOM     10  O   UNL     1       3.936 -21.481  -6.444  1.00  0.00    -0.507 OA
ATOM     11  H   UNL     1       3.994 -21.313  -7.439  1.00  0.00     0.293 HD
ENDBRANCH   2  10
BRANCH   4  12
ATOM     12  O   UNL     1       2.474 -19.432  -2.351  1.00  0.00    -0.508 OA
ATOM     13  H   UNL     1       2.823 -19.972  -1.568  1.00  0.00     0.293 HD
ENDBRANCH   4  12
TORSDOF 3
ENDMDL
MODEL 5
REMARK VINA RESULT:    -4.622     10.606     11.679
REMARK INTER + INTRA:          -5.446
REMARK INTER:                  -5.147
REMARK INTRA:                  -0.300
REMARK UNBOUND:                -0.284
REMARK SMILES CC(=O)c1ccc(O)cc1O
REMARK SMILES IDX 4 1 10 2 9 3 7 4 6 5 5 6 2 7 1 8 3 9 11 10 8 12
REMARK H PARENT 11 11 8 13
REMARK Flexibility Score: inf
ROOT
ATOM      1  C   UNL     1      -7.045 -27.353  -3.396  1.00  0.00     0.059 A 
ATOM      2  C   UNL     1      -6.618 -26.405  -2.432  1.00  0.00     0.130 A 
ATOM      3  C   UNL     1      -7.363 -25.235  -2.231  1.00  0.00     0.093 A 
ATOM      4  C   UNL     1      -8.540 -25.008  -2.946  1.00  0.00     0.119 A 
ATOM      5  C   UNL     1      -8.982 -25.955  -3.875  1.00  0.00     0.047 A 
ATOM      6  C   UNL     1      -8.240 -27.116  -4.099  1.00  0.00     0.019 A 
ENDROOT
BRANCH   1   7
ATOM      7  C   UNL     1      -6.251 -28.565  -3.710  1.00  0.00     0.163 C 
ATOM      8  C   UNL     1      -6.913 -29.822  -4.185  1.00  0.00     0.093 C 
ATOM      9  O   UNL     1      -4.993 -28.524  -3.657  1.00  0.00    -0.294 OA
ENDBRANCH   1   7
BRANCH   2  10
ATOM     10  O   UNL     1      -5.485 -26.601  -1.639  1.00  0.00    -0.507 OA
ATOM     11  H   UNL     1      -5.018 -25.855  -1.142  1.00  0.00     0.293 HD
ENDBRANCH   2  10
BRANCH   4  12
ATOM     12  O   UNL     1      -9.267 -23.841  -2.721  1.00  0.00    -0.508 OA
ATOM     13  H   UNL     1      -9.717 -23.343  -3.480  1.00  0.00     0.293 HD
ENDBRANCH   4  12
TORSDOF 3
ENDMDL
MODEL 6
REMARK VINA RESULT:    -4.565      1.894      4.091
REMARK INTER + INTRA:          -5.383
REMARK INTER:                  -5.108
REMARK INTRA:                  -0.275
REMARK UNBOUND:                -0.284
REMARK SMILES CC(=O)c1ccc(O)cc1O
REMARK SMILES IDX 4 1 10 2 9 3 7 4 6 5 5 6 2 7 1 8 3 9 11 10 8 12
REMARK H PARENT 11 11 8 13
REMARK Flexibility Score: inf
ROOT
ATOM      1  C   UNL     1       1.801 -20.627  -6.276  1.00  0.00     0.059 A 
ATOM      2  C   UNL     1       1.909 -19.342  -5.687  1.00  0.00     0.130 A 
ATOM      3  C   UNL     1       3.002 -18.524  -6.002  1.00  0.00     0.093 A 
ATOM      4  C   UNL     1       3.969 -18.946  -6.917  1.00  0.00     0.119 A 
ATOM      5  C   UNL     1       3.850 -20.199  -7.523  1.00  0.00     0.047 A 
ATOM      6  C   UNL     1       2.777 -21.034  -7.206  1.00  0.00     0.019 A 
ENDROOT
BRANCH   1   7
ATOM      7  C   UNL     1       0.714 -21.568  -5.915  1.00  0.00     0.163 C 
ATOM      8  C   UNL     1       0.396 -22.751  -6.777  1.00  0.00     0.093 C 
ATOM      9  O   UNL     1       0.095 -21.426  -4.827  1.00  0.00    -0.294 OA
ENDBRANCH   1   7
BRANCH   2  10
ATOM     10  O   UNL     1       0.944 -18.835  -4.814  1.00  0.00    -0.507 OA
ATOM     11  H   UNL     1       0.205 -19.397  -4.415  1.00  0.00     0.293 HD
ENDBRANCH   2  10
BRANCH   4  12
ATOM     12  O   UNL     1       5.040 -18.109  -7.219  1.00  0.00    -0.508 OA
ATOM     13  H   UNL     1       5.914 -18.475  -7.580  1.00  0.00     0.293 HD
ENDBRANCH   4  12
TORSDOF 3
ENDMDL
MODEL 7
REMARK VINA RESULT:    -4.553     10.814     11.775
REMARK INTER + INTRA:          -5.370
REMARK INTER:                  -5.059
REMARK INTRA:                  -0.310
REMARK UNBOUND:                -0.284
REMARK SMILES CC(=O)c1ccc(O)cc1O
REMARK SMILES IDX 4 1 10 2 9 3 7 4 6 5 5 6 2 7 1 8 3 9 11 10 8 12
REMARK H PARENT 11 11 8 13
REMARK Flexibility Score: inf
ROOT
ATOM      1  C   UNL     1      -7.386 -26.779  -2.562  1.00  0.00     0.059 A 
ATOM      2  C   UNL     1      -8.342 -27.766  -2.913  1.00  0.00     0.130 A 
ATOM      3  C   UNL     1      -7.926 -28.933  -3.567  1.00  0.00     0.093 A 
ATOM      4  C   UNL     1      -6.576 -29.152  -3.846  1.00  0.00     0.119 A 
ATOM      5  C   UNL     1      -5.626 -28.195  -3.475  1.00  0.00     0.047 A 
ATOM      6  C   UNL     1      -6.028 -27.019  -2.839  1.00  0.00     0.019 A 
ENDROOT
BRANCH   1   7
ATOM      7  C   UNL     1      -7.780 -25.489  -1.947  1.00  0.00     0.163 C 
ATOM      8  C   UNL     1      -7.319 -24.185  -2.522  1.00  0.00     0.093 C 
ATOM      9  O   UNL     1      -8.580 -25.474  -0.973  1.00  0.00    -0.294 OA
ENDBRANCH   1   7
BRANCH   2  10
ATOM     10  O   UNL     1      -9.698 -27.638  -2.606  1.00  0.00    -0.507 OA
ATOM     11  H   UNL     1     -10.100 -27.937  -1.728  1.00  0.00     0.293 HD
ENDBRANCH   2  10
BRANCH   4  12
ATOM     12  O   UNL     1      -6.189 -30.325  -4.490  1.00  0.00    -0.508 OA
ATOM     13  H   UNL     1      -6.103 -31.201  -3.988  1.00  0.00     0.293 HD
ENDBRANCH   4  12
TORSDOF 3
ENDMDL
MODEL 8
REMARK VINA RESULT:    -4.544     12.364     13.866
REMARK INTER + INTRA:          -5.359
REMARK INTER:                  -5.050
REMARK INTRA:                  -0.310
REMARK UNBOUND:                -0.284
REMARK SMILES CC(=O)c1ccc(O)cc1O
REMARK SMILES IDX 4 1 10 2 9 3 7 4 6 5 5 6 2 7 1 8 3 9 11 10 8 12
REMARK H PARENT 11 11 8 13
REMARK Flexibility Score: inf
ROOT
ATOM      1  C   UNL     1       4.994 -23.879   7.242  1.00  0.00     0.059 A 
ATOM      2  C   UNL     1       4.075 -24.629   6.465  1.00  0.00     0.130 A 
ATOM      3  C   UNL     1       3.712 -24.176   5.190  1.00  0.00     0.093 A 
ATOM      4  C   UNL     1       4.271 -23.011   4.662  1.00  0.00     0.119 A 
ATOM      5  C   UNL     1       5.201 -22.284   5.412  1.00  0.00     0.047 A 
ATOM      6  C   UNL     1       5.558 -22.714   6.692  1.00  0.00     0.019 A 
ENDROOT
BRANCH   1   7
ATOM      7  C   UNL     1       5.347 -24.266   8.629  1.00  0.00     0.163 C 
ATOM      8  C   UNL     1       5.178 -23.307   9.767  1.00  0.00     0.093 C 
ATOM      9  O   UNL     1       5.721 -25.443   8.878  1.00  0.00    -0.294 OA
ENDBRANCH   1   7
BRANCH   2  10
ATOM     10  O   UNL     1       3.528 -25.835   6.909  1.00  0.00    -0.507 OA
ATOM     11  H   UNL     1       4.036 -26.709   6.910  1.00  0.00     0.293 HD
ENDBRANCH   2  10
BRANCH   4  12
ATOM     12  O   UNL     1       3.900 -22.586   3.388  1.00  0.00    -0.508 OA
ATOM     13  H   UNL     1       4.586 -22.264   2.716  1.00  0.00     0.293 HD
ENDBRANCH   4  12
TORSDOF 3
ENDMDL
MODEL 9
REMARK VINA RESULT:    -4.499      1.821      2.904
REMARK INTER + INTRA:          -5.309
REMARK INTER:                  -5.008
REMARK INTRA:                  -0.302
REMARK UNBOUND:                -0.284
REMARK SMILES CC(=O)c1ccc(O)cc1O
REMARK SMILES IDX 4 1 10 2 9 3 7 4 6 5 5 6 2 7 1 8 3 9 11 10 8 12
REMARK H PARENT 11 11 8 13
REMARK Flexibility Score: inf
ROOT
ATOM      1  C   UNL     1       2.931 -20.126  -6.946  1.00  0.00     0.059 A 
ATOM      2  C   UNL     1       2.367 -20.472  -5.692  1.00  0.00     0.130 A 
ATOM      3  C   UNL     1       1.272 -21.345  -5.641  1.00  0.00     0.093 A 
ATOM      4  C   UNL     1       0.751 -21.905  -6.809  1.00  0.00     0.119 A 
ATOM      5  C   UNL     1       1.324 -21.591  -8.045  1.00  0.00     0.047 A 
ATOM      6  C   UNL     1       2.404 -20.709  -8.114  1.00  0.00     0.019 A 
ENDROOT
BRANCH   1   7
ATOM      7  C   UNL     1       4.034 -19.143  -7.066  1.00  0.00     0.163 C 
ATOM      8  C   UNL     1       5.225 -19.418  -7.932  1.00  0.00     0.093 C 
ATOM      9  O   UNL     1       3.941 -18.021  -6.500  1.00  0.00    -0.294 OA
ENDBRANCH   1   7
BRANCH   2  10
ATOM     10  O   UNL     1       2.880 -19.996  -4.483  1.00  0.00    -0.507 OA
ATOM     11  H   UNL     1       3.868 -19.878  -4.307  1.00  0.00     0.293 HD
ENDBRANCH   2  10
BRANCH   4  12
ATOM     12  O   UNL     1      -0.333 -22.776  -6.729  1.00  0.00    -0.508 OA
ATOM     13  H   UNL     1      -1.174 -22.628  -7.276  1.00  0.00     0.293 HD
ENDBRANCH   4  12
TORSDOF 3
ENDMDL
