MODEL 1
REMARK VINA RESULT:    -4.220      0.000      0.000
REMARK INTER + INTRA:          -8.122
REMARK INTER:                  -6.563
REMARK INTRA:                  -1.558
REMARK UNBOUND:                -1.558
REMARK SMILES C[C@@]12C[C@@]3(O)O[C@@H](O1)[C@]1(COC(=O)c4ccccc4)[C@H]3C[C@@]12O[C@H]1O[C@H](CO)[C@H](O)[C@H](O)[C@@H]1O
REMARK SMILES IDX 1 1 2 2 3 3 4 4 20 5 21 6 22 7 9 8 7 9 8 10 6 11 23 12 24 13
REMARK SMILES IDX 33 14 25 15 31 16 26 17 29 18 34 19 32 21 27 23 28 24 30 26
REMARK SMILES IDX 5 28 10 30 11 31 12 32 13 33 14 34 15 35 19 36 16 37 18 38
REMARK SMILES IDX 17 39
REMARK H PARENT 34 20 32 22 28 25 30 27 5 29
REMARK Flexibility Score: inf
ROOT
ATOM      1  C   UNL     1     -24.554  54.971  42.112  1.00  0.00     0.046 C 
ATOM      2  C   UNL     1     -25.206  54.091  43.183  1.00  0.00     0.104 C 
ATOM      3  C   UNL     1     -25.837  54.965  44.331  1.00  0.00     0.104 C 
ATOM      4  C   UNL     1     -26.346  53.903  45.367  1.00  0.00     0.175 C 
ATOM      5  C   UNL     1     -25.222  52.859  45.669  1.00  0.00     0.070 C 
ATOM      6  C   UNL     1     -23.835  53.347  45.240  1.00  0.00     0.050 C 
ATOM      7  C   UNL     1     -24.249  52.999  43.802  1.00  0.00     0.115 C 
ATOM      8  C   UNL     1     -25.308  52.048  44.374  1.00  0.00     0.096 C 
ATOM      9  C   UNL     1     -26.626  52.448  43.716  1.00  0.00     0.267 C 
ATOM     10  O   UNL     1     -26.292  53.345  42.662  1.00  0.00    -0.342 OA
ATOM     11  O   UNL     1     -27.353  53.160  44.706  1.00  0.00    -0.320 OA
ENDROOT
BRANCH   7  12
ATOM     12  O   UNL     1     -23.130  52.549  43.038  1.00  0.00    -0.339 OA
BRANCH  12  13
ATOM     13  C   UNL     1     -23.346  51.523  42.077  1.00  0.00     0.282 C 
ATOM     14  C   UNL     1     -21.995  50.809  41.880  1.00  0.00     0.202 C 
ATOM     15  O   UNL     1     -23.821  52.040  40.842  1.00  0.00    -0.341 OA
ATOM     16  C   UNL     1     -22.128  49.645  40.889  1.00  0.00     0.179 C 
ATOM     17  C   UNL     1     -24.042  51.050  39.843  1.00  0.00     0.178 C 
ATOM     18  C   UNL     1     -22.796  50.147  39.594  1.00  0.00     0.177 C 
BRANCH  14  19
ATOM     19  O   UNL     1     -21.524  50.339  43.118  1.00  0.00    -0.385 OA
ATOM     20  H   UNL     1     -20.887  51.021  43.458  1.00  0.00     0.211 HD
ENDBRANCH  14  19
BRANCH  16  21
ATOM     21  O   UNL     1     -22.854  48.592  41.477  1.00  0.00    -0.387 OA
ATOM     22  H   UNL     1     -23.514  48.288  40.797  1.00  0.00     0.211 HD
ENDBRANCH  16  21
BRANCH  17  23
ATOM     23  C   UNL     1     -25.402  50.337  40.010  1.00  0.00     0.191 C 
BRANCH  23  24
ATOM     24  O   UNL     1     -26.403  51.206  40.468  1.00  0.00    -0.394 OA
ATOM     25  H   UNL     1     -26.402  51.132  41.458  1.00  0.00     0.210 HD
ENDBRANCH  23  24
ENDBRANCH  17  23
BRANCH  18  26
ATOM     26  O   UNL     1     -23.064  49.100  38.692  1.00  0.00    -0.387 OA
ATOM     27  H   UNL     1     -24.047  48.976  38.644  1.00  0.00     0.211 HD
ENDBRANCH  18  26
ENDBRANCH  12  13
ENDBRANCH   7  12
BRANCH   4  28
ATOM     28  O   UNL     1     -26.838  54.518  46.527  1.00  0.00    -0.365 OA
ATOM     29  H   UNL     1     -27.478  55.216  46.230  1.00  0.00     0.214 HD
ENDBRANCH   4  28
BRANCH   8  30
ATOM     30  C   UNL     1     -25.029  50.543  44.540  1.00  0.00     0.249 C 
BRANCH  30  31
ATOM     31  O   UNL     1     -25.941  49.787  43.747  1.00  0.00    -0.461 OA
BRANCH  31  32
ATOM     32  C   UNL     1     -25.763  48.443  43.397  1.00  0.00     0.338 C 
ATOM     33  O   UNL     1     -24.627  47.903  43.503  1.00  0.00    -0.246 OA
BRANCH  32  34
ATOM     34  C   UNL     1     -26.919  47.659  42.907  1.00  0.00     0.060 A 
ATOM     35  C   UNL     1     -27.473  47.905  41.637  1.00  0.00     0.015 A 
ATOM     36  C   UNL     1     -27.471  46.641  43.707  1.00  0.00     0.015 A 
ATOM     37  C   UNL     1     -28.555  47.145  41.179  1.00  0.00     0.001 A 
ATOM     38  C   UNL     1     -28.551  45.882  43.243  1.00  0.00     0.001 A 
ATOM     39  C   UNL     1     -29.093  46.135  41.980  1.00  0.00     0.000 A 
ENDBRANCH  32  34
ENDBRANCH  31  32
ENDBRANCH  30  31
ENDBRANCH   8  30
TORSDOF 12
ENDMDL
MODEL 2
REMARK VINA RESULT:    -4.081      2.456      6.847
REMARK INTER + INTRA:          -7.906
REMARK INTER:                  -6.253
REMARK INTRA:                  -1.653
REMARK UNBOUND:                -1.558
REMARK SMILES C[C@@]12C[C@@]3(O)O[C@@H](O1)[C@]1(COC(=O)c4ccccc4)[C@H]3C[C@@]12O[C@H]1O[C@H](CO)[C@H](O)[C@H](O)[C@@H]1O
REMARK SMILES IDX 1 1 2 2 3 3 4 4 20 5 21 6 22 7 9 8 7 9 8 10 6 11 23 12 24 13
REMARK SMILES IDX 33 14 25 15 31 16 26 17 29 18 34 19 32 21 27 23 28 24 30 26
REMARK SMILES IDX 5 28 10 30 11 31 12 32 13 33 14 34 15 35 19 36 16 37 18 38
REMARK SMILES IDX 17 39
REMARK H PARENT 34 20 32 22 28 25 30 27 5 29
REMARK Flexibility Score: inf
ROOT
ATOM      1  C   UNL     1     -26.197  44.302  40.019  1.00  0.00     0.046 C 
ATOM      2  C   UNL     1     -26.924  45.478  40.679  1.00  0.00     0.104 C 
ATOM      3  C   UNL     1     -28.160  44.984  41.520  1.00  0.00     0.104 C 
ATOM      4  C   UNL     1     -28.827  46.314  42.015  1.00  0.00     0.175 C 
ATOM      5  C   UNL     1     -29.004  47.308  40.822  1.00  0.00     0.070 C 
ATOM      6  C   UNL     1     -28.894  46.617  39.459  1.00  0.00     0.050 C 
ATOM      7  C   UNL     1     -27.373  46.613  39.678  1.00  0.00     0.115 C 
ATOM      8  C   UNL     1     -27.550  47.761  40.680  1.00  0.00     0.096 C 
ATOM      9  C   UNL     1     -26.846  47.311  41.958  1.00  0.00     0.267 C 
ATOM     10  O   UNL     1     -26.098  46.148  41.616  1.00  0.00    -0.342 OA
ATOM     11  O   UNL     1     -27.878  46.939  42.859  1.00  0.00    -0.320 OA
ENDROOT
BRANCH   7  12
ATOM     12  O   UNL     1     -26.673  46.760  38.442  1.00  0.00    -0.339 OA
BRANCH  12  13
ATOM     13  C   UNL     1     -25.523  47.595  38.420  1.00  0.00     0.282 C 
ATOM     14  C   UNL     1     -25.474  48.246  37.025  1.00  0.00     0.202 C 
ATOM     15  O   UNL     1     -24.329  46.867  38.672  1.00  0.00    -0.341 OA
ATOM     16  C   UNL     1     -24.287  49.211  36.910  1.00  0.00     0.179 C 
ATOM     17  C   UNL     1     -23.147  47.660  38.650  1.00  0.00     0.178 C 
ATOM     18  C   UNL     1     -22.994  48.489  37.339  1.00  0.00     0.177 C 
BRANCH  14  19
ATOM     19  O   UNL     1     -26.677  48.929  36.780  1.00  0.00    -0.385 OA
ATOM     20  H   UNL     1     -26.472  49.900  36.842  1.00  0.00     0.211 HD
ENDBRANCH  14  19
BRANCH  16  21
ATOM     21  O   UNL     1     -24.523  50.362  37.686  1.00  0.00    -0.387 OA
ATOM     22  H   UNL     1     -24.794  50.045  38.589  1.00  0.00     0.211 HD
ENDBRANCH  16  21
BRANCH  17  23
ATOM     23  C   UNL     1     -22.913  48.407  39.982  1.00  0.00     0.191 C 
BRANCH  23  24
ATOM     24  O   UNL     1     -22.827  49.795  39.804  1.00  0.00    -0.394 OA
ATOM     25  H   UNL     1     -23.755  50.140  39.871  1.00  0.00     0.210 HD
ENDBRANCH  23  24
ENDBRANCH  17  23
BRANCH  18  26
ATOM     26  O   UNL     1     -21.887  49.356  37.379  1.00  0.00    -0.387 OA
ATOM     27  H   UNL     1     -22.027  50.004  38.115  1.00  0.00     0.211 HD
ENDBRANCH  18  26
ENDBRANCH  12  13
ENDBRANCH   7  12
BRANCH   4  28
ATOM     28  O   UNL     1     -30.029  46.061  42.691  1.00  0.00    -0.365 OA
ATOM     29  H   UNL     1     -30.069  45.081  42.843  1.00  0.00     0.214 HD
ENDBRANCH   4  28
BRANCH   8  30
ATOM     30  C   UNL     1     -27.373  49.231  40.256  1.00  0.00     0.249 C 
BRANCH  30  31
ATOM     31  O   UNL     1     -26.890  50.001  41.354  1.00  0.00    -0.461 OA
BRANCH  31  32
ATOM     32  C   UNL     1     -26.013  51.086  41.236  1.00  0.00     0.338 C 
ATOM     33  O   UNL     1     -25.216  51.157  40.260  1.00  0.00    -0.246 OA
BRANCH  32  34
ATOM     34  C   UNL     1     -26.032  52.151  42.264  1.00  0.00     0.060 A 
ATOM     35  C   UNL     1     -26.771  51.997  43.452  1.00  0.00     0.015 A 
ATOM     36  C   UNL     1     -25.291  53.332  42.070  1.00  0.00     0.015 A 
ATOM     37  C   UNL     1     -26.766  53.005  44.423  1.00  0.00     0.001 A 
ATOM     38  C   UNL     1     -25.286  54.335  43.045  1.00  0.00     0.001 A 
ATOM     39  C   UNL     1     -26.024  54.171  44.221  1.00  0.00     0.000 A 
ENDBRANCH  32  34
ENDBRANCH  31  32
ENDBRANCH  30  31
ENDBRANCH   8  30
TORSDOF 12
ENDMDL
MODEL 3
REMARK VINA RESULT:    -4.075      1.019      1.285
REMARK INTER + INTRA:          -7.897
REMARK INTER:                  -6.293
REMARK INTRA:                  -1.604
REMARK UNBOUND:                -1.558
REMARK SMILES C[C@@]12C[C@@]3(O)O[C@@H](O1)[C@]1(COC(=O)c4ccccc4)[C@H]3C[C@@]12O[C@H]1O[C@H](CO)[C@H](O)[C@H](O)[C@@H]1O
REMARK SMILES IDX 1 1 2 2 3 3 4 4 20 5 21 6 22 7 9 8 7 9 8 10 6 11 23 12 24 13
REMARK SMILES IDX 33 14 25 15 31 16 26 17 29 18 34 19 32 21 27 23 28 24 30 26
REMARK SMILES IDX 5 28 10 30 11 31 12 32 13 33 14 34 15 35 19 36 16 37 18 38
REMARK SMILES IDX 17 39
REMARK H PARENT 34 20 32 22 28 25 30 27 5 29
REMARK Flexibility Score: inf
ROOT
ATOM      1  C   UNL     1     -23.990  54.852  42.339  1.00  0.00     0.046 C 
ATOM      2  C   UNL     1     -24.862  54.069  43.324  1.00  0.00     0.104 C 
ATOM      3  C   UNL     1     -25.643  55.038  44.290  1.00  0.00     0.104 C 
ATOM      4  C   UNL     1     -26.377  54.066  45.277  1.00  0.00     0.175 C 
ATOM      5  C   UNL     1     -25.377  53.001  45.833  1.00  0.00     0.070 C 
ATOM      6  C   UNL     1     -23.914  53.407  45.633  1.00  0.00     0.050 C 
ATOM      7  C   UNL     1     -24.085  52.983  44.166  1.00  0.00     0.115 C 
ATOM      8  C   UNL     1     -25.273  52.112  44.593  1.00  0.00     0.096 C 
ATOM      9  C   UNL     1     -26.434  52.519  43.688  1.00  0.00     0.267 C 
ATOM     10  O   UNL     1     -25.876  53.332  42.661  1.00  0.00    -0.342 OA
ATOM     11  O   UNL     1     -27.288  53.321  44.490  1.00  0.00    -0.320 OA
ENDROOT
BRANCH   7  12
ATOM     12  O   UNL     1     -22.872  52.442  43.641  1.00  0.00    -0.339 OA
BRANCH  12  13
ATOM     13  C   UNL     1     -22.948  51.655  42.459  1.00  0.00     0.282 C 
ATOM     14  C   UNL     1     -21.959  50.488  42.638  1.00  0.00     0.202 C 
ATOM     15  O   UNL     1     -22.626  52.406  41.296  1.00  0.00    -0.341 OA
ATOM     16  C   UNL     1     -21.997  49.544  41.429  1.00  0.00     0.179 C 
ATOM     17  C   UNL     1     -22.678  51.657  40.086  1.00  0.00     0.178 C 
ATOM     18  C   UNL     1     -21.814  50.361  40.135  1.00  0.00     0.177 C 
BRANCH  14  19
ATOM     19  O   UNL     1     -22.271  49.781  43.812  1.00  0.00    -0.385 OA
ATOM     20  H   UNL     1     -23.233  49.540  43.753  1.00  0.00     0.211 HD
ENDBRANCH  14  19
BRANCH  16  21
ATOM     21  O   UNL     1     -23.202  48.818  41.421  1.00  0.00    -0.387 OA
ATOM     22  H   UNL     1     -23.818  49.282  42.049  1.00  0.00     0.211 HD
ENDBRANCH  16  21
BRANCH  17  23
ATOM     23  C   UNL     1     -24.116  51.521  39.538  1.00  0.00     0.191 C 
BRANCH  23  24
ATOM     24  O   UNL     1     -24.145  51.458  38.138  1.00  0.00    -0.394 OA
ATOM     25  H   UNL     1     -25.027  51.822  37.863  1.00  0.00     0.210 HD
ENDBRANCH  23  24
ENDBRANCH  17  23
BRANCH  18  26
ATOM     26  O   UNL     1     -21.966  49.572  38.980  1.00  0.00    -0.387 OA
ATOM     27  H   UNL     1     -22.356  48.701  39.249  1.00  0.00     0.211 HD
ENDBRANCH  18  26
ENDBRANCH  12  13
ENDBRANCH   7  12
BRANCH   4  28
ATOM     28  O   UNL     1     -27.035  54.773  46.294  1.00  0.00    -0.365 OA
ATOM     29  H   UNL     1     -27.832  55.194  45.878  1.00  0.00     0.214 HD
ENDBRANCH   4  28
BRANCH   8  30
ATOM     30  C   UNL     1     -25.102  50.611  44.891  1.00  0.00     0.249 C 
BRANCH  30  31
ATOM     31  O   UNL     1     -26.105  49.861  44.211  1.00  0.00    -0.461 OA
BRANCH  31  32
ATOM     32  C   UNL     1     -25.846  48.795  43.340  1.00  0.00     0.338 C 
ATOM     33  O   UNL     1     -24.866  48.027  43.550  1.00  0.00    -0.246 OA
BRANCH  32  34
ATOM     34  C   UNL     1     -26.731  48.575  42.175  1.00  0.00     0.060 A 
ATOM     35  C   UNL     1     -26.776  49.501  41.116  1.00  0.00     0.015 A 
ATOM     36  C   UNL     1     -27.531  47.419  42.105  1.00  0.00     0.015 A 
ATOM     37  C   UNL     1     -27.605  49.272  40.012  1.00  0.00     0.001 A 
ATOM     38  C   UNL     1     -28.355  47.193  40.998  1.00  0.00     0.001 A 
ATOM     39  C   UNL     1     -28.392  48.120  39.952  1.00  0.00     0.000 A 
ENDBRANCH  32  34
ENDBRANCH  31  32
ENDBRANCH  30  31
ENDBRANCH   8  30
TORSDOF 12
ENDMDL
MODEL 4
REMARK VINA RESULT:    -4.010      2.572      6.123
REMARK INTER + INTRA:          -7.796
REMARK INTER:                  -6.026
REMARK INTRA:                  -1.769
REMARK UNBOUND:                -1.558
REMARK SMILES C[C@@]12C[C@@]3(O)O[C@@H](O1)[C@]1(COC(=O)c4ccccc4)[C@H]3C[C@@]12O[C@H]1O[C@H](CO)[C@H](O)[C@H](O)[C@@H]1O
REMARK SMILES IDX 1 1 2 2 3 3 4 4 20 5 21 6 22 7 9 8 7 9 8 10 6 11 23 12 24 13
REMARK SMILES IDX 33 14 25 15 31 16 26 17 29 18 34 19 32 21 27 23 28 24 30 26
REMARK SMILES IDX 5 28 10 30 11 31 12 32 13 33 14 34 15 35 19 36 16 37 18 38
REMARK SMILES IDX 17 39
REMARK H PARENT 34 20 32 22 28 25 30 27 5 29
REMARK Flexibility Score: inf
ROOT
ATOM      1  C   UNL     1     -24.316  50.685  45.700  1.00  0.00     0.046 C 
ATOM      2  C   UNL     1     -24.745  52.100  45.304  1.00  0.00     0.104 C 
ATOM      3  C   UNL     1     -25.436  52.844  46.508  1.00  0.00     0.104 C 
ATOM      4  C   UNL     1     -25.896  54.208  45.886  1.00  0.00     0.175 C 
ATOM      5  C   UNL     1     -26.656  53.962  44.543  1.00  0.00     0.070 C 
ATOM      6  C   UNL     1     -27.124  52.512  44.388  1.00  0.00     0.050 C 
ATOM      7  C   UNL     1     -25.670  52.170  44.026  1.00  0.00     0.115 C 
ATOM      8  C   UNL     1     -25.454  53.642  43.653  1.00  0.00     0.096 C 
ATOM      9  C   UNL     1     -24.223  54.094  44.434  1.00  0.00     0.267 C 
ATOM     10  O   UNL     1     -23.633  52.914  44.971  1.00  0.00    -0.342 OA
ATOM     11  O   UNL     1     -24.713  54.886  45.506  1.00  0.00    -0.320 OA
ENDROOT
BRANCH   7  12
ATOM     12  O   UNL     1     -25.611  51.108  43.074  1.00  0.00    -0.339 OA
BRANCH  12  13
ATOM     13  C   UNL     1     -24.613  51.170  42.064  1.00  0.00     0.282 C 
ATOM     14  C   UNL     1     -25.225  50.547  40.795  1.00  0.00     0.202 C 
ATOM     15  O   UNL     1     -23.431  50.476  42.439  1.00  0.00    -0.341 OA
ATOM     16  C   UNL     1     -24.238  50.607  39.622  1.00  0.00     0.179 C 
ATOM     17  C   UNL     1     -22.403  50.501  41.454  1.00  0.00     0.178 C 
ATOM     18  C   UNL     1     -22.887  50.006  40.057  1.00  0.00     0.177 C 
BRANCH  14  19
ATOM     19  O   UNL     1     -26.412  51.222  40.463  1.00  0.00    -0.385 OA
ATOM     20  H   UNL     1     -26.287  52.170  40.736  1.00  0.00     0.211 HD
ENDBRANCH  14  19
BRANCH  16  21
ATOM     21  O   UNL     1     -24.099  51.934  39.175  1.00  0.00    -0.387 OA
ATOM     22  H   UNL     1     -23.134  52.066  38.972  1.00  0.00     0.211 HD
ENDBRANCH  16  21
BRANCH  17  23
ATOM     23  C   UNL     1     -21.585  51.811  41.488  1.00  0.00     0.191 C 
BRANCH  23  24
ATOM     24  O   UNL     1     -21.708  52.544  40.300  1.00  0.00    -0.394 OA
ATOM     25  H   UNL     1     -21.299  53.432  40.479  1.00  0.00     0.210 HD
ENDBRANCH  23  24
ENDBRANCH  17  23
BRANCH  18  26
ATOM     26  O   UNL     1     -21.897  50.147  39.067  1.00  0.00    -0.387 OA
ATOM     27  H   UNL     1     -21.043  50.379  39.513  1.00  0.00     0.211 HD
ENDBRANCH  18  26
ENDBRANCH  12  13
ENDBRANCH   7  12
BRANCH   4  28
ATOM     28  O   UNL     1     -26.646  54.959  46.802  1.00  0.00    -0.365 OA
ATOM     29  H   UNL     1     -27.559  55.042  46.422  1.00  0.00     0.214 HD
ENDBRANCH   4  28
BRANCH   8  30
ATOM     30  C   UNL     1     -25.585  54.127  42.197  1.00  0.00     0.249 C 
BRANCH  30  31
ATOM     31  O   UNL     1     -24.419  54.855  41.819  1.00  0.00    -0.461 OA
BRANCH  31  32
ATOM     32  C   UNL     1     -24.148  55.298  40.519  1.00  0.00     0.338 C 
ATOM     33  O   UNL     1     -23.561  54.539  39.698  1.00  0.00    -0.246 OA
BRANCH  32  34
ATOM     34  C   UNL     1     -24.556  56.662  40.114  1.00  0.00     0.060 A 
ATOM     35  C   UNL     1     -24.094  57.793  40.812  1.00  0.00     0.015 A 
ATOM     36  C   UNL     1     -25.406  56.844  39.006  1.00  0.00     0.015 A 
ATOM     37  C   UNL     1     -24.475  59.077  40.408  1.00  0.00     0.001 A 
ATOM     38  C   UNL     1     -25.781  58.130  38.604  1.00  0.00     0.001 A 
ATOM     39  C   UNL     1     -25.316  59.246  39.305  1.00  0.00     0.000 A 
ENDBRANCH  32  34
ENDBRANCH  31  32
ENDBRANCH  30  31
ENDBRANCH   8  30
TORSDOF 12
ENDMDL
MODEL 5
REMARK VINA RESULT:    -4.005      2.272      4.636
REMARK INTER + INTRA:          -7.788
REMARK INTER:                  -6.599
REMARK INTRA:                  -1.188
REMARK UNBOUND:                -1.558
REMARK SMILES C[C@@]12C[C@@]3(O)O[C@@H](O1)[C@]1(COC(=O)c4ccccc4)[C@H]3C[C@@]12O[C@H]1O[C@H](CO)[C@H](O)[C@H](O)[C@@H]1O
REMARK SMILES IDX 1 1 2 2 3 3 4 4 20 5 21 6 22 7 9 8 7 9 8 10 6 11 23 12 24 13
REMARK SMILES IDX 33 14 25 15 31 16 26 17 29 18 34 19 32 21 27 23 28 24 30 26
REMARK SMILES IDX 5 28 10 30 11 31 12 32 13 33 14 34 15 35 19 36 16 37 18 38
REMARK SMILES IDX 17 39
REMARK H PARENT 34 20 32 22 28 25 30 27 5 29
REMARK Flexibility Score: inf
ROOT
ATOM      1  C   UNL     1     -23.469  53.496  45.189  1.00  0.00     0.046 C 
ATOM      2  C   UNL     1     -24.233  52.810  44.053  1.00  0.00     0.104 C 
ATOM      3  C   UNL     1     -24.801  53.863  43.030  1.00  0.00     0.104 C 
ATOM      4  C   UNL     1     -25.630  52.992  42.023  1.00  0.00     0.175 C 
ATOM      5  C   UNL     1     -26.580  52.024  42.799  1.00  0.00     0.070 C 
ATOM      6  C   UNL     1     -26.781  52.441  44.260  1.00  0.00     0.050 C 
ATOM      7  C   UNL     1     -25.390  51.847  44.532  1.00  0.00     0.115 C 
ATOM      8  C   UNL     1     -25.541  51.002  43.261  1.00  0.00     0.096 C 
ATOM      9  C   UNL     1     -24.289  51.272  42.430  1.00  0.00     0.267 C 
ATOM     10  O   UNL     1     -23.388  51.977  43.278  1.00  0.00    -0.342 OA
ATOM     11  O   UNL     1     -24.700  52.139  41.382  1.00  0.00    -0.320 OA
ENDROOT
BRANCH   7  12
ATOM     12  O   UNL     1     -25.318  51.280  45.840  1.00  0.00    -0.339 OA
BRANCH  12  13
ATOM     13  C   UNL     1     -24.506  50.128  46.026  1.00  0.00     0.282 C 
ATOM     14  C   UNL     1     -25.211  49.254  47.080  1.00  0.00     0.202 C 
ATOM     15  O   UNL     1     -23.194  50.464  46.456  1.00  0.00    -0.341 OA
ATOM     16  C   UNL     1     -24.435  47.952  47.322  1.00  0.00     0.179 C 
ATOM     17  C   UNL     1     -22.344  49.341  46.666  1.00  0.00     0.178 C 
ATOM     18  C   UNL     1     -22.961  48.283  47.630  1.00  0.00     0.177 C 
BRANCH  14  19
ATOM     19  O   UNL     1     -26.519  48.964  46.654  1.00  0.00    -0.385 OA
ATOM     20  H   UNL     1     -27.062  48.826  47.475  1.00  0.00     0.211 HD
ENDBRANCH  14  19
BRANCH  16  21
ATOM     21  O   UNL     1     -24.557  47.102  46.207  1.00  0.00    -0.387 OA
ATOM     22  H   UNL     1     -23.641  46.987  45.836  1.00  0.00     0.211 HD
ENDBRANCH  16  21
BRANCH  17  23
ATOM     23  C   UNL     1     -21.725  48.816  45.352  1.00  0.00     0.191 C 
BRANCH  23  24
ATOM     24  O   UNL     1     -22.134  47.507  45.060  1.00  0.00    -0.394 OA
ATOM     25  H   UNL     1     -22.251  47.468  44.074  1.00  0.00     0.210 HD
ENDBRANCH  23  24
ENDBRANCH  17  23
BRANCH  18  26
ATOM     26  O   UNL     1     -22.166  47.127  47.737  1.00  0.00    -0.387 OA
ATOM     27  H   UNL     1     -21.848  46.885  46.829  1.00  0.00     0.211 HD
ENDBRANCH  18  26
ENDBRANCH  12  13
ENDBRANCH   7  12
BRANCH   4  28
ATOM     28  O   UNL     1     -26.313  53.794  41.098  1.00  0.00    -0.365 OA
ATOM     29  H   UNL     1     -25.894  54.693  41.136  1.00  0.00     0.214 HD
ENDBRANCH   4  28
BRANCH   8  30
ATOM     30  C   UNL     1     -26.049  49.549  43.320  1.00  0.00     0.249 C 
BRANCH  30  31
ATOM     31  O   UNL     1     -25.738  48.874  42.104  1.00  0.00    -0.461 OA
BRANCH  31  32
ATOM     32  C   UNL     1     -26.560  48.863  40.970  1.00  0.00     0.338 C 
ATOM     33  O   UNL     1     -26.290  49.603  39.983  1.00  0.00    -0.246 OA
BRANCH  32  34
ATOM     34  C   UNL     1     -27.744  47.976  40.937  1.00  0.00     0.060 A 
ATOM     35  C   UNL     1     -28.042  47.127  42.019  1.00  0.00     0.015 A 
ATOM     36  C   UNL     1     -28.601  47.985  39.821  1.00  0.00     0.015 A 
ATOM     37  C   UNL     1     -29.174  46.305  41.983  1.00  0.00     0.001 A 
ATOM     38  C   UNL     1     -29.734  47.164  39.790  1.00  0.00     0.001 A 
ATOM     39  C   UNL     1     -30.020  46.325  40.871  1.00  0.00     0.000 A 
ENDBRANCH  32  34
ENDBRANCH  31  32
ENDBRANCH  30  31
ENDBRANCH   8  30
TORSDOF 12
ENDMDL
MODEL 6
REMARK VINA RESULT:    -3.866      2.062      5.824
REMARK INTER + INTRA:          -7.572
REMARK INTER:                  -5.662
REMARK INTRA:                  -1.910
REMARK UNBOUND:                -1.558
REMARK SMILES C[C@@]12C[C@@]3(O)O[C@@H](O1)[C@]1(COC(=O)c4ccccc4)[C@H]3C[C@@]12O[C@H]1O[C@H](CO)[C@H](O)[C@H](O)[C@@H]1O
REMARK SMILES IDX 1 1 2 2 3 3 4 4 20 5 21 6 22 7 9 8 7 9 8 10 6 11 23 12 24 13
REMARK SMILES IDX 33 14 25 15 31 16 26 17 29 18 34 19 32 21 27 23 28 24 30 26
REMARK SMILES IDX 5 28 10 30 11 31 12 32 13 33 14 34 15 35 19 36 16 37 18 38
REMARK SMILES IDX 17 39
REMARK H PARENT 34 20 32 22 28 25 30 27 5 29
REMARK Flexibility Score: inf
ROOT
ATOM      1  C   UNL     1     -22.282  47.981  42.956  1.00  0.00     0.046 C 
ATOM      2  C   UNL     1     -23.678  48.528  43.270  1.00  0.00     0.104 C 
ATOM      3  C   UNL     1     -24.514  47.501  44.120  1.00  0.00     0.104 C 
ATOM      4  C   UNL     1     -25.923  48.180  44.241  1.00  0.00     0.175 C 
ATOM      5  C   UNL     1     -26.415  48.660  42.837  1.00  0.00     0.070 C 
ATOM      6  C   UNL     1     -25.648  48.000  41.687  1.00  0.00     0.050 C 
ATOM      7  C   UNL     1     -24.504  48.976  42.001  1.00  0.00     0.115 C 
ATOM      8  C   UNL     1     -25.523  49.893  42.689  1.00  0.00     0.096 C 
ATOM      9  C   UNL     1     -24.960  50.172  44.081  1.00  0.00     0.267 C 
ATOM     10  O   UNL     1     -23.618  49.694  44.074  1.00  0.00    -0.342 OA
ATOM     11  O   UNL     1     -25.722  49.374  44.974  1.00  0.00    -0.320 OA
ENDROOT
BRANCH   7  12
ATOM     12  O   UNL     1     -23.801  49.346  40.815  1.00  0.00    -0.339 OA
BRANCH  12  13
ATOM     13  C   UNL     1     -23.316  50.678  40.713  1.00  0.00     0.282 C 
ATOM     14  C   UNL     1     -23.392  51.065  39.224  1.00  0.00     0.202 C 
ATOM     15  O   UNL     1     -21.983  50.799  41.191  1.00  0.00    -0.341 OA
ATOM     16  C   UNL     1     -22.932  52.513  39.008  1.00  0.00     0.179 C 
ATOM     17  C   UNL     1     -21.449  52.115  41.099  1.00  0.00     0.178 C 
ATOM     18  C   UNL     1     -21.553  52.716  39.665  1.00  0.00     0.177 C 
BRANCH  14  19
ATOM     19  O   UNL     1     -24.709  50.903  38.761  1.00  0.00    -0.385 OA
ATOM     20  H   UNL     1     -24.647  50.453  37.876  1.00  0.00     0.211 HD
ENDBRANCH  14  19
BRANCH  16  21
ATOM     21  O   UNL     1     -23.891  53.406  39.521  1.00  0.00    -0.387 OA
ATOM     22  H   UNL     1     -23.425  54.274  39.660  1.00  0.00     0.211 HD
ENDBRANCH  16  21
BRANCH  17  23
ATOM     23  C   UNL     1     -21.897  53.017  42.271  1.00  0.00     0.191 C 
BRANCH  23  24
ATOM     24  O   UNL     1     -22.659  54.110  41.836  1.00  0.00    -0.394 OA
ATOM     25  H   UNL     1     -22.019  54.749  41.426  1.00  0.00     0.210 HD
ENDBRANCH  23  24
ENDBRANCH  17  23
BRANCH  18  26
ATOM     26  O   UNL     1     -21.130  54.058  39.613  1.00  0.00    -0.387 OA
ATOM     27  H   UNL     1     -21.206  54.442  40.524  1.00  0.00     0.211 HD
ENDBRANCH  18  26
ENDBRANCH  12  13
ENDBRANCH   7  12
BRANCH   4  28
ATOM     28  O   UNL     1     -26.844  47.335  44.877  1.00  0.00    -0.365 OA
ATOM     29  H   UNL     1     -27.045  46.602  44.239  1.00  0.00     0.214 HD
ENDBRANCH   4  28
BRANCH   8  30
ATOM     30  C   UNL     1     -26.175  51.072  41.942  1.00  0.00     0.249 C 
BRANCH  30  31
ATOM     31  O   UNL     1     -26.479  52.122  42.857  1.00  0.00    -0.461 OA
BRANCH  31  32
ATOM     32  C   UNL     1     -25.979  53.426  42.762  1.00  0.00     0.338 C 
ATOM     33  O   UNL     1     -25.622  53.890  41.643  1.00  0.00    -0.246 OA
BRANCH  32  34
ATOM     34  C   UNL     1     -25.875  54.257  43.982  1.00  0.00     0.060 A 
ATOM     35  C   UNL     1     -25.101  55.432  43.994  1.00  0.00     0.015 A 
ATOM     36  C   UNL     1     -26.569  53.885  45.149  1.00  0.00     0.015 A 
ATOM     37  C   UNL     1     -25.025  56.218  45.150  1.00  0.00     0.001 A 
ATOM     38  C   UNL     1     -26.493  54.675  46.302  1.00  0.00     0.001 A 
ATOM     39  C   UNL     1     -25.721  55.840  46.301  1.00  0.00     0.000 A 
ENDBRANCH  32  34
ENDBRANCH  31  32
ENDBRANCH  30  31
ENDBRANCH   8  30
TORSDOF 12
ENDMDL
MODEL 7
REMARK VINA RESULT:    -3.844      2.535      5.976
REMARK INTER + INTRA:          -7.537
REMARK INTER:                  -6.967
REMARK INTRA:                  -0.569
REMARK UNBOUND:                -1.558
REMARK SMILES C[C@@]12C[C@@]3(O)O[C@@H](O1)[C@]1(COC(=O)c4ccccc4)[C@H]3C[C@@]12O[C@H]1O[C@H](CO)[C@H](O)[C@H](O)[C@@H]1O
REMARK SMILES IDX 1 1 2 2 3 3 4 4 20 5 21 6 22 7 9 8 7 9 8 10 6 11 23 12 24 13
REMARK SMILES IDX 33 14 25 15 31 16 26 17 29 18 34 19 32 21 27 23 28 24 30 26
REMARK SMILES IDX 5 28 10 30 11 31 12 32 13 33 14 34 15 35 19 36 16 37 18 38
REMARK SMILES IDX 17 39
REMARK H PARENT 34 20 32 22 28 25 30 27 5 29
REMARK Flexibility Score: inf
ROOT
ATOM      1  C   UNL     1     -23.390  55.286  44.692  1.00  0.00     0.046 C 
ATOM      2  C   UNL     1     -24.121  54.132  44.000  1.00  0.00     0.104 C 
ATOM      3  C   UNL     1     -24.788  54.605  42.655  1.00  0.00     0.104 C 
ATOM      4  C   UNL     1     -25.568  53.336  42.162  1.00  0.00     0.175 C 
ATOM      5  C   UNL     1     -26.426  52.741  43.325  1.00  0.00     0.070 C 
ATOM      6  C   UNL     1     -26.628  53.733  44.475  1.00  0.00     0.050 C 
ATOM      7  C   UNL     1     -25.191  53.401  44.903  1.00  0.00     0.115 C 
ATOM      8  C   UNL     1     -25.301  52.083  44.127  1.00  0.00     0.096 C 
ATOM      9  C   UNL     1     -24.092  52.044  43.197  1.00  0.00     0.267 C 
ATOM     10  O   UNL     1     -23.230  53.099  43.615  1.00  0.00    -0.342 OA
ATOM     11  O   UNL     1     -24.588  52.349  41.902  1.00  0.00    -0.320 OA
ENDROOT
BRANCH   7  12
ATOM     12  O   UNL     1     -25.049  53.459  46.323  1.00  0.00    -0.339 OA
BRANCH  12  13
ATOM     13  C   UNL     1     -24.764  54.719  46.916  1.00  0.00     0.282 C 
ATOM     14  C   UNL     1     -24.049  54.431  48.249  1.00  0.00     0.202 C 
ATOM     15  O   UNL     1     -25.941  55.483  47.137  1.00  0.00    -0.341 OA
ATOM     16  C   UNL     1     -23.652  55.735  48.953  1.00  0.00     0.179 C 
ATOM     17  C   UNL     1     -25.707  56.752  47.740  1.00  0.00     0.178 C 
ATOM     18  C   UNL     1     -24.883  56.657  49.059  1.00  0.00     0.177 C 
BRANCH  14  19
ATOM     19  O   UNL     1     -22.910  53.643  48.014  1.00  0.00    -0.385 OA
ATOM     20  H   UNL     1     -22.157  54.078  48.496  1.00  0.00     0.211 HD
ENDBRANCH  14  19
BRANCH  16  21
ATOM     21  O   UNL     1     -22.595  56.355  48.261  1.00  0.00    -0.387 OA
ATOM     22  H   UNL     1     -22.467  57.249  48.679  1.00  0.00     0.211 HD
ENDBRANCH  16  21
BRANCH  17  23
ATOM     23  C   UNL     1     -25.268  57.820  46.714  1.00  0.00     0.191 C 
BRANCH  23  24
ATOM     24  O   UNL     1     -25.879  59.060  46.945  1.00  0.00    -0.394 OA
ATOM     25  H   UNL     1     -25.143  59.722  47.019  1.00  0.00     0.210 HD
ENDBRANCH  23  24
ENDBRANCH  17  23
BRANCH  18  26
ATOM     26  O   UNL     1     -24.558  57.923  49.580  1.00  0.00    -0.387 OA
ATOM     27  H   UNL     1     -23.571  57.992  49.633  1.00  0.00     0.211 HD
ENDBRANCH  18  26
ENDBRANCH  12  13
ENDBRANCH   7  12
BRANCH   4  28
ATOM     28  O   UNL     1     -26.330  53.618  41.019  1.00  0.00    -0.365 OA
ATOM     29  H   UNL     1     -25.929  54.425  40.602  1.00  0.00     0.214 HD
ENDBRANCH   4  28
BRANCH   8  30
ATOM     30  C   UNL     1     -25.696  50.770  44.828  1.00  0.00     0.249 C 
BRANCH  30  31
ATOM     31  O   UNL     1     -25.271  49.654  44.049  1.00  0.00    -0.461 OA
BRANCH  31  32
ATOM     32  C   UNL     1     -26.083  48.563  43.718  1.00  0.00     0.338 C 
ATOM     33  O   UNL     1     -26.244  47.617  44.539  1.00  0.00    -0.246 OA
BRANCH  32  34
ATOM     34  C   UNL     1     -26.754  48.528  42.398  1.00  0.00     0.060 A 
ATOM     35  C   UNL     1     -27.609  47.467  42.049  1.00  0.00     0.015 A 
ATOM     36  C   UNL     1     -26.554  49.575  41.479  1.00  0.00     0.015 A 
ATOM     37  C   UNL     1     -28.250  47.455  40.805  1.00  0.00     0.001 A 
ATOM     38  C   UNL     1     -27.200  49.561  40.237  1.00  0.00     0.001 A 
ATOM     39  C   UNL     1     -28.047  48.501  39.902  1.00  0.00     0.000 A 
ENDBRANCH  32  34
ENDBRANCH  31  32
ENDBRANCH  30  31
ENDBRANCH   8  30
TORSDOF 12
ENDMDL
MODEL 8
REMARK VINA RESULT:    -3.827      1.576      5.294
REMARK INTER + INTRA:          -7.510
REMARK INTER:                  -5.807
REMARK INTRA:                  -1.703
REMARK UNBOUND:                -1.558
REMARK SMILES C[C@@]12C[C@@]3(O)O[C@@H](O1)[C@]1(COC(=O)c4ccccc4)[C@H]3C[C@@]12O[C@H]1O[C@H](CO)[C@H](O)[C@H](O)[C@@H]1O
REMARK SMILES IDX 1 1 2 2 3 3 4 4 20 5 21 6 22 7 9 8 7 9 8 10 6 11 23 12 24 13
REMARK SMILES IDX 33 14 25 15 31 16 26 17 29 18 34 19 32 21 27 23 28 24 30 26
REMARK SMILES IDX 5 28 10 30 11 31 12 32 13 33 14 34 15 35 19 36 16 37 18 38
REMARK SMILES IDX 17 39
REMARK H PARENT 34 20 32 22 28 25 30 27 5 29
REMARK Flexibility Score: inf
ROOT
ATOM      1  C   UNL     1     -20.599  52.149  43.725  1.00  0.00     0.046 C 
ATOM      2  C   UNL     1     -21.092  50.963  42.892  1.00  0.00     0.104 C 
ATOM      3  C   UNL     1     -19.886  50.139  42.304  1.00  0.00     0.104 C 
ATOM      4  C   UNL     1     -20.579  49.055  41.408  1.00  0.00     0.175 C 
ATOM      5  C   UNL     1     -21.637  49.722  40.471  1.00  0.00     0.070 C 
ATOM      6  C   UNL     1     -21.443  51.237  40.349  1.00  0.00     0.050 C 
ATOM      7  C   UNL     1     -22.095  51.347  41.735  1.00  0.00     0.115 C 
ATOM      8  C   UNL     1     -22.736  49.973  41.505  1.00  0.00     0.096 C 
ATOM      9  C   UNL     1     -22.364  49.131  42.723  1.00  0.00     0.267 C 
ATOM     10  O   UNL     1     -21.813  50.030  43.679  1.00  0.00    -0.342 OA
ATOM     11  O   UNL     1     -21.342  48.248  42.286  1.00  0.00    -0.320 OA
ENDROOT
BRANCH   7  12
ATOM     12  O   UNL     1     -22.855  52.551  41.854  1.00  0.00    -0.339 OA
BRANCH  12  13
ATOM     13  C   UNL     1     -23.988  52.545  42.713  1.00  0.00     0.282 C 
ATOM     14  C   UNL     1     -25.063  53.415  42.036  1.00  0.00     0.202 C 
ATOM     15  O   UNL     1     -23.680  53.049  44.005  1.00  0.00    -0.341 OA
ATOM     16  C   UNL     1     -26.354  53.437  42.865  1.00  0.00     0.179 C 
ATOM     17  C   UNL     1     -24.787  53.072  44.900  1.00  0.00     0.178 C 
ATOM     18  C   UNL     1     -26.024  53.823  44.320  1.00  0.00     0.177 C 
BRANCH  14  19
ATOM     19  O   UNL     1     -25.326  52.923  40.746  1.00  0.00    -0.385 OA
ATOM     20  H   UNL     1     -26.193  53.317  40.462  1.00  0.00     0.211 HD
ENDBRANCH  14  19
BRANCH  16  21
ATOM     21  O   UNL     1     -26.998  52.188  42.790  1.00  0.00    -0.387 OA
ATOM     22  H   UNL     1     -26.373  51.522  43.186  1.00  0.00     0.211 HD
ENDBRANCH  16  21
BRANCH  17  23
ATOM     23  C   UNL     1     -25.046  51.697  45.554  1.00  0.00     0.191 C 
BRANCH  23  24
ATOM     24  O   UNL     1     -26.299  51.172  45.206  1.00  0.00    -0.394 OA
ATOM     25  H   UNL     1     -26.783  51.021  46.060  1.00  0.00     0.210 HD
ENDBRANCH  23  24
ENDBRANCH  17  23
BRANCH  18  26
ATOM     26  O   UNL     1     -27.147  53.738  45.163  1.00  0.00    -0.387 OA
ATOM     27  H   UNL     1     -26.865  53.313  46.013  1.00  0.00     0.211 HD
ENDBRANCH  18  26
ENDBRANCH  12  13
ENDBRANCH   7  12
BRANCH   4  28
ATOM     28  O   UNL     1     -19.634  48.296  40.702  1.00  0.00    -0.365 OA
ATOM     29  H   UNL     1     -19.522  48.733  39.819  1.00  0.00     0.214 HD
ENDBRANCH   4  28
BRANCH   8  30
ATOM     30  C   UNL     1     -24.171  49.838  40.963  1.00  0.00     0.249 C 
BRANCH  30  31
ATOM     31  O   UNL     1     -24.843  48.769  41.625  1.00  0.00    -0.461 OA
BRANCH  31  32
ATOM     32  C   UNL     1     -26.158  48.834  42.102  1.00  0.00     0.338 C 
ATOM     33  O   UNL     1     -26.395  49.295  43.254  1.00  0.00    -0.246 OA
BRANCH  32  34
ATOM     34  C   UNL     1     -27.268  48.361  41.245  1.00  0.00     0.060 A 
ATOM     35  C   UNL     1     -27.575  49.011  40.035  1.00  0.00     0.015 A 
ATOM     36  C   UNL     1     -28.023  47.236  41.625  1.00  0.00     0.015 A 
ATOM     37  C   UNL     1     -28.616  48.544  39.225  1.00  0.00     0.001 A 
ATOM     38  C   UNL     1     -29.061  46.770  40.811  1.00  0.00     0.001 A 
ATOM     39  C   UNL     1     -29.357  47.424  39.612  1.00  0.00     0.000 A 
ENDBRANCH  32  34
ENDBRANCH  31  32
ENDBRANCH  30  31
ENDBRANCH   8  30
TORSDOF 12
ENDMDL
MODEL 9
REMARK VINA RESULT:    -3.803      2.130      6.274
REMARK INTER + INTRA:          -7.473
REMARK INTER:                  -6.116
REMARK INTRA:                  -1.357
REMARK UNBOUND:                -1.558
REMARK SMILES C[C@@]12C[C@@]3(O)O[C@@H](O1)[C@]1(COC(=O)c4ccccc4)[C@H]3C[C@@]12O[C@H]1O[C@H](CO)[C@H](O)[C@H](O)[C@@H]1O
REMARK SMILES IDX 1 1 2 2 3 3 4 4 20 5 21 6 22 7 9 8 7 9 8 10 6 11 23 12 24 13
REMARK SMILES IDX 33 14 25 15 31 16 26 17 29 18 34 19 32 21 27 23 28 24 30 26
REMARK SMILES IDX 5 28 10 30 11 31 12 32 13 33 14 34 15 35 19 36 16 37 18 38
REMARK SMILES IDX 17 39
REMARK H PARENT 34 20 32 22 28 25 30 27 5 29
REMARK Flexibility Score: inf
ROOT
ATOM      1  C   UNL     1     -25.424  45.685  38.943  1.00  0.00     0.046 C 
ATOM      2  C   UNL     1     -26.415  46.655  39.593  1.00  0.00     0.104 C 
ATOM      3  C   UNL     1     -27.900  46.177  39.383  1.00  0.00     0.104 C 
ATOM      4  C   UNL     1     -28.754  47.335  40.008  1.00  0.00     0.175 C 
ATOM      5  C   UNL     1     -28.265  48.719  39.471  1.00  0.00     0.070 C 
ATOM      6  C   UNL     1     -27.411  48.592  38.206  1.00  0.00     0.050 C 
ATOM      7  C   UNL     1     -26.261  48.156  39.127  1.00  0.00     0.115 C 
ATOM      8  C   UNL     1     -26.981  48.845  40.293  1.00  0.00     0.096 C 
ATOM      9  C   UNL     1     -27.086  47.795  41.396  1.00  0.00     0.267 C 
ATOM     10  O   UNL     1     -26.252  46.711  40.999  1.00  0.00    -0.342 OA
ATOM     11  O   UNL     1     -28.436  47.357  41.387  1.00  0.00    -0.320 OA
ENDROOT
BRANCH   7  12
ATOM     12  O   UNL     1     -25.000  48.595  38.621  1.00  0.00    -0.339 OA
BRANCH  12  13
ATOM     13  C   UNL     1     -24.039  49.078  39.550  1.00  0.00     0.282 C 
ATOM     14  C   UNL     1     -23.255  50.196  38.837  1.00  0.00     0.202 C 
ATOM     15  O   UNL     1     -23.157  48.054  39.988  1.00  0.00    -0.341 OA
ATOM     16  C   UNL     1     -22.215  50.823  39.775  1.00  0.00     0.179 C 
ATOM     17  C   UNL     1     -22.168  48.492  40.913  1.00  0.00     0.178 C 
ATOM     18  C   UNL     1     -21.346  49.710  40.395  1.00  0.00     0.177 C 
BRANCH  14  19
ATOM     19  O   UNL     1     -24.148  51.181  38.380  1.00  0.00    -0.385 OA
ATOM     20  H   UNL     1     -25.019  51.006  38.826  1.00  0.00     0.211 HD
ENDBRANCH  14  19
BRANCH  16  21
ATOM     21  O   UNL     1     -22.857  51.594  40.762  1.00  0.00    -0.387 OA
ATOM     22  H   UNL     1     -22.145  51.916  41.379  1.00  0.00     0.211 HD
ENDBRANCH  16  21
BRANCH  17  23
ATOM     23  C   UNL     1     -22.707  48.574  42.358  1.00  0.00     0.191 C 
BRANCH  23  24
ATOM     24  O   UNL     1     -23.838  47.766  42.548  1.00  0.00    -0.394 OA
ATOM     25  H   UNL     1     -23.653  47.218  43.355  1.00  0.00     0.210 HD
ENDBRANCH  23  24
ENDBRANCH  17  23
BRANCH  18  26
ATOM     26  O   UNL     1     -20.454  50.207  41.363  1.00  0.00    -0.387 OA
ATOM     27  H   UNL     1     -20.421  51.194  41.277  1.00  0.00     0.211 HD
ENDBRANCH  18  26
ENDBRANCH  12  13
ENDBRANCH   7  12
BRANCH   4  28
ATOM     28  O   UNL     1     -30.125  47.128  39.799  1.00  0.00    -0.365 OA
ATOM     29  H   UNL     1     -30.415  47.800  39.129  1.00  0.00     0.214 HD
ENDBRANCH   4  28
BRANCH   8  30
ATOM     30  C   UNL     1     -26.627  50.282  40.717  1.00  0.00     0.249 C 
BRANCH  30  31
ATOM     31  O   UNL     1     -25.624  50.260  41.730  1.00  0.00    -0.461 OA
BRANCH  31  32
ATOM     32  C   UNL     1     -25.850  50.564  43.077  1.00  0.00     0.338 C 
ATOM     33  O   UNL     1     -26.001  49.638  43.922  1.00  0.00    -0.246 OA
BRANCH  32  34
ATOM     34  C   UNL     1     -25.909  51.980  43.504  1.00  0.00     0.060 A 
ATOM     35  C   UNL     1     -25.167  52.969  42.832  1.00  0.00     0.015 A 
ATOM     36  C   UNL     1     -26.728  52.358  44.584  1.00  0.00     0.015 A 
ATOM     37  C   UNL     1     -25.245  54.307  43.234  1.00  0.00     0.001 A 
ATOM     38  C   UNL     1     -26.805  53.697  44.981  1.00  0.00     0.001 A 
ATOM     39  C   UNL     1     -26.064  54.671  44.306  1.00  0.00     0.000 A 
ENDBRANCH  32  34
ENDBRANCH  31  32
ENDBRANCH  30  31
ENDBRANCH   8  30
TORSDOF 12
ENDMDL
