MODEL 1
REMARK VINA RESULT:    -5.881      0.000      0.000
REMARK INTER + INTRA:          -8.152
REMARK INTER:                  -7.428
REMARK INTRA:                  -0.723
REMARK UNBOUND:                -0.723
REMARK SMILES O=C(C=Cc1ccc(O)cc1)c1ccc(O)cc1O
REMARK SMILES IDX 4 1 3 2 5 3 6 4 7 5 8 6 11 7 10 8 9 9 2 11 1 12 12 13 18 14
REMARK SMILES IDX 13 15 17 16 14 17 15 18 19 19 16 21
REMARK H PARENT 9 10 19 20 16 22
REMARK Flexibility Score: inf
ROOT
ATOM      1  C   UNL     1       6.537 -35.918  18.813  1.00  0.00     0.012 C 
ATOM      2  C   UNL     1       7.236 -35.105  19.620  1.00  0.00     0.053 C 
ENDROOT
BRANCH   1   3
ATOM      3  C   UNL     1       6.826 -37.364  18.650  1.00  0.00    -0.025 A 
ATOM      4  C   UNL     1       6.818 -38.183  19.792  1.00  0.00     0.012 A 
ATOM      5  C   UNL     1       7.092 -39.550  19.689  1.00  0.00     0.047 A 
ATOM      6  C   UNL     1       7.390 -40.116  18.447  1.00  0.00     0.115 A 
ATOM      7  C   UNL     1       7.141 -37.940  17.402  1.00  0.00     0.012 A 
ATOM      8  C   UNL     1       7.416 -39.308  17.304  1.00  0.00     0.047 A 
BRANCH   6   9
ATOM      9  O   UNL     1       7.661 -41.480  18.359  1.00  0.00    -0.508 OA
ATOM     10  H   UNL     1       8.157 -41.970  19.093  1.00  0.00     0.293 HD
ENDBRANCH   6   9
ENDBRANCH   1   3
BRANCH   2  11
ATOM     11  C   UNL     1       6.937 -33.663  19.762  1.00  0.00     0.189 C 
ATOM     12  O   UNL     1       6.640 -33.221  20.905  1.00  0.00    -0.289 OA
BRANCH  11  13
ATOM     13  C   UNL     1       6.942 -32.726  18.620  1.00  0.00     0.064 A 
ATOM     14  C   UNL     1       5.794 -31.984  18.252  1.00  0.00     0.130 A 
ATOM     15  C   UNL     1       8.121 -32.581  17.872  1.00  0.00     0.020 A 
ATOM     16  C   UNL     1       5.866 -31.082  17.184  1.00  0.00     0.093 A 
ATOM     17  C   UNL     1       8.178 -31.685  16.803  1.00  0.00     0.047 A 
ATOM     18  C   UNL     1       7.055 -30.929  16.458  1.00  0.00     0.119 A 
BRANCH  14  19
ATOM     19  O   UNL     1       4.572 -32.134  18.909  1.00  0.00    -0.507 OA
ATOM     20  H   UNL     1       3.687 -31.875  18.491  1.00  0.00     0.293 HD
ENDBRANCH  14  19
BRANCH  18  21
ATOM     21  O   UNL     1       7.128 -30.035  15.393  1.00  0.00    -0.508 OA
ATOM     22  H   UNL     1       7.140 -30.356  14.432  1.00  0.00     0.293 HD
ENDBRANCH  18  21
ENDBRANCH  11  13
ENDBRANCH   2  11
TORSDOF 6
ENDMDL
MODEL 2
REMARK VINA RESULT:    -5.696     16.563     17.288
REMARK INTER + INTRA:          -7.918
REMARK INTER:                  -7.247
REMARK INTRA:                  -0.671
REMARK UNBOUND:                -0.723
REMARK SMILES O=C(C=Cc1ccc(O)cc1)c1ccc(O)cc1O
REMARK SMILES IDX 4 1 3 2 5 3 6 4 7 5 8 6 11 7 10 8 9 9 2 11 1 12 12 13 18 14
REMARK SMILES IDX 13 15 17 16 14 17 15 18 19 19 16 21
REMARK H PARENT 9 10 19 20 16 22
REMARK Flexibility Score: inf
ROOT
ATOM      1  C   UNL     1      -2.756 -48.520  16.841  1.00  0.00     0.012 C 
ATOM      2  C   UNL     1      -3.981 -48.889  17.246  1.00  0.00     0.053 C 
ENDROOT
BRANCH   1   3
ATOM      3  C   UNL     1      -2.158 -48.933  15.547  1.00  0.00    -0.025 A 
ATOM      4  C   UNL     1      -2.904 -48.742  14.371  1.00  0.00     0.012 A 
ATOM      5  C   UNL     1      -2.385 -49.122  13.130  1.00  0.00     0.047 A 
ATOM      6  C   UNL     1      -1.120 -49.710  13.046  1.00  0.00     0.115 A 
ATOM      7  C   UNL     1      -0.888 -49.540  15.456  1.00  0.00     0.012 A 
ATOM      8  C   UNL     1      -0.374 -49.920  14.212  1.00  0.00     0.047 A 
BRANCH   6   9
ATOM      9  O   UNL     1      -0.615 -50.084  11.803  1.00  0.00    -0.508 OA
ATOM     10  H   UNL     1       0.278 -50.552  11.713  1.00  0.00     0.293 HD
ENDBRANCH   6   9
ENDBRANCH   1   3
BRANCH   2  11
ATOM     11  C   UNL     1      -4.557 -48.473  18.544  1.00  0.00     0.189 C 
ATOM     12  O   UNL     1      -4.494 -49.276  19.514  1.00  0.00    -0.289 OA
BRANCH  11  13
ATOM     13  C   UNL     1      -5.227 -47.171  18.744  1.00  0.00     0.064 A 
ATOM     14  C   UNL     1      -5.217 -46.504  19.991  1.00  0.00     0.130 A 
ATOM     15  C   UNL     1      -5.905 -46.590  17.660  1.00  0.00     0.020 A 
ATOM     16  C   UNL     1      -5.835 -45.254  20.114  1.00  0.00     0.093 A 
ATOM     17  C   UNL     1      -6.527 -45.347  17.797  1.00  0.00     0.047 A 
ATOM     18  C   UNL     1      -6.491 -44.673  19.020  1.00  0.00     0.119 A 
BRANCH  14  19
ATOM     19  O   UNL     1      -4.621 -47.060  21.125  1.00  0.00    -0.507 OA
ATOM     20  H   UNL     1      -3.631 -47.265  21.182  1.00  0.00     0.293 HD
ENDBRANCH  14  19
BRANCH  18  21
ATOM     21  O   UNL     1      -7.110 -43.432  19.140  1.00  0.00    -0.508 OA
ATOM     22  H   UNL     1      -7.933 -43.304  19.717  1.00  0.00     0.293 HD
ENDBRANCH  18  21
ENDBRANCH  11  13
ENDBRANCH   2  11
TORSDOF 6
ENDMDL
MODEL 3
REMARK VINA RESULT:    -5.588      1.347      1.811
REMARK INTER + INTRA:          -7.782
REMARK INTER:                  -7.064
REMARK INTRA:                  -0.718
REMARK UNBOUND:                -0.723
REMARK SMILES O=C(C=Cc1ccc(O)cc1)c1ccc(O)cc1O
REMARK SMILES IDX 4 1 3 2 5 3 6 4 7 5 8 6 11 7 10 8 9 9 2 11 1 12 12 13 18 14
REMARK SMILES IDX 13 15 17 16 14 17 15 18 19 19 16 21
REMARK H PARENT 9 10 19 20 16 22
REMARK Flexibility Score: inf
ROOT
ATOM      1  C   UNL     1       6.924 -35.049  18.076  1.00  0.00     0.012 C 
ATOM      2  C   UNL     1       6.741 -34.085  18.991  1.00  0.00     0.053 C 
ENDROOT
BRANCH   1   3
ATOM      3  C   UNL     1       6.953 -36.497  18.399  1.00  0.00    -0.025 A 
ATOM      4  C   UNL     1       6.868 -36.886  19.747  1.00  0.00     0.012 A 
ATOM      5  C   UNL     1       6.900 -38.238  20.100  1.00  0.00     0.047 A 
ATOM      6  C   UNL     1       7.029 -39.220  19.115  1.00  0.00     0.115 A 
ATOM      7  C   UNL     1       7.098 -37.493  17.411  1.00  0.00     0.012 A 
ATOM      8  C   UNL     1       7.131 -38.845  17.770  1.00  0.00     0.047 A 
BRANCH   6   9
ATOM      9  O   UNL     1       7.059 -40.564  19.481  1.00  0.00    -0.508 OA
ATOM     10  H   UNL     1       7.897 -41.123  19.376  1.00  0.00     0.293 HD
ENDBRANCH   6   9
ENDBRANCH   1   3
BRANCH   2  11
ATOM     11  C   UNL     1       6.722 -32.646  18.650  1.00  0.00     0.189 C 
ATOM     12  O   UNL     1       5.917 -31.894  19.262  1.00  0.00    -0.289 OA
BRANCH  11  13
ATOM     13  C   UNL     1       7.585 -32.059  17.604  1.00  0.00     0.064 A 
ATOM     14  C   UNL     1       7.057 -31.542  16.397  1.00  0.00     0.130 A 
ATOM     15  C   UNL     1       8.973 -32.027  17.814  1.00  0.00     0.020 A 
ATOM     16  C   UNL     1       7.917 -30.962  15.457  1.00  0.00     0.093 A 
ATOM     17  C   UNL     1       9.822 -31.456  16.864  1.00  0.00     0.047 A 
ATOM     18  C   UNL     1       9.298 -30.917  15.687  1.00  0.00     0.119 A 
BRANCH  14  19
ATOM     19  O   UNL     1       5.695 -31.606  16.096  1.00  0.00    -0.507 OA
ATOM     20  H   UNL     1       5.141 -32.443  16.227  1.00  0.00     0.293 HD
ENDBRANCH  14  19
BRANCH  18  21
ATOM     21  O   UNL     1      10.155 -30.344  14.751  1.00  0.00    -0.508 OA
ATOM     22  H   UNL     1      10.357 -29.351  14.756  1.00  0.00     0.293 HD
ENDBRANCH  18  21
ENDBRANCH  11  13
ENDBRANCH   2  11
TORSDOF 6
ENDMDL
MODEL 4
REMARK VINA RESULT:    -5.559     14.821     16.210
REMARK INTER + INTRA:          -7.745
REMARK INTER:                  -7.026
REMARK INTRA:                  -0.719
REMARK UNBOUND:                -0.723
REMARK SMILES O=C(C=Cc1ccc(O)cc1)c1ccc(O)cc1O
REMARK SMILES IDX 4 1 3 2 5 3 6 4 7 5 8 6 11 7 10 8 9 9 2 11 1 12 12 13 18 14
REMARK SMILES IDX 13 15 17 16 14 17 15 18 19 19 16 21
REMARK H PARENT 9 10 19 20 16 22
REMARK Flexibility Score: inf
ROOT
ATOM      1  C   UNL     1      -2.799 -47.454  17.358  1.00  0.00     0.012 C 
ATOM      2  C   UNL     1      -2.153 -46.472  18.006  1.00  0.00     0.053 C 
ENDROOT
BRANCH   1   3
ATOM      3  C   UNL     1      -2.256 -48.151  16.167  1.00  0.00    -0.025 A 
ATOM      4  C   UNL     1      -3.039 -48.197  15.001  1.00  0.00     0.012 A 
ATOM      5  C   UNL     1      -2.573 -48.850  13.856  1.00  0.00     0.047 A 
ATOM      6  C   UNL     1      -1.324 -49.477  13.863  1.00  0.00     0.115 A 
ATOM      7  C   UNL     1      -1.003 -48.798  16.171  1.00  0.00     0.012 A 
ATOM      8  C   UNL     1      -0.541 -49.452  15.023  1.00  0.00     0.047 A 
BRANCH   6   9
ATOM      9  O   UNL     1      -0.872 -50.124  12.714  1.00  0.00    -0.508 OA
ATOM     10  H   UNL     1      -1.338 -50.008  11.823  1.00  0.00     0.293 HD
ENDBRANCH   6   9
ENDBRANCH   1   3
BRANCH   2  11
ATOM     11  C   UNL     1      -2.716 -45.783  19.188  1.00  0.00     0.189 C 
ATOM     12  O   UNL     1      -1.977 -45.618  20.196  1.00  0.00    -0.289 OA
BRANCH  11  13
ATOM     13  C   UNL     1      -4.114 -45.308  19.249  1.00  0.00     0.064 A 
ATOM     14  C   UNL     1      -5.052 -45.849  20.160  1.00  0.00     0.130 A 
ATOM     15  C   UNL     1      -4.521 -44.297  18.364  1.00  0.00     0.020 A 
ATOM     16  C   UNL     1      -6.354 -45.333  20.201  1.00  0.00     0.093 A 
ATOM     17  C   UNL     1      -5.825 -43.798  18.407  1.00  0.00     0.047 A 
ATOM     18  C   UNL     1      -6.743 -44.310  19.328  1.00  0.00     0.119 A 
BRANCH  14  19
ATOM     19  O   UNL     1      -4.731 -46.902  21.017  1.00  0.00    -0.507 OA
ATOM     20  H   UNL     1      -5.199 -47.800  20.985  1.00  0.00     0.293 HD
ENDBRANCH  14  19
BRANCH  18  21
ATOM     21  O   UNL     1      -8.037 -43.798  19.364  1.00  0.00    -0.508 OA
ATOM     22  H   UNL     1      -8.374 -43.265  20.157  1.00  0.00     0.293 HD
ENDBRANCH  18  21
ENDBRANCH  11  13
ENDBRANCH   2  11
TORSDOF 6
ENDMDL
MODEL 5
REMARK VINA RESULT:    -5.459     14.543     17.008
REMARK INTER + INTRA:          -7.618
REMARK INTER:                  -6.956
REMARK INTRA:                  -0.662
REMARK UNBOUND:                -0.723
REMARK SMILES O=C(C=Cc1ccc(O)cc1)c1ccc(O)cc1O
REMARK SMILES IDX 4 1 3 2 5 3 6 4 7 5 8 6 11 7 10 8 9 9 2 11 1 12 12 13 18 14
REMARK SMILES IDX 13 15 17 16 14 17 15 18 19 19 16 21
REMARK H PARENT 9 10 19 20 16 22
REMARK Flexibility Score: inf
ROOT
ATOM      1  C   UNL     1      -3.211 -48.309  15.226  1.00  0.00     0.012 C 
ATOM      2  C   UNL     1      -3.693 -49.123  16.177  1.00  0.00     0.053 C 
ENDROOT
BRANCH   1   3
ATOM      3  C   UNL     1      -2.504 -48.787  14.012  1.00  0.00    -0.025 A 
ATOM      4  C   UNL     1      -3.128 -48.623  12.763  1.00  0.00     0.012 A 
ATOM      5  C   UNL     1      -2.506 -49.065  11.593  1.00  0.00     0.047 A 
ATOM      6  C   UNL     1      -1.257 -49.688  11.653  1.00  0.00     0.115 A 
ATOM      7  C   UNL     1      -1.250 -49.430  14.066  1.00  0.00     0.012 A 
ATOM      8  C   UNL     1      -0.631 -49.872  12.892  1.00  0.00     0.047 A 
BRANCH   6   9
ATOM      9  O   UNL     1      -0.647 -50.124  10.478  1.00  0.00    -0.508 OA
ATOM     10  H   UNL     1       0.345 -49.995  10.316  1.00  0.00     0.293 HD
ENDBRANCH   6   9
ENDBRANCH   1   3
BRANCH   2  11
ATOM     11  C   UNL     1      -4.388 -48.626  17.384  1.00  0.00     0.189 C 
ATOM     12  O   UNL     1      -5.323 -49.319  17.868  1.00  0.00    -0.289 OA
BRANCH  11  13
ATOM     13  C   UNL     1      -4.053 -47.339  18.029  1.00  0.00     0.064 A 
ATOM     14  C   UNL     1      -5.011 -46.311  18.197  1.00  0.00     0.130 A 
ATOM     15  C   UNL     1      -2.738 -47.131  18.475  1.00  0.00     0.020 A 
ATOM     16  C   UNL     1      -4.649 -45.127  18.850  1.00  0.00     0.093 A 
ATOM     17  C   UNL     1      -2.386 -45.941  19.115  1.00  0.00     0.047 A 
ATOM     18  C   UNL     1      -3.339 -44.938  19.310  1.00  0.00     0.119 A 
BRANCH  14  19
ATOM     19  O   UNL     1      -6.316 -46.427  17.715  1.00  0.00    -0.507 OA
ATOM     20  H   UNL     1      -7.041 -46.935  18.206  1.00  0.00     0.293 HD
ENDBRANCH  14  19
BRANCH  18  21
ATOM     21  O   UNL     1      -2.975 -43.760  19.956  1.00  0.00    -0.508 OA
ATOM     22  H   UNL     1      -2.618 -42.963  19.443  1.00  0.00     0.293 HD
ENDBRANCH  18  21
ENDBRANCH  11  13
ENDBRANCH   2  11
TORSDOF 6
ENDMDL
MODEL 6
REMARK VINA RESULT:    -5.434     15.171     17.478
REMARK INTER + INTRA:          -7.587
REMARK INTER:                  -7.149
REMARK INTRA:                  -0.438
REMARK UNBOUND:                -0.723
REMARK SMILES O=C(C=Cc1ccc(O)cc1)c1ccc(O)cc1O
REMARK SMILES IDX 4 1 3 2 5 3 6 4 7 5 8 6 11 7 10 8 9 9 2 11 1 12 12 13 18 14
REMARK SMILES IDX 13 15 17 16 14 17 15 18 19 19 16 21
REMARK H PARENT 9 10 19 20 16 22
REMARK Flexibility Score: inf
ROOT
ATOM      1  C   UNL     1      -5.034 -46.310  20.043  1.00  0.00     0.012 C 
ATOM      2  C   UNL     1      -5.011 -47.021  18.905  1.00  0.00     0.053 C 
ENDROOT
BRANCH   1   3
ATOM      3  C   UNL     1      -5.755 -45.023  20.195  1.00  0.00    -0.025 A 
ATOM      4  C   UNL     1      -5.165 -43.857  19.677  1.00  0.00     0.012 A 
ATOM      5  C   UNL     1      -5.803 -42.620  19.803  1.00  0.00     0.047 A 
ATOM      6  C   UNL     1      -7.033 -42.526  20.460  1.00  0.00     0.115 A 
ATOM      7  C   UNL     1      -6.990 -44.918  20.869  1.00  0.00     0.012 A 
ATOM      8  C   UNL     1      -7.624 -43.678  20.995  1.00  0.00     0.047 A 
BRANCH   6   9
ATOM      9  O   UNL     1      -7.658 -41.287  20.578  1.00  0.00    -0.508 OA
ATOM     10  H   UNL     1      -7.648 -40.769  21.449  1.00  0.00     0.293 HD
ENDBRANCH   6   9
ENDBRANCH   1   3
BRANCH   2  11
ATOM     11  C   UNL     1      -4.278 -48.299  18.771  1.00  0.00     0.189 C 
ATOM     12  O   UNL     1      -4.464 -49.192  19.642  1.00  0.00    -0.289 OA
BRANCH  11  13
ATOM     13  C   UNL     1      -3.317 -48.562  17.680  1.00  0.00     0.064 A 
ATOM     14  C   UNL     1      -2.022 -47.993  17.666  1.00  0.00     0.130 A 
ATOM     15  C   UNL     1      -3.713 -49.393  16.620  1.00  0.00     0.020 A 
ATOM     16  C   UNL     1      -1.138 -48.308  16.626  1.00  0.00     0.093 A 
ATOM     17  C   UNL     1      -2.827 -49.691  15.583  1.00  0.00     0.047 A 
ATOM     18  C   UNL     1      -1.537 -49.155  15.585  1.00  0.00     0.119 A 
BRANCH  14  19
ATOM     19  O   UNL     1      -1.591 -47.104  18.653  1.00  0.00    -0.507 OA
ATOM     20  H   UNL     1      -0.613 -46.918  18.837  1.00  0.00     0.293 HD
ENDBRANCH  14  19
BRANCH  18  21
ATOM     21  O   UNL     1      -0.661 -49.466  14.547  1.00  0.00    -0.508 OA
ATOM     22  H   UNL     1      -0.954 -49.431  13.578  1.00  0.00     0.293 HD
ENDBRANCH  18  21
ENDBRANCH  11  13
ENDBRANCH   2  11
TORSDOF 6
ENDMDL
MODEL 7
REMARK VINA RESULT:    -5.433      1.802      2.761
REMARK INTER + INTRA:          -7.586
REMARK INTER:                  -6.916
REMARK INTRA:                  -0.670
REMARK UNBOUND:                -0.723
REMARK SMILES O=C(C=Cc1ccc(O)cc1)c1ccc(O)cc1O
REMARK SMILES IDX 4 1 3 2 5 3 6 4 7 5 8 6 11 7 10 8 9 9 2 11 1 12 12 13 18 14
REMARK SMILES IDX 13 15 17 16 14 17 15 18 19 19 16 21
REMARK H PARENT 9 10 19 20 16 22
REMARK Flexibility Score: inf
ROOT
ATOM      1  C   UNL     1       6.499 -35.914  17.519  1.00  0.00     0.012 C 
ATOM      2  C   UNL     1       7.257 -35.262  16.624  1.00  0.00     0.053 C 
ENDROOT
BRANCH   1   3
ATOM      3  C   UNL     1       6.780 -37.294  17.987  1.00  0.00    -0.025 A 
ATOM      4  C   UNL     1       7.071 -38.282  17.029  1.00  0.00     0.012 A 
ATOM      5  C   UNL     1       7.334 -39.597  17.421  1.00  0.00     0.047 A 
ATOM      6  C   UNL     1       7.298 -39.949  18.773  1.00  0.00     0.115 A 
ATOM      7  C   UNL     1       6.732 -37.659  19.348  1.00  0.00     0.012 A 
ATOM      8  C   UNL     1       6.995 -38.978  19.736  1.00  0.00     0.047 A 
BRANCH   6   9
ATOM      9  O   UNL     1       7.563 -41.264  19.150  1.00  0.00    -0.508 OA
ATOM     10  H   UNL     1       7.181 -42.049  18.637  1.00  0.00     0.293 HD
ENDBRANCH   6   9
ENDBRANCH   1   3
BRANCH   2  11
ATOM     11  C   UNL     1       6.956 -33.889  16.164  1.00  0.00     0.189 C 
ATOM     12  O   UNL     1       7.304 -33.556  15.000  1.00  0.00    -0.289 OA
BRANCH  11  13
ATOM     13  C   UNL     1       6.292 -32.884  17.021  1.00  0.00     0.064 A 
ATOM     14  C   UNL     1       4.925 -32.553  16.869  1.00  0.00     0.130 A 
ATOM     15  C   UNL     1       7.051 -32.231  18.005  1.00  0.00     0.020 A 
ATOM     16  C   UNL     1       4.338 -31.622  17.733  1.00  0.00     0.093 A 
ATOM     17  C   UNL     1       6.457 -31.296  18.855  1.00  0.00     0.047 A 
ATOM     18  C   UNL     1       5.099 -30.992  18.726  1.00  0.00     0.119 A 
BRANCH  14  19
ATOM     19  O   UNL     1       4.133 -33.114  15.865  1.00  0.00    -0.507 OA
ATOM     20  H   UNL     1       3.480 -33.868  16.037  1.00  0.00     0.293 HD
ENDBRANCH  14  19
BRANCH  18  21
ATOM     21  O   UNL     1       4.519 -30.062  19.585  1.00  0.00    -0.508 OA
ATOM     22  H   UNL     1       3.588 -29.698  19.420  1.00  0.00     0.293 HD
ENDBRANCH  18  21
ENDBRANCH  11  13
ENDBRANCH   2  11
TORSDOF 6
ENDMDL
MODEL 8
REMARK VINA RESULT:    -5.349     14.667     16.934
REMARK INTER + INTRA:          -7.479
REMARK INTER:                  -6.887
REMARK INTRA:                  -0.593
REMARK UNBOUND:                -0.723
REMARK SMILES O=C(C=Cc1ccc(O)cc1)c1ccc(O)cc1O
REMARK SMILES IDX 4 1 3 2 5 3 6 4 7 5 8 6 11 7 10 8 9 9 2 11 1 12 12 13 18 14
REMARK SMILES IDX 13 15 17 16 14 17 15 18 19 19 16 21
REMARK H PARENT 9 10 19 20 16 22
REMARK Flexibility Score: inf
ROOT
ATOM      1  C   UNL     1      -1.905 -49.388  15.152  1.00  0.00     0.012 C 
ATOM      2  C   UNL     1      -2.007 -48.278  15.899  1.00  0.00     0.053 C 
ENDROOT
BRANCH   1   3
ATOM      3  C   UNL     1      -1.734 -49.376  13.678  1.00  0.00    -0.025 A 
ATOM      4  C   UNL     1      -2.819 -48.973  12.880  1.00  0.00     0.012 A 
ATOM      5  C   UNL     1      -2.709 -48.954  11.487  1.00  0.00     0.047 A 
ATOM      6  C   UNL     1      -1.519 -49.347  10.869  1.00  0.00     0.115 A 
ATOM      7  C   UNL     1      -0.542 -49.786  13.047  1.00  0.00     0.012 A 
ATOM      8  C   UNL     1      -0.436 -49.766  11.652  1.00  0.00     0.047 A 
BRANCH   6   9
ATOM      9  O   UNL     1      -1.423 -49.323   9.479  1.00  0.00    -0.508 OA
ATOM     10  H   UNL     1      -2.044 -49.869   8.896  1.00  0.00     0.293 HD
ENDBRANCH   6   9
ENDBRANCH   1   3
BRANCH   2  11
ATOM     11  C   UNL     1      -2.184 -48.312  17.367  1.00  0.00     0.189 C 
ATOM     12  O   UNL     1      -1.742 -49.306  18.003  1.00  0.00    -0.289 OA
BRANCH  11  13
ATOM     13  C   UNL     1      -2.883 -47.245  18.115  1.00  0.00     0.064 A 
ATOM     14  C   UNL     1      -4.040 -47.504  18.887  1.00  0.00     0.130 A 
ATOM     15  C   UNL     1      -2.386 -45.935  18.042  1.00  0.00     0.020 A 
ATOM     16  C   UNL     1      -4.640 -46.464  19.606  1.00  0.00     0.093 A 
ATOM     17  C   UNL     1      -2.999 -44.903  18.755  1.00  0.00     0.047 A 
ATOM     18  C   UNL     1      -4.122 -45.163  19.543  1.00  0.00     0.119 A 
BRANCH  14  19
ATOM     19  O   UNL     1      -4.625 -48.771  18.946  1.00  0.00    -0.507 OA
ATOM     20  H   UNL     1      -4.674 -49.391  18.147  1.00  0.00     0.293 HD
ENDBRANCH  14  19
BRANCH  18  21
ATOM     21  O   UNL     1      -4.719 -44.126  20.255  1.00  0.00    -0.508 OA
ATOM     22  H   UNL     1      -4.387 -43.172  20.179  1.00  0.00     0.293 HD
ENDBRANCH  18  21
ENDBRANCH  11  13
ENDBRANCH   2  11
TORSDOF 6
ENDMDL
MODEL 9
REMARK VINA RESULT:    -5.262     15.281     16.373
REMARK INTER + INTRA:          -7.370
REMARK INTER:                  -6.767
REMARK INTRA:                  -0.603
REMARK UNBOUND:                -0.723
REMARK SMILES O=C(C=Cc1ccc(O)cc1)c1ccc(O)cc1O
REMARK SMILES IDX 4 1 3 2 5 3 6 4 7 5 8 6 11 7 10 8 9 9 2 11 1 12 12 13 18 14
REMARK SMILES IDX 13 15 17 16 14 17 15 18 19 19 16 21
REMARK H PARENT 9 10 19 20 16 22
REMARK Flexibility Score: inf
ROOT
ATOM      1  C   UNL     1      -4.503 -47.535  18.736  1.00  0.00     0.012 C 
ATOM      2  C   UNL     1      -4.382 -46.242  19.074  1.00  0.00     0.053 C 
ENDROOT
BRANCH   1   3
ATOM      3  C   UNL     1      -3.568 -48.238  17.824  1.00  0.00    -0.025 A 
ATOM      4  C   UNL     1      -2.193 -47.966  17.931  1.00  0.00     0.012 A 
ATOM      5  C   UNL     1      -1.275 -48.598  17.088  1.00  0.00     0.047 A 
ATOM      6  C   UNL     1      -1.716 -49.502  16.118  1.00  0.00     0.115 A 
ATOM      7  C   UNL     1      -4.007 -49.140  16.833  1.00  0.00     0.012 A 
ATOM      8  C   UNL     1      -3.085 -49.769  15.990  1.00  0.00     0.047 A 
BRANCH   6   9
ATOM      9  O   UNL     1      -0.790 -50.125  15.284  1.00  0.00    -0.508 OA
ATOM     10  H   UNL     1       0.089 -50.479  15.641  1.00  0.00     0.293 HD
ENDBRANCH   6   9
ENDBRANCH   1   3
BRANCH   2  11
ATOM     11  C   UNL     1      -5.330 -45.557  19.980  1.00  0.00     0.189 C 
ATOM     12  O   UNL     1      -5.534 -46.050  21.122  1.00  0.00    -0.289 OA
BRANCH  11  13
ATOM     13  C   UNL     1      -6.070 -44.338  19.593  1.00  0.00     0.064 A 
ATOM     14  C   UNL     1      -7.339 -44.024  20.136  1.00  0.00     0.130 A 
ATOM     15  C   UNL     1      -5.497 -43.474  18.646  1.00  0.00     0.020 A 
ATOM     16  C   UNL     1      -7.978 -42.836  19.762  1.00  0.00     0.093 A 
ATOM     17  C   UNL     1      -6.149 -42.297  18.273  1.00  0.00     0.047 A 
ATOM     18  C   UNL     1      -7.387 -41.971  18.833  1.00  0.00     0.119 A 
BRANCH  14  19
ATOM     19  O   UNL     1      -7.994 -44.875  21.028  1.00  0.00    -0.507 OA
ATOM     20  H   UNL     1      -7.888 -44.807  22.033  1.00  0.00     0.293 HD
ENDBRANCH  14  19
BRANCH  18  21
ATOM     21  O   UNL     1      -8.022 -40.790  18.457  1.00  0.00    -0.508 OA
ATOM     22  H   UNL     1      -8.461 -40.691  17.549  1.00  0.00     0.293 HD
ENDBRANCH  18  21
ENDBRANCH  11  13
ENDBRANCH   2  11
TORSDOF 6
ENDMDL
