MODEL 1
REMARK VINA RESULT:    -4.258      0.000      0.000
REMARK INTER + INTRA:          -4.258
REMARK INTER:                  -4.258
REMARK INTRA:                   0.000
REMARK UNBOUND:                 0.000
REMARK SMILES CC1=CC(=O)[C@H]2C[C@@H]1C2(C)C
REMARK SMILES IDX 1 1 2 2 3 3 4 4 5 5 6 6 7 7 8 8 9 9 10 10 11 11
REMARK H PARENT
REMARK Flexibility Score: inf
ROOT
ATOM      1  C   UNL     1      39.984 -40.844  -1.563  1.00  0.00     0.040 C 
ATOM      2  C   UNL     1      40.736 -40.111  -2.628  1.00  0.00    -0.066 C 
ATOM      3  C   UNL     1      40.212 -39.010  -3.237  1.00  0.00     0.047 C 
ATOM      4  C   UNL     1      41.051 -38.386  -4.311  1.00  0.00     0.159 C 
ATOM      5  O   UNL     1      40.660 -37.389  -4.972  1.00  0.00    -0.295 OA
ATOM      6  C   UNL     1      42.409 -39.044  -4.547  1.00  0.00     0.067 C 
ATOM      7  C   UNL     1      42.980 -39.255  -3.127  1.00  0.00     0.021 C 
ATOM      8  C   UNL     1      42.144 -40.554  -3.080  1.00  0.00     0.022 C 
ATOM      9  C   UNL     1      42.205 -40.583  -4.634  1.00  0.00    -0.019 C 
ATOM     10  C   UNL     1      43.464 -41.316  -5.162  1.00  0.00     0.012 C 
ATOM     11  C   UNL     1      40.968 -41.122  -5.408  1.00  0.00     0.012 C 
ENDROOT
TORSDOF 0
ENDMDL
MODEL 2
REMARK VINA RESULT:    -4.168      1.309      3.192
REMARK INTER + INTRA:          -4.168
REMARK INTER:                  -4.168
REMARK INTRA:                   0.000
REMARK UNBOUND:                 0.000
REMARK SMILES CC1=CC(=O)[C@H]2C[C@@H]1C2(C)C
REMARK SMILES IDX 1 1 2 2 3 3 4 4 5 5 6 6 7 7 8 8 9 9 10 10 11 11
REMARK H PARENT
REMARK Flexibility Score: inf
ROOT
ATOM      1  C   UNL     1      43.345 -41.456  -5.094  1.00  0.00     0.040 C 
ATOM      2  C   UNL     1      42.139 -40.589  -4.920  1.00  0.00    -0.066 C 
ATOM      3  C   UNL     1      42.250 -39.294  -4.511  1.00  0.00     0.047 C 
ATOM      4  C   UNL     1      40.966 -38.539  -4.344  1.00  0.00     0.159 C 
ATOM      5  O   UNL     1      40.935 -37.350  -3.935  1.00  0.00    -0.295 OA
ATOM      6  C   UNL     1      39.700 -39.315  -4.702  1.00  0.00     0.067 C 
ATOM      7  C   UNL     1      40.042 -39.998  -6.045  1.00  0.00     0.021 C 
ATOM      8  C   UNL     1      40.715 -41.109  -5.209  1.00  0.00     0.022 C 
ATOM      9  C   UNL     1      39.772 -40.717  -4.034  1.00  0.00    -0.019 C 
ATOM     10  C   UNL     1      38.417 -41.468  -4.090  1.00  0.00     0.012 C 
ATOM     11  C   UNL     1      40.324 -40.817  -2.584  1.00  0.00     0.012 C 
ENDROOT
TORSDOF 0
ENDMDL
MODEL 3
REMARK VINA RESULT:    -4.023      1.422      3.128
REMARK INTER + INTRA:          -4.023
REMARK INTER:                  -4.023
REMARK INTRA:                   0.000
REMARK UNBOUND:                 0.000
REMARK SMILES CC1=CC(=O)[C@H]2C[C@@H]1C2(C)C
REMARK SMILES IDX 1 1 2 2 3 3 4 4 5 5 6 6 7 7 8 8 9 9 10 10 11 11
REMARK H PARENT
REMARK Flexibility Score: inf
ROOT
ATOM      1  C   UNL     1      43.385 -41.323  -5.554  1.00  0.00     0.040 C 
ATOM      2  C   UNL     1      42.458 -40.689  -4.567  1.00  0.00    -0.066 C 
ATOM      3  C   UNL     1      41.107 -40.720  -4.741  1.00  0.00     0.047 C 
ATOM      4  C   UNL     1      40.288 -40.021  -3.698  1.00  0.00     0.159 C 
ATOM      5  O   UNL     1      39.034 -39.947  -3.767  1.00  0.00    -0.295 OA
ATOM      6  C   UNL     1      41.082 -39.405  -2.547  1.00  0.00     0.067 C 
ATOM      7  C   UNL     1      42.089 -40.507  -2.149  1.00  0.00     0.021 C 
ATOM      8  C   UNL     1      42.981 -39.984  -3.297  1.00  0.00     0.022 C 
ATOM      9  C   UNL     1      42.277 -38.605  -3.142  1.00  0.00    -0.019 C 
ATOM     10  C   UNL     1      42.968 -37.705  -2.086  1.00  0.00     0.012 C 
ATOM     11  C   UNL     1      42.033 -37.756  -4.421  1.00  0.00     0.012 C 
ENDROOT
TORSDOF 0
ENDMDL
MODEL 4
REMARK VINA RESULT:    -3.875      2.565      4.066
REMARK INTER + INTRA:          -3.875
REMARK INTER:                  -3.875
REMARK INTRA:                   0.000
REMARK UNBOUND:                 0.000
REMARK SMILES CC1=CC(=O)[C@H]2C[C@@H]1C2(C)C
REMARK SMILES IDX 1 1 2 2 3 3 4 4 5 5 6 6 7 7 8 8 9 9 10 10 11 11
REMARK H PARENT
REMARK Flexibility Score: inf
ROOT
ATOM      1  C   UNL     1      41.142 -41.612  -5.984  1.00  0.00     0.040 C 
ATOM      2  C   UNL     1      40.311 -40.703  -5.136  1.00  0.00    -0.066 C 
ATOM      3  C   UNL     1      40.286 -40.825  -3.779  1.00  0.00     0.047 C 
ATOM      4  C   UNL     1      39.389 -39.875  -3.044  1.00  0.00     0.159 C 
ATOM      5  O   UNL     1      39.250 -39.913  -1.794  1.00  0.00    -0.295 OA
ATOM      6  C   UNL     1      38.654 -38.860  -3.919  1.00  0.00     0.067 C 
ATOM      7  C   UNL     1      39.742 -38.331  -4.880  1.00  0.00     0.021 C 
ATOM      8  C   UNL     1      39.455 -39.575  -5.750  1.00  0.00     0.022 C 
ATOM      9  C   UNL     1      38.028 -39.610  -5.129  1.00  0.00    -0.019 C 
ATOM     10  C   UNL     1      37.022 -38.729  -5.912  1.00  0.00     0.012 C 
ATOM     11  C   UNL     1      37.369 -40.996  -4.879  1.00  0.00     0.012 C 
ENDROOT
TORSDOF 0
ENDMDL
MODEL 5
REMARK VINA RESULT:    -3.809      2.123      3.414
REMARK INTER + INTRA:          -3.809
REMARK INTER:                  -3.809
REMARK INTRA:                   0.000
REMARK UNBOUND:                 0.000
REMARK SMILES CC1=CC(=O)[C@H]2C[C@@H]1C2(C)C
REMARK SMILES IDX 1 1 2 2 3 3 4 4 5 5 6 6 7 7 8 8 9 9 10 10 11 11
REMARK H PARENT
REMARK Flexibility Score: inf
ROOT
ATOM      1  C   UNL     1      39.501 -36.991  -4.783  1.00  0.00     0.040 C 
ATOM      2  C   UNL     1      39.507 -38.424  -4.354  1.00  0.00    -0.066 C 
ATOM      3  C   UNL     1      39.354 -38.773  -3.046  1.00  0.00     0.047 C 
ATOM      4  C   UNL     1      39.410 -40.239  -2.741  1.00  0.00     0.159 C 
ATOM      5  O   UNL     1      39.321 -40.685  -1.568  1.00  0.00    -0.295 OA
ATOM      6  C   UNL     1      39.585 -41.154  -3.953  1.00  0.00     0.067 C 
ATOM      7  C   UNL     1      38.581 -40.604  -4.990  1.00  0.00     0.021 C 
ATOM      8  C   UNL     1      39.670 -39.575  -5.369  1.00  0.00     0.022 C 
ATOM      9  C   UNL     1      40.728 -40.586  -4.841  1.00  0.00    -0.019 C 
ATOM     10  C   UNL     1      41.182 -41.590  -5.931  1.00  0.00     0.012 C 
ATOM     11  C   UNL     1      41.997 -40.023  -4.141  1.00  0.00     0.012 C 
ENDROOT
TORSDOF 0
ENDMDL
MODEL 6
REMARK VINA RESULT:    -3.799      2.038      3.304
REMARK INTER + INTRA:          -3.799
REMARK INTER:                  -3.799
REMARK INTRA:                   0.000
REMARK UNBOUND:                 0.000
REMARK SMILES CC1=CC(=O)[C@H]2C[C@@H]1C2(C)C
REMARK SMILES IDX 1 1 2 2 3 3 4 4 5 5 6 6 7 7 8 8 9 9 10 10 11 11
REMARK H PARENT
REMARK Flexibility Score: inf
ROOT
ATOM      1  C   UNL     1      43.077 -36.937  -3.394  1.00  0.00     0.040 C 
ATOM      2  C   UNL     1      42.393 -38.226  -3.065  1.00  0.00    -0.066 C 
ATOM      3  C   UNL     1      42.697 -38.922  -1.934  1.00  0.00     0.047 C 
ATOM      4  C   UNL     1      41.965 -40.215  -1.734  1.00  0.00     0.159 C 
ATOM      5  O   UNL     1      42.186 -40.966  -0.749  1.00  0.00    -0.295 OA
ATOM      6  C   UNL     1      40.936 -40.557  -2.810  1.00  0.00     0.067 C 
ATOM      7  C   UNL     1      40.159 -39.239  -3.024  1.00  0.00     0.021 C 
ATOM      8  C   UNL     1      41.301 -38.823  -3.979  1.00  0.00     0.022 C 
ATOM      9  C   UNL     1      41.585 -40.336  -4.206  1.00  0.00    -0.019 C 
ATOM     10  C   UNL     1      40.732 -40.931  -5.354  1.00  0.00     0.012 C 
ATOM     11  C   UNL     1      43.060 -40.784  -4.413  1.00  0.00     0.012 C 
ENDROOT
TORSDOF 0
ENDMDL
MODEL 7
REMARK VINA RESULT:    -3.731      2.235      3.570
REMARK INTER + INTRA:          -3.731
REMARK INTER:                  -3.731
REMARK INTRA:                   0.000
REMARK UNBOUND:                 0.000
REMARK SMILES CC1=CC(=O)[C@H]2C[C@@H]1C2(C)C
REMARK SMILES IDX 1 1 2 2 3 3 4 4 5 5 6 6 7 7 8 8 9 9 10 10 11 11
REMARK H PARENT
REMARK Flexibility Score: inf
ROOT
ATOM      1  C   UNL     1      40.437 -37.286  -3.394  1.00  0.00     0.040 C 
ATOM      2  C   UNL     1      40.374 -38.703  -3.867  1.00  0.00    -0.066 C 
ATOM      3  C   UNL     1      41.429 -39.289  -4.499  1.00  0.00     0.047 C 
ATOM      4  C   UNL     1      41.229 -40.703  -4.953  1.00  0.00     0.159 C 
ATOM      5  O   UNL     1      42.115 -41.338  -5.581  1.00  0.00    -0.295 OA
ATOM      6  C   UNL     1      39.875 -41.318  -4.601  1.00  0.00     0.067 C 
ATOM      7  C   UNL     1      39.655 -40.927  -3.122  1.00  0.00     0.021 C 
ATOM      8  C   UNL     1      39.119 -39.577  -3.650  1.00  0.00     0.022 C 
ATOM      9  C   UNL     1      38.758 -40.304  -4.978  1.00  0.00    -0.019 C 
ATOM     10  C   UNL     1      37.345 -40.940  -4.936  1.00  0.00     0.012 C 
ATOM     11  C   UNL     1      38.896 -39.513  -6.310  1.00  0.00     0.012 C 
ENDROOT
TORSDOF 0
ENDMDL
MODEL 8
REMARK VINA RESULT:    -3.658      2.598      4.008
REMARK INTER + INTRA:          -3.658
REMARK INTER:                  -3.658
REMARK INTRA:                   0.000
REMARK UNBOUND:                 0.000
REMARK SMILES CC1=CC(=O)[C@H]2C[C@@H]1C2(C)C
REMARK SMILES IDX 1 1 2 2 3 3 4 4 5 5 6 6 7 7 8 8 9 9 10 10 11 11
REMARK H PARENT
REMARK Flexibility Score: inf
ROOT
ATOM      1  C   UNL     1      39.173 -37.305  -5.894  1.00  0.00     0.040 C 
ATOM      2  C   UNL     1      39.067 -38.688  -5.334  1.00  0.00    -0.066 C 
ATOM      3  C   UNL     1      37.908 -39.400  -5.416  1.00  0.00     0.047 C 
ATOM      4  C   UNL     1      37.920 -40.760  -4.788  1.00  0.00     0.159 C 
ATOM      5  O   UNL     1      36.901 -41.498  -4.764  1.00  0.00    -0.295 OA
ATOM      6  C   UNL     1      39.254 -41.188  -4.177  1.00  0.00     0.067 C 
ATOM      7  C   UNL     1      40.300 -40.807  -5.248  1.00  0.00     0.021 C 
ATOM      8  C   UNL     1      40.264 -39.382  -4.650  1.00  0.00     0.022 C 
ATOM      9  C   UNL     1      39.798 -40.018  -3.309  1.00  0.00    -0.019 C 
ATOM     10  C   UNL     1      40.989 -40.451  -2.416  1.00  0.00     0.012 C 
ATOM     11  C   UNL     1      38.794 -39.222  -2.427  1.00  0.00     0.012 C 
ENDROOT
TORSDOF 0
ENDMDL
MODEL 9
REMARK VINA RESULT:    -3.658      2.213      3.514
REMARK INTER + INTRA:          -3.658
REMARK INTER:                  -3.658
REMARK INTRA:                   0.000
REMARK UNBOUND:                 0.000
REMARK SMILES CC1=CC(=O)[C@H]2C[C@@H]1C2(C)C
REMARK SMILES IDX 1 1 2 2 3 3 4 4 5 5 6 6 7 7 8 8 9 9 10 10 11 11
REMARK H PARENT
REMARK Flexibility Score: inf
ROOT
ATOM      1  C   UNL     1      38.498 -39.314  -7.359  1.00  0.00     0.040 C 
ATOM      2  C   UNL     1      38.840 -39.546  -5.921  1.00  0.00    -0.066 C 
ATOM      3  C   UNL     1      38.119 -38.971  -4.919  1.00  0.00     0.047 C 
ATOM      4  C   UNL     1      38.582 -39.255  -3.522  1.00  0.00     0.159 C 
ATOM      5  O   UNL     1      38.023 -38.751  -2.513  1.00  0.00    -0.295 OA
ATOM      6  C   UNL     1      39.780 -40.197  -3.409  1.00  0.00     0.067 C 
ATOM      7  C   UNL     1      39.445 -41.353  -4.377  1.00  0.00     0.021 C 
ATOM      8  C   UNL     1      40.013 -40.458  -5.502  1.00  0.00     0.022 C 
ATOM      9  C   UNL     1      40.868 -39.738  -4.420  1.00  0.00    -0.019 C 
ATOM     10  C   UNL     1      42.229 -40.440  -4.181  1.00  0.00     0.012 C 
ATOM     11  C   UNL     1      41.129 -38.214  -4.584  1.00  0.00     0.012 C 
ENDROOT
TORSDOF 0
ENDMDL
