MODEL 1
REMARK VINA RESULT:    -2.459      0.000      0.000
REMARK INTER + INTRA:          -3.288
REMARK INTER:                  -3.034
REMARK INTRA:                  -0.254
REMARK UNBOUND:                -0.254
REMARK SMILES CCCCCC(C)=O
REMARK SMILES IDX 4 1 3 2 2 3 1 4 5 5 6 6 8 7 7 8
REMARK H PARENT
REMARK Flexibility Score: inf
ROOT
ATOM      1  C   UNL     1     135.580 142.423 141.431  1.00  0.00     0.008 C 
ENDROOT
BRANCH   1   2
ATOM      2  C   UNL     1     136.553 141.988 142.541  1.00  0.00     0.000 C 
BRANCH   2   3
ATOM      3  C   UNL     1     135.862 141.799 143.898  1.00  0.00    -0.003 C 
ATOM      4  C   UNL     1     136.569 142.594 144.991  1.00  0.00     0.004 C 
ENDBRANCH   2   3
ENDBRANCH   1   2
BRANCH   1   5
ATOM      5  C   UNL     1     134.110 142.493 141.875  1.00  0.00     0.075 C 
BRANCH   5   6
ATOM      6  C   UNL     1     133.240 141.529 141.108  1.00  0.00     0.129 C 
ATOM      7  O   UNL     1     132.432 141.961 140.300  1.00  0.00    -0.300 OA
ATOM      8  C   UNL     1     133.351 140.047 141.311  1.00  0.00     0.087 C 
ENDBRANCH   5   6
ENDBRANCH   1   5
TORSDOF 4
ENDMDL
MODEL 2
REMARK VINA RESULT:    -2.413      2.564      4.525
REMARK INTER + INTRA:          -3.231
REMARK INTER:                  -3.078
REMARK INTRA:                  -0.153
REMARK UNBOUND:                -0.254
REMARK SMILES CCCCCC(C)=O
REMARK SMILES IDX 4 1 3 2 2 3 1 4 5 5 6 6 8 7 7 8
REMARK H PARENT
REMARK Flexibility Score: inf
ROOT
ATOM      1  C   UNL     1     135.009 141.747 142.802  1.00  0.00     0.008 C 
ENDROOT
BRANCH   1   2
ATOM      2  C   UNL     1     134.128 142.513 141.798  1.00  0.00     0.000 C 
BRANCH   2   3
ATOM      3  C   UNL     1     133.169 141.596 141.027  1.00  0.00    -0.003 C 
ATOM      4  C   UNL     1     133.477 140.126 141.298  1.00  0.00     0.004 C 
ENDBRANCH   2   3
ENDBRANCH   1   2
BRANCH   1   5
ATOM      5  C   UNL     1     136.519 141.917 142.570  1.00  0.00     0.075 C 
BRANCH   5   6
ATOM      6  C   UNL     1     137.235 142.377 143.815  1.00  0.00     0.129 C 
ATOM      7  O   UNL     1     138.425 142.649 143.759  1.00  0.00    -0.300 OA
ATOM      8  C   UNL     1     136.514 142.516 145.123  1.00  0.00     0.087 C 
ENDBRANCH   5   6
ENDBRANCH   1   5
TORSDOF 4
ENDMDL
MODEL 3
REMARK VINA RESULT:    -2.386      8.374      8.926
REMARK INTER + INTRA:          -3.198
REMARK INTER:                  -2.955
REMARK INTRA:                  -0.244
REMARK UNBOUND:                -0.254
REMARK SMILES CCCCCC(C)=O
REMARK SMILES IDX 4 1 3 2 2 3 1 4 5 5 6 6 8 7 7 8
REMARK H PARENT
REMARK Flexibility Score: inf
ROOT
ATOM      1  C   UNL     1     139.142 135.721 141.460  1.00  0.00     0.008 C 
ENDROOT
BRANCH   1   2
ATOM      2  C   UNL     1     139.504 136.696 142.594  1.00  0.00     0.000 C 
BRANCH   2   3
ATOM      3  C   UNL     1     139.703 135.992 143.944  1.00  0.00    -0.003 C 
ATOM      4  C   UNL     1     138.934 136.702 145.053  1.00  0.00     0.004 C 
ENDBRANCH   2   3
ENDBRANCH   1   2
BRANCH   1   5
ATOM      5  C   UNL     1     139.097 134.246 141.889  1.00  0.00     0.075 C 
BRANCH   5   6
ATOM      6  C   UNL     1     140.055 133.395 141.094  1.00  0.00     0.129 C 
ATOM      7  O   UNL     1     139.626 132.680 140.202  1.00  0.00    -0.300 OA
ATOM      8  C   UNL     1     141.529 133.414 141.372  1.00  0.00     0.087 C 
ENDBRANCH   5   6
ENDBRANCH   1   5
TORSDOF 4
ENDMDL
MODEL 4
REMARK VINA RESULT:    -2.363     11.416     12.794
REMARK INTER + INTRA:          -3.169
REMARK INTER:                  -3.009
REMARK INTRA:                  -0.160
REMARK UNBOUND:                -0.254
REMARK SMILES CCCCCC(C)=O
REMARK SMILES IDX 4 1 3 2 2 3 1 4 5 5 6 6 8 7 7 8
REMARK H PARENT
REMARK Flexibility Score: inf
ROOT
ATOM      1  C   UNL     1     146.611 139.773 142.831  1.00  0.00     0.008 C 
ENDROOT
BRANCH   1   2
ATOM      2  C   UNL     1     145.122 139.481 142.575  1.00  0.00     0.000 C 
BRANCH   2   3
ATOM      3  C   UNL     1     144.282 139.500 143.859  1.00  0.00    -0.003 C 
ATOM      4  C   UNL     1     145.051 138.895 145.029  1.00  0.00     0.004 C 
ENDBRANCH   2   3
ENDBRANCH   1   2
BRANCH   1   5
ATOM      5  C   UNL     1     147.564 139.114 141.821  1.00  0.00     0.075 C 
BRANCH   5   6
ATOM      6  C   UNL     1     148.418 140.129 141.104  1.00  0.00     0.129 C 
ATOM      7  O   UNL     1     149.323 139.748 140.376  1.00  0.00    -0.300 OA
ATOM      8  C   UNL     1     148.177 141.601 141.259  1.00  0.00     0.087 C 
ENDBRANCH   5   6
ENDBRANCH   1   5
TORSDOF 4
ENDMDL
MODEL 5
REMARK VINA RESULT:    -2.358      8.550      9.085
REMARK INTER + INTRA:          -3.163
REMARK INTER:                  -2.907
REMARK INTRA:                  -0.256
REMARK UNBOUND:                -0.254
REMARK SMILES CCCCCC(C)=O
REMARK SMILES IDX 4 1 3 2 2 3 1 4 5 5 6 6 8 7 7 8
REMARK H PARENT
REMARK Flexibility Score: inf
ROOT
ATOM      1  C   UNL     1     142.515 146.135 141.281  1.00  0.00     0.008 C 
ENDROOT
BRANCH   1   2
ATOM      2  C   UNL     1     142.062 145.151 142.375  1.00  0.00     0.000 C 
BRANCH   2   3
ATOM      3  C   UNL     1     141.916 145.817 143.750  1.00  0.00    -0.003 C 
ATOM      4  C   UNL     1     142.661 145.030 144.824  1.00  0.00     0.004 C 
ENDBRANCH   2   3
ENDBRANCH   1   2
BRANCH   1   5
ATOM      5  C   UNL     1     142.503 147.609 141.717  1.00  0.00     0.075 C 
BRANCH   5   6
ATOM      6  C   UNL     1     141.445 148.405 140.996  1.00  0.00     0.129 C 
ATOM      7  O   UNL     1     141.773 149.176 140.107  1.00  0.00    -0.300 OA
ATOM      8  C   UNL     1     139.992 148.263 141.341  1.00  0.00     0.087 C 
ENDBRANCH   5   6
ENDBRANCH   1   5
TORSDOF 4
ENDMDL
MODEL 6
REMARK VINA RESULT:    -2.351     10.810     12.207
REMARK INTER + INTRA:          -3.155
REMARK INTER:                  -3.008
REMARK INTRA:                  -0.147
REMARK UNBOUND:                -0.254
REMARK SMILES CCCCCC(C)=O
REMARK SMILES IDX 4 1 3 2 2 3 1 4 5 5 6 6 8 7 7 8
REMARK H PARENT
REMARK Flexibility Score: inf
ROOT
ATOM      1  C   UNL     1     146.863 140.028 142.552  1.00  0.00     0.008 C 
ENDROOT
BRANCH   1   2
ATOM      2  C   UNL     1     147.834 139.404 141.535  1.00  0.00     0.000 C 
BRANCH   2   3
ATOM      3  C   UNL     1     148.714 140.448 140.833  1.00  0.00    -0.003 C 
ATOM      4  C   UNL     1     148.334 141.862 141.259  1.00  0.00     0.004 C 
ENDBRANCH   2   3
ENDBRANCH   1   2
BRANCH   1   5
ATOM      5  C   UNL     1     145.448 139.429 142.519  1.00  0.00     0.075 C 
BRANCH   5   6
ATOM      6  C   UNL     1     144.785 139.466 143.873  1.00  0.00     0.129 C 
ATOM      7  O   UNL     1     143.679 138.968 144.016  1.00  0.00    -0.300 OA
ATOM      8  C   UNL     1     145.461 140.098 145.055  1.00  0.00     0.087 C 
ENDBRANCH   5   6
ENDBRANCH   1   5
TORSDOF 4
ENDMDL
MODEL 7
REMARK VINA RESULT:    -2.346      7.917      8.290
REMARK INTER + INTRA:          -3.148
REMARK INTER:                  -3.065
REMARK INTRA:                  -0.083
REMARK UNBOUND:                -0.254
REMARK SMILES CCCCCC(C)=O
REMARK SMILES IDX 4 1 3 2 2 3 1 4 5 5 6 6 8 7 7 8
REMARK H PARENT
REMARK Flexibility Score: inf
ROOT
ATOM      1  C   UNL     1     142.067 145.537 143.027  1.00  0.00     0.008 C 
ENDROOT
BRANCH   1   2
ATOM      2  C   UNL     1     142.062 145.482 144.565  1.00  0.00     0.000 C 
BRANCH   2   3
ATOM      3  C   UNL     1     143.002 144.405 145.125  1.00  0.00    -0.003 C 
ATOM      4  C   UNL     1     142.525 143.008 144.743  1.00  0.00     0.004 C 
ENDBRANCH   2   3
ENDBRANCH   1   2
BRANCH   1   5
ATOM      5  C   UNL     1     141.822 146.940 142.447  1.00  0.00     0.075 C 
BRANCH   5   6
ATOM      6  C   UNL     1     140.702 146.948 141.438  1.00  0.00     0.129 C 
ATOM      7  O   UNL     1     140.460 145.936 140.799  1.00  0.00    -0.300 OA
ATOM      8  C   UNL     1     139.871 148.175 141.206  1.00  0.00     0.087 C 
ENDBRANCH   5   6
ENDBRANCH   1   5
TORSDOF 4
ENDMDL
MODEL 8
REMARK VINA RESULT:    -2.310      7.853      8.556
REMARK INTER + INTRA:          -3.104
REMARK INTER:                  -3.004
REMARK INTRA:                  -0.099
REMARK UNBOUND:                -0.254
REMARK SMILES CCCCCC(C)=O
REMARK SMILES IDX 4 1 3 2 2 3 1 4 5 5 6 6 8 7 7 8
REMARK H PARENT
REMARK Flexibility Score: inf
ROOT
ATOM      1  C   UNL     1     139.761 136.156 143.123  1.00  0.00     0.008 C 
ENDROOT
BRANCH   1   2
ATOM      2  C   UNL     1     139.336 136.218 144.601  1.00  0.00     0.000 C 
BRANCH   2   3
ATOM      3  C   UNL     1     138.812 137.601 145.012  1.00  0.00    -0.003 C 
ATOM      4  C   UNL     1     138.853 138.575 143.839  1.00  0.00     0.004 C 
ENDBRANCH   2   3
ENDBRANCH   1   2
BRANCH   1   5
ATOM      5  C   UNL     1     139.755 134.739 142.526  1.00  0.00     0.075 C 
BRANCH   5   6
ATOM      6  C   UNL     1     140.839 134.555 141.494  1.00  0.00     0.129 C 
ATOM      7  O   UNL     1     141.181 135.504 140.805  1.00  0.00    -0.300 OA
ATOM      8  C   UNL     1     141.512 133.229 141.298  1.00  0.00     0.087 C 
ENDBRANCH   5   6
ENDBRANCH   1   5
TORSDOF 4
ENDMDL
MODEL 9
REMARK VINA RESULT:    -2.289      7.766      8.698
REMARK INTER + INTRA:          -3.078
REMARK INTER:                  -2.925
REMARK INTRA:                  -0.153
REMARK UNBOUND:                -0.254
REMARK SMILES CCCCCC(C)=O
REMARK SMILES IDX 4 1 3 2 2 3 1 4 5 5 6 6 8 7 7 8
REMARK H PARENT
REMARK Flexibility Score: inf
ROOT
ATOM      1  C   UNL     1     140.150 135.388 142.711  1.00  0.00     0.008 C 
ENDROOT
BRANCH   1   2
ATOM      2  C   UNL     1     139.323 134.308 141.991  1.00  0.00     0.000 C 
BRANCH   2   3
ATOM      3  C   UNL     1     140.143 133.516 140.964  1.00  0.00    -0.003 C 
ATOM      4  C   UNL     1     141.572 133.298 141.451  1.00  0.00     0.004 C 
ENDBRANCH   2   3
ENDBRANCH   1   2
BRANCH   1   5
ATOM      5  C   UNL     1     139.607 136.815 142.540  1.00  0.00     0.075 C 
BRANCH   5   6
ATOM      6  C   UNL     1     139.153 137.409 143.849  1.00  0.00     0.129 C 
ATOM      7  O   UNL     1     138.855 138.593 143.902  1.00  0.00    -0.300 OA
ATOM      8  C   UNL     1     139.050 136.574 145.091  1.00  0.00     0.087 C 
ENDBRANCH   5   6
ENDBRANCH   1   5
TORSDOF 4
ENDMDL
