MODEL 1
REMARK VINA RESULT:    -3.795      0.000      0.000
REMARK INTER + INTRA:          -5.104
REMARK INTER:                  -4.904
REMARK INTRA:                  -0.200
REMARK UNBOUND:                -0.200
REMARK SMILES C=CC(=O)CCCCC
REMARK SMILES IDX 6 1 7 2 8 3 9 4 5 5 3 6 4 7 2 8 1 9
REMARK H PARENT
REMARK Flexibility Score: inf
ROOT
ATOM      1  C   UNL     1      19.305  30.654 -22.362  1.00  0.00     0.008 C 
ENDROOT
BRANCH   1   2
ATOM      2  C   UNL     1      18.165  31.413 -21.667  1.00  0.00     0.000 C 
BRANCH   2   3
ATOM      3  C   UNL     1      17.605  32.554 -22.528  1.00  0.00    -0.003 C 
ATOM      4  C   UNL     1      18.693  33.310 -23.289  1.00  0.00     0.004 C 
ENDBRANCH   2   3
ENDBRANCH   1   2
BRANCH   1   5
ATOM      5  C   UNL     1      20.425  30.318 -21.371  1.00  0.00     0.080 C 
BRANCH   5   6
ATOM      6  C   UNL     1      20.411  28.855 -21.036  1.00  0.00     0.155 C 
ATOM      7  O   UNL     1      19.648  28.082 -21.677  1.00  0.00    -0.295 OA
BRANCH   6   8
ATOM      8  C   UNL     1      21.317  28.327 -19.997  1.00  0.00     0.039 C 
ATOM      9  C   UNL     1      21.162  28.607 -18.705  1.00  0.00     0.012 C 
ENDBRANCH   6   8
ENDBRANCH   5   6
ENDBRANCH   1   5
TORSDOF 5
ENDMDL
MODEL 2
REMARK VINA RESULT:    -3.735     15.991     17.572
REMARK INTER + INTRA:          -5.027
REMARK INTER:                  -4.575
REMARK INTRA:                  -0.452
REMARK UNBOUND:                -0.200
REMARK SMILES C=CC(=O)CCCCC
REMARK SMILES IDX 6 1 7 2 8 3 9 4 5 5 3 6 4 7 2 8 1 9
REMARK H PARENT
REMARK Flexibility Score: inf
ROOT
ATOM      1  C   UNL     1      34.217  31.521 -14.014  1.00  0.00     0.008 C 
ENDROOT
BRANCH   1   2
ATOM      2  C   UNL     1      35.456  30.800 -14.565  1.00  0.00     0.000 C 
BRANCH   2   3
ATOM      3  C   UNL     1      36.759  31.559 -14.271  1.00  0.00    -0.003 C 
ATOM      4  C   UNL     1      36.697  32.361 -12.972  1.00  0.00     0.004 C 
ENDBRANCH   2   3
ENDBRANCH   1   2
BRANCH   1   5
ATOM      5  C   UNL     1      33.177  30.516 -13.509  1.00  0.00     0.080 C 
BRANCH   5   6
ATOM      6  C   UNL     1      33.698  29.772 -12.315  1.00  0.00     0.155 C 
ATOM      7  O   UNL     1      33.802  28.517 -12.366  1.00  0.00    -0.295 OA
BRANCH   6   8
ATOM      8  C   UNL     1      34.125  30.514 -11.112  1.00  0.00     0.039 C 
ATOM      9  C   UNL     1      34.520  29.901  -9.998  1.00  0.00     0.012 C 
ENDBRANCH   6   8
ENDBRANCH   5   6
ENDBRANCH   1   5
TORSDOF 5
ENDMDL
MODEL 3
REMARK VINA RESULT:    -3.727      7.353      9.882
REMARK INTER + INTRA:          -5.016
REMARK INTER:                  -4.784
REMARK INTRA:                  -0.233
REMARK UNBOUND:                -0.200
REMARK SMILES C=CC(=O)CCCCC
REMARK SMILES IDX 6 1 7 2 8 3 9 4 5 5 3 6 4 7 2 8 1 9
REMARK H PARENT
REMARK Flexibility Score: inf
ROOT
ATOM      1  C   UNL     1      20.271  29.341 -12.259  1.00  0.00     0.008 C 
ENDROOT
BRANCH   1   2
ATOM      2  C   UNL     1      20.804  28.967 -10.868  1.00  0.00     0.000 C 
BRANCH   2   3
ATOM      3  C   UNL     1      19.692  28.503  -9.915  1.00  0.00    -0.003 C 
ATOM      4  C   UNL     1      20.230  27.735  -8.709  1.00  0.00     0.004 C 
ENDBRANCH   2   3
ENDBRANCH   1   2
BRANCH   1   5
ATOM      5  C   UNL     1      20.999  28.556 -13.355  1.00  0.00     0.080 C 
BRANCH   5   6
ATOM      6  C   UNL     1      20.039  28.133 -14.427  1.00  0.00     0.155 C 
ATOM      7  O   UNL     1      20.454  28.000 -15.611  1.00  0.00    -0.295 OA
BRANCH   6   8
ATOM      8  C   UNL     1      18.635  27.833 -14.085  1.00  0.00     0.039 C 
ATOM      9  C   UNL     1      17.641  27.972 -14.959  1.00  0.00     0.012 C 
ENDBRANCH   6   8
ENDBRANCH   5   6
ENDBRANCH   1   5
TORSDOF 5
ENDMDL
MODEL 4
REMARK VINA RESULT:    -3.718      1.588      4.739
REMARK INTER + INTRA:          -5.004
REMARK INTER:                  -4.760
REMARK INTRA:                  -0.244
REMARK UNBOUND:                -0.200
REMARK SMILES C=CC(=O)CCCCC
REMARK SMILES IDX 6 1 7 2 8 3 9 4 5 5 3 6 4 7 2 8 1 9
REMARK H PARENT
REMARK Flexibility Score: inf
ROOT
ATOM      1  C   UNL     1      20.677  29.755 -23.092  1.00  0.00     0.008 C 
ENDROOT
BRANCH   1   2
ATOM      2  C   UNL     1      21.119  28.389 -22.550  1.00  0.00     0.000 C 
BRANCH   2   3
ATOM      3  C   UNL     1      20.561  28.101 -21.148  1.00  0.00    -0.003 C 
ATOM      4  C   UNL     1      20.097  26.655 -20.981  1.00  0.00     0.004 C 
ENDBRANCH   2   3
ENDBRANCH   1   2
BRANCH   1   5
ATOM      5  C   UNL     1      20.386  30.731 -21.947  1.00  0.00     0.080 C 
BRANCH   5   6
ATOM      6  C   UNL     1      18.984  31.257 -22.046  1.00  0.00     0.155 C 
ATOM      7  O   UNL     1      18.016  30.451 -21.986  1.00  0.00    -0.295 OA
BRANCH   6   8
ATOM      8  C   UNL     1      18.747  32.709 -22.167  1.00  0.00     0.039 C 
ATOM      9  C   UNL     1      18.676  33.326 -23.345  1.00  0.00     0.012 C 
ENDBRANCH   6   8
ENDBRANCH   5   6
ENDBRANCH   1   5
TORSDOF 5
ENDMDL
MODEL 5
REMARK VINA RESULT:    -3.707     17.012     18.186
REMARK INTER + INTRA:          -4.990
REMARK INTER:                  -4.556
REMARK INTRA:                  -0.434
REMARK UNBOUND:                -0.200
REMARK SMILES C=CC(=O)CCCCC
REMARK SMILES IDX 6 1 7 2 8 3 9 4 5 5 3 6 4 7 2 8 1 9
REMARK H PARENT
REMARK Flexibility Score: inf
ROOT
ATOM      1  C   UNL     1      34.103  29.678 -12.749  1.00  0.00     0.008 C 
ENDROOT
BRANCH   1   2
ATOM      2  C   UNL     1      33.490  29.571 -11.345  1.00  0.00     0.000 C 
BRANCH   2   3
ATOM      3  C   UNL     1      34.496  29.906 -10.234  1.00  0.00    -0.003 C 
ATOM      4  C   UNL     1      34.065  31.101  -9.386  1.00  0.00     0.004 C 
ENDBRANCH   2   3
ENDBRANCH   1   2
BRANCH   1   5
ATOM      5  C   UNL     1      34.311  31.144 -13.145  1.00  0.00     0.080 C 
BRANCH   5   6
ATOM      6  C   UNL     1      35.529  31.288 -14.010  1.00  0.00     0.155 C 
ATOM      7  O   UNL     1      35.478  30.921 -15.215  1.00  0.00    -0.295 OA
BRANCH   6   8
ATOM      8  C   UNL     1      36.756  31.897 -13.461  1.00  0.00     0.039 C 
ATOM      9  C   UNL     1      36.856  32.284 -12.190  1.00  0.00     0.012 C 
ENDBRANCH   6   8
ENDBRANCH   5   6
ENDBRANCH   1   5
TORSDOF 5
ENDMDL
MODEL 6
REMARK VINA RESULT:    -3.700      8.108      9.716
REMARK INTER + INTRA:          -4.981
REMARK INTER:                  -4.670
REMARK INTRA:                  -0.311
REMARK UNBOUND:                -0.200
REMARK SMILES C=CC(=O)CCCCC
REMARK SMILES IDX 6 1 7 2 8 3 9 4 5 5 3 6 4 7 2 8 1 9
REMARK H PARENT
REMARK Flexibility Score: inf
ROOT
ATOM      1  C   UNL     1      19.822  28.163 -13.827  1.00  0.00     0.008 C 
ENDROOT
BRANCH   1   2
ATOM      2  C   UNL     1      18.457  28.527 -14.428  1.00  0.00     0.000 C 
BRANCH   2   3
ATOM      3  C   UNL     1      17.474  27.346 -14.422  1.00  0.00    -0.003 C 
ATOM      4  C   UNL     1      17.272  26.753 -13.028  1.00  0.00     0.004 C 
ENDBRANCH   2   3
ENDBRANCH   1   2
BRANCH   1   5
ATOM      5  C   UNL     1      20.224  29.158 -12.734  1.00  0.00     0.080 C 
BRANCH   5   6
ATOM      6  C   UNL     1      20.647  28.433 -11.490  1.00  0.00     0.155 C 
ATOM      7  O   UNL     1      21.842  28.047 -11.376  1.00  0.00    -0.295 OA
BRANCH   6   8
ATOM      8  C   UNL     1      19.680  28.217 -10.397  1.00  0.00     0.039 C 
ATOM      9  C   UNL     1      20.059  28.018  -9.136  1.00  0.00     0.012 C 
ENDBRANCH   6   8
ENDBRANCH   5   6
ENDBRANCH   1   5
TORSDOF 5
ENDMDL
MODEL 7
REMARK VINA RESULT:    -3.699      1.380      1.546
REMARK INTER + INTRA:          -4.980
REMARK INTER:                  -4.752
REMARK INTRA:                  -0.227
REMARK UNBOUND:                -0.200
REMARK SMILES C=CC(=O)CCCCC
REMARK SMILES IDX 6 1 7 2 8 3 9 4 5 5 3 6 4 7 2 8 1 9
REMARK H PARENT
REMARK Flexibility Score: inf
ROOT
ATOM      1  C   UNL     1      18.825  30.009 -22.127  1.00  0.00     0.008 C 
ENDROOT
BRANCH   1   2
ATOM      2  C   UNL     1      18.264  31.280 -21.474  1.00  0.00     0.000 C 
BRANCH   2   3
ATOM      3  C   UNL     1      17.723  32.284 -22.504  1.00  0.00    -0.003 C 
ATOM      4  C   UNL     1      18.751  33.346 -22.891  1.00  0.00     0.004 C 
ENDBRANCH   2   3
ENDBRANCH   1   2
BRANCH   1   5
ATOM      5  C   UNL     1      20.356  29.999 -22.081  1.00  0.00     0.080 C 
BRANCH   5   6
ATOM      6  C   UNL     1      20.878  28.598 -22.205  1.00  0.00     0.155 C 
ATOM      7  O   UNL     1      21.406  28.228 -23.289  1.00  0.00    -0.295 OA
BRANCH   6   8
ATOM      8  C   UNL     1      20.813  27.681 -21.050  1.00  0.00     0.039 C 
ATOM      9  C   UNL     1      20.038  26.598 -21.040  1.00  0.00     0.012 C 
ENDBRANCH   6   8
ENDBRANCH   5   6
ENDBRANCH   1   5
TORSDOF 5
ENDMDL
MODEL 8
REMARK VINA RESULT:    -3.671      4.480      6.491
REMARK INTER + INTRA:          -4.944
REMARK INTER:                  -4.585
REMARK INTRA:                  -0.359
REMARK UNBOUND:                -0.200
REMARK SMILES C=CC(=O)CCCCC
REMARK SMILES IDX 6 1 7 2 8 3 9 4 5 5 3 6 4 7 2 8 1 9
REMARK H PARENT
REMARK Flexibility Score: inf
ROOT
ATOM      1  C   UNL     1      22.362  27.874 -15.860  1.00  0.00     0.008 C 
ENDROOT
BRANCH   1   2
ATOM      2  C   UNL     1      22.581  29.119 -16.730  1.00  0.00     0.000 C 
BRANCH   2   3
ATOM      3  C   UNL     1      22.641  28.789 -18.229  1.00  0.00    -0.003 C 
ATOM      4  C   UNL     1      21.257  28.709 -18.873  1.00  0.00     0.004 C 
ENDBRANCH   2   3
ENDBRANCH   1   2
BRANCH   1   5
ATOM      5  C   UNL     1      21.153  28.055 -14.936  1.00  0.00     0.080 C 
BRANCH   5   6
ATOM      6  C   UNL     1      19.894  27.617 -15.623  1.00  0.00     0.155 C 
ATOM      7  O   UNL     1      19.904  26.568 -16.323  1.00  0.00    -0.295 OA
BRANCH   6   8
ATOM      8  C   UNL     1      18.647  28.386 -15.440  1.00  0.00     0.039 C 
ATOM      9  C   UNL     1      17.571  27.872 -14.848  1.00  0.00     0.012 C 
ENDBRANCH   6   8
ENDBRANCH   5   6
ENDBRANCH   1   5
TORSDOF 5
ENDMDL
