MODEL 1
REMARK VINA RESULT:    -4.354      0.000      0.000
REMARK INTER + INTRA:          -6.404
REMARK INTER:                  -5.881
REMARK INTRA:                  -0.523
REMARK UNBOUND:                -0.523
REMARK SMILES [NH3+]CCCC[C@H]([NH3+])C(=O)[O-]
REMARK SMILES IDX 4 1 3 2 2 3 1 4 5 8 6 9 7 10 8 14 9 15 10 16
REMARK H PARENT 1 5 1 6 1 7 7 11 7 12 7 13
REMARK Flexibility Score: inf
ROOT
ATOM      1  C   UNL     1     157.465 168.056 231.582  1.00  0.00     0.012 C 
ENDROOT
BRANCH   1   2
ATOM      2  C   UNL     1     158.011 167.653 232.959  1.00  0.00     0.061 C 
BRANCH   2   3
ATOM      3  C   UNL     1     157.167 166.533 233.581  1.00  0.00     0.258 C 
BRANCH   3   4
ATOM      4  N   UNL     1     157.984 165.348 233.843  1.00  0.00    -0.358 N 
ATOM      5  H   UNL     1     158.906 165.650 234.237  1.00  0.00     0.344 HD
ATOM      6  H   UNL     1     157.506 164.728 234.536  1.00  0.00     0.344 HD
ATOM      7  H   UNL     1     158.151 164.824 232.954  1.00  0.00     0.344 HD
ENDBRANCH   3   4
ENDBRANCH   2   3
ENDBRANCH   1   2
BRANCH   1   8
ATOM      8  C   UNL     1     158.129 167.302 230.412  1.00  0.00     0.072 C 
BRANCH   8   9
ATOM      9  C   UNL     1     157.222 166.327 229.613  1.00  0.00     0.227 C 
BRANCH   9  10
ATOM     10  N   UNL     1     155.895 166.900 229.346  1.00  0.00    -0.350 N 
ATOM     11  H   UNL     1     155.701 167.680 230.015  1.00  0.00     0.345 HD
ATOM     12  H   UNL     1     155.146 166.175 229.431  1.00  0.00     0.345 HD
ATOM     13  H   UNL     1     155.873 167.292 228.376  1.00  0.00     0.345 HD
ENDBRANCH   9  10
BRANCH   9  14
ATOM     14  C   UNL     1     157.125 164.969 230.265  1.00  0.00     0.099 C 
ATOM     15  O   UNL     1     156.029 164.350 230.268  1.00  0.00    -0.544 OA
ATOM     16  O   UNL     1     158.226 164.401 230.898  1.00  0.00    -0.544 OA
ENDBRANCH   9  14
ENDBRANCH   8   9
ENDBRANCH   1   8
TORSDOF 7
ENDMDL
MODEL 2
REMARK VINA RESULT:    -4.273     13.596     14.869
REMARK INTER + INTRA:          -6.295
REMARK INTER:                  -5.781
REMARK INTRA:                  -0.514
REMARK UNBOUND:                -0.523
REMARK SMILES [NH3+]CCCC[C@H]([NH3+])C(=O)[O-]
REMARK SMILES IDX 4 1 3 2 2 3 1 4 5 8 6 9 7 10 8 14 9 15 10 16
REMARK H PARENT 1 5 1 6 1 7 7 11 7 12 7 13
REMARK Flexibility Score: inf
ROOT
ATOM      1  C   UNL     1     160.917 150.321 231.822  1.00  0.00     0.012 C 
ENDROOT
BRANCH   1   2
ATOM      2  C   UNL     1     160.237 150.769 233.124  1.00  0.00     0.061 C 
BRANCH   2   3
ATOM      3  C   UNL     1     160.908 152.026 233.694  1.00  0.00     0.258 C 
BRANCH   3   4
ATOM      4  N   UNL     1     160.081 153.209 233.462  1.00  0.00    -0.358 N 
ATOM      5  H   UNL     1     160.643 154.066 233.676  1.00  0.00     0.344 HD
ATOM      6  H   UNL     1     159.777 153.246 232.461  1.00  0.00     0.344 HD
ATOM      7  H   UNL     1     159.242 153.190 234.086  1.00  0.00     0.344 HD
ENDBRANCH   3   4
ENDBRANCH   2   3
ENDBRANCH   1   2
BRANCH   1   8
ATOM      8  C   UNL     1     160.133 150.711 230.553  1.00  0.00     0.072 C 
BRANCH   8   9
ATOM      9  C   UNL     1     160.855 151.660 229.558  1.00  0.00     0.227 C 
BRANCH   9  10
ATOM     10  N   UNL     1     162.173 151.146 229.162  1.00  0.00    -0.350 N 
ATOM     11  H   UNL     1     162.927 151.753 229.558  1.00  0.00     0.345 HD
ATOM     12  H   UNL     1     162.268 151.110 228.121  1.00  0.00     0.345 HD
ATOM     13  H   UNL     1     162.301 150.180 229.543  1.00  0.00     0.345 HD
ENDBRANCH   9  10
BRANCH   9  14
ATOM     14  C   UNL     1     160.937 153.077 230.073  1.00  0.00     0.099 C 
ATOM     15  O   UNL     1     162.051 153.662 230.129  1.00  0.00    -0.544 OA
ATOM     16  O   UNL     1     159.799 153.741 230.520  1.00  0.00    -0.544 OA
ENDBRANCH   9  14
ENDBRANCH   8   9
ENDBRANCH   1   8
TORSDOF 7
ENDMDL
MODEL 3
REMARK VINA RESULT:    -4.170      1.995      2.780
REMARK INTER + INTRA:          -6.156
REMARK INTER:                  -5.627
REMARK INTRA:                  -0.529
REMARK UNBOUND:                -0.523
REMARK SMILES [NH3+]CCCC[C@H]([NH3+])C(=O)[O-]
REMARK SMILES IDX 4 1 3 2 2 3 1 4 5 8 6 9 7 10 8 14 9 15 10 16
REMARK H PARENT 1 5 1 6 1 7 7 11 7 12 7 13
REMARK Flexibility Score: inf
ROOT
ATOM      1  C   UNL     1     157.795 164.340 231.461  1.00  0.00     0.012 C 
ENDROOT
BRANCH   1   2
ATOM      2  C   UNL     1     157.145 164.039 232.819  1.00  0.00     0.061 C 
BRANCH   2   3
ATOM      3  C   UNL     1     157.803 164.856 233.939  1.00  0.00     0.258 C 
BRANCH   3   4
ATOM      4  N   UNL     1     157.119 166.136 234.121  1.00  0.00    -0.358 N 
ATOM      5  H   UNL     1     156.870 166.249 235.132  1.00  0.00     0.344 HD
ATOM      6  H   UNL     1     157.746 166.924 233.837  1.00  0.00     0.344 HD
ATOM      7  H   UNL     1     156.241 166.159 233.553  1.00  0.00     0.344 HD
ENDBRANCH   3   4
ENDBRANCH   2   3
ENDBRANCH   1   2
BRANCH   1   8
ATOM      8  C   UNL     1     156.823 164.960 230.437  1.00  0.00     0.072 C 
BRANCH   8   9
ATOM      9  C   UNL     1     156.522 166.475 230.597  1.00  0.00     0.227 C 
BRANCH   9  10
ATOM     10  N   UNL     1     155.647 166.981 229.531  1.00  0.00    -0.350 N 
ATOM     11  H   UNL     1     155.981 167.918 229.209  1.00  0.00     0.345 HD
ATOM     12  H   UNL     1     154.657 167.059 229.858  1.00  0.00     0.345 HD
ATOM     13  H   UNL     1     155.679 166.328 228.714  1.00  0.00     0.345 HD
ENDBRANCH   9  10
BRANCH   9  14
ATOM     14  C   UNL     1     157.780 167.300 230.729  1.00  0.00     0.099 C 
ATOM     15  O   UNL     1     158.624 167.311 229.795  1.00  0.00    -0.544 OA
ATOM     16  O   UNL     1     158.040 168.026 231.886  1.00  0.00    -0.544 OA
ENDBRANCH   9  14
ENDBRANCH   8   9
ENDBRANCH   1   8
TORSDOF 7
ENDMDL
MODEL 4
REMARK VINA RESULT:    -4.094      1.811      2.329
REMARK INTER + INTRA:          -6.053
REMARK INTER:                  -5.566
REMARK INTRA:                  -0.487
REMARK UNBOUND:                -0.523
REMARK SMILES [NH3+]CCCC[C@H]([NH3+])C(=O)[O-]
REMARK SMILES IDX 4 1 3 2 2 3 1 4 5 8 6 9 7 10 8 14 9 15 10 16
REMARK H PARENT 1 5 1 6 1 7 7 11 7 12 7 13
REMARK Flexibility Score: inf
ROOT
ATOM      1  C   UNL     1     158.445 167.252 230.412  1.00  0.00     0.012 C 
ENDROOT
BRANCH   1   2
ATOM      2  C   UNL     1     157.319 167.662 231.371  1.00  0.00     0.061 C 
BRANCH   2   3
ATOM      3  C   UNL     1     157.778 167.571 232.833  1.00  0.00     0.258 C 
BRANCH   3   4
ATOM      4  N   UNL     1     156.929 166.651 233.590  1.00  0.00    -0.358 N 
ATOM      5  H   UNL     1     156.093 166.404 233.011  1.00  0.00     0.344 HD
ATOM      6  H   UNL     1     157.456 165.776 233.814  1.00  0.00     0.344 HD
ATOM      7  H   UNL     1     156.606 167.106 234.474  1.00  0.00     0.344 HD
ENDBRANCH   3   4
ENDBRANCH   2   3
ENDBRANCH   1   2
BRANCH   1   8
ATOM      8  C   UNL     1     158.228 165.871 229.762  1.00  0.00     0.072 C 
BRANCH   8   9
ATOM      9  C   UNL     1     158.495 164.633 230.661  1.00  0.00     0.227 C 
BRANCH   9  10
ATOM     10  N   UNL     1     159.419 163.681 230.030  1.00  0.00    -0.350 N 
ATOM     11  H   UNL     1     159.515 162.828 230.627  1.00  0.00     0.345 HD
ATOM     12  H   UNL     1     160.361 164.109 229.883  1.00  0.00     0.345 HD
ATOM     13  H   UNL     1     159.037 163.385 229.102  1.00  0.00     0.345 HD
ENDBRANCH   9  10
BRANCH   9  14
ATOM     14  C   UNL     1     157.217 163.963 231.108  1.00  0.00     0.099 C 
ATOM     15  O   UNL     1     156.936 163.901 232.333  1.00  0.00    -0.544 OA
ATOM     16  O   UNL     1     156.357 163.378 230.183  1.00  0.00    -0.544 OA
ENDBRANCH   9  14
ENDBRANCH   8   9
ENDBRANCH   1   8
TORSDOF 7
ENDMDL
MODEL 5
REMARK VINA RESULT:    -4.024     10.905     12.753
REMARK INTER + INTRA:          -5.959
REMARK INTER:                  -5.872
REMARK INTRA:                  -0.087
REMARK UNBOUND:                -0.523
REMARK SMILES [NH3+]CCCC[C@H]([NH3+])C(=O)[O-]
REMARK SMILES IDX 4 1 3 2 2 3 1 4 5 8 6 9 7 10 8 14 9 15 10 16
REMARK H PARENT 1 5 1 6 1 7 7 11 7 12 7 13
REMARK Flexibility Score: inf
ROOT
ATOM      1  C   UNL     1     158.621 160.587 219.556  1.00  0.00     0.012 C 
ENDROOT
BRANCH   1   2
ATOM      2  C   UNL     1     157.470 160.770 218.558  1.00  0.00     0.061 C 
BRANCH   2   3
ATOM      3  C   UNL     1     157.991 161.244 217.195  1.00  0.00     0.258 C 
BRANCH   3   4
ATOM      4  N   UNL     1     157.622 162.639 216.952  1.00  0.00    -0.358 N 
ATOM      5  H   UNL     1     156.712 162.839 217.428  1.00  0.00     0.344 HD
ATOM      6  H   UNL     1     158.354 163.277 217.340  1.00  0.00     0.344 HD
ATOM      7  H   UNL     1     157.511 162.808 215.926  1.00  0.00     0.344 HD
ENDBRANCH   3   4
ENDBRANCH   2   3
ENDBRANCH   1   2
BRANCH   1   8
ATOM      8  C   UNL     1     159.369 161.895 219.881  1.00  0.00     0.072 C 
BRANCH   8   9
ATOM      9  C   UNL     1     158.917 162.652 221.159  1.00  0.00     0.227 C 
BRANCH   9  10
ATOM     10  N   UNL     1     157.628 163.332 220.972  1.00  0.00    -0.350 N 
ATOM     11  H   UNL     1     156.843 162.681 221.203  1.00  0.00     0.345 HD
ATOM     12  H   UNL     1     157.518 163.672 219.990  1.00  0.00     0.345 HD
ATOM     13  H   UNL     1     157.569 164.153 221.619  1.00  0.00     0.345 HD
ENDBRANCH   9  10
BRANCH   9  14
ATOM     14  C   UNL     1     159.979 163.595 221.674  1.00  0.00     0.099 C 
ATOM     15  O   UNL     1     161.105 163.148 222.014  1.00  0.00    -0.544 OA
ATOM     16  O   UNL     1     159.719 164.955 221.810  1.00  0.00    -0.544 OA
ENDBRANCH   9  14
ENDBRANCH   8   9
ENDBRANCH   1   8
TORSDOF 7
ENDMDL
MODEL 6
REMARK VINA RESULT:    -3.995      2.570      3.514
REMARK INTER + INTRA:          -5.920
REMARK INTER:                  -5.406
REMARK INTRA:                  -0.513
REMARK UNBOUND:                -0.523
REMARK SMILES [NH3+]CCCC[C@H]([NH3+])C(=O)[O-]
REMARK SMILES IDX 4 1 3 2 2 3 1 4 5 8 6 9 7 10 8 14 9 15 10 16
REMARK H PARENT 1 5 1 6 1 7 7 11 7 12 7 13
REMARK Flexibility Score: inf
ROOT
ATOM      1  C   UNL     1     156.927 163.906 231.548  1.00  0.00     0.012 C 
ENDROOT
BRANCH   1   2
ATOM      2  C   UNL     1     157.969 162.859 231.129  1.00  0.00     0.061 C 
BRANCH   2   3
ATOM      3  C   UNL     1     159.393 163.420 231.244  1.00  0.00     0.258 C 
BRANCH   3   4
ATOM      4  N   UNL     1     160.002 163.572 229.923  1.00  0.00    -0.358 N 
ATOM      5  H   UNL     1     159.876 162.683 229.385  1.00  0.00     0.344 HD
ATOM      6  H   UNL     1     159.540 164.351 229.401  1.00  0.00     0.344 HD
ATOM      7  H   UNL     1     161.025 163.767 230.019  1.00  0.00     0.344 HD
ENDBRANCH   3   4
ENDBRANCH   2   3
ENDBRANCH   1   2
BRANCH   1   8
ATOM      8  C   UNL     1     156.353 164.711 230.366  1.00  0.00     0.072 C 
BRANCH   8   9
ATOM      9  C   UNL     1     156.514 166.254 230.435  1.00  0.00     0.227 C 
BRANCH   9  10
ATOM     10  N   UNL     1     155.472 166.953 229.671  1.00  0.00    -0.350 N 
ATOM     11  H   UNL     1     154.955 167.615 230.294  1.00  0.00     0.345 HD
ATOM     12  H   UNL     1     154.796 166.278 229.246  1.00  0.00     0.345 HD
ATOM     13  H   UNL     1     155.916 167.510 228.904  1.00  0.00     0.345 HD
ENDBRANCH   9  10
BRANCH   9  14
ATOM     14  C   UNL     1     157.899 166.705 230.038  1.00  0.00     0.099 C 
ATOM     15  O   UNL     1     158.504 166.124 229.100  1.00  0.00    -0.544 OA
ATOM     16  O   UNL     1     158.535 167.738 230.719  1.00  0.00    -0.544 OA
ENDBRANCH   9  14
ENDBRANCH   8   9
ENDBRANCH   1   8
TORSDOF 7
ENDMDL
MODEL 7
REMARK VINA RESULT:    -3.988     13.477     14.944
REMARK INTER + INTRA:          -5.910
REMARK INTER:                  -5.758
REMARK INTRA:                  -0.152
REMARK UNBOUND:                -0.523
REMARK SMILES [NH3+]CCCC[C@H]([NH3+])C(=O)[O-]
REMARK SMILES IDX 4 1 3 2 2 3 1 4 5 8 6 9 7 10 8 14 9 15 10 16
REMARK H PARENT 1 5 1 6 1 7 7 11 7 12 7 13
REMARK Flexibility Score: inf
ROOT
ATOM      1  C   UNL     1     159.234 159.293 219.103  1.00  0.00     0.012 C 
ENDROOT
BRANCH   1   2
ATOM      2  C   UNL     1     157.930 160.101 219.150  1.00  0.00     0.061 C 
BRANCH   2   3
ATOM      3  C   UNL     1     158.129 161.428 219.895  1.00  0.00     0.258 C 
BRANCH   3   4
ATOM      4  N   UNL     1     159.019 162.317 219.149  1.00  0.00    -0.358 N 
ATOM      5  H   UNL     1     158.615 162.485 218.198  1.00  0.00     0.344 HD
ATOM      6  H   UNL     1     159.111 163.234 219.644  1.00  0.00     0.344 HD
ATOM      7  H   UNL     1     159.962 161.876 219.042  1.00  0.00     0.344 HD
ENDBRANCH   3   4
ENDBRANCH   2   3
ENDBRANCH   1   2
BRANCH   1   8
ATOM      8  C   UNL     1     159.231 158.178 218.038  1.00  0.00     0.072 C 
BRANCH   8   9
ATOM      9  C   UNL     1     160.022 156.888 218.383  1.00  0.00     0.227 C 
BRANCH   9  10
ATOM     10  N   UNL     1     159.967 155.899 217.298  1.00  0.00    -0.350 N 
ATOM     11  H   UNL     1     160.391 154.997 217.615  1.00  0.00     0.345 HD
ATOM     12  H   UNL     1     160.472 156.240 216.449  1.00  0.00     0.345 HD
ATOM     13  H   UNL     1     158.968 155.715 217.043  1.00  0.00     0.345 HD
ENDBRANCH   9  10
BRANCH   9  14
ATOM     14  C   UNL     1     159.600 156.293 219.706  1.00  0.00     0.099 C 
ATOM     15  O   UNL     1     160.467 156.025 220.579  1.00  0.00    -0.544 OA
ATOM     16  O   UNL     1     158.264 156.002 219.964  1.00  0.00    -0.544 OA
ENDBRANCH   9  14
ENDBRANCH   8   9
ENDBRANCH   1   8
TORSDOF 7
ENDMDL
MODEL 8
REMARK VINA RESULT:    -3.944     12.720     14.048
REMARK INTER + INTRA:          -5.850
REMARK INTER:                  -5.378
REMARK INTRA:                  -0.472
REMARK UNBOUND:                -0.523
REMARK SMILES [NH3+]CCCC[C@H]([NH3+])C(=O)[O-]
REMARK SMILES IDX 4 1 3 2 2 3 1 4 5 8 6 9 7 10 8 14 9 15 10 16
REMARK H PARENT 1 5 1 6 1 7 7 11 7 12 7 13
REMARK Flexibility Score: inf
ROOT
ATOM      1  C   UNL     1     159.710 150.994 230.442  1.00  0.00     0.012 C 
ENDROOT
BRANCH   1   2
ATOM      2  C   UNL     1     160.858 150.643 231.399  1.00  0.00     0.061 C 
BRANCH   2   3
ATOM      3  C   UNL     1     160.418 150.780 232.863  1.00  0.00     0.258 C 
BRANCH   3   4
ATOM      4  N   UNL     1     161.255 151.748 233.571  1.00  0.00    -0.358 N 
ATOM      5  H   UNL     1     160.638 152.423 234.082  1.00  0.00     0.344 HD
ATOM      6  H   UNL     1     161.866 151.257 234.264  1.00  0.00     0.344 HD
ATOM      7  H   UNL     1     161.846 152.278 232.891  1.00  0.00     0.344 HD
ENDBRANCH   3   4
ENDBRANCH   2   3
ENDBRANCH   1   2
BRANCH   1   8
ATOM      8  C   UNL     1     159.894 152.348 229.729  1.00  0.00     0.072 C 
BRANCH   8   9
ATOM      9  C   UNL     1     159.654 153.620 230.586  1.00  0.00     0.227 C 
BRANCH   9  10
ATOM     10  N   UNL     1     158.719 154.552 229.941  1.00  0.00    -0.350 N 
ATOM     11  H   UNL     1     158.168 154.054 229.205  1.00  0.00     0.345 HD
ATOM     12  H   UNL     1     159.226 155.358 229.509  1.00  0.00     0.345 HD
ATOM     13  H   UNL     1     158.048 154.922 230.654  1.00  0.00     0.345 HD
ENDBRANCH   9  10
BRANCH   9  14
ATOM     14  C   UNL     1     160.944 154.301 230.976  1.00  0.00     0.099 C 
ATOM     15  O   UNL     1     161.771 154.639 230.089  1.00  0.00    -0.544 OA
ATOM     16  O   UNL     1     161.252 154.533 232.313  1.00  0.00    -0.544 OA
ENDBRANCH   9  14
ENDBRANCH   8   9
ENDBRANCH   1   8
TORSDOF 7
ENDMDL
MODEL 9
REMARK VINA RESULT:    -3.931     12.938     14.481
REMARK INTER + INTRA:          -5.833
REMARK INTER:                  -5.684
REMARK INTRA:                  -0.149
REMARK UNBOUND:                -0.523
REMARK SMILES [NH3+]CCCC[C@H]([NH3+])C(=O)[O-]
REMARK SMILES IDX 4 1 3 2 2 3 1 4 5 8 6 9 7 10 8 14 9 15 10 16
REMARK H PARENT 1 5 1 6 1 7 7 11 7 12 7 13
REMARK Flexibility Score: inf
ROOT
ATOM      1  C   UNL     1     158.636 159.011 219.122  1.00  0.00     0.012 C 
ENDROOT
BRANCH   1   2
ATOM      2  C   UNL     1     159.831 158.051 219.034  1.00  0.00     0.061 C 
BRANCH   2   3
ATOM      3  C   UNL     1     159.931 157.421 217.638  1.00  0.00     0.258 C 
BRANCH   3   4
ATOM      4  N   UNL     1     159.797 155.966 217.712  1.00  0.00    -0.358 N 
ATOM      5  H   UNL     1     160.707 155.526 217.441  1.00  0.00     0.344 HD
ATOM      6  H   UNL     1     159.558 155.675 218.687  1.00  0.00     0.344 HD
ATOM      7  H   UNL     1     159.054 155.640 217.052  1.00  0.00     0.344 HD
ENDBRANCH   3   4
ENDBRANCH   2   3
ENDBRANCH   1   2
BRANCH   1   8
ATOM      8  C   UNL     1     158.642 160.104 218.036  1.00  0.00     0.072 C 
BRANCH   8   9
ATOM      9  C   UNL     1     157.890 161.420 218.373  1.00  0.00     0.227 C 
BRANCH   9  10
ATOM     10  N   UNL     1     158.017 162.419 217.303  1.00  0.00    -0.350 N 
ATOM     11  H   UNL     1     158.040 163.380 217.713  1.00  0.00     0.345 HD
ATOM     12  H   UNL     1     157.224 162.350 216.625  1.00  0.00     0.345 HD
ATOM     13  H   UNL     1     158.914 162.265 216.786  1.00  0.00     0.345 HD
ENDBRANCH   9  10
BRANCH   9  14
ATOM     14  C   UNL     1     158.290 161.982 219.716  1.00  0.00     0.099 C 
ATOM     15  O   UNL     1     157.418 162.163 220.606  1.00  0.00    -0.544 OA
ATOM     16  O   UNL     1     159.609 162.338 219.976  1.00  0.00    -0.544 OA
ENDBRANCH   9  14
ENDBRANCH   8   9
ENDBRANCH   1   8
TORSDOF 7
ENDMDL
