MODEL 1
REMARK VINA RESULT:    -6.149      0.000      0.000
REMARK INTER + INTRA:          -7.264
REMARK INTER:                  -7.587
REMARK INTRA:                   0.323
REMARK UNBOUND:                 0.323
REMARK SMILES O=c1c(O)c(-c2cc(O)c(O)c(O)c2)oc2cc(O)cc(O)c12
REMARK SMILES IDX 5 1 3 2 2 3 1 4 23 5 21 6 20 7 18 8 17 9 16 10 15 11 6 12
REMARK SMILES IDX 7 13 8 14 14 15 10 16 12 17 9 18 11 20 13 22 4 24 22 26
REMARK SMILES IDX 19 28
REMARK H PARENT 9 19 11 21 13 23 4 25 22 27 19 29
REMARK Flexibility Score: inf
ROOT
ATOM      1  C   UNL     1       9.423  -1.992  19.441  1.00  0.00     0.180 A 
ATOM      2  C   UNL     1      10.786  -2.262  19.659  1.00  0.00     0.208 A 
ATOM      3  C   UNL     1      11.191  -3.589  19.876  1.00  0.00     0.238 A 
ATOM      4  O   UNL     1      12.403  -3.817  20.125  1.00  0.00    -0.285 OA
ATOM      5  C   UNL     1      10.232  -4.630  19.859  1.00  0.00     0.111 A 
ATOM      6  C   UNL     1      10.536  -6.014  20.027  1.00  0.00     0.134 A 
ATOM      7  C   UNL     1       9.493  -6.944  20.121  1.00  0.00     0.093 A 
ATOM      8  C   UNL     1       8.161  -6.547  19.987  1.00  0.00     0.123 A 
ATOM      9  C   UNL     1       7.857  -5.206  19.762  1.00  0.00     0.094 A 
ATOM     10  C   UNL     1       8.874  -4.251  19.701  1.00  0.00     0.146 A 
ATOM     11  O   UNL     1       8.540  -2.981  19.495  1.00  0.00    -0.452 OA
ENDROOT
BRANCH   1  12
ATOM     12  C   UNL     1       8.925  -0.623  19.180  1.00  0.00     0.029 A 
ATOM     13  C   UNL     1       7.748  -0.400  18.448  1.00  0.00     0.062 A 
ATOM     14  C   UNL     1       7.281   0.902  18.233  1.00  0.00     0.162 A 
ATOM     15  C   UNL     1       9.607   0.476  19.724  1.00  0.00     0.062 A 
ATOM     16  C   UNL     1       7.977   2.000  18.758  1.00  0.00     0.200 A 
ATOM     17  C   UNL     1       9.151   1.783  19.515  1.00  0.00     0.162 A 
BRANCH  14  18
ATOM     18  O   UNL     1       6.115   1.115  17.497  1.00  0.00    -0.504 OA
ATOM     19  H   UNL     1       5.669   0.366  16.980  1.00  0.00     0.293 HD
ENDBRANCH  14  18
BRANCH  16  20
ATOM     20  O   UNL     1       7.471   3.278  18.506  1.00  0.00    -0.502 OA
ATOM     21  H   UNL     1       8.032   4.058  18.193  1.00  0.00     0.293 HD
ENDBRANCH  16  20
BRANCH  17  22
ATOM     22  O   UNL     1       9.890   2.826  20.078  1.00  0.00    -0.504 OA
ATOM     23  H   UNL     1      10.276   2.807  21.011  1.00  0.00     0.293 HD
ENDBRANCH  17  22
ENDBRANCH   1  12
BRANCH   2  24
ATOM     24  O   UNL     1      11.712  -1.216  19.695  1.00  0.00    -0.502 OA
ATOM     25  H   UNL     1      12.439  -1.109  18.998  1.00  0.00     0.293 HD
ENDBRANCH   2  24
BRANCH   6  26
ATOM     26  O   UNL     1      11.836  -6.527  20.079  1.00  0.00    -0.507 OA
ATOM     27  H   UNL     1      12.647  -6.081  19.679  1.00  0.00     0.293 HD
ENDBRANCH   6  26
BRANCH   8  28
ATOM     28  O   UNL     1       7.129  -7.480  20.066  1.00  0.00    -0.508 OA
ATOM     29  H   UNL     1       7.252  -8.434  19.745  1.00  0.00     0.293 HD
ENDBRANCH   8  28
TORSDOF 7
ENDMDL
MODEL 2
REMARK VINA RESULT:    -5.655      2.098      7.096
REMARK INTER + INTRA:          -6.655
REMARK INTER:                  -6.824
REMARK INTRA:                   0.169
REMARK UNBOUND:                 0.323
REMARK SMILES O=c1c(O)c(-c2cc(O)c(O)c(O)c2)oc2cc(O)cc(O)c12
REMARK SMILES IDX 5 1 3 2 2 3 1 4 23 5 21 6 20 7 18 8 17 9 16 10 15 11 6 12
REMARK SMILES IDX 7 13 8 14 14 15 10 16 12 17 9 18 11 20 13 22 4 24 22 26
REMARK SMILES IDX 19 28
REMARK H PARENT 9 19 11 21 13 23 4 25 22 27 19 29
REMARK Flexibility Score: inf
ROOT
ATOM      1  C   UNL     1      10.487  -1.856  19.021  1.00  0.00     0.180 A 
ATOM      2  C   UNL     1       9.297  -2.391  18.495  1.00  0.00     0.208 A 
ATOM      3  C   UNL     1       8.185  -1.550  18.335  1.00  0.00     0.238 A 
ATOM      4  O   UNL     1       7.107  -2.046  17.915  1.00  0.00    -0.285 OA
ATOM      5  C   UNL     1       8.279  -0.182  18.688  1.00  0.00     0.111 A 
ATOM      6  C   UNL     1       7.227   0.770  18.531  1.00  0.00     0.134 A 
ATOM      7  C   UNL     1       7.389   2.067  19.035  1.00  0.00     0.093 A 
ATOM      8  C   UNL     1       8.587   2.463  19.631  1.00  0.00     0.123 A 
ATOM      9  C   UNL     1       9.641   1.559  19.735  1.00  0.00     0.094 A 
ATOM     10  C   UNL     1       9.497   0.248  19.275  1.00  0.00     0.146 A 
ATOM     11  O   UNL     1      10.523  -0.586  19.403  1.00  0.00    -0.452 OA
ENDROOT
BRANCH   1  12
ATOM     12  C   UNL     1      11.708  -2.675  19.195  1.00  0.00     0.029 A 
ATOM     13  C   UNL     1      11.637  -4.020  19.589  1.00  0.00     0.062 A 
ATOM     14  C   UNL     1      12.802  -4.783  19.725  1.00  0.00     0.162 A 
ATOM     15  C   UNL     1      12.961  -2.115  18.903  1.00  0.00     0.062 A 
ATOM     16  C   UNL     1      14.056  -4.216  19.456  1.00  0.00     0.200 A 
ATOM     17  C   UNL     1      14.135  -2.867  19.036  1.00  0.00     0.162 A 
BRANCH  14  18
ATOM     18  O   UNL     1      12.723  -6.117  20.125  1.00  0.00    -0.504 OA
ATOM     19  H   UNL     1      12.955  -6.403  21.069  1.00  0.00     0.293 HD
ENDBRANCH  14  18
BRANCH  16  20
ATOM     20  O   UNL     1      15.187  -5.020  19.614  1.00  0.00    -0.502 OA
ATOM     21  H   UNL     1      16.116  -4.663  19.787  1.00  0.00     0.293 HD
ENDBRANCH  16  20
BRANCH  17  22
ATOM     22  O   UNL     1      15.346  -2.239  18.739  1.00  0.00    -0.504 OA
ATOM     23  H   UNL     1      15.990  -1.894  19.435  1.00  0.00     0.293 HD
ENDBRANCH  17  22
ENDBRANCH   1  12
BRANCH   2  24
ATOM     24  O   UNL     1       9.220  -3.749  18.173  1.00  0.00    -0.502 OA
ATOM     25  H   UNL     1       8.363  -4.184  17.855  1.00  0.00     0.293 HD
ENDBRANCH   2  24
BRANCH   6  26
ATOM     26  O   UNL     1       6.025   0.502  17.868  1.00  0.00    -0.507 OA
ATOM     27  H   UNL     1       5.927  -0.131  17.089  1.00  0.00     0.293 HD
ENDBRANCH   6  26
BRANCH   8  28
ATOM     28  O   UNL     1       8.745   3.760  20.116  1.00  0.00    -0.508 OA
ATOM     29  H   UNL     1       9.382   4.415  19.678  1.00  0.00     0.293 HD
ENDBRANCH   8  28
TORSDOF 7
ENDMDL
MODEL 3
REMARK VINA RESULT:    -5.486      1.586      2.676
REMARK INTER + INTRA:          -6.446
REMARK INTER:                  -6.629
REMARK INTRA:                   0.183
REMARK UNBOUND:                 0.323
REMARK SMILES O=c1c(O)c(-c2cc(O)c(O)c(O)c2)oc2cc(O)cc(O)c12
REMARK SMILES IDX 5 1 3 2 2 3 1 4 23 5 21 6 20 7 18 8 17 9 16 10 15 11 6 12
REMARK SMILES IDX 7 13 8 14 14 15 10 16 12 17 9 18 11 20 13 22 4 24 22 26
REMARK SMILES IDX 19 28
REMARK H PARENT 9 19 11 21 13 23 4 25 22 27 19 29
REMARK Flexibility Score: inf
ROOT
ATOM      1  C   UNL     1      11.139  -1.644  19.380  1.00  0.00     0.180 A 
ATOM      2  C   UNL     1      12.538  -1.580  19.496  1.00  0.00     0.208 A 
ATOM      3  C   UNL     1      13.263  -2.770  19.671  1.00  0.00     0.238 A 
ATOM      4  O   UNL     1      14.509  -2.702  19.828  1.00  0.00    -0.285 OA
ATOM      5  C   UNL     1      12.580  -4.010  19.715  1.00  0.00     0.111 A 
ATOM      6  C   UNL     1      13.216  -5.280  19.849  1.00  0.00     0.134 A 
ATOM      7  C   UNL     1      12.433  -6.431  20.010  1.00  0.00     0.093 A 
ATOM      8  C   UNL     1      11.039  -6.363  19.978  1.00  0.00     0.123 A 
ATOM      9  C   UNL     1      10.409  -5.135  19.787  1.00  0.00     0.094 A 
ATOM     10  C   UNL     1      11.163  -3.966  19.660  1.00  0.00     0.146 A 
ATOM     11  O   UNL     1      10.523  -2.814  19.490  1.00  0.00    -0.452 OA
ENDROOT
BRANCH   1  12
ATOM     12  C   UNL     1      10.311  -0.435  19.168  1.00  0.00     0.029 A 
ATOM     13  C   UNL     1      10.645   0.794  19.759  1.00  0.00     0.062 A 
ATOM     14  C   UNL     1       9.862   1.930  19.527  1.00  0.00     0.162 A 
ATOM     15  C   UNL     1       9.201  -0.500  18.312  1.00  0.00     0.062 A 
ATOM     16  C   UNL     1       8.740   1.859  18.689  1.00  0.00     0.200 A 
ATOM     17  C   UNL     1       8.409   0.630  18.071  1.00  0.00     0.162 A 
BRANCH  14  18
ATOM     18  O   UNL     1      10.197   3.145  20.124  1.00  0.00    -0.504 OA
ATOM     19  H   UNL     1      10.914   3.748  19.737  1.00  0.00     0.293 HD
ENDBRANCH  14  18
BRANCH  16  20
ATOM     20  O   UNL     1       7.989   3.021  18.497  1.00  0.00    -0.502 OA
ATOM     21  H   UNL     1       7.001   3.029  18.287  1.00  0.00     0.293 HD
ENDBRANCH  16  20
BRANCH  17  22
ATOM     22  O   UNL     1       7.315   0.485  17.216  1.00  0.00    -0.504 OA
ATOM     23  H   UNL     1       7.098  -0.362  16.712  1.00  0.00     0.293 HD
ENDBRANCH  17  22
ENDBRANCH   1  12
BRANCH   2  24
ATOM     24  O   UNL     1      13.190  -0.343  19.472  1.00  0.00    -0.502 OA
ATOM     25  H   UNL     1      14.057  -0.176  19.968  1.00  0.00     0.293 HD
ENDBRANCH   2  24
BRANCH   6  26
ATOM     26  O   UNL     1      14.600  -5.469  19.801  1.00  0.00    -0.507 OA
ATOM     27  H   UNL     1      15.226  -5.339  20.582  1.00  0.00     0.293 HD
ENDBRANCH   6  26
BRANCH   8  28
ATOM     28  O   UNL     1      10.268  -7.514  20.124  1.00  0.00    -0.508 OA
ATOM     29  H   UNL     1       9.333  -7.578  19.738  1.00  0.00     0.293 HD
ENDBRANCH   8  28
TORSDOF 7
ENDMDL
MODEL 4
REMARK VINA RESULT:    -5.474      2.936      6.160
REMARK INTER + INTRA:          -6.431
REMARK INTER:                  -6.942
REMARK INTRA:                   0.510
REMARK UNBOUND:                 0.323
REMARK SMILES O=c1c(O)c(-c2cc(O)c(O)c(O)c2)oc2cc(O)cc(O)c12
REMARK SMILES IDX 5 1 3 2 2 3 1 4 23 5 21 6 20 7 18 8 17 9 16 10 15 11 6 12
REMARK SMILES IDX 7 13 8 14 14 15 10 16 12 17 9 18 11 20 13 22 4 24 22 26
REMARK SMILES IDX 19 28
REMARK H PARENT 9 19 11 21 13 23 4 25 22 27 19 29
REMARK Flexibility Score: inf
ROOT
ATOM      1  C   UNL     1      12.195  -3.529  19.116  1.00  0.00     0.180 A 
ATOM      2  C   UNL     1      11.438  -2.457  18.612  1.00  0.00     0.208 A 
ATOM      3  C   UNL     1      10.042  -2.586  18.532  1.00  0.00     0.238 A 
ATOM      4  O   UNL     1       9.376  -1.644  18.029  1.00  0.00    -0.285 OA
ATOM      5  C   UNL     1       9.419  -3.780  18.969  1.00  0.00     0.111 A 
ATOM      6  C   UNL     1       8.010  -4.004  18.971  1.00  0.00     0.134 A 
ATOM      7  C   UNL     1       7.513  -5.271  19.304  1.00  0.00     0.093 A 
ATOM      8  C   UNL     1       8.370  -6.300  19.698  1.00  0.00     0.123 A 
ATOM      9  C   UNL     1       9.743  -6.072  19.758  1.00  0.00     0.094 A 
ATOM     10  C   UNL     1      10.272  -4.831  19.396  1.00  0.00     0.146 A 
ATOM     11  O   UNL     1      11.587  -4.659  19.457  1.00  0.00    -0.452 OA
ENDROOT
BRANCH   1  12
ATOM     12  C   UNL     1      13.667  -3.457  19.255  1.00  0.00     0.029 A 
ATOM     13  C   UNL     1      14.422  -4.580  19.628  1.00  0.00     0.062 A 
ATOM     14  C   UNL     1      15.816  -4.496  19.730  1.00  0.00     0.162 A 
ATOM     15  C   UNL     1      14.331  -2.259  18.951  1.00  0.00     0.062 A 
ATOM     16  C   UNL     1      16.476  -3.292  19.448  1.00  0.00     0.200 A 
ATOM     17  C   UNL     1      15.724  -2.162  19.050  1.00  0.00     0.162 A 
BRANCH  14  18
ATOM     18  O   UNL     1      16.558  -5.614  20.109  1.00  0.00    -0.504 OA
ATOM     19  H   UNL     1      17.210  -6.059  19.474  1.00  0.00     0.293 HD
ENDBRANCH  14  18
BRANCH  16  20
ATOM     20  O   UNL     1      17.867  -3.261  19.573  1.00  0.00    -0.502 OA
ATOM     21  H   UNL     1      18.362  -2.708  20.259  1.00  0.00     0.293 HD
ENDBRANCH  16  20
BRANCH  17  22
ATOM     22  O   UNL     1      16.313  -0.933  18.742  1.00  0.00    -0.504 OA
ATOM     23  H   UNL     1      17.069  -0.520  19.268  1.00  0.00     0.293 HD
ENDBRANCH  17  22
ENDBRANCH   1  12
BRANCH   2  24
ATOM     24  O   UNL     1      12.076  -1.296  18.165  1.00  0.00    -0.502 OA
ATOM     25  H   UNL     1      11.745  -0.368  18.402  1.00  0.00     0.293 HD
ENDBRANCH   2  24
BRANCH   6  26
ATOM     26  O   UNL     1       7.062  -3.018  18.682  1.00  0.00    -0.507 OA
ATOM     27  H   UNL     1       6.344  -3.099  17.978  1.00  0.00     0.293 HD
ENDBRANCH   6  26
BRANCH   8  28
ATOM     28  O   UNL     1       7.867  -7.552  20.043  1.00  0.00    -0.508 OA
ATOM     29  H   UNL     1       7.241  -8.059  19.427  1.00  0.00     0.293 HD
ENDBRANCH   8  28
TORSDOF 7
ENDMDL
MODEL 5
REMARK VINA RESULT:    -5.401      2.585      6.024
REMARK INTER + INTRA:          -6.342
REMARK INTER:                  -6.685
REMARK INTRA:                   0.343
REMARK UNBOUND:                 0.323
REMARK SMILES O=c1c(O)c(-c2cc(O)c(O)c(O)c2)oc2cc(O)cc(O)c12
REMARK SMILES IDX 5 1 3 2 2 3 1 4 23 5 21 6 20 7 18 8 17 9 16 10 15 11 6 12
REMARK SMILES IDX 7 13 8 14 14 15 10 16 12 17 9 18 11 20 13 22 4 24 22 26
REMARK SMILES IDX 19 28
REMARK H PARENT 9 19 11 21 13 23 4 25 22 27 19 29
REMARK Flexibility Score: inf
ROOT
ATOM      1  C   UNL     1      11.082  -2.751  18.820  1.00  0.00     0.180 A 
ATOM      2  C   UNL     1      10.600  -1.650  18.091  1.00  0.00     0.208 A 
ATOM      3  C   UNL     1       9.214  -1.487  17.940  1.00  0.00     0.238 A 
ATOM      4  O   UNL     1       8.790  -0.530  17.240  1.00  0.00    -0.285 OA
ATOM      5  C   UNL     1       8.326  -2.418  18.531  1.00  0.00     0.111 A 
ATOM      6  C   UNL     1       6.903  -2.329  18.476  1.00  0.00     0.134 A 
ATOM      7  C   UNL     1       6.125  -3.376  18.986  1.00  0.00     0.093 A 
ATOM      8  C   UNL     1       6.718  -4.477  19.606  1.00  0.00     0.123 A 
ATOM      9  C   UNL     1       8.105  -4.545  19.719  1.00  0.00     0.094 A 
ATOM     10  C   UNL     1       8.908  -3.534  19.187  1.00  0.00     0.146 A 
ATOM     11  O   UNL     1      10.227  -3.642  19.307  1.00  0.00    -0.452 OA
ENDROOT
BRANCH   1  12
ATOM     12  C   UNL     1      12.528  -2.975  19.043  1.00  0.00     0.029 A 
ATOM     13  C   UNL     1      13.461  -1.937  18.893  1.00  0.00     0.062 A 
ATOM     14  C   UNL     1      14.821  -2.164  19.132  1.00  0.00     0.162 A 
ATOM     15  C   UNL     1      12.974  -4.235  19.471  1.00  0.00     0.062 A 
ATOM     16  C   UNL     1      15.268  -3.430  19.537  1.00  0.00     0.200 A 
ATOM     17  C   UNL     1      14.331  -4.476  19.712  1.00  0.00     0.162 A 
BRANCH  14  18
ATOM     18  O   UNL     1      15.742  -1.128  18.973  1.00  0.00    -0.504 OA
ATOM     19  H   UNL     1      15.525  -0.304  18.425  1.00  0.00     0.293 HD
ENDBRANCH  14  18
BRANCH  16  20
ATOM     20  O   UNL     1      16.637  -3.604  19.754  1.00  0.00    -0.502 OA
ATOM     21  H   UNL     1      17.137  -3.226  20.546  1.00  0.00     0.293 HD
ENDBRANCH  16  20
BRANCH  17  22
ATOM     22  O   UNL     1      14.701  -5.758  20.124  1.00  0.00    -0.504 OA
ATOM     23  H   UNL     1      14.178  -6.594  19.910  1.00  0.00     0.293 HD
ENDBRANCH  17  22
ENDBRANCH   1  12
BRANCH   2  24
ATOM     24  O   UNL     1      11.494  -0.755  17.497  1.00  0.00    -0.502 OA
ATOM     25  H   UNL     1      11.651   0.177  17.858  1.00  0.00     0.293 HD
ENDBRANCH   2  24
BRANCH   6  26
ATOM     26  O   UNL     1       6.209  -1.230  17.960  1.00  0.00    -0.507 OA
ATOM     27  H   UNL     1       5.332  -0.884  18.318  1.00  0.00     0.293 HD
ENDBRANCH   6  26
BRANCH   8  28
ATOM     28  O   UNL     1       5.936  -5.508  20.124  1.00  0.00    -0.508 OA
ATOM     29  H   UNL     1       6.354  -6.327  20.551  1.00  0.00     0.293 HD
ENDBRANCH   8  28
TORSDOF 7
ENDMDL
MODEL 6
REMARK VINA RESULT:    -5.337      3.213      6.669
REMARK INTER + INTRA:          -6.262
REMARK INTER:                  -6.703
REMARK INTRA:                   0.441
REMARK UNBOUND:                 0.323
REMARK SMILES O=c1c(O)c(-c2cc(O)c(O)c(O)c2)oc2cc(O)cc(O)c12
REMARK SMILES IDX 5 1 3 2 2 3 1 4 23 5 21 6 20 7 18 8 17 9 16 10 15 11 6 12
REMARK SMILES IDX 7 13 8 14 14 15 10 16 12 17 9 18 11 20 13 22 4 24 22 26
REMARK SMILES IDX 19 28
REMARK H PARENT 9 19 11 21 13 23 4 25 22 27 19 29
REMARK Flexibility Score: inf
ROOT
ATOM      1  C   UNL     1      11.639  -3.931  19.644  1.00  0.00     0.180 A 
ATOM      2  C   UNL     1      11.620  -2.539  19.446  1.00  0.00     0.208 A 
ATOM      3  C   UNL     1      12.838  -1.845  19.365  1.00  0.00     0.238 A 
ATOM      4  O   UNL     1      12.813  -0.593  19.243  1.00  0.00    -0.285 OA
ATOM      5  C   UNL     1      14.060  -2.553  19.468  1.00  0.00     0.111 A 
ATOM      6  C   UNL     1      15.352  -1.958  19.361  1.00  0.00     0.134 A 
ATOM      7  C   UNL     1      16.492  -2.733  19.608  1.00  0.00     0.093 A 
ATOM      8  C   UNL     1      16.388  -4.096  19.895  1.00  0.00     0.123 A 
ATOM      9  C   UNL     1      15.133  -4.700  19.943  1.00  0.00     0.094 A 
ATOM     10  C   UNL     1      13.976  -3.944  19.737  1.00  0.00     0.146 A 
ATOM     11  O   UNL     1      12.799  -4.556  19.802  1.00  0.00    -0.452 OA
ENDROOT
BRANCH   1  12
ATOM     12  C   UNL     1      10.397  -4.733  19.713  1.00  0.00     0.029 A 
ATOM     13  C   UNL     1       9.134  -4.142  19.550  1.00  0.00     0.062 A 
ATOM     14  C   UNL     1       7.973  -4.922  19.596  1.00  0.00     0.162 A 
ATOM     15  C   UNL     1      10.481  -6.123  19.888  1.00  0.00     0.062 A 
ATOM     16  C   UNL     1       8.058  -6.307  19.793  1.00  0.00     0.200 A 
ATOM     17  C   UNL     1       9.328  -6.914  19.937  1.00  0.00     0.162 A 
BRANCH  14  18
ATOM     18  O   UNL     1       6.722  -4.325  19.440  1.00  0.00    -0.504 OA
ATOM     19  H   UNL     1       6.391  -3.612  20.079  1.00  0.00     0.293 HD
ENDBRANCH  14  18
BRANCH  16  20
ATOM     20  O   UNL     1       6.867  -7.038  19.839  1.00  0.00    -0.502 OA
ATOM     21  H   UNL     1       6.244  -7.056  20.634  1.00  0.00     0.293 HD
ENDBRANCH  16  20
BRANCH  17  22
ATOM     22  O   UNL     1       9.490  -8.289  20.125  1.00  0.00    -0.504 OA
ATOM     23  H   UNL     1       8.785  -8.977  19.909  1.00  0.00     0.293 HD
ENDBRANCH  17  22
ENDBRANCH   1  12
BRANCH   2  24
ATOM     24  O   UNL     1      10.402  -1.857  19.369  1.00  0.00    -0.502 OA
ATOM     25  H   UNL     1      10.251  -0.961  19.816  1.00  0.00     0.293 HD
ENDBRANCH   2  24
BRANCH   6  26
ATOM     26  O   UNL     1      15.571  -0.628  18.990  1.00  0.00    -0.507 OA
ATOM     27  H   UNL     1      16.271  -0.322  18.331  1.00  0.00     0.293 HD
ENDBRANCH   6  26
BRANCH   8  28
ATOM     28  O   UNL     1      17.528  -4.864  20.125  1.00  0.00    -0.508 OA
ATOM     29  H   UNL     1      17.677  -5.339  21.008  1.00  0.00     0.293 HD
ENDBRANCH   8  28
TORSDOF 7
ENDMDL
MODEL 7
REMARK VINA RESULT:    -5.275      1.833      3.768
REMARK INTER + INTRA:          -6.186
REMARK INTER:                  -6.362
REMARK INTRA:                   0.176
REMARK UNBOUND:                 0.323
REMARK SMILES O=c1c(O)c(-c2cc(O)c(O)c(O)c2)oc2cc(O)cc(O)c12
REMARK SMILES IDX 5 1 3 2 2 3 1 4 23 5 21 6 20 7 18 8 17 9 16 10 15 11 6 12
REMARK SMILES IDX 7 13 8 14 14 15 10 16 12 17 9 18 11 20 13 22 4 24 22 26
REMARK SMILES IDX 19 28
REMARK H PARENT 9 19 11 21 13 23 4 25 22 27 19 29
REMARK Flexibility Score: inf
ROOT
ATOM      1  C   UNL     1      10.240  -1.341  19.246  1.00  0.00     0.180 A 
ATOM      2  C   UNL     1       9.799  -2.651  19.506  1.00  0.00     0.208 A 
ATOM      3  C   UNL     1      10.749  -3.676  19.639  1.00  0.00     0.238 A 
ATOM      4  O   UNL     1      10.346  -4.855  19.816  1.00  0.00    -0.285 OA
ATOM      5  C   UNL     1      12.129  -3.377  19.525  1.00  0.00     0.111 A 
ATOM      6  C   UNL     1      13.179  -4.330  19.682  1.00  0.00     0.134 A 
ATOM      7  C   UNL     1      14.501  -3.948  19.420  1.00  0.00     0.093 A 
ATOM      8  C   UNL     1      14.816  -2.634  19.070  1.00  0.00     0.123 A 
ATOM      9  C   UNL     1      13.803  -1.681  18.974  1.00  0.00     0.094 A 
ATOM     10  C   UNL     1      12.471  -2.040  19.193  1.00  0.00     0.146 A 
ATOM     11  O   UNL     1      11.535  -1.105  19.081  1.00  0.00    -0.452 OA
ENDROOT
BRANCH   1  12
ATOM     12  C   UNL     1       9.299  -0.205  19.119  1.00  0.00     0.029 A 
ATOM     13  C   UNL     1       8.039  -0.363  18.521  1.00  0.00     0.062 A 
ATOM     14  C   UNL     1       7.155   0.719  18.432  1.00  0.00     0.162 A 
ATOM     15  C   UNL     1       9.647   1.042  19.659  1.00  0.00     0.062 A 
ATOM     16  C   UNL     1       7.513   1.971  18.951  1.00  0.00     0.200 A 
ATOM     17  C   UNL     1       8.772   2.132  19.575  1.00  0.00     0.162 A 
BRANCH  14  18
ATOM     18  O   UNL     1       5.908   0.556  17.828  1.00  0.00    -0.504 OA
ATOM     19  H   UNL     1       5.270   1.334  17.709  1.00  0.00     0.293 HD
ENDBRANCH  14  18
BRANCH  16  20
ATOM     20  O   UNL     1       6.596   3.019  18.828  1.00  0.00    -0.502 OA
ATOM     21  H   UNL     1       5.700   3.044  19.294  1.00  0.00     0.293 HD
ENDBRANCH  16  20
BRANCH  17  22
ATOM     22  O   UNL     1       9.192   3.346  20.125  1.00  0.00    -0.504 OA
ATOM     23  H   UNL     1       8.936   4.251  19.761  1.00  0.00     0.293 HD
ENDBRANCH  17  22
ENDBRANCH   1  12
BRANCH   2  24
ATOM     24  O   UNL     1       8.431  -2.928  19.592  1.00  0.00    -0.502 OA
ATOM     25  H   UNL     1       7.974  -3.604  18.992  1.00  0.00     0.293 HD
ENDBRANCH   2  24
BRANCH   6  26
ATOM     26  O   UNL     1      12.983  -5.644  20.116  1.00  0.00    -0.507 OA
ATOM     27  H   UNL     1      12.887  -5.923  21.081  1.00  0.00     0.293 HD
ENDBRANCH   6  26
BRANCH   8  28
ATOM     28  O   UNL     1      16.135  -2.259  18.826  1.00  0.00    -0.508 OA
ATOM     29  H   UNL     1      16.427  -1.904  17.922  1.00  0.00     0.293 HD
ENDBRANCH   8  28
TORSDOF 7
ENDMDL
MODEL 8
REMARK VINA RESULT:    -5.242      2.446      3.936
REMARK INTER + INTRA:          -6.144
REMARK INTER:                  -6.515
REMARK INTRA:                   0.371
REMARK UNBOUND:                 0.323
REMARK SMILES O=c1c(O)c(-c2cc(O)c(O)c(O)c2)oc2cc(O)cc(O)c12
REMARK SMILES IDX 5 1 3 2 2 3 1 4 23 5 21 6 20 7 18 8 17 9 16 10 15 11 6 12
REMARK SMILES IDX 7 13 8 14 14 15 10 16 12 17 9 18 11 20 13 22 4 24 22 26
REMARK SMILES IDX 19 28
REMARK H PARENT 9 19 11 21 13 23 4 25 22 27 19 29
REMARK Flexibility Score: inf
ROOT
ATOM      1  C   UNL     1      11.154  -1.534  19.007  1.00  0.00     0.180 A 
ATOM      2  C   UNL     1      12.293  -0.712  19.077  1.00  0.00     0.208 A 
ATOM      3  C   UNL     1      13.547  -1.302  19.301  1.00  0.00     0.238 A 
ATOM      4  O   UNL     1      14.554  -0.556  19.418  1.00  0.00    -0.285 OA
ATOM      5  C   UNL     1      13.650  -2.707  19.439  1.00  0.00     0.111 A 
ATOM      6  C   UNL     1      14.874  -3.415  19.629  1.00  0.00     0.134 A 
ATOM      7  C   UNL     1      14.843  -4.792  19.882  1.00  0.00     0.093 A 
ATOM      8  C   UNL     1      13.638  -5.497  19.888  1.00  0.00     0.123 A 
ATOM      9  C   UNL     1      12.442  -4.825  19.643  1.00  0.00     0.094 A 
ATOM     10  C   UNL     1      12.437  -3.445  19.424  1.00  0.00     0.146 A 
ATOM     11  O   UNL     1      11.275  -2.841  19.205  1.00  0.00    -0.452 OA
ENDROOT
BRANCH   1  12
ATOM     12  C   UNL     1       9.803  -0.988  18.748  1.00  0.00     0.029 A 
ATOM     13  C   UNL     1       9.518   0.375  18.932  1.00  0.00     0.062 A 
ATOM     14  C   UNL     1       8.240   0.876  18.658  1.00  0.00     0.162 A 
ATOM     15  C   UNL     1       8.800  -1.833  18.252  1.00  0.00     0.062 A 
ATOM     16  C   UNL     1       7.231   0.025  18.185  1.00  0.00     0.200 A 
ATOM     17  C   UNL     1       7.517  -1.345  17.975  1.00  0.00     0.162 A 
BRANCH  14  18
ATOM     18  O   UNL     1       7.962   2.229  18.851  1.00  0.00    -0.504 OA
ATOM     19  H   UNL     1       7.853   2.865  18.070  1.00  0.00     0.293 HD
ENDBRANCH  14  18
BRANCH  16  20
ATOM     20  O   UNL     1       5.972   0.575  17.935  1.00  0.00    -0.502 OA
ATOM     21  H   UNL     1       5.230   0.627  18.619  1.00  0.00     0.293 HD
ENDBRANCH  16  20
BRANCH  17  22
ATOM     22  O   UNL     1       6.568  -2.249  17.495  1.00  0.00    -0.504 OA
ATOM     23  H   UNL     1       6.363  -3.138  17.927  1.00  0.00     0.293 HD
ENDBRANCH  17  22
ENDBRANCH   1  12
BRANCH   2  24
ATOM     24  O   UNL     1      12.165   0.675  18.961  1.00  0.00    -0.502 OA
ATOM     25  H   UNL     1      11.447   1.198  19.447  1.00  0.00     0.293 HD
ENDBRANCH   2  24
BRANCH   6  26
ATOM     26  O   UNL     1      16.138  -2.823  19.552  1.00  0.00    -0.507 OA
ATOM     27  H   UNL     1      16.589  -2.538  18.696  1.00  0.00     0.293 HD
ENDBRANCH   6  26
BRANCH   8  28
ATOM     28  O   UNL     1      13.617  -6.869  20.125  1.00  0.00    -0.508 OA
ATOM     29  H   UNL     1      13.281  -7.250  21.003  1.00  0.00     0.293 HD
ENDBRANCH   8  28
TORSDOF 7
ENDMDL
MODEL 9
REMARK VINA RESULT:    -5.214      2.702      6.942
REMARK INTER + INTRA:          -6.110
REMARK INTER:                  -6.555
REMARK INTRA:                   0.445
REMARK UNBOUND:                 0.323
REMARK SMILES O=c1c(O)c(-c2cc(O)c(O)c(O)c2)oc2cc(O)cc(O)c12
REMARK SMILES IDX 5 1 3 2 2 3 1 4 23 5 21 6 20 7 18 8 17 9 16 10 15 11 6 12
REMARK SMILES IDX 7 13 8 14 14 15 10 16 12 17 9 18 11 20 13 22 4 24 22 26
REMARK SMILES IDX 19 28
REMARK H PARENT 9 19 11 21 13 23 4 25 22 27 19 29
REMARK Flexibility Score: inf
ROOT
ATOM      1  C   UNL     1      12.257  -1.951  19.296  1.00  0.00     0.180 A 
ATOM      2  C   UNL     1      12.482  -0.572  19.457  1.00  0.00     0.208 A 
ATOM      3  C   UNL     1      11.422   0.322  19.242  1.00  0.00     0.238 A 
ATOM      4  O   UNL     1      11.644   1.557  19.334  1.00  0.00    -0.285 OA
ATOM      5  C   UNL     1      10.145  -0.174  18.882  1.00  0.00     0.111 A 
ATOM      6  C   UNL     1       8.989   0.638  18.677  1.00  0.00     0.134 A 
ATOM      7  C   UNL     1       7.811   0.052  18.198  1.00  0.00     0.093 A 
ATOM      8  C   UNL     1       7.728  -1.324  17.977  1.00  0.00     0.123 A 
ATOM      9  C   UNL     1       8.833  -2.133  18.231  1.00  0.00     0.094 A 
ATOM     10  C   UNL     1      10.034  -1.573  18.675  1.00  0.00     0.146 A 
ATOM     11  O   UNL     1      11.066  -2.379  18.895  1.00  0.00    -0.452 OA
ENDROOT
BRANCH   1  12
ATOM     12  C   UNL     1      13.319  -2.955  19.531  1.00  0.00     0.029 A 
ATOM     13  C   UNL     1      13.016  -4.316  19.691  1.00  0.00     0.062 A 
ATOM     14  C   UNL     1      14.038  -5.252  19.888  1.00  0.00     0.162 A 
ATOM     15  C   UNL     1      14.663  -2.550  19.537  1.00  0.00     0.062 A 
ATOM     16  C   UNL     1      15.379  -4.843  19.916  1.00  0.00     0.200 A 
ATOM     17  C   UNL     1      15.694  -3.476  19.734  1.00  0.00     0.162 A 
BRANCH  14  18
ATOM     18  O   UNL     1      13.728  -6.602  20.053  1.00  0.00    -0.504 OA
ATOM     19  H   UNL     1      12.770  -6.920  20.141  1.00  0.00     0.293 HD
ENDBRANCH  14  18
BRANCH  16  20
ATOM     20  O   UNL     1      16.358  -5.818  20.124  1.00  0.00    -0.502 OA
ATOM     21  H   UNL     1      17.081  -6.046  19.456  1.00  0.00     0.293 HD
ENDBRANCH  16  20
BRANCH  17  22
ATOM     22  O   UNL     1      17.005  -2.996  19.738  1.00  0.00    -0.504 OA
ATOM     23  H   UNL     1      17.315  -2.189  19.218  1.00  0.00     0.293 HD
ENDBRANCH  17  22
ENDBRANCH   1  12
BRANCH   2  24
ATOM     24  O   UNL     1      13.757  -0.103  19.791  1.00  0.00    -0.502 OA
ATOM     25  H   UNL     1      14.603  -0.595  19.531  1.00  0.00     0.293 HD
ENDBRANCH   2  24
BRANCH   6  26
ATOM     26  O   UNL     1       8.938   2.007  18.955  1.00  0.00    -0.507 OA
ATOM     27  H   UNL     1       8.351   2.670  18.472  1.00  0.00     0.293 HD
ENDBRANCH   6  26
BRANCH   8  28
ATOM     28  O   UNL     1       6.547  -1.900  17.515  1.00  0.00    -0.508 OA
ATOM     29  H   UNL     1       6.556  -2.668  16.852  1.00  0.00     0.293 HD
ENDBRANCH   8  28
TORSDOF 7
ENDMDL
