MODEL 1
REMARK VINA RESULT:    -4.609      0.000      0.000
REMARK INTER + INTRA:         -10.110
REMARK INTER:                  -8.381
REMARK INTRA:                  -1.729
REMARK UNBOUND:                -1.729
REMARK SMILES CCCCCCCCCCCCCCCC(=O)[O-]
REMARK SMILES IDX 9 1 10 2 11 3 12 4 13 5 14 6 15 7 16 8 17 9 18 10 8 11 7 12
REMARK SMILES IDX 6 13 5 14 4 15 3 16 2 17 1 18
REMARK H PARENT
REMARK Flexibility Score: inf
ROOT
ATOM      1  C   UNL     1     -22.626  16.387 -22.291  1.00  0.00     0.000 C 
ENDROOT
BRANCH   1   2
ATOM      2  C   UNL     1     -21.135  16.732 -22.173  1.00  0.00     0.000 C 
BRANCH   2   3
ATOM      3  C   UNL     1     -20.240  15.488 -22.017  1.00  0.00     0.000 C 
BRANCH   3   4
ATOM      4  C   UNL     1     -20.925  14.144 -22.323  1.00  0.00     0.000 C 
BRANCH   4   5
ATOM      5  C   UNL     1     -20.906  13.176 -21.128  1.00  0.00     0.000 C 
BRANCH   5   6
ATOM      6  C   UNL     1     -21.421  13.826 -19.829  1.00  0.00     0.006 C 
BRANCH   6   7
ATOM      7  C   UNL     1     -22.750  13.249 -19.313  1.00  0.00     0.053 C 
BRANCH   7   8
ATOM      8  C   UNL     1     -23.933  13.877 -19.983  1.00  0.00     0.041 C 
ATOM      9  O   UNL     1     -24.426  13.355 -21.017  1.00  0.00    -0.550 OA
ATOM     10  O   UNL     1     -24.512  15.020 -19.445  1.00  0.00    -0.550 OA
ENDBRANCH   7   8
ENDBRANCH   6   7
ENDBRANCH   5   6
ENDBRANCH   4   5
ENDBRANCH   3   4
ENDBRANCH   2   3
ENDBRANCH   1   2
BRANCH   1  11
ATOM     11  C   UNL     1     -23.498  17.623 -22.039  1.00  0.00     0.000 C 
BRANCH  11  12
ATOM     12  C   UNL     1     -22.634  18.859 -21.762  1.00  0.00    -0.000 C 
BRANCH  12  13
ATOM     13  C   UNL     1     -22.937  19.978 -22.765  1.00  0.00    -0.000 C 
BRANCH  13  14
ATOM     14  C   UNL     1     -22.880  19.453 -24.207  1.00  0.00    -0.000 C 
BRANCH  14  15
ATOM     15  C   UNL     1     -21.567  19.813 -24.925  1.00  0.00    -0.000 C 
BRANCH  15  16
ATOM     16  C   UNL     1     -20.721  18.608 -25.383  1.00  0.00    -0.000 C 
BRANCH  16  17
ATOM     17  C   UNL     1     -21.436  17.638 -26.339  1.00  0.00    -0.003 C 
ATOM     18  C   UNL     1     -21.117  17.907 -27.809  1.00  0.00     0.004 C 
ENDBRANCH  16  17
ENDBRANCH  15  16
ENDBRANCH  14  15
ENDBRANCH  13  14
ENDBRANCH  12  13
ENDBRANCH  11  12
ENDBRANCH   1  11
TORSDOF 14
ENDMDL
MODEL 2
REMARK VINA RESULT:    -4.586      4.224      7.097
REMARK INTER + INTRA:         -10.069
REMARK INTER:                  -7.862
REMARK INTRA:                  -2.207
REMARK UNBOUND:                -1.729
REMARK SMILES CCCCCCCCCCCCCCCC(=O)[O-]
REMARK SMILES IDX 9 1 10 2 11 3 12 4 13 5 14 6 15 7 16 8 17 9 18 10 8 11 7 12
REMARK SMILES IDX 6 13 5 14 4 15 3 16 2 17 1 18
REMARK H PARENT
REMARK Flexibility Score: inf
ROOT
ATOM      1  C   UNL     1     -20.201  17.037 -23.541  1.00  0.00     0.000 C 
ENDROOT
BRANCH   1   2
ATOM      2  C   UNL     1     -20.994  16.506 -24.744  1.00  0.00     0.000 C 
BRANCH   2   3
ATOM      3  C   UNL     1     -21.857  17.587 -25.421  1.00  0.00     0.000 C 
BRANCH   3   4
ATOM      4  C   UNL     1     -21.299  19.020 -25.336  1.00  0.00     0.000 C 
BRANCH   4   5
ATOM      5  C   UNL     1     -22.376  20.062 -24.987  1.00  0.00     0.000 C 
BRANCH   5   6
ATOM      6  C   UNL     1     -21.822  21.499 -24.949  1.00  0.00     0.006 C 
BRANCH   6   7
ATOM      7  C   UNL     1     -22.845  22.563 -24.519  1.00  0.00     0.053 C 
BRANCH   7   8
ATOM      8  C   UNL     1     -22.265  23.944 -24.545  1.00  0.00     0.041 C 
ATOM      9  O   UNL     1     -21.109  24.137 -25.002  1.00  0.00    -0.550 OA
ATOM     10  O   UNL     1     -23.016  25.023 -24.092  1.00  0.00    -0.550 OA
ENDBRANCH   7   8
ENDBRANCH   6   7
ENDBRANCH   5   6
ENDBRANCH   4   5
ENDBRANCH   3   4
ENDBRANCH   2   3
ENDBRANCH   1   2
BRANCH   1  11
ATOM     11  C   UNL     1     -20.320  16.089 -22.342  1.00  0.00     0.000 C 
BRANCH  11  12
ATOM     12  C   UNL     1     -21.662  15.346 -22.359  1.00  0.00    -0.000 C 
BRANCH  12  13
ATOM     13  C   UNL     1     -22.704  16.074 -21.501  1.00  0.00    -0.000 C 
BRANCH  13  14
ATOM     14  C   UNL     1     -23.798  16.699 -22.379  1.00  0.00    -0.000 C 
BRANCH  14  15
ATOM     15  C   UNL     1     -24.003  18.200 -22.104  1.00  0.00    -0.000 C 
BRANCH  15  16
ATOM     16  C   UNL     1     -22.755  18.946 -21.590  1.00  0.00    -0.000 C 
BRANCH  16  17
ATOM     17  C   UNL     1     -22.968  20.440 -21.291  1.00  0.00    -0.003 C 
ATOM     18  C   UNL     1     -24.409  20.893 -21.519  1.00  0.00     0.004 C 
ENDBRANCH  16  17
ENDBRANCH  15  16
ENDBRANCH  14  15
ENDBRANCH  13  14
ENDBRANCH  12  13
ENDBRANCH  11  12
ENDBRANCH   1  11
TORSDOF 14
ENDMDL
MODEL 3
REMARK VINA RESULT:    -4.565      4.784      7.702
REMARK INTER + INTRA:         -10.030
REMARK INTER:                  -8.085
REMARK INTRA:                  -1.945
REMARK UNBOUND:                -1.729
REMARK SMILES CCCCCCCCCCCCCCCC(=O)[O-]
REMARK SMILES IDX 9 1 10 2 11 3 12 4 13 5 14 6 15 7 16 8 17 9 18 10 8 11 7 12
REMARK SMILES IDX 6 13 5 14 4 15 3 16 2 17 1 18
REMARK H PARENT
REMARK Flexibility Score: inf
ROOT
ATOM      1  C   UNL     1     -20.966  17.368 -24.023  1.00  0.00     0.000 C 
ENDROOT
BRANCH   1   2
ATOM      2  C   UNL     1     -20.309  18.335 -25.018  1.00  0.00     0.000 C 
BRANCH   2   3
ATOM      3  C   UNL     1     -21.321  18.998 -25.971  1.00  0.00     0.000 C 
BRANCH   3   4
ATOM      4  C   UNL     1     -21.512  20.513 -25.776  1.00  0.00     0.000 C 
BRANCH   4   5
ATOM      5  C   UNL     1     -22.327  20.856 -24.518  1.00  0.00     0.000 C 
BRANCH   5   6
ATOM      6  C   UNL     1     -23.080  22.194 -24.644  1.00  0.00     0.006 C 
BRANCH   6   7
ATOM      7  C   UNL     1     -22.170  23.420 -24.832  1.00  0.00     0.053 C 
BRANCH   7   8
ATOM      8  C   UNL     1     -22.943  24.637 -25.241  1.00  0.00     0.041 C 
ATOM      9  O   UNL     1     -23.900  25.046 -24.534  1.00  0.00    -0.550 OA
ATOM     10  O   UNL     1     -22.584  25.337 -26.386  1.00  0.00    -0.550 OA
ENDBRANCH   7   8
ENDBRANCH   6   7
ENDBRANCH   5   6
ENDBRANCH   4   5
ENDBRANCH   3   4
ENDBRANCH   2   3
ENDBRANCH   1   2
BRANCH   1  11
ATOM     11  C   UNL     1     -22.421  17.081 -24.415  1.00  0.00     0.000 C 
BRANCH  11  12
ATOM     12  C   UNL     1     -23.388  17.550 -23.322  1.00  0.00    -0.000 C 
BRANCH  12  13
ATOM     13  C   UNL     1     -22.652  17.775 -21.995  1.00  0.00    -0.000 C 
BRANCH  13  14
ATOM     14  C   UNL     1     -22.838  19.217 -21.501  1.00  0.00    -0.000 C 
BRANCH  14  15
ATOM     15  C   UNL     1     -24.302  19.689 -21.570  1.00  0.00    -0.000 C 
BRANCH  15  16
ATOM     16  C   UNL     1     -24.508  21.207 -21.395  1.00  0.00    -0.000 C 
BRANCH  16  17
ATOM     17  C   UNL     1     -23.333  21.952 -20.739  1.00  0.00    -0.003 C 
ATOM     18  C   UNL     1     -23.233  23.412 -21.178  1.00  0.00     0.004 C 
ENDBRANCH  16  17
ENDBRANCH  15  16
ENDBRANCH  14  15
ENDBRANCH  13  14
ENDBRANCH  12  13
ENDBRANCH  11  12
ENDBRANCH   1  11
TORSDOF 14
ENDMDL
MODEL 4
REMARK VINA RESULT:    -4.565      1.917      4.465
REMARK INTER + INTRA:         -10.030
REMARK INTER:                  -7.985
REMARK INTRA:                  -2.044
REMARK UNBOUND:                -1.729
REMARK SMILES CCCCCCCCCCCCCCCC(=O)[O-]
REMARK SMILES IDX 9 1 10 2 11 3 12 4 13 5 14 6 15 7 16 8 17 9 18 10 8 11 7 12
REMARK SMILES IDX 6 13 5 14 4 15 3 16 2 17 1 18
REMARK H PARENT
REMARK Flexibility Score: inf
ROOT
ATOM      1  C   UNL     1     -22.314  20.800 -24.941  1.00  0.00     0.000 C 
ENDROOT
BRANCH   1   2
ATOM      2  C   UNL     1     -21.105  19.926 -25.302  1.00  0.00     0.000 C 
BRANCH   2   3
ATOM      3  C   UNL     1     -21.470  18.740 -26.214  1.00  0.00     0.000 C 
BRANCH   3   4
ATOM      4  C   UNL     1     -21.284  17.347 -25.584  1.00  0.00     0.000 C 
BRANCH   4   5
ATOM      5  C   UNL     1     -20.683  17.406 -24.168  1.00  0.00     0.000 C 
BRANCH   5   6
ATOM      6  C   UNL     1     -20.882  16.095 -23.384  1.00  0.00     0.006 C 
BRANCH   6   7
ATOM      7  C   UNL     1     -20.778  16.246 -21.857  1.00  0.00     0.053 C 
BRANCH   7   8
ATOM      8  C   UNL     1     -21.604  15.228 -21.133  1.00  0.00     0.041 C 
ATOM      9  O   UNL     1     -22.854  15.209 -21.276  1.00  0.00    -0.550 OA
ATOM     10  O   UNL     1     -20.988  14.279 -20.325  1.00  0.00    -0.550 OA
ENDBRANCH   7   8
ENDBRANCH   6   7
ENDBRANCH   5   6
ENDBRANCH   4   5
ENDBRANCH   3   4
ENDBRANCH   2   3
ENDBRANCH   1   2
BRANCH   1  11
ATOM     11  C   UNL     1     -21.908  22.273 -24.809  1.00  0.00     0.000 C 
BRANCH  11  12
ATOM     12  C   UNL     1     -22.686  22.959 -23.680  1.00  0.00    -0.000 C 
BRANCH  12  13
ATOM     13  C   UNL     1     -23.713  22.003 -23.059  1.00  0.00    -0.000 C 
BRANCH  13  14
ATOM     14  C   UNL     1     -23.696  22.098 -21.527  1.00  0.00    -0.000 C 
BRANCH  14  15
ATOM     15  C   UNL     1     -23.116  20.840 -20.855  1.00  0.00    -0.000 C 
BRANCH  15  16
ATOM     16  C   UNL     1     -22.800  19.674 -21.813  1.00  0.00    -0.000 C 
BRANCH  16  17
ATOM     17  C   UNL     1     -23.788  18.497 -21.752  1.00  0.00    -0.003 C 
ATOM     18  C   UNL     1     -24.167  17.966 -23.134  1.00  0.00     0.004 C 
ENDBRANCH  16  17
ENDBRANCH  15  16
ENDBRANCH  14  15
ENDBRANCH  13  14
ENDBRANCH  12  13
ENDBRANCH  11  12
ENDBRANCH   1  11
TORSDOF 14
ENDMDL
MODEL 5
REMARK VINA RESULT:    -4.560      4.309      7.095
REMARK INTER + INTRA:         -10.022
REMARK INTER:                  -8.007
REMARK INTRA:                  -2.015
REMARK UNBOUND:                -1.729
REMARK SMILES CCCCCCCCCCCCCCCC(=O)[O-]
REMARK SMILES IDX 9 1 10 2 11 3 12 4 13 5 14 6 15 7 16 8 17 9 18 10 8 11 7 12
REMARK SMILES IDX 6 13 5 14 4 15 3 16 2 17 1 18
REMARK H PARENT
REMARK Flexibility Score: inf
ROOT
ATOM      1  C   UNL     1     -23.910  18.641 -22.704  1.00  0.00     0.000 C 
ENDROOT
BRANCH   1   2
ATOM      2  C   UNL     1     -22.884  19.018 -21.627  1.00  0.00     0.000 C 
BRANCH   2   3
ATOM      3  C   UNL     1     -22.913  20.515 -21.264  1.00  0.00     0.000 C 
BRANCH   3   4
ATOM      4  C   UNL     1     -23.915  21.365 -22.067  1.00  0.00     0.000 C 
BRANCH   4   5
ATOM      5  C   UNL     1     -23.229  22.379 -22.997  1.00  0.00     0.000 C 
BRANCH   5   6
ATOM      6  C   UNL     1     -23.001  21.825 -24.416  1.00  0.00     0.006 C 
BRANCH   6   7
ATOM      7  C   UNL     1     -21.572  22.017 -24.952  1.00  0.00     0.053 C 
BRANCH   7   8
ATOM      8  C   UNL     1     -21.268  23.455 -25.242  1.00  0.00     0.041 C 
ATOM      9  O   UNL     1     -20.099  23.896 -25.097  1.00  0.00    -0.550 OA
ATOM     10  O   UNL     1     -22.271  24.298 -25.705  1.00  0.00    -0.550 OA
ENDBRANCH   7   8
ENDBRANCH   6   7
ENDBRANCH   5   6
ENDBRANCH   4   5
ENDBRANCH   3   4
ENDBRANCH   2   3
ENDBRANCH   1   2
BRANCH   1  11
ATOM     11  C   UNL     1     -24.322  17.169 -22.580  1.00  0.00     0.000 C 
BRANCH  11  12
ATOM     12  C   UNL     1     -23.865  16.581 -21.240  1.00  0.00    -0.000 C 
BRANCH  12  13
ATOM     13  C   UNL     1     -23.078  15.282 -21.450  1.00  0.00    -0.000 C 
BRANCH  13  14
ATOM     14  C   UNL     1     -21.565  15.538 -21.375  1.00  0.00    -0.000 C 
BRANCH  14  15
ATOM     15  C   UNL     1     -20.886  15.525 -22.756  1.00  0.00    -0.000 C 
BRANCH  15  16
ATOM     16  C   UNL     1     -20.182  16.839 -23.151  1.00  0.00    -0.000 C 
BRANCH  16  17
ATOM     17  C   UNL     1     -20.769  17.546 -24.385  1.00  0.00    -0.003 C 
ATOM     18  C   UNL     1     -21.689  16.644 -25.206  1.00  0.00     0.004 C 
ENDBRANCH  16  17
ENDBRANCH  15  16
ENDBRANCH  14  15
ENDBRANCH  13  14
ENDBRANCH  12  13
ENDBRANCH  11  12
ENDBRANCH   1  11
TORSDOF 14
ENDMDL
MODEL 6
REMARK VINA RESULT:    -4.555      4.127      6.516
REMARK INTER + INTRA:         -10.012
REMARK INTER:                  -8.218
REMARK INTRA:                  -1.794
REMARK UNBOUND:                -1.729
REMARK SMILES CCCCCCCCCCCCCCCC(=O)[O-]
REMARK SMILES IDX 9 1 10 2 11 3 12 4 13 5 14 6 15 7 16 8 17 9 18 10 8 11 7 12
REMARK SMILES IDX 6 13 5 14 4 15 3 16 2 17 1 18
REMARK H PARENT
REMARK Flexibility Score: inf
ROOT
ATOM      1  C   UNL     1     -24.798  16.781 -22.143  1.00  0.00     0.000 C 
ENDROOT
BRANCH   1   2
ATOM      2  C   UNL     1     -24.799  18.296 -22.393  1.00  0.00     0.000 C 
BRANCH   2   3
ATOM      3  C   UNL     1     -24.065  19.087 -21.294  1.00  0.00     0.000 C 
BRANCH   3   4
ATOM      4  C   UNL     1     -23.036  20.114 -21.802  1.00  0.00     0.000 C 
BRANCH   4   5
ATOM      5  C   UNL     1     -22.853  20.073 -23.329  1.00  0.00     0.000 C 
BRANCH   5   6
ATOM      6  C   UNL     1     -22.852  21.476 -23.965  1.00  0.00     0.006 C 
BRANCH   6   7
ATOM      7  C   UNL     1     -21.782  21.682 -25.051  1.00  0.00     0.053 C 
BRANCH   7   8
ATOM      8  C   UNL     1     -21.511  23.133 -25.306  1.00  0.00     0.041 C 
ATOM      9  O   UNL     1     -21.767  23.990 -24.421  1.00  0.00    -0.550 OA
ATOM     10  O   UNL     1     -20.946  23.533 -26.511  1.00  0.00    -0.550 OA
ENDBRANCH   7   8
ENDBRANCH   6   7
ENDBRANCH   5   6
ENDBRANCH   4   5
ENDBRANCH   3   4
ENDBRANCH   2   3
ENDBRANCH   1   2
BRANCH   1  11
ATOM     11  C   UNL     1     -23.617  16.370 -21.256  1.00  0.00     0.000 C 
BRANCH  11  12
ATOM     12  C   UNL     1     -22.435  15.886 -22.104  1.00  0.00    -0.000 C 
BRANCH  12  13
ATOM     13  C   UNL     1     -21.229  16.821 -21.951  1.00  0.00    -0.000 C 
BRANCH  13  14
ATOM     14  C   UNL     1     -20.310  16.737 -23.179  1.00  0.00    -0.000 C 
BRANCH  14  15
ATOM     15  C   UNL     1     -21.053  16.994 -24.503  1.00  0.00    -0.000 C 
BRANCH  15  16
ATOM     16  C   UNL     1     -20.470  18.127 -25.371  1.00  0.00    -0.000 C 
BRANCH  16  17
ATOM     17  C   UNL     1     -21.314  18.503 -26.601  1.00  0.00    -0.003 C 
ATOM     18  C   UNL     1     -20.834  17.823 -27.883  1.00  0.00     0.004 C 
ENDBRANCH  16  17
ENDBRANCH  15  16
ENDBRANCH  14  15
ENDBRANCH  13  14
ENDBRANCH  12  13
ENDBRANCH  11  12
ENDBRANCH   1  11
TORSDOF 14
ENDMDL
MODEL 7
REMARK VINA RESULT:    -4.528      3.559      5.376
REMARK INTER + INTRA:          -9.964
REMARK INTER:                  -8.481
REMARK INTRA:                  -1.483
REMARK UNBOUND:                -1.729
REMARK SMILES CCCCCCCCCCCCCCCC(=O)[O-]
REMARK SMILES IDX 9 1 10 2 11 3 12 4 13 5 14 6 15 7 16 8 17 9 18 10 8 11 7 12
REMARK SMILES IDX 6 13 5 14 4 15 3 16 2 17 1 18
REMARK H PARENT
REMARK Flexibility Score: inf
ROOT
ATOM      1  C   UNL     1     -23.660  17.145 -22.520  1.00  0.00     0.000 C 
ENDROOT
BRANCH   1   2
ATOM      2  C   UNL     1     -22.899  16.117 -21.672  1.00  0.00     0.000 C 
BRANCH   2   3
ATOM      3  C   UNL     1     -21.389  16.087 -21.972  1.00  0.00     0.000 C 
BRANCH   3   4
ATOM      4  C   UNL     1     -21.017  16.052 -23.466  1.00  0.00     0.000 C 
BRANCH   4   5
ATOM      5  C   UNL     1     -20.052  17.180 -23.869  1.00  0.00     0.000 C 
BRANCH   5   6
ATOM      6  C   UNL     1     -20.667  18.149 -24.897  1.00  0.00     0.006 C 
BRANCH   6   7
ATOM      7  C   UNL     1     -21.582  17.478 -25.935  1.00  0.00     0.053 C 
BRANCH   7   8
ATOM      8  C   UNL     1     -21.138  17.756 -27.339  1.00  0.00     0.041 C 
ATOM      9  O   UNL     1     -21.201  18.924 -27.803  1.00  0.00    -0.550 OA
ATOM     10  O   UNL     1     -20.625  16.730 -28.123  1.00  0.00    -0.550 OA
ENDBRANCH   7   8
ENDBRANCH   6   7
ENDBRANCH   5   6
ENDBRANCH   4   5
ENDBRANCH   3   4
ENDBRANCH   2   3
ENDBRANCH   1   2
BRANCH   1  11
ATOM     11  C   UNL     1     -24.018  18.385 -21.691  1.00  0.00     0.000 C 
BRANCH  11  12
ATOM     12  C   UNL     1     -22.849  19.376 -21.651  1.00  0.00    -0.000 C 
BRANCH  12  13
ATOM     13  C   UNL     1     -23.224  20.697 -22.334  1.00  0.00    -0.000 C 
BRANCH  13  14
ATOM     14  C   UNL     1     -22.838  20.677 -23.820  1.00  0.00    -0.000 C 
BRANCH  14  15
ATOM     15  C   UNL     1     -22.703  22.087 -24.424  1.00  0.00    -0.000 C 
BRANCH  15  16
ATOM     16  C   UNL     1     -21.482  22.291 -25.342  1.00  0.00    -0.000 C 
BRANCH  16  17
ATOM     17  C   UNL     1     -21.032  23.752 -25.511  1.00  0.00    -0.003 C 
ATOM     18  C   UNL     1     -20.565  24.387 -24.202  1.00  0.00     0.004 C 
ENDBRANCH  16  17
ENDBRANCH  15  16
ENDBRANCH  14  15
ENDBRANCH  13  14
ENDBRANCH  12  13
ENDBRANCH  11  12
ENDBRANCH   1  11
TORSDOF 14
ENDMDL
MODEL 8
REMARK VINA RESULT:    -4.490      3.941      5.676
REMARK INTER + INTRA:          -9.893
REMARK INTER:                  -7.889
REMARK INTRA:                  -2.004
REMARK UNBOUND:                -1.729
REMARK SMILES CCCCCCCCCCCCCCCC(=O)[O-]
REMARK SMILES IDX 9 1 10 2 11 3 12 4 13 5 14 6 15 7 16 8 17 9 18 10 8 11 7 12
REMARK SMILES IDX 6 13 5 14 4 15 3 16 2 17 1 18
REMARK H PARENT
REMARK Flexibility Score: inf
ROOT
ATOM      1  C   UNL     1     -24.397  20.492 -21.379  1.00  0.00     0.000 C 
ENDROOT
BRANCH   1   2
ATOM      2  C   UNL     1     -22.908  20.128 -21.293  1.00  0.00     0.000 C 
BRANCH   2   3
ATOM      3  C   UNL     1     -22.569  18.808 -22.010  1.00  0.00     0.000 C 
BRANCH   3   4
ATOM      4  C   UNL     1     -23.702  17.765 -22.035  1.00  0.00     0.000 C 
BRANCH   4   5
ATOM      5  C   UNL     1     -24.137  17.388 -23.462  1.00  0.00     0.000 C 
BRANCH   5   6
ATOM      6  C   UNL     1     -23.335  18.134 -24.545  1.00  0.00     0.006 C 
BRANCH   6   7
ATOM      7  C   UNL     1     -22.417  17.235 -25.390  1.00  0.00     0.053 C 
BRANCH   7   8
ATOM      8  C   UNL     1     -21.198  17.964 -25.867  1.00  0.00     0.041 C 
ATOM      9  O   UNL     1     -21.147  18.411 -27.042  1.00  0.00    -0.550 OA
ATOM     10  O   UNL     1     -20.133  18.179 -25.001  1.00  0.00    -0.550 OA
ENDBRANCH   7   8
ENDBRANCH   6   7
ENDBRANCH   5   6
ENDBRANCH   4   5
ENDBRANCH   3   4
ENDBRANCH   2   3
ENDBRANCH   1   2
BRANCH   1  11
ATOM     11  C   UNL     1     -24.617  21.980 -21.077  1.00  0.00     0.000 C 
BRANCH  11  12
ATOM     12  C   UNL     1     -23.507  22.528 -20.173  1.00  0.00    -0.000 C 
BRANCH  12  13
ATOM     13  C   UNL     1     -22.847  23.762 -20.800  1.00  0.00    -0.000 C 
BRANCH  13  14
ATOM     14  C   UNL     1     -23.515  24.124 -22.134  1.00  0.00    -0.000 C 
BRANCH  14  15
ATOM     15  C   UNL     1     -22.506  24.291 -23.285  1.00  0.00    -0.000 C 
BRANCH  15  16
ATOM     16  C   UNL     1     -22.926  23.648 -24.622  1.00  0.00    -0.000 C 
BRANCH  16  17
ATOM     17  C   UNL     1     -23.129  22.123 -24.575  1.00  0.00    -0.003 C 
ATOM     18  C   UNL     1     -21.863  21.343 -24.926  1.00  0.00     0.004 C 
ENDBRANCH  16  17
ENDBRANCH  15  16
ENDBRANCH  14  15
ENDBRANCH  13  14
ENDBRANCH  12  13
ENDBRANCH  11  12
ENDBRANCH   1  11
TORSDOF 14
ENDMDL
MODEL 9
REMARK VINA RESULT:    -4.445      5.996      9.752
REMARK INTER + INTRA:          -9.811
REMARK INTER:                  -8.246
REMARK INTRA:                  -1.565
REMARK UNBOUND:                -1.729
REMARK SMILES CCCCCCCCCCCCCCCC(=O)[O-]
REMARK SMILES IDX 9 1 10 2 11 3 12 4 13 5 14 6 15 7 16 8 17 9 18 10 8 11 7 12
REMARK SMILES IDX 6 13 5 14 4 15 3 16 2 17 1 18
REMARK H PARENT
REMARK Flexibility Score: inf
ROOT
ATOM      1  C   UNL     1     -21.732  21.956 -25.018  1.00  0.00     0.000 C 
ENDROOT
BRANCH   1   2
ATOM      2  C   UNL     1     -22.641  23.074 -24.488  1.00  0.00     0.000 C 
BRANCH   2   3
ATOM      3  C   UNL     1     -21.873  24.366 -24.152  1.00  0.00     0.000 C 
BRANCH   3   4
ATOM      4  C   UNL     1     -22.372  25.632 -24.872  1.00  0.00     0.000 C 
BRANCH   4   5
ATOM      5  C   UNL     1     -23.124  25.321 -26.178  1.00  0.00     0.000 C 
BRANCH   5   6
ATOM      6  C   UNL     1     -22.324  25.718 -27.433  1.00  0.00     0.006 C 
BRANCH   6   7
ATOM      7  C   UNL     1     -20.937  26.314 -27.142  1.00  0.00     0.053 C 
BRANCH   7   8
ATOM      8  C   UNL     1     -19.830  25.395 -27.560  1.00  0.00     0.041 C 
ATOM      9  O   UNL     1     -19.820  24.199 -27.170  1.00  0.00    -0.550 OA
ATOM     10  O   UNL     1     -18.828  25.854 -28.406  1.00  0.00    -0.550 OA
ENDBRANCH   7   8
ENDBRANCH   6   7
ENDBRANCH   5   6
ENDBRANCH   4   5
ENDBRANCH   3   4
ENDBRANCH   2   3
ENDBRANCH   1   2
BRANCH   1  11
ATOM     11  C   UNL     1     -22.435  20.595 -24.945  1.00  0.00     0.000 C 
BRANCH  11  12
ATOM     12  C   UNL     1     -21.447  19.451 -25.201  1.00  0.00    -0.000 C 
BRANCH  12  13
ATOM     13  C   UNL     1     -22.046  18.103 -24.781  1.00  0.00    -0.000 C 
BRANCH  13  14
ATOM     14  C   UNL     1     -21.805  17.836 -23.288  1.00  0.00    -0.000 C 
BRANCH  14  15
ATOM     15  C   UNL     1     -23.109  17.592 -22.505  1.00  0.00    -0.000 C 
BRANCH  15  16
ATOM     16  C   UNL     1     -23.767  18.858 -21.921  1.00  0.00    -0.000 C 
BRANCH  16  17
ATOM     17  C   UNL     1     -22.793  19.861 -21.279  1.00  0.00    -0.003 C 
ATOM     18  C   UNL     1     -23.345  21.285 -21.239  1.00  0.00     0.004 C 
ENDBRANCH  16  17
ENDBRANCH  15  16
ENDBRANCH  14  15
ENDBRANCH  13  14
ENDBRANCH  12  13
ENDBRANCH  11  12
ENDBRANCH   1  11
TORSDOF 14
ENDMDL
