MODEL 1
REMARK VINA RESULT:     5.878      0.000      0.000
REMARK INTER + INTRA:           6.203
REMARK INTER:                   6.394
REMARK INTRA:                  -0.191
REMARK UNBOUND:                -0.191
REMARK SMILES Cc1ccc(C(C)C)c(O)c1
REMARK SMILES IDX 1 1 2 2 11 3 9 4 5 5 4 6 3 7 10 8 6 10 7 11 8 12
REMARK H PARENT 10 9
REMARK Flexibility Score: inf
ROOT
ATOM      1  C   UNL     1       3.291  42.248  25.063  1.00  0.00     0.044 C 
ATOM      2  C   UNL     1       4.761  42.165  24.775  1.00  0.00    -0.047 A 
ATOM      3  C   UNL     1       5.436  43.263  24.230  1.00  0.00     0.049 A 
ATOM      4  C   UNL     1       6.797  43.185  23.912  1.00  0.00     0.119 A 
ATOM      5  C   UNL     1       7.522  41.993  24.182  1.00  0.00    -0.004 A 
ATOM      6  C   UNL     1       6.810  40.875  24.668  1.00  0.00     0.008 A 
ATOM      7  C   UNL     1       5.449  40.962  24.963  1.00  0.00     0.004 A 
ENDROOT
BRANCH   4   8
ATOM      8  O   UNL     1       7.379  44.305  23.311  1.00  0.00    -0.508 OA
ATOM      9  H   UNL     1       7.513  44.409  22.314  1.00  0.00     0.293 HD
ENDBRANCH   4   8
BRANCH   5  10
ATOM     10  C   UNL     1       9.015  41.883  23.889  1.00  0.00     0.017 C 
ATOM     11  C   UNL     1       9.239  41.249  22.512  1.00  0.00     0.012 C 
ATOM     12  C   UNL     1       9.794  41.116  24.972  1.00  0.00     0.012 C 
ENDBRANCH   5  10
TORSDOF 2
ENDMDL
MODEL 2
REMARK VINA RESULT:     5.927      0.995      4.135
REMARK INTER + INTRA:           6.256
REMARK INTER:                   6.378
REMARK INTRA:                  -0.122
REMARK UNBOUND:                -0.191
REMARK SMILES Cc1ccc(C(C)C)c(O)c1
REMARK SMILES IDX 1 1 2 2 11 3 9 4 5 5 4 6 3 7 10 8 6 10 7 11 8 12
REMARK H PARENT 10 9
REMARK Flexibility Score: inf
ROOT
ATOM      1  C   UNL     1       9.948  41.469  23.601  1.00  0.00     0.044 C 
ATOM      2  C   UNL     1       8.506  41.781  23.875  1.00  0.00    -0.047 A 
ATOM      3  C   UNL     1       7.970  43.020  23.504  1.00  0.00     0.049 A 
ATOM      4  C   UNL     1       6.640  43.344  23.796  1.00  0.00     0.119 A 
ATOM      5  C   UNL     1       5.801  42.393  24.438  1.00  0.00    -0.004 A 
ATOM      6  C   UNL     1       6.378  41.177  24.864  1.00  0.00     0.008 A 
ATOM      7  C   UNL     1       7.710  40.875  24.583  1.00  0.00     0.004 A 
ENDROOT
BRANCH   4   8
ATOM      8  O   UNL     1       6.203  44.626  23.449  1.00  0.00    -0.508 OA
ATOM      9  H   UNL     1       5.584  45.187  24.018  1.00  0.00     0.293 HD
ENDBRANCH   4   8
BRANCH   5  10
ATOM     10  C   UNL     1       4.335  42.692  24.735  1.00  0.00     0.017 C 
ATOM     11  C   UNL     1       3.781  41.678  25.740  1.00  0.00     0.012 C 
ATOM     12  C   UNL     1       3.457  42.743  23.473  1.00  0.00     0.012 C 
ENDBRANCH   5  10
TORSDOF 2
ENDMDL
MODEL 3
REMARK VINA RESULT:     6.519      1.700      4.602
REMARK INTER + INTRA:           6.900
REMARK INTER:                   6.762
REMARK INTRA:                   0.138
REMARK UNBOUND:                -0.191
REMARK SMILES Cc1ccc(C(C)C)c(O)c1
REMARK SMILES IDX 1 1 2 2 11 3 9 4 5 5 4 6 3 7 10 8 6 10 7 11 8 12
REMARK H PARENT 10 9
REMARK Flexibility Score: inf
ROOT
ATOM      1  C   UNL     1      11.064  40.875  23.134  1.00  0.00     0.044 C 
ATOM      2  C   UNL     1       9.752  41.513  23.485  1.00  0.00    -0.047 A 
ATOM      3  C   UNL     1       8.949  40.966  24.492  1.00  0.00     0.049 A 
ATOM      4  C   UNL     1       7.700  41.522  24.797  1.00  0.00     0.119 A 
ATOM      5  C   UNL     1       7.254  42.684  24.111  1.00  0.00    -0.004 A 
ATOM      6  C   UNL     1       8.047  43.180  23.054  1.00  0.00     0.008 A 
ATOM      7  C   UNL     1       9.280  42.604  22.748  1.00  0.00     0.004 A 
ENDROOT
BRANCH   4   8
ATOM      8  O   UNL     1       6.933  40.875  25.770  1.00  0.00    -0.508 OA
ATOM      9  H   UNL     1       6.524  39.959  25.653  1.00  0.00     0.293 HD
ENDBRANCH   4   8
BRANCH   5  10
ATOM     10  C   UNL     1       5.919  43.343  24.444  1.00  0.00     0.017 C 
ATOM     11  C   UNL     1       4.777  42.335  24.287  1.00  0.00     0.012 C 
ATOM     12  C   UNL     1       5.643  44.610  23.617  1.00  0.00     0.012 C 
ENDBRANCH   5  10
TORSDOF 2
ENDMDL
