MODEL 1
REMARK VINA RESULT:    -5.733      0.000      0.000
REMARK INTER + INTRA:          -9.523
REMARK INTER:                  -8.414
REMARK INTRA:                  -1.109
REMARK UNBOUND:                -1.109
REMARK SMILES Cc1cc2c(C(C)C)c(O)c(O)c(C=O)c2c(O)c1-c1c(C)cc2c(C(C)C)c(O)c(O)c(C=O)c2c1O
REMARK SMILES IDX 1 1 2 2 3 3 4 4 16 5 13 6 11 7 9 8 5 9 17 10 19 11 20 12
REMARK SMILES IDX 37 13 21 14 36 15 23 16 22 17 24 18 33 19 25 20 31 21 29 22
REMARK SMILES IDX 38 23 34 25 35 26 26 27 27 28 28 29 32 30 30 32 18 34 6 36
REMARK SMILES IDX 7 37 8 38 14 39 15 40 10 41 12 43
REMARK H PARENT 38 24 32 31 30 33 18 35 10 42 12 44
REMARK Flexibility Score: inf
ROOT
ATOM      1  C   UNL     1     -21.571  37.037  39.626  1.00  0.00     0.045 C 
ATOM      2  C   UNL     1     -20.676  35.829  39.763  1.00  0.00    -0.039 A 
ATOM      3  C   UNL     1     -19.525  35.738  38.979  1.00  0.00     0.013 A 
ATOM      4  C   UNL     1     -18.635  34.645  39.081  1.00  0.00    -0.006 A 
ATOM      5  C   UNL     1     -18.960  33.577  39.971  1.00  0.00     0.039 A 
ATOM      6  C   UNL     1     -18.073  32.464  40.064  1.00  0.00     0.072 A 
ATOM      7  C   UNL     1     -17.005  32.341  39.158  1.00  0.00     0.169 A 
ATOM      8  C   UNL     1     -16.752  33.353  38.216  1.00  0.00     0.162 A 
ATOM      9  C   UNL     1     -17.452  34.577  38.282  1.00  0.00     0.008 A 
ATOM     10  C   UNL     1     -20.184  33.634  40.704  1.00  0.00     0.132 A 
ATOM     11  C   UNL     1     -21.017  34.770  40.619  1.00  0.00     0.031 A 
ENDROOT
BRANCH  11  12
ATOM     12  C   UNL     1     -22.280  34.834  41.399  1.00  0.00     0.031 A 
ATOM     13  C   UNL     1     -22.251  35.191  42.764  1.00  0.00     0.132 A 
ATOM     14  C   UNL     1     -23.498  34.499  40.786  1.00  0.00    -0.039 A 
ATOM     15  C   UNL     1     -23.464  35.302  43.509  1.00  0.00     0.039 A 
ATOM     16  C   UNL     1     -24.673  34.510  41.538  1.00  0.00     0.013 A 
ATOM     17  C   UNL     1     -23.547  34.036  39.350  1.00  0.00     0.045 C 
ATOM     18  C   UNL     1     -24.696  34.943  42.882  1.00  0.00    -0.006 A 
ATOM     19  C   UNL     1     -23.480  35.716  44.873  1.00  0.00     0.072 A 
ATOM     20  C   UNL     1     -25.916  34.978  43.627  1.00  0.00     0.008 A 
ATOM     21  C   UNL     1     -24.658  35.589  45.631  1.00  0.00     0.169 A 
ATOM     22  C   UNL     1     -25.846  35.141  45.028  1.00  0.00     0.162 A 
BRANCH  13  23
ATOM     23  O   UNL     1     -21.017  35.391  43.392  1.00  0.00    -0.507 OA
ATOM     24  H   UNL     1     -20.404  34.640  43.685  1.00  0.00     0.293 HD
ENDBRANCH  13  23
BRANCH  19  25
ATOM     25  C   UNL     1     -22.311  36.369  45.512  1.00  0.00     0.264 C 
ATOM     26  O   UNL     1     -21.518  35.717  46.242  1.00  0.00    -0.298 OA
ENDBRANCH  19  25
BRANCH  20  27
ATOM     27  C   UNL     1     -27.286  34.794  42.949  1.00  0.00     0.017 C 
ATOM     28  C   UNL     1     -28.072  33.652  43.601  1.00  0.00     0.012 C 
ATOM     29  C   UNL     1     -28.125  36.085  42.882  1.00  0.00     0.012 C 
ENDBRANCH  20  27
BRANCH  21  30
ATOM     30  O   UNL     1     -24.635  35.967  46.979  1.00  0.00    -0.504 OA
ATOM     31  H   UNL     1     -23.847  35.820  47.595  1.00  0.00     0.293 HD
ENDBRANCH  21  30
BRANCH  22  32
ATOM     32  O   UNL     1     -26.968  34.841  45.805  1.00  0.00    -0.504 OA
ATOM     33  H   UNL     1     -27.151  33.934  46.211  1.00  0.00     0.293 HD
ENDBRANCH  22  32
ENDBRANCH  11  12
BRANCH  10  34
ATOM     34  O   UNL     1     -20.594  32.544  41.481  1.00  0.00    -0.507 OA
ATOM     35  H   UNL     1     -21.553  32.372  41.754  1.00  0.00     0.293 HD
ENDBRANCH  10  34
BRANCH   9  36
ATOM     36  C   UNL     1     -16.961  35.780  37.455  1.00  0.00     0.017 C 
ATOM     37  C   UNL     1     -16.776  37.015  38.341  1.00  0.00     0.012 C 
ATOM     38  C   UNL     1     -17.842  36.098  36.232  1.00  0.00     0.012 C 
ENDBRANCH   9  36
BRANCH   6  39
ATOM     39  C   UNL     1     -18.181  31.458  41.149  1.00  0.00     0.264 C 
ATOM     40  O   UNL     1     -18.636  30.305  40.925  1.00  0.00    -0.298 OA
ENDBRANCH   6  39
BRANCH   8  41
ATOM     41  O   UNL     1     -15.815  33.157  37.198  1.00  0.00    -0.504 OA
ATOM     42  H   UNL     1     -15.216  33.884  36.832  1.00  0.00     0.293 HD
ENDBRANCH   8  41
BRANCH   7  43
ATOM     43  O   UNL     1     -16.172  31.219  39.246  1.00  0.00    -0.504 OA
ATOM     44  H   UNL     1     -15.382  31.051  38.639  1.00  0.00     0.293 HD
ENDBRANCH   7  43
TORSDOF 11
ENDMDL
MODEL 2
REMARK VINA RESULT:    -5.601      6.079     11.460
REMARK INTER + INTRA:          -9.330
REMARK INTER:                  -8.162
REMARK INTRA:                  -1.168
REMARK UNBOUND:                -1.109
REMARK SMILES Cc1cc2c(C(C)C)c(O)c(O)c(C=O)c2c(O)c1-c1c(C)cc2c(C(C)C)c(O)c(O)c(C=O)c2c1O
REMARK SMILES IDX 1 1 2 2 3 3 4 4 16 5 13 6 11 7 9 8 5 9 17 10 19 11 20 12
REMARK SMILES IDX 37 13 21 14 36 15 23 16 22 17 24 18 33 19 25 20 31 21 29 22
REMARK SMILES IDX 38 23 34 25 35 26 26 27 27 28 28 29 32 30 30 32 18 34 6 36
REMARK SMILES IDX 7 37 8 38 14 39 15 40 10 41 12 43
REMARK H PARENT 38 24 32 31 30 33 18 35 10 42 12 44
REMARK Flexibility Score: inf
ROOT
ATOM      1  C   UNL     1     -17.121  28.290  45.951  1.00  0.00     0.045 C 
ATOM      2  C   UNL     1     -17.738  28.993  44.766  1.00  0.00    -0.039 A 
ATOM      3  C   UNL     1     -18.507  30.138  44.975  1.00  0.00     0.013 A 
ATOM      4  C   UNL     1     -19.089  30.855  43.904  1.00  0.00    -0.006 A 
ATOM      5  C   UNL     1     -18.931  30.351  42.577  1.00  0.00     0.039 A 
ATOM      6  C   UNL     1     -19.532  31.061  41.496  1.00  0.00     0.072 A 
ATOM      7  C   UNL     1     -20.415  32.124  41.759  1.00  0.00     0.169 A 
ATOM      8  C   UNL     1     -20.642  32.549  43.079  1.00  0.00     0.162 A 
ATOM      9  C   UNL     1     -19.859  32.036  44.136  1.00  0.00     0.008 A 
ATOM     10  C   UNL     1     -18.219  29.129  42.379  1.00  0.00     0.132 A 
ATOM     11  C   UNL     1     -17.603  28.477  43.468  1.00  0.00     0.031 A 
ENDROOT
BRANCH  11  12
ATOM     12  C   UNL     1     -16.845  27.216  43.254  1.00  0.00     0.031 A 
ATOM     13  C   UNL     1     -17.466  25.970  43.485  1.00  0.00     0.132 A 
ATOM     14  C   UNL     1     -15.498  27.267  42.861  1.00  0.00    -0.039 A 
ATOM     15  C   UNL     1     -16.763  24.753  43.236  1.00  0.00     0.039 A 
ATOM     16  C   UNL     1     -14.778  26.081  42.713  1.00  0.00     0.013 A 
ATOM     17  C   UNL     1     -14.787  28.588  42.685  1.00  0.00     0.045 C 
ATOM     18  C   UNL     1     -15.388  24.815  42.854  1.00  0.00    -0.006 A 
ATOM     19  C   UNL     1     -17.374  23.476  43.402  1.00  0.00     0.072 A 
ATOM     20  C   UNL     1     -14.641  23.610  42.666  1.00  0.00     0.008 A 
ATOM     21  C   UNL     1     -16.586  22.311  43.374  1.00  0.00     0.169 A 
ATOM     22  C   UNL     1     -15.211  22.391  43.092  1.00  0.00     0.162 A 
BRANCH  13  23
ATOM     23  O   UNL     1     -18.765  25.940  44.005  1.00  0.00    -0.507 OA
ATOM     24  H   UNL     1     -19.116  26.599  44.689  1.00  0.00     0.293 HD
ENDBRANCH  13  23
BRANCH  19  25
ATOM     25  C   UNL     1     -18.844  23.316  43.518  1.00  0.00     0.264 C 
ATOM     26  O   UNL     1     -19.383  23.011  44.615  1.00  0.00    -0.298 OA
ENDBRANCH  19  25
BRANCH  20  27
ATOM     27  C   UNL     1     -13.224  23.620  42.065  1.00  0.00     0.017 C 
ATOM     28  C   UNL     1     -13.234  24.197  40.645  1.00  0.00     0.012 C 
ATOM     29  C   UNL     1     -12.179  24.328  42.948  1.00  0.00     0.012 C 
ENDBRANCH  20  27
BRANCH  21  30
ATOM     30  O   UNL     1     -17.207  21.073  43.578  1.00  0.00    -0.504 OA
ATOM     31  H   UNL     1     -16.720  20.187  43.568  1.00  0.00     0.293 HD
ENDBRANCH  21  30
BRANCH  22  32
ATOM     32  O   UNL     1     -14.390  21.269  43.237  1.00  0.00    -0.504 OA
ATOM     33  H   UNL     1     -13.843  20.867  42.489  1.00  0.00     0.293 HD
ENDBRANCH  22  32
ENDBRANCH  11  12
BRANCH  10  34
ATOM     34  O   UNL     1     -18.162  28.543  41.110  1.00  0.00    -0.507 OA
ATOM     35  H   UNL     1     -17.983  27.560  40.947  1.00  0.00     0.293 HD
ENDBRANCH  10  34
BRANCH   9  36
ATOM     36  C   UNL     1     -19.899  32.721  45.514  1.00  0.00     0.017 C 
ATOM     37  C   UNL     1     -21.235  32.461  46.217  1.00  0.00     0.012 C 
ATOM     38  C   UNL     1     -19.575  34.227  45.473  1.00  0.00     0.012 C 
ENDBRANCH   9  36
BRANCH   6  39
ATOM     39  C   UNL     1     -19.192  30.777  40.080  1.00  0.00     0.264 C 
ATOM     40  O   UNL     1     -18.305  31.438  39.478  1.00  0.00    -0.298 OA
ENDBRANCH   6  39
BRANCH   8  41
ATOM     41  O   UNL     1     -21.650  33.474  43.363  1.00  0.00    -0.504 OA
ATOM     42  H   UNL     1     -22.039  33.622  44.284  1.00  0.00     0.293 HD
ENDBRANCH   8  41
BRANCH   7  43
ATOM     43  O   UNL     1     -21.020  32.779  40.680  1.00  0.00    -0.504 OA
ATOM     44  H   UNL     1     -20.747  33.693  40.346  1.00  0.00     0.293 HD
ENDBRANCH   7  43
TORSDOF 11
ENDMDL
MODEL 3
REMARK VINA RESULT:    -5.552      5.784      9.709
REMARK INTER + INTRA:          -9.258
REMARK INTER:                  -7.761
REMARK INTRA:                  -1.497
REMARK UNBOUND:                -1.109
REMARK SMILES Cc1cc2c(C(C)C)c(O)c(O)c(C=O)c2c(O)c1-c1c(C)cc2c(C(C)C)c(O)c(O)c(C=O)c2c1O
REMARK SMILES IDX 1 1 2 2 3 3 4 4 16 5 13 6 11 7 9 8 5 9 17 10 19 11 20 12
REMARK SMILES IDX 37 13 21 14 36 15 23 16 22 17 24 18 33 19 25 20 31 21 29 22
REMARK SMILES IDX 38 23 34 25 35 26 26 27 27 28 28 29 32 30 30 32 18 34 6 36
REMARK SMILES IDX 7 37 8 38 14 39 15 40 10 41 12 43
REMARK H PARENT 38 24 32 31 30 33 18 35 10 42 12 44
REMARK Flexibility Score: inf
ROOT
ATOM      1  C   UNL     1     -22.137  29.521  41.525  1.00  0.00     0.045 C 
ATOM      2  C   UNL     1     -21.960  30.411  42.731  1.00  0.00    -0.039 A 
ATOM      3  C   UNL     1     -22.382  31.739  42.669  1.00  0.00     0.013 A 
ATOM      4  C   UNL     1     -22.267  32.614  43.774  1.00  0.00    -0.006 A 
ATOM      5  C   UNL     1     -21.643  32.134  44.965  1.00  0.00     0.039 A 
ATOM      6  C   UNL     1     -21.509  33.019  46.075  1.00  0.00     0.072 A 
ATOM      7  C   UNL     1     -21.814  34.383  45.926  1.00  0.00     0.169 A 
ATOM      8  C   UNL     1     -22.334  34.867  44.713  1.00  0.00     0.162 A 
ATOM      9  C   UNL     1     -22.721  33.967  43.696  1.00  0.00     0.008 A 
ATOM     10  C   UNL     1     -21.132  30.801  44.991  1.00  0.00     0.132 A 
ATOM     11  C   UNL     1     -21.321  29.941  43.889  1.00  0.00     0.031 A 
ENDROOT
BRANCH  11  12
ATOM     12  C   UNL     1     -20.805  28.547  43.929  1.00  0.00     0.031 A 
ATOM     13  C   UNL     1     -21.582  27.522  44.507  1.00  0.00     0.132 A 
ATOM     14  C   UNL     1     -19.525  28.261  43.425  1.00  0.00    -0.039 A 
ATOM     15  C   UNL     1     -21.116  26.173  44.507  1.00  0.00     0.039 A 
ATOM     16  C   UNL     1     -19.027  26.961  43.513  1.00  0.00     0.013 A 
ATOM     17  C   UNL     1     -18.642  29.354  42.874  1.00  0.00     0.045 C 
ATOM     18  C   UNL     1     -19.807  25.893  44.009  1.00  0.00    -0.006 A 
ATOM     19  C   UNL     1     -21.897  25.100  45.030  1.00  0.00     0.072 A 
ATOM     20  C   UNL     1     -19.290  24.561  44.061  1.00  0.00     0.008 A 
ATOM     21  C   UNL     1     -21.313  23.835  45.222  1.00  0.00     0.169 A 
ATOM     22  C   UNL     1     -19.989  23.595  44.817  1.00  0.00     0.162 A 
BRANCH  13  23
ATOM     23  O   UNL     1     -22.795  27.849  45.125  1.00  0.00    -0.507 OA
ATOM     24  H   UNL     1     -23.069  27.520  46.042  1.00  0.00     0.293 HD
ENDBRANCH  13  23
BRANCH  19  25
ATOM     25  C   UNL     1     -23.349  25.244  45.302  1.00  0.00     0.264 C 
ATOM     26  O   UNL     1     -23.790  25.297  46.481  1.00  0.00    -0.298 OA
ENDBRANCH  19  25
BRANCH  20  27
ATOM     27  C   UNL     1     -17.974  24.175  43.361  1.00  0.00     0.017 C 
ATOM     28  C   UNL     1     -16.819  24.099  44.365  1.00  0.00     0.012 C 
ATOM     29  C   UNL     1     -18.072  22.885  42.523  1.00  0.00     0.012 C 
ENDBRANCH  20  27
BRANCH  21  30
ATOM     30  O   UNL     1     -22.093  22.811  45.774  1.00  0.00    -0.504 OA
ATOM     31  H   UNL     1     -22.579  22.113  45.228  1.00  0.00     0.293 HD
ENDBRANCH  21  30
BRANCH  22  32
ATOM     32  O   UNL     1     -19.345  22.405  45.164  1.00  0.00    -0.504 OA
ATOM     33  H   UNL     1     -19.684  21.485  44.921  1.00  0.00     0.293 HD
ENDBRANCH  22  32
ENDBRANCH  11  12
BRANCH  10  34
ATOM     34  O   UNL     1     -20.400  30.347  46.095  1.00  0.00    -0.507 OA
ATOM     35  H   UNL     1     -20.118  29.384  46.230  1.00  0.00     0.293 HD
ENDBRANCH  10  34
BRANCH   9  36
ATOM     36  C   UNL     1     -23.565  34.474  42.513  1.00  0.00     0.017 C 
ATOM     37  C   UNL     1     -22.723  35.336  41.568  1.00  0.00     0.012 C 
ATOM     38  C   UNL     1     -24.855  35.205  42.933  1.00  0.00     0.012 C 
ENDBRANCH   9  36
BRANCH   6  39
ATOM     39  C   UNL     1     -21.137  32.536  47.428  1.00  0.00     0.264 C 
ATOM     40  O   UNL     1     -20.003  32.780  47.918  1.00  0.00    -0.298 OA
ENDBRANCH   6  39
BRANCH   8  41
ATOM     41  O   UNL     1     -22.465  36.240  44.494  1.00  0.00    -0.504 OA
ATOM     42  H   UNL     1     -23.115  36.834  44.991  1.00  0.00     0.293 HD
ENDBRANCH   8  41
BRANCH   7  43
ATOM     43  O   UNL     1     -21.637  35.237  47.021  1.00  0.00    -0.504 OA
ATOM     44  H   UNL     1     -22.137  35.149  47.895  1.00  0.00     0.293 HD
ENDBRANCH   7  43
TORSDOF 11
ENDMDL
MODEL 4
REMARK VINA RESULT:    -5.517      2.997      8.891
REMARK INTER + INTRA:          -9.205
REMARK INTER:                  -7.983
REMARK INTRA:                  -1.223
REMARK UNBOUND:                -1.109
REMARK SMILES Cc1cc2c(C(C)C)c(O)c(O)c(C=O)c2c(O)c1-c1c(C)cc2c(C(C)C)c(O)c(O)c(C=O)c2c1O
REMARK SMILES IDX 1 1 2 2 3 3 4 4 16 5 13 6 11 7 9 8 5 9 17 10 19 11 20 12
REMARK SMILES IDX 37 13 21 14 36 15 23 16 22 17 24 18 33 19 25 20 31 21 29 22
REMARK SMILES IDX 38 23 34 25 35 26 26 27 27 28 28 29 32 30 30 32 18 34 6 36
REMARK SMILES IDX 7 37 8 38 14 39 15 40 10 41 12 43
REMARK H PARENT 38 24 32 31 30 33 18 35 10 42 12 44
REMARK Flexibility Score: inf
ROOT
ATOM      1  C   UNL     1     -20.714  33.683  44.482  1.00  0.00     0.045 C 
ATOM      2  C   UNL     1     -21.707  33.777  43.349  1.00  0.00    -0.039 A 
ATOM      3  C   UNL     1     -22.950  34.369  43.575  1.00  0.00     0.013 A 
ATOM      4  C   UNL     1     -23.910  34.509  42.547  1.00  0.00    -0.006 A 
ATOM      5  C   UNL     1     -23.618  33.971  41.257  1.00  0.00     0.039 A 
ATOM      6  C   UNL     1     -24.592  34.094  40.223  1.00  0.00     0.072 A 
ATOM      7  C   UNL     1     -25.881  34.566  40.526  1.00  0.00     0.169 A 
ATOM      8  C   UNL     1     -26.191  35.001  41.826  1.00  0.00     0.162 A 
ATOM      9  C   UNL     1     -25.172  35.135  42.794  1.00  0.00     0.008 A 
ATOM     10  C   UNL     1     -22.381  33.285  41.057  1.00  0.00     0.132 A 
ATOM     11  C   UNL     1     -21.424  33.220  42.091  1.00  0.00     0.031 A 
ENDROOT
BRANCH  11  12
ATOM     12  C   UNL     1     -20.129  32.523  41.871  1.00  0.00     0.031 A 
ATOM     13  C   UNL     1     -20.012  31.144  42.148  1.00  0.00     0.132 A 
ATOM     14  C   UNL     1     -19.012  33.248  41.426  1.00  0.00    -0.039 A 
ATOM     15  C   UNL     1     -18.788  30.457  41.895  1.00  0.00     0.039 A 
ATOM     16  C   UNL     1     -17.787  32.598  41.272  1.00  0.00     0.013 A 
ATOM     17  C   UNL     1     -19.089  34.738  41.199  1.00  0.00     0.045 C 
ATOM     18  C   UNL     1     -17.651  31.204  41.459  1.00  0.00    -0.006 A 
ATOM     19  C   UNL     1     -18.648  29.053  42.108  1.00  0.00     0.072 A 
ATOM     20  C   UNL     1     -16.395  30.551  41.265  1.00  0.00     0.008 A 
ATOM     21  C   UNL     1     -17.373  28.462  42.070  1.00  0.00     0.169 A 
ATOM     22  C   UNL     1     -16.243  29.228  41.734  1.00  0.00     0.162 A 
BRANCH  13  23
ATOM     23  O   UNL     1     -21.097  30.468  42.719  1.00  0.00    -0.507 OA
ATOM     24  H   UNL     1     -21.713  29.852  42.203  1.00  0.00     0.293 HD
ENDBRANCH  13  23
BRANCH  19  25
ATOM     25  C   UNL     1     -19.822  28.163  42.282  1.00  0.00     0.264 C 
ATOM     26  O   UNL     1     -20.091  27.651  43.402  1.00  0.00    -0.298 OA
ENDBRANCH  19  25
BRANCH  20  27
ATOM     27  C   UNL     1     -15.201  31.269  40.609  1.00  0.00     0.017 C 
ATOM     28  C   UNL     1     -15.569  31.782  39.213  1.00  0.00     0.012 C 
ATOM     29  C   UNL     1     -14.597  32.390  41.476  1.00  0.00     0.012 C 
ENDBRANCH  20  27
BRANCH  21  30
ATOM     30  O   UNL     1     -17.260  27.089  42.321  1.00  0.00    -0.504 OA
ATOM     31  H   UNL     1     -17.003  26.405  41.622  1.00  0.00     0.293 HD
ENDBRANCH  21  30
BRANCH  22  32
ATOM     32  O   UNL     1     -14.958  28.696  41.867  1.00  0.00    -0.504 OA
ATOM     33  H   UNL     1     -14.674  27.800  41.497  1.00  0.00     0.293 HD
ENDBRANCH  22  32
ENDBRANCH  11  12
BRANCH  10  34
ATOM     34  O   UNL     1     -22.124  32.634  39.845  1.00  0.00    -0.507 OA
ATOM     35  H   UNL     1     -21.531  31.818  39.756  1.00  0.00     0.293 HD
ENDBRANCH  10  34
BRANCH   9  36
ATOM     36  C   UNL     1     -25.459  35.895  44.101  1.00  0.00     0.017 C 
ATOM     37  C   UNL     1     -24.390  36.961  44.362  1.00  0.00     0.012 C 
ATOM     38  C   UNL     1     -25.645  34.980  45.328  1.00  0.00     0.012 C 
ENDBRANCH   9  36
BRANCH   6  39
ATOM     39  C   UNL     1     -24.271  33.822  38.800  1.00  0.00     0.264 C 
ATOM     40  O   UNL     1     -24.217  34.754  37.955  1.00  0.00    -0.298 OA
ENDBRANCH   6  39
BRANCH   8  41
ATOM     41  O   UNL     1     -27.510  35.295  42.180  1.00  0.00    -0.504 OA
ATOM     42  H   UNL     1     -27.838  35.366  43.134  1.00  0.00     0.293 HD
ENDBRANCH   8  41
BRANCH   7  43
ATOM     43  O   UNL     1     -26.830  34.641  39.500  1.00  0.00    -0.504 OA
ATOM     44  H   UNL     1     -26.981  33.915  38.814  1.00  0.00     0.293 HD
ENDBRANCH   7  43
TORSDOF 11
ENDMDL
MODEL 5
REMARK VINA RESULT:    -5.481      7.886     11.573
REMARK INTER + INTRA:          -9.154
REMARK INTER:                  -7.710
REMARK INTRA:                  -1.444
REMARK UNBOUND:                -1.109
REMARK SMILES Cc1cc2c(C(C)C)c(O)c(O)c(C=O)c2c(O)c1-c1c(C)cc2c(C(C)C)c(O)c(O)c(C=O)c2c1O
REMARK SMILES IDX 1 1 2 2 3 3 4 4 16 5 13 6 11 7 9 8 5 9 17 10 19 11 20 12
REMARK SMILES IDX 37 13 21 14 36 15 23 16 22 17 24 18 33 19 25 20 31 21 29 22
REMARK SMILES IDX 38 23 34 25 35 26 26 27 27 28 28 29 32 30 30 32 18 34 6 36
REMARK SMILES IDX 7 37 8 38 14 39 15 40 10 41 12 43
REMARK H PARENT 38 24 32 31 30 33 18 35 10 42 12 44
REMARK Flexibility Score: inf
ROOT
ATOM      1  C   UNL     1     -19.607  24.764  45.469  1.00  0.00     0.045 C 
ATOM      2  C   UNL     1     -18.332  24.153  44.941  1.00  0.00    -0.039 A 
ATOM      3  C   UNL     1     -17.945  22.887  45.383  1.00  0.00     0.013 A 
ATOM      4  C   UNL     1     -16.776  22.252  44.904  1.00  0.00    -0.006 A 
ATOM      5  C   UNL     1     -15.939  22.958  43.989  1.00  0.00     0.039 A 
ATOM      6  C   UNL     1     -14.749  22.328  43.519  1.00  0.00     0.072 A 
ATOM      7  C   UNL     1     -14.321  21.118  44.094  1.00  0.00     0.169 A 
ATOM      8  C   UNL     1     -15.105  20.479  45.070  1.00  0.00     0.162 A 
ATOM      9  C   UNL     1     -16.406  20.948  45.356  1.00  0.00     0.008 A 
ATOM     10  C   UNL     1     -16.292  24.289  43.610  1.00  0.00     0.132 A 
ATOM     11  C   UNL     1     -17.499  24.864  44.062  1.00  0.00     0.031 A 
ENDROOT
BRANCH  11  12
ATOM     12  C   UNL     1     -17.873  26.242  43.649  1.00  0.00     0.031 A 
ATOM     13  C   UNL     1     -17.417  27.351  44.392  1.00  0.00     0.132 A 
ATOM     14  C   UNL     1     -18.714  26.435  42.541  1.00  0.00    -0.039 A 
ATOM     15  C   UNL     1     -17.732  28.680  43.976  1.00  0.00     0.039 A 
ATOM     16  C   UNL     1     -19.104  27.728  42.191  1.00  0.00     0.013 A 
ATOM     17  C   UNL     1     -19.281  25.262  41.778  1.00  0.00     0.045 C 
ATOM     18  C   UNL     1     -18.602  28.867  42.858  1.00  0.00    -0.006 A 
ATOM     19  C   UNL     1     -17.242  29.827  44.667  1.00  0.00     0.072 A 
ATOM     20  C   UNL     1     -18.988  30.186  42.463  1.00  0.00     0.008 A 
ATOM     21  C   UNL     1     -17.760  31.100  44.368  1.00  0.00     0.169 A 
ATOM     22  C   UNL     1     -18.691  31.262  43.328  1.00  0.00     0.162 A 
BRANCH  13  23
ATOM     23  O   UNL     1     -16.693  27.134  45.570  1.00  0.00    -0.507 OA
ATOM     24  H   UNL     1     -16.787  26.308  46.147  1.00  0.00     0.293 HD
ENDBRANCH  13  23
BRANCH  19  25
ATOM     25  C   UNL     1     -16.128  29.742  45.642  1.00  0.00     0.264 C 
ATOM     26  O   UNL     1     -16.332  29.874  46.878  1.00  0.00    -0.298 OA
ENDBRANCH  19  25
BRANCH  20  27
ATOM     27  C   UNL     1     -19.757  30.448  41.155  1.00  0.00     0.017 C 
ATOM     28  C   UNL     1     -21.237  30.726  41.435  1.00  0.00     0.012 C 
ATOM     29  C   UNL     1     -19.136  31.554  40.281  1.00  0.00     0.012 C 
ENDBRANCH  20  27
BRANCH  21  30
ATOM     30  O   UNL     1     -17.289  32.204  45.088  1.00  0.00    -0.504 OA
ATOM     31  H   UNL     1     -17.808  32.664  45.824  1.00  0.00     0.293 HD
ENDBRANCH  21  30
BRANCH  22  32
ATOM     32  O   UNL     1     -19.343  32.485  43.141  1.00  0.00    -0.504 OA
ATOM     33  H   UNL     1     -19.493  33.164  43.873  1.00  0.00     0.293 HD
ENDBRANCH  22  32
ENDBRANCH  11  12
BRANCH  10  34
ATOM     34  O   UNL     1     -15.425  25.052  42.820  1.00  0.00    -0.507 OA
ATOM     35  H   UNL     1     -14.505  25.352  43.117  1.00  0.00     0.293 HD
ENDBRANCH  10  34
BRANCH   9  36
ATOM     36  C   UNL     1     -17.363  20.074  46.188  1.00  0.00     0.017 C 
ATOM     37  C   UNL     1     -18.705  19.897  45.472  1.00  0.00     0.012 C 
ATOM     38  C   UNL     1     -17.563  20.569  47.634  1.00  0.00     0.012 C 
ENDBRANCH   9  36
BRANCH   6  39
ATOM     39  C   UNL     1     -13.976  22.859  42.368  1.00  0.00     0.264 C 
ATOM     40  O   UNL     1     -12.849  23.395  42.533  1.00  0.00    -0.298 OA
ENDBRANCH   6  39
BRANCH   8  41
ATOM     41  O   UNL     1     -14.604  19.383  45.776  1.00  0.00    -0.504 OA
ATOM     42  H   UNL     1     -14.818  18.420  45.554  1.00  0.00     0.293 HD
ENDBRANCH   8  41
BRANCH   7  43
ATOM     43  O   UNL     1     -13.130  20.540  43.640  1.00  0.00    -0.504 OA
ATOM     44  H   UNL     1     -13.087  19.736  43.030  1.00  0.00     0.293 HD
ENDBRANCH   7  43
TORSDOF 11
ENDMDL
MODEL 6
REMARK VINA RESULT:    -5.417      9.211     11.508
REMARK INTER + INTRA:          -9.060
REMARK INTER:                  -7.766
REMARK INTRA:                  -1.294
REMARK UNBOUND:                -1.109
REMARK SMILES Cc1cc2c(C(C)C)c(O)c(O)c(C=O)c2c(O)c1-c1c(C)cc2c(C(C)C)c(O)c(O)c(C=O)c2c1O
REMARK SMILES IDX 1 1 2 2 3 3 4 4 16 5 13 6 11 7 9 8 5 9 17 10 19 11 20 12
REMARK SMILES IDX 37 13 21 14 36 15 23 16 22 17 24 18 33 19 25 20 31 21 29 22
REMARK SMILES IDX 38 23 34 25 35 26 26 27 27 28 28 29 32 30 30 32 18 34 6 36
REMARK SMILES IDX 7 37 8 38 14 39 15 40 10 41 12 43
REMARK H PARENT 38 24 32 31 30 33 18 35 10 42 12 44
REMARK Flexibility Score: inf
ROOT
ATOM      1  C   UNL     1     -18.770  24.655  42.207  1.00  0.00     0.045 C 
ATOM      2  C   UNL     1     -17.633  24.612  43.198  1.00  0.00    -0.039 A 
ATOM      3  C   UNL     1     -16.324  24.770  42.745  1.00  0.00     0.013 A 
ATOM      4  C   UNL     1     -15.220  24.766  43.628  1.00  0.00    -0.006 A 
ATOM      5  C   UNL     1     -15.454  24.530  45.017  1.00  0.00     0.039 A 
ATOM      6  C   UNL     1     -14.342  24.507  45.908  1.00  0.00     0.072 A 
ATOM      7  C   UNL     1     -13.032  24.527  45.396  1.00  0.00     0.169 A 
ATOM      8  C   UNL     1     -12.811  24.658  44.015  1.00  0.00     0.162 A 
ATOM      9  C   UNL     1     -13.886  24.947  43.147  1.00  0.00     0.008 A 
ATOM     10  C   UNL     1     -16.788  24.279  45.462  1.00  0.00     0.132 A 
ATOM     11  C   UNL     1     -17.869  24.352  44.558  1.00  0.00     0.031 A 
ENDROOT
BRANCH  11  12
ATOM     12  C   UNL     1     -19.258  24.110  45.029  1.00  0.00     0.031 A 
ATOM     13  C   UNL     1     -20.107  25.199  45.317  1.00  0.00     0.132 A 
ATOM     14  C   UNL     1     -19.710  22.795  45.226  1.00  0.00    -0.039 A 
ATOM     15  C   UNL     1     -21.457  24.977  45.724  1.00  0.00     0.039 A 
ATOM     16  C   UNL     1     -20.997  22.576  45.718  1.00  0.00     0.013 A 
ATOM     17  C   UNL     1     -18.796  21.614  45.002  1.00  0.00     0.045 C 
ATOM     18  C   UNL     1     -21.903  23.637  45.938  1.00  0.00    -0.006 A 
ATOM     19  C   UNL     1     -22.362  26.052  45.968  1.00  0.00     0.072 A 
ATOM     20  C   UNL     1     -23.229  23.391  46.412  1.00  0.00     0.008 A 
ATOM     21  C   UNL     1     -23.600  25.800  46.586  1.00  0.00     0.169 A 
ATOM     22  C   UNL     1     -23.991  24.483  46.883  1.00  0.00     0.162 A 
BRANCH  13  23
ATOM     23  O   UNL     1     -19.597  26.501  45.245  1.00  0.00    -0.507 OA
ATOM     24  H   UNL     1     -18.730  26.743  44.782  1.00  0.00     0.293 HD
ENDBRANCH  13  23
BRANCH  19  25
ATOM     25  C   UNL     1     -22.084  27.435  45.509  1.00  0.00     0.264 C 
ATOM     26  O   UNL     1     -21.784  28.345  46.326  1.00  0.00    -0.298 OA
ENDBRANCH  19  25
BRANCH  20  27
ATOM     27  C   UNL     1     -23.819  21.970  46.468  1.00  0.00     0.017 C 
ATOM     28  C   UNL     1     -23.924  21.475  47.914  1.00  0.00     0.012 C 
ATOM     29  C   UNL     1     -25.164  21.826  45.729  1.00  0.00     0.012 C 
ENDBRANCH  20  27
BRANCH  21  30
ATOM     30  O   UNL     1     -24.452  26.879  46.850  1.00  0.00    -0.504 OA
ATOM     31  H   UNL     1     -24.187  27.849  46.745  1.00  0.00     0.293 HD
ENDBRANCH  21  30
BRANCH  22  32
ATOM     32  O   UNL     1     -25.130  24.236  47.654  1.00  0.00    -0.504 OA
ATOM     33  H   UNL     1     -25.193  24.416  48.646  1.00  0.00     0.293 HD
ENDBRANCH  22  32
ENDBRANCH  11  12
BRANCH  10  34
ATOM     34  O   UNL     1     -17.032  23.915  46.791  1.00  0.00    -0.507 OA
ATOM     35  H   UNL     1     -17.937  23.628  47.142  1.00  0.00     0.293 HD
ENDBRANCH  10  34
BRANCH   9  36
ATOM     36  C   UNL     1     -13.598  25.390  41.701  1.00  0.00     0.017 C 
ATOM     37  C   UNL     1     -13.283  24.185  40.810  1.00  0.00     0.012 C 
ATOM     38  C   UNL     1     -12.505  26.470  41.584  1.00  0.00     0.012 C 
ENDBRANCH   9  36
BRANCH   6  39
ATOM     39  C   UNL     1     -14.510  24.551  47.382  1.00  0.00     0.264 C 
ATOM     40  O   UNL     1     -14.294  23.534  48.093  1.00  0.00    -0.298 OA
ENDBRANCH   6  39
BRANCH   8  41
ATOM     41  O   UNL     1     -11.530  24.493  43.482  1.00  0.00    -0.504 OA
ATOM     42  H   UNL     1     -11.166  25.028  42.706  1.00  0.00     0.293 HD
ENDBRANCH   8  41
BRANCH   7  43
ATOM     43  O   UNL     1     -11.958  24.464  46.292  1.00  0.00    -0.504 OA
ATOM     44  H   UNL     1     -10.986  24.487  46.014  1.00  0.00     0.293 HD
ENDBRANCH   7  43
TORSDOF 11
ENDMDL
MODEL 7
REMARK VINA RESULT:    -5.390      5.609     10.728
REMARK INTER + INTRA:          -9.020
REMARK INTER:                  -7.595
REMARK INTRA:                  -1.425
REMARK UNBOUND:                -1.109
REMARK SMILES Cc1cc2c(C(C)C)c(O)c(O)c(C=O)c2c(O)c1-c1c(C)cc2c(C(C)C)c(O)c(O)c(C=O)c2c1O
REMARK SMILES IDX 1 1 2 2 3 3 4 4 16 5 13 6 11 7 9 8 5 9 17 10 19 11 20 12
REMARK SMILES IDX 37 13 21 14 36 15 23 16 22 17 24 18 33 19 25 20 31 21 29 22
REMARK SMILES IDX 38 23 34 25 35 26 26 27 27 28 28 29 32 30 30 32 18 34 6 36
REMARK SMILES IDX 7 37 8 38 14 39 15 40 10 41 12 43
REMARK H PARENT 38 24 32 31 30 33 18 35 10 42 12 44
REMARK Flexibility Score: inf
ROOT
ATOM      1  C   UNL     1     -15.845  29.500  45.681  1.00  0.00     0.045 C 
ATOM      2  C   UNL     1     -16.095  30.365  44.470  1.00  0.00    -0.039 A 
ATOM      3  C   UNL     1     -16.417  31.712  44.645  1.00  0.00     0.013 A 
ATOM      4  C   UNL     1     -16.635  32.578  43.549  1.00  0.00    -0.006 A 
ATOM      5  C   UNL     1     -16.585  32.038  42.229  1.00  0.00     0.039 A 
ATOM      6  C   UNL     1     -16.823  32.904  41.122  1.00  0.00     0.072 A 
ATOM      7  C   UNL     1     -17.283  34.215  41.343  1.00  0.00     0.169 A 
ATOM      8  C   UNL     1     -17.427  34.706  42.651  1.00  0.00     0.162 A 
ATOM      9  C   UNL     1     -16.947  33.958  43.749  1.00  0.00     0.008 A 
ATOM     10  C   UNL     1     -16.345  30.640  42.060  1.00  0.00     0.132 A 
ATOM     11  C   UNL     1     -16.071  29.821  43.176  1.00  0.00     0.031 A 
ENDROOT
BRANCH  11  12
ATOM     12  C   UNL     1     -15.802  28.371  42.993  1.00  0.00     0.031 A 
ATOM     13  C   UNL     1     -16.853  27.437  43.108  1.00  0.00     0.132 A 
ATOM     14  C   UNL     1     -14.492  27.929  42.747  1.00  0.00    -0.039 A 
ATOM     15  C   UNL     1     -16.613  26.047  42.887  1.00  0.00     0.039 A 
ATOM     16  C   UNL     1     -14.237  26.562  42.629  1.00  0.00     0.013 A 
ATOM     17  C   UNL     1     -13.337  28.900  42.700  1.00  0.00     0.045 C 
ATOM     18  C   UNL     1     -15.275  25.604  42.654  1.00  0.00    -0.006 A 
ATOM     19  C   UNL     1     -17.660  25.080  42.937  1.00  0.00     0.072 A 
ATOM     20  C   UNL     1     -14.998  24.210  42.499  1.00  0.00     0.008 A 
ATOM     21  C   UNL     1     -17.348  23.708  42.945  1.00  0.00     0.169 A 
ATOM     22  C   UNL     1     -16.015  23.282  42.813  1.00  0.00     0.162 A 
BRANCH  13  23
ATOM     23  O   UNL     1     -18.125  27.882  43.487  1.00  0.00    -0.507 OA
ATOM     24  H   UNL     1     -18.972  27.342  43.362  1.00  0.00     0.293 HD
ENDBRANCH  13  23
BRANCH  19  25
ATOM     25  C   UNL     1     -19.091  25.466  42.890  1.00  0.00     0.264 C 
ATOM     26  O   UNL     1     -19.833  25.343  43.900  1.00  0.00    -0.298 OA
ENDBRANCH  19  25
BRANCH  20  27
ATOM     27  C   UNL     1     -13.615  23.703  42.051  1.00  0.00     0.017 C 
ATOM     28  C   UNL     1     -13.244  24.266  40.675  1.00  0.00     0.012 C 
ATOM     29  C   UNL     1     -12.497  23.959  43.080  1.00  0.00     0.012 C 
ENDBRANCH  20  27
BRANCH  21  30
ATOM     30  O   UNL     1     -18.393  22.781  43.034  1.00  0.00    -0.504 OA
ATOM     31  H   UNL     1     -18.698  22.197  42.267  1.00  0.00     0.293 HD
ENDBRANCH  21  30
BRANCH  22  32
ATOM     32  O   UNL     1     -15.676  21.939  42.999  1.00  0.00    -0.504 OA
ATOM     33  H   UNL     1     -16.195  21.300  43.585  1.00  0.00     0.293 HD
ENDBRANCH  22  32
ENDBRANCH  11  12
BRANCH  10  34
ATOM     34  O   UNL     1     -16.421  30.059  40.789  1.00  0.00    -0.507 OA
ATOM     35  H   UNL     1     -15.691  29.486  40.383  1.00  0.00     0.293 HD
ENDBRANCH  10  34
BRANCH   9  36
ATOM     36  C   UNL     1     -16.826  34.627  45.130  1.00  0.00     0.017 C 
ATOM     37  C   UNL     1     -18.208  34.960  45.700  1.00  0.00     0.012 C 
ATOM     38  C   UNL     1     -15.903  35.861  45.149  1.00  0.00     0.012 C 
ENDBRANCH   9  36
BRANCH   6  39
ATOM     39  C   UNL     1     -16.519  32.503  39.726  1.00  0.00     0.264 C 
ATOM     40  O   UNL     1     -17.438  32.208  38.918  1.00  0.00    -0.298 OA
ENDBRANCH   6  39
BRANCH   8  41
ATOM     41  O   UNL     1     -18.054  35.932  42.884  1.00  0.00    -0.504 OA
ATOM     42  H   UNL     1     -19.034  36.109  42.713  1.00  0.00     0.293 HD
ENDBRANCH   8  41
BRANCH   7  43
ATOM     43  O   UNL     1     -17.546  35.032  40.237  1.00  0.00    -0.504 OA
ATOM     44  H   UNL     1     -18.456  35.412  40.016  1.00  0.00     0.293 HD
ENDBRANCH   7  43
TORSDOF 11
ENDMDL
MODEL 8
REMARK VINA RESULT:    -5.384      4.382      9.980
REMARK INTER + INTRA:          -9.010
REMARK INTER:                  -7.776
REMARK INTRA:                  -1.235
REMARK UNBOUND:                -1.109
REMARK SMILES Cc1cc2c(C(C)C)c(O)c(O)c(C=O)c2c(O)c1-c1c(C)cc2c(C(C)C)c(O)c(O)c(C=O)c2c1O
REMARK SMILES IDX 1 1 2 2 3 3 4 4 16 5 13 6 11 7 9 8 5 9 17 10 19 11 20 12
REMARK SMILES IDX 37 13 21 14 36 15 23 16 22 17 24 18 33 19 25 20 31 21 29 22
REMARK SMILES IDX 38 23 34 25 35 26 26 27 27 28 28 29 32 30 30 32 18 34 6 36
REMARK SMILES IDX 7 37 8 38 14 39 15 40 10 41 12 43
REMARK H PARENT 38 24 32 31 30 33 18 35 10 42 12 44
REMARK Flexibility Score: inf
ROOT
ATOM      1  C   UNL     1     -15.262  29.646  41.657  1.00  0.00     0.045 C 
ATOM      2  C   UNL     1     -16.746  29.896  41.779  1.00  0.00    -0.039 A 
ATOM      3  C   UNL     1     -17.598  28.830  42.068  1.00  0.00     0.013 A 
ATOM      4  C   UNL     1     -18.992  29.007  42.221  1.00  0.00    -0.006 A 
ATOM      5  C   UNL     1     -19.546  30.306  42.010  1.00  0.00     0.039 A 
ATOM      6  C   UNL     1     -20.954  30.484  42.144  1.00  0.00     0.072 A 
ATOM      7  C   UNL     1     -21.792  29.365  42.294  1.00  0.00     0.169 A 
ATOM      8  C   UNL     1     -21.243  28.075  42.400  1.00  0.00     0.162 A 
ATOM      9  C   UNL     1     -19.847  27.905  42.534  1.00  0.00     0.008 A 
ATOM     10  C   UNL     1     -18.680  31.374  41.625  1.00  0.00     0.132 A 
ATOM     11  C   UNL     1     -17.286  31.171  41.542  1.00  0.00     0.031 A 
ENDROOT
BRANCH  11  12
ATOM     12  C   UNL     1     -16.386  32.291  41.161  1.00  0.00     0.031 A 
ATOM     13  C   UNL     1     -16.229  32.641  39.803  1.00  0.00     0.132 A 
ATOM     14  C   UNL     1     -15.661  32.973  42.152  1.00  0.00    -0.039 A 
ATOM     15  C   UNL     1     -15.405  33.745  39.432  1.00  0.00     0.039 A 
ATOM     16  C   UNL     1     -14.778  33.988  41.782  1.00  0.00     0.013 A 
ATOM     17  C   UNL     1     -15.749  32.565  43.603  1.00  0.00     0.045 C 
ATOM     18  C   UNL     1     -14.658  34.423  40.443  1.00  0.00    -0.006 A 
ATOM     19  C   UNL     1     -15.267  34.166  38.076  1.00  0.00     0.072 A 
ATOM     20  C   UNL     1     -13.772  35.487  40.088  1.00  0.00     0.008 A 
ATOM     21  C   UNL     1     -14.274  35.100  37.729  1.00  0.00     0.169 A 
ATOM     22  C   UNL     1     -13.475  35.691  38.723  1.00  0.00     0.162 A 
BRANCH  13  23
ATOM     23  O   UNL     1     -16.854  31.864  38.821  1.00  0.00    -0.507 OA
ATOM     24  H   UNL     1     -17.831  31.948  38.571  1.00  0.00     0.293 HD
ENDBRANCH  13  23
BRANCH  19  25
ATOM     25  C   UNL     1     -16.201  33.718  37.014  1.00  0.00     0.264 C 
ATOM     26  O   UNL     1     -15.807  32.992  36.063  1.00  0.00    -0.298 OA
ENDBRANCH  19  25
BRANCH  20  27
ATOM     27  C   UNL     1     -13.101  36.373  41.154  1.00  0.00     0.017 C 
ATOM     28  C   UNL     1     -14.149  37.125  41.981  1.00  0.00     0.012 C 
ATOM     29  C   UNL     1     -12.112  35.615  42.060  1.00  0.00     0.012 C 
ENDBRANCH  20  27
BRANCH  21  30
ATOM     30  O   UNL     1     -14.135  35.466  36.384  1.00  0.00    -0.504 OA
ATOM     31  H   UNL     1     -13.251  35.505  35.897  1.00  0.00     0.293 HD
ENDBRANCH  21  30
BRANCH  22  32
ATOM     32  O   UNL     1     -12.374  36.478  38.375  1.00  0.00    -0.504 OA
ATOM     33  H   UNL     1     -12.316  37.030  37.531  1.00  0.00     0.293 HD
ENDBRANCH  22  32
ENDBRANCH  11  12
BRANCH  10  34
ATOM     34  O   UNL     1     -19.209  32.624  41.283  1.00  0.00    -0.507 OA
ATOM     35  H   UNL     1     -18.694  33.494  41.348  1.00  0.00     0.293 HD
ENDBRANCH  10  34
BRANCH   9  36
ATOM     36  C   UNL     1     -19.285  26.535  42.956  1.00  0.00     0.017 C 
ATOM     37  C   UNL     1     -19.298  25.553  41.781  1.00  0.00     0.012 C 
ATOM     38  C   UNL     1     -19.974  25.931  44.195  1.00  0.00     0.012 C 
ENDBRANCH   9  36
BRANCH   6  39
ATOM     39  C   UNL     1     -21.575  31.829  42.221  1.00  0.00     0.264 C 
ATOM     40  O   UNL     1     -22.260  32.286  41.269  1.00  0.00    -0.298 OA
ENDBRANCH   6  39
BRANCH   8  41
ATOM     41  O   UNL     1     -22.067  26.948  42.363  1.00  0.00    -0.504 OA
ATOM     42  H   UNL     1     -22.645  26.695  41.574  1.00  0.00     0.293 HD
ENDBRANCH   8  41
BRANCH   7  43
ATOM     43  O   UNL     1     -23.174  29.565  42.386  1.00  0.00    -0.504 OA
ATOM     44  H   UNL     1     -23.603  30.428  42.691  1.00  0.00     0.293 HD
ENDBRANCH   7  43
TORSDOF 11
ENDMDL
MODEL 9
REMARK VINA RESULT:    -5.335      6.736     10.240
REMARK INTER + INTRA:          -8.940
REMARK INTER:                  -7.519
REMARK INTRA:                  -1.421
REMARK UNBOUND:                -1.109
REMARK SMILES Cc1cc2c(C(C)C)c(O)c(O)c(C=O)c2c(O)c1-c1c(C)cc2c(C(C)C)c(O)c(O)c(C=O)c2c1O
REMARK SMILES IDX 1 1 2 2 3 3 4 4 16 5 13 6 11 7 9 8 5 9 17 10 19 11 20 12
REMARK SMILES IDX 37 13 21 14 36 15 23 16 22 17 24 18 33 19 25 20 31 21 29 22
REMARK SMILES IDX 38 23 34 25 35 26 26 27 27 28 28 29 32 30 30 32 18 34 6 36
REMARK SMILES IDX 7 37 8 38 14 39 15 40 10 41 12 43
REMARK H PARENT 38 24 32 31 30 33 18 35 10 42 12 44
REMARK Flexibility Score: inf
ROOT
ATOM      1  C   UNL     1     -12.767  29.104  41.734  1.00  0.00     0.045 C 
ATOM      2  C   UNL     1     -13.959  28.328  42.239  1.00  0.00    -0.039 A 
ATOM      3  C   UNL     1     -13.939  26.934  42.191  1.00  0.00     0.013 A 
ATOM      4  C   UNL     1     -15.014  26.153  42.675  1.00  0.00    -0.006 A 
ATOM      5  C   UNL     1     -16.177  26.818  43.168  1.00  0.00     0.039 A 
ATOM      6  C   UNL     1     -17.270  26.033  43.639  1.00  0.00     0.072 A 
ATOM      7  C   UNL     1     -17.271  24.641  43.442  1.00  0.00     0.169 A 
ATOM      8  C   UNL     1     -16.160  24.005  42.862  1.00  0.00     0.162 A 
ATOM      9  C   UNL     1     -14.967  24.725  42.633  1.00  0.00     0.008 A 
ATOM     10  C   UNL     1     -16.228  28.244  43.131  1.00  0.00     0.132 A 
ATOM     11  C   UNL     1     -15.111  28.989  42.697  1.00  0.00     0.031 A 
ENDROOT
BRANCH  11  12
ATOM     12  C   UNL     1     -15.161  30.475  42.679  1.00  0.00     0.031 A 
ATOM     13  C   UNL     1     -15.626  31.152  41.532  1.00  0.00     0.132 A 
ATOM     14  C   UNL     1     -14.706  31.203  43.790  1.00  0.00    -0.039 A 
ATOM     15  C   UNL     1     -15.723  32.576  41.523  1.00  0.00     0.039 A 
ATOM     16  C   UNL     1     -14.708  32.597  43.746  1.00  0.00     0.013 A 
ATOM     17  C   UNL     1     -14.129  30.504  44.998  1.00  0.00     0.045 C 
ATOM     18  C   UNL     1     -15.243  33.310  42.650  1.00  0.00    -0.006 A 
ATOM     19  C   UNL     1     -16.242  33.294  40.405  1.00  0.00     0.072 A 
ATOM     20  C   UNL     1     -15.265  34.740  42.638  1.00  0.00     0.008 A 
ATOM     21  C   UNL     1     -16.105  34.692  40.344  1.00  0.00     0.169 A 
ATOM     22  C   UNL     1     -15.541  35.398  41.420  1.00  0.00     0.162 A 
BRANCH  13  23
ATOM     23  O   UNL     1     -15.947  30.416  40.386  1.00  0.00    -0.507 OA
ATOM     24  H   UNL     1     -15.314  30.277  39.608  1.00  0.00     0.293 HD
ENDBRANCH  13  23
BRANCH  19  25
ATOM     25  C   UNL     1     -17.012  32.624  39.328  1.00  0.00     0.264 C 
ATOM     26  O   UNL     1     -16.516  32.452  38.183  1.00  0.00    -0.298 OA
ENDBRANCH  19  25
BRANCH  20  27
ATOM     27  C   UNL     1     -14.947  35.566  43.897  1.00  0.00     0.017 C 
ATOM     28  C   UNL     1     -15.909  35.220  45.038  1.00  0.00     0.012 C 
ATOM     29  C   UNL     1     -13.479  35.465  44.353  1.00  0.00     0.012 C 
ENDBRANCH  20  27
BRANCH  21  30
ATOM     30  O   UNL     1     -16.589  35.367  39.217  1.00  0.00    -0.504 OA
ATOM     31  H   UNL     1     -16.700  34.942  38.306  1.00  0.00     0.293 HD
ENDBRANCH  21  30
BRANCH  22  32
ATOM     32  O   UNL     1     -15.238  36.757  41.297  1.00  0.00    -0.504 OA
ATOM     33  H   UNL     1     -15.407  37.303  40.464  1.00  0.00     0.293 HD
ENDBRANCH  22  32
ENDBRANCH  11  12
BRANCH  10  34
ATOM     34  O   UNL     1     -17.403  28.918  43.483  1.00  0.00    -0.507 OA
ATOM     35  H   UNL     1     -17.701  29.076  44.438  1.00  0.00     0.293 HD
ENDBRANCH  10  34
BRANCH   9  36
ATOM     36  C   UNL     1     -13.673  23.964  42.292  1.00  0.00     0.017 C 
ATOM     37  C   UNL     1     -12.564  24.290  43.297  1.00  0.00     0.012 C 
ATOM     38  C   UNL     1     -13.190  24.172  40.843  1.00  0.00     0.012 C 
ENDBRANCH   9  36
BRANCH   6  39
ATOM     39  C   UNL     1     -18.387  26.623  44.418  1.00  0.00     0.264 C 
ATOM     40  O   UNL     1     -19.533  26.758  43.914  1.00  0.00    -0.298 OA
ENDBRANCH   6  39
BRANCH   8  41
ATOM     41  O   UNL     1     -16.225  22.658  42.495  1.00  0.00    -0.504 OA
ATOM     42  H   UNL     1     -17.007  22.052  42.699  1.00  0.00     0.293 HD
ENDBRANCH   8  41
BRANCH   7  43
ATOM     43  O   UNL     1     -18.374  23.899  43.880  1.00  0.00    -0.504 OA
ATOM     44  H   UNL     1     -19.312  24.268  43.954  1.00  0.00     0.293 HD
ENDBRANCH   7  43
TORSDOF 11
ENDMDL
