MODEL 1
REMARK VINA RESULT:    -4.099      0.000      0.000
REMARK INTER + INTRA:          -5.685
REMARK INTER:                  -5.537
REMARK INTRA:                  -0.148
REMARK UNBOUND:                -0.148
REMARK SMILES CCCCCCCC(=O)[O-]
REMARK SMILES IDX 5 1 6 2 7 3 8 4 9 5 10 6 4 7 3 8 2 9 1 10
REMARK H PARENT
REMARK Flexibility Score: inf
ROOT
ATOM      1  C   UNL     1      24.457   8.724   5.348  1.00  0.00     0.000 C 
ENDROOT
BRANCH   1   2
ATOM      2  C   UNL     1      24.751  10.226   5.470  1.00  0.00     0.006 C 
BRANCH   2   3
ATOM      3  C   UNL     1      23.523  11.058   5.088  1.00  0.00     0.053 C 
BRANCH   3   4
ATOM      4  C   UNL     1      23.806  12.518   5.255  1.00  0.00     0.041 C 
ATOM      5  O   UNL     1      22.987  13.256   5.862  1.00  0.00    -0.550 OA
ATOM      6  O   UNL     1      24.952  13.072   4.697  1.00  0.00    -0.550 OA
ENDBRANCH   3   4
ENDBRANCH   2   3
ENDBRANCH   1   2
BRANCH   1   7
ATOM      7  C   UNL     1      25.503   7.856   6.067  1.00  0.00     0.000 C 
BRANCH   7   8
ATOM      8  C   UNL     1      26.297   6.964   5.096  1.00  0.00    -0.000 C 
BRANCH   8   9
ATOM      9  C   UNL     1      27.190   5.950   5.828  1.00  0.00    -0.003 C 
ATOM     10  C   UNL     1      26.946   5.929   7.336  1.00  0.00     0.004 C 
ENDBRANCH   8   9
ENDBRANCH   7   8
ENDBRANCH   1   7
TORSDOF 6
ENDMDL
MODEL 2
REMARK VINA RESULT:    -4.082      5.872      7.942
REMARK INTER + INTRA:          -5.662
REMARK INTER:                  -5.384
REMARK INTRA:                  -0.278
REMARK UNBOUND:                -0.148
REMARK SMILES CCCCCCCC(=O)[O-]
REMARK SMILES IDX 5 1 6 2 7 3 8 4 9 5 10 6 4 7 3 8 2 9 1 10
REMARK H PARENT
REMARK Flexibility Score: inf
ROOT
ATOM      1  C   UNL     1      27.186   5.546   7.245  1.00  0.00     0.000 C 
ENDROOT
BRANCH   1   2
ATOM      2  C   UNL     1      27.674   4.208   7.818  1.00  0.00     0.006 C 
BRANCH   2   3
ATOM      3  C   UNL     1      27.801   3.153   6.716  1.00  0.00     0.053 C 
BRANCH   3   4
ATOM      4  C   UNL     1      27.315   1.824   7.203  1.00  0.00     0.041 C 
ATOM      5  O   UNL     1      27.249   1.589   8.437  1.00  0.00    -0.550 OA
ATOM      6  O   UNL     1      26.981   0.830   6.291  1.00  0.00    -0.550 OA
ENDBRANCH   3   4
ENDBRANCH   2   3
ENDBRANCH   1   2
BRANCH   1   7
ATOM      7  C   UNL     1      27.421   5.661   5.729  1.00  0.00     0.000 C 
BRANCH   7   8
ATOM      8  C   UNL     1      26.497   6.697   5.065  1.00  0.00    -0.000 C 
BRANCH   8   9
ATOM      9  C   UNL     1      25.795   7.600   6.090  1.00  0.00    -0.003 C 
ATOM     10  C   UNL     1      24.529   8.250   5.535  1.00  0.00     0.004 C 
ENDBRANCH   8   9
ENDBRANCH   7   8
ENDBRANCH   1   7
TORSDOF 6
ENDMDL
MODEL 3
REMARK VINA RESULT:    -4.034      2.994      4.617
REMARK INTER + INTRA:          -5.596
REMARK INTER:                  -5.127
REMARK INTRA:                  -0.469
REMARK UNBOUND:                -0.148
REMARK SMILES CCCCCCCC(=O)[O-]
REMARK SMILES IDX 5 1 6 2 7 3 8 4 9 5 10 6 4 7 3 8 2 9 1 10
REMARK H PARENT
REMARK Flexibility Score: inf
ROOT
ATOM      1  C   UNL     1      26.797   6.245   7.544  1.00  0.00     0.000 C 
ENDROOT
BRANCH   1   2
ATOM      2  C   UNL     1      27.759   6.925   8.528  1.00  0.00     0.006 C 
BRANCH   2   3
ATOM      3  C   UNL     1      27.997   8.387   8.140  1.00  0.00     0.053 C 
BRANCH   3   4
ATOM      4  C   UNL     1      26.888   9.252   8.651  1.00  0.00     0.041 C 
ATOM      5  O   UNL     1      26.635  10.352   8.094  1.00  0.00    -0.550 OA
ATOM      6  O   UNL     1      26.166   8.865   9.773  1.00  0.00    -0.550 OA
ENDBRANCH   3   4
ENDBRANCH   2   3
ENDBRANCH   1   2
BRANCH   1   7
ATOM      7  C   UNL     1      27.390   6.114   6.131  1.00  0.00     0.000 C 
BRANCH   7   8
ATOM      8  C   UNL     1      26.422   6.595   5.036  1.00  0.00    -0.000 C 
BRANCH   8   9
ATOM      9  C   UNL     1      26.008   8.063   5.222  1.00  0.00    -0.003 C 
ATOM     10  C   UNL     1      24.513   8.226   5.493  1.00  0.00     0.004 C 
ENDBRANCH   8   9
ENDBRANCH   7   8
ENDBRANCH   1   7
TORSDOF 6
ENDMDL
MODEL 4
REMARK VINA RESULT:    -3.920      2.810      4.288
REMARK INTER + INTRA:          -5.442
REMARK INTER:                  -5.123
REMARK INTRA:                  -0.320
REMARK UNBOUND:                -0.148
REMARK SMILES CCCCCCCC(=O)[O-]
REMARK SMILES IDX 5 1 6 2 7 3 8 4 9 5 10 6 4 7 3 8 2 9 1 10
REMARK H PARENT
REMARK Flexibility Score: inf
ROOT
ATOM      1  C   UNL     1      27.040   6.028   5.712  1.00  0.00     0.000 C 
ENDROOT
BRANCH   1   2
ATOM      2  C   UNL     1      27.130   7.066   6.839  1.00  0.00     0.006 C 
BRANCH   2   3
ATOM      3  C   UNL     1      25.735   7.528   7.272  1.00  0.00     0.053 C 
BRANCH   3   4
ATOM      4  C   UNL     1      25.073   8.299   6.174  1.00  0.00     0.041 C 
ATOM      5  O   UNL     1      25.489   9.447   5.867  1.00  0.00    -0.550 OA
ATOM      6  O   UNL     1      23.966   7.769   5.523  1.00  0.00    -0.550 OA
ENDBRANCH   3   4
ENDBRANCH   2   3
ENDBRANCH   1   2
BRANCH   1   7
ATOM      7  C   UNL     1      27.777   4.721   6.051  1.00  0.00     0.000 C 
BRANCH   7   8
ATOM      8  C   UNL     1      27.765   4.410   7.558  1.00  0.00    -0.000 C 
BRANCH   8   9
ATOM      9  C   UNL     1      27.575   2.913   7.848  1.00  0.00    -0.003 C 
ATOM     10  C   UNL     1      27.718   2.048   6.597  1.00  0.00     0.004 C 
ENDBRANCH   8   9
ENDBRANCH   7   8
ENDBRANCH   1   7
TORSDOF 6
ENDMDL
MODEL 5
REMARK VINA RESULT:    -3.810     14.097     14.789
REMARK INTER + INTRA:          -5.295
REMARK INTER:                  -4.638
REMARK INTRA:                  -0.657
REMARK UNBOUND:                -0.148
REMARK SMILES CCCCCCCC(=O)[O-]
REMARK SMILES IDX 5 1 6 2 7 3 8 4 9 5 10 6 4 7 3 8 2 9 1 10
REMARK H PARENT
REMARK Flexibility Score: inf
ROOT
ATOM      1  C   UNL     1      13.744   2.945  -1.832  1.00  0.00     0.000 C 
ENDROOT
BRANCH   1   2
ATOM      2  C   UNL     1      15.080   3.658  -2.089  1.00  0.00     0.006 C 
BRANCH   2   3
ATOM      3  C   UNL     1      15.905   3.757  -0.803  1.00  0.00     0.053 C 
BRANCH   3   4
ATOM      4  C   UNL     1      16.536   2.439  -0.481  1.00  0.00     0.041 C 
ATOM      5  O   UNL     1      16.133   1.768   0.505  1.00  0.00    -0.550 OA
ATOM      6  O   UNL     1      17.601   1.975  -1.243  1.00  0.00    -0.550 OA
ENDBRANCH   3   4
ENDBRANCH   2   3
ENDBRANCH   1   2
BRANCH   1   7
ATOM      7  C   UNL     1      13.617   1.627  -2.614  1.00  0.00     0.000 C 
BRANCH   7   8
ATOM      8  C   UNL     1      13.531   0.398  -1.692  1.00  0.00    -0.000 C 
BRANCH   8   9
ATOM      9  C   UNL     1      14.729  -0.549  -1.861  1.00  0.00    -0.003 C 
ATOM     10  C   UNL     1      15.574  -0.218  -3.090  1.00  0.00     0.004 C 
ENDBRANCH   8   9
ENDBRANCH   7   8
ENDBRANCH   1   7
TORSDOF 6
ENDMDL
MODEL 6
REMARK VINA RESULT:    -3.798     12.850     13.607
REMARK INTER + INTRA:          -5.278
REMARK INTER:                  -5.007
REMARK INTRA:                  -0.271
REMARK UNBOUND:                -0.148
REMARK SMILES CCCCCCCC(=O)[O-]
REMARK SMILES IDX 5 1 6 2 7 3 8 4 9 5 10 6 4 7 3 8 2 9 1 10
REMARK H PARENT
REMARK Flexibility Score: inf
ROOT
ATOM      1  C   UNL     1      15.388   3.529   0.847  1.00  0.00     0.000 C 
ENDROOT
BRANCH   1   2
ATOM      2  C   UNL     1      14.323   4.518   1.341  1.00  0.00     0.006 C 
BRANCH   2   3
ATOM      3  C   UNL     1      12.913   3.979   1.082  1.00  0.00     0.053 C 
BRANCH   3   4
ATOM      4  C   UNL     1      11.892   4.824   1.778  1.00  0.00     0.041 C 
ATOM      5  O   UNL     1      11.896   4.916   3.033  1.00  0.00    -0.550 OA
ATOM      6  O   UNL     1      10.907   5.471   1.041  1.00  0.00    -0.550 OA
ENDBRANCH   3   4
ENDBRANCH   2   3
ENDBRANCH   1   2
BRANCH   1   7
ATOM      7  C   UNL     1      16.172   4.060  -0.364  1.00  0.00     0.000 C 
BRANCH   7   8
ATOM      8  C   UNL     1      15.747   3.391  -1.683  1.00  0.00    -0.000 C 
BRANCH   8   9
ATOM      9  C   UNL     1      15.956   1.869  -1.664  1.00  0.00    -0.003 C 
ATOM     10  C   UNL     1      17.433   1.477  -1.635  1.00  0.00     0.004 C 
ENDBRANCH   8   9
ENDBRANCH   7   8
ENDBRANCH   1   7
TORSDOF 6
ENDMDL
MODEL 7
REMARK VINA RESULT:    -3.790     14.210     15.021
REMARK INTER + INTRA:          -5.267
REMARK INTER:                  -4.828
REMARK INTRA:                  -0.439
REMARK UNBOUND:                -0.148
REMARK SMILES CCCCCCCC(=O)[O-]
REMARK SMILES IDX 5 1 6 2 7 3 8 4 9 5 10 6 4 7 3 8 2 9 1 10
REMARK H PARENT
REMARK Flexibility Score: inf
ROOT
ATOM      1  C   UNL     1      16.588   0.797  -2.403  1.00  0.00     0.000 C 
ENDROOT
BRANCH   1   2
ATOM      2  C   UNL     1      16.486   1.271  -0.946  1.00  0.00     0.006 C 
BRANCH   2   3
ATOM      3  C   UNL     1      16.770   2.772  -0.838  1.00  0.00     0.053 C 
BRANCH   3   4
ATOM      4  C   UNL     1      15.521   3.561  -1.072  1.00  0.00     0.041 C 
ATOM      5  O   UNL     1      14.702   3.743  -0.133  1.00  0.00    -0.550 OA
ATOM      6  O   UNL     1      15.237   4.053  -2.340  1.00  0.00    -0.550 OA
ENDBRANCH   3   4
ENDBRANCH   2   3
ENDBRANCH   1   2
BRANCH   1   7
ATOM      7  C   UNL     1      15.422  -0.118  -2.810  1.00  0.00     0.000 C 
BRANCH   7   8
ATOM      8  C   UNL     1      14.204   0.028  -1.881  1.00  0.00    -0.000 C 
BRANCH   8   9
ATOM      9  C   UNL     1      13.170   1.028  -2.422  1.00  0.00    -0.003 C 
ATOM     10  C   UNL     1      11.736   0.654  -2.049  1.00  0.00     0.004 C 
ENDBRANCH   8   9
ENDBRANCH   7   8
ENDBRANCH   1   7
TORSDOF 6
ENDMDL
MODEL 8
REMARK VINA RESULT:    -3.786     13.159     14.225
REMARK INTER + INTRA:          -5.262
REMARK INTER:                  -5.050
REMARK INTRA:                  -0.212
REMARK UNBOUND:                -0.148
REMARK SMILES CCCCCCCC(=O)[O-]
REMARK SMILES IDX 5 1 6 2 7 3 8 4 9 5 10 6 4 7 3 8 2 9 1 10
REMARK H PARENT
REMARK Flexibility Score: inf
ROOT
ATOM      1  C   UNL     1      15.467   3.329   0.816  1.00  0.00     0.000 C 
ENDROOT
BRANCH   1   2
ATOM      2  C   UNL     1      16.220   3.743  -0.456  1.00  0.00     0.006 C 
BRANCH   2   3
ATOM      3  C   UNL     1      15.920   2.780  -1.609  1.00  0.00     0.053 C 
BRANCH   3   4
ATOM      4  C   UNL     1      16.706   1.516  -1.454  1.00  0.00     0.041 C 
ATOM      5  O   UNL     1      17.949   1.515  -1.654  1.00  0.00    -0.550 OA
ATOM      6  O   UNL     1      16.057   0.330  -1.137  1.00  0.00    -0.550 OA
ENDBRANCH   3   4
ENDBRANCH   2   3
ENDBRANCH   1   2
BRANCH   1   7
ATOM      7  C   UNL     1      14.451   4.388   1.274  1.00  0.00     0.000 C 
BRANCH   7   8
ATOM      8  C   UNL     1      12.998   3.890   1.187  1.00  0.00    -0.000 C 
BRANCH   8   9
ATOM      9  C   UNL     1      12.001   4.874   1.817  1.00  0.00    -0.003 C 
ATOM     10  C   UNL     1      11.626   4.499   3.250  1.00  0.00     0.004 C 
ENDBRANCH   8   9
ENDBRANCH   7   8
ENDBRANCH   1   7
TORSDOF 6
ENDMDL
MODEL 9
REMARK VINA RESULT:    -3.768     13.823     14.709
REMARK INTER + INTRA:          -5.237
REMARK INTER:                  -4.588
REMARK INTRA:                  -0.649
REMARK UNBOUND:                -0.148
REMARK SMILES CCCCCCCC(=O)[O-]
REMARK SMILES IDX 5 1 6 2 7 3 8 4 9 5 10 6 4 7 3 8 2 9 1 10
REMARK H PARENT
REMARK Flexibility Score: inf
ROOT
ATOM      1  C   UNL     1      13.983   3.132  -1.728  1.00  0.00     0.000 C 
ENDROOT
BRANCH   1   2
ATOM      2  C   UNL     1      13.921   1.723  -2.334  1.00  0.00     0.006 C 
BRANCH   2   3
ATOM      3  C   UNL     1      14.226   0.658  -1.276  1.00  0.00     0.053 C 
BRANCH   3   4
ATOM      4  C   UNL     1      15.652   0.215  -1.374  1.00  0.00     0.041 C 
ATOM      5  O   UNL     1      16.220  -0.313  -0.382  1.00  0.00    -0.550 OA
ATOM      6  O   UNL     1      16.368   0.431  -2.545  1.00  0.00    -0.550 OA
ENDBRANCH   3   4
ENDBRANCH   2   3
ENDBRANCH   1   2
BRANCH   1   7
ATOM      7  C   UNL     1      15.353   3.801  -1.923  1.00  0.00     0.000 C 
BRANCH   7   8
ATOM      8  C   UNL     1      16.179   3.847  -0.625  1.00  0.00    -0.000 C 
BRANCH   8   9
ATOM      9  C   UNL     1      15.295   3.847   0.632  1.00  0.00    -0.003 C 
ATOM     10  C   UNL     1      15.692   2.761   1.632  1.00  0.00     0.004 C 
ENDBRANCH   8   9
ENDBRANCH   7   8
ENDBRANCH   1   7
TORSDOF 6
ENDMDL
