MODEL 1
REMARK VINA RESULT:    -6.620      0.000      0.000
REMARK INTER + INTRA:          -6.813
REMARK INTER:                  -6.813
REMARK INTRA:                   0.000
REMARK UNBOUND:                 0.000
REMARK SMILES O=c1ccc2ccc(O)cc2o1
REMARK SMILES IDX 6 1 7 2 8 3 10 4 11 5 5 6 4 7 3 8 2 9 1 10 12 11 9 12
REMARK H PARENT 9 13
REMARK Flexibility Score: inf
ROOT
ATOM      1  C   UNL     1     -30.945  65.940  85.412  1.00  0.00     0.016 A 
ATOM      2  C   UNL     1     -31.977  66.686  85.991  1.00  0.00     0.047 A 
ATOM      3  C   UNL     1     -31.715  67.955  86.530  1.00  0.00     0.119 A 
ATOM      4  C   UNL     1     -30.417  68.477  86.488  1.00  0.00     0.094 A 
ATOM      5  C   UNL     1     -29.378  67.737  85.911  1.00  0.00     0.142 A 
ATOM      6  C   UNL     1     -29.645  66.460  85.369  1.00  0.00     0.018 A 
ATOM      7  C   UNL     1     -28.587  65.744  84.799  1.00  0.00     0.019 A 
ATOM      8  C   UNL     1     -27.311  66.307  84.781  1.00  0.00     0.094 A 
ATOM      9  C   UNL     1     -27.122  67.578  85.337  1.00  0.00     0.336 A 
ATOM     10  O   UNL     1     -25.978  68.102  85.331  1.00  0.00    -0.246 OA
ATOM     11  O   UNL     1     -28.146  68.237  85.873  1.00  0.00    -0.423 OA
ENDROOT
BRANCH   3  12
ATOM     12  O   UNL     1     -32.737  68.704  87.108  1.00  0.00    -0.508 OA
ATOM     13  H   UNL     1     -32.759  68.888  88.105  1.00  0.00     0.293 HD
ENDBRANCH   3  12
TORSDOF 1
ENDMDL
MODEL 2
REMARK VINA RESULT:    -6.543      1.232      4.159
REMARK INTER + INTRA:          -6.734
REMARK INTER:                  -6.734
REMARK INTRA:                   0.000
REMARK UNBOUND:                 0.000
REMARK SMILES O=c1ccc2ccc(O)cc2o1
REMARK SMILES IDX 6 1 7 2 8 3 10 4 11 5 5 6 4 7 3 8 2 9 1 10 12 11 9 12
REMARK H PARENT 9 13
REMARK Flexibility Score: inf
ROOT
ATOM      1  C   UNL     1     -27.600  66.570  84.611  1.00  0.00     0.016 A 
ATOM      2  C   UNL     1     -26.616  67.431  85.108  1.00  0.00     0.047 A 
ATOM      3  C   UNL     1     -26.942  68.398  86.070  1.00  0.00     0.119 A 
ATOM      4  C   UNL     1     -28.259  68.503  86.534  1.00  0.00     0.094 A 
ATOM      5  C   UNL     1     -29.250  67.647  86.043  1.00  0.00     0.142 A 
ATOM      6  C   UNL     1     -28.918  66.673  85.074  1.00  0.00     0.018 A 
ATOM      7  C   UNL     1     -29.930  65.832  84.602  1.00  0.00     0.019 A 
ATOM      8  C   UNL     1     -31.226  65.975  85.096  1.00  0.00     0.094 A 
ATOM      9  C   UNL     1     -31.481  66.963  86.055  1.00  0.00     0.336 A 
ATOM     10  O   UNL     1     -32.645  67.107  86.513  1.00  0.00    -0.246 OA
ATOM     11  O   UNL     1     -30.500  67.750  86.488  1.00  0.00    -0.423 OA
ENDROOT
BRANCH   3  12
ATOM     12  O   UNL     1     -25.968  69.258  86.569  1.00  0.00    -0.508 OA
ATOM     13  H   UNL     1     -25.943  70.238  86.309  1.00  0.00     0.293 HD
ENDBRANCH   3  12
TORSDOF 1
ENDMDL
MODEL 3
REMARK VINA RESULT:    -6.495      2.358      3.059
REMARK INTER + INTRA:          -6.685
REMARK INTER:                  -6.685
REMARK INTRA:                   0.000
REMARK UNBOUND:                 0.000
REMARK SMILES O=c1ccc2ccc(O)cc2o1
REMARK SMILES IDX 6 1 7 2 8 3 10 4 11 5 5 6 4 7 3 8 2 9 1 10 12 11 9 12
REMARK H PARENT 9 13
REMARK Flexibility Score: inf
ROOT
ATOM      1  C   UNL     1     -28.893  68.172  85.636  1.00  0.00     0.016 A 
ATOM      2  C   UNL     1     -29.862  68.432  86.611  1.00  0.00     0.047 A 
ATOM      3  C   UNL     1     -31.018  67.641  86.688  1.00  0.00     0.119 A 
ATOM      4  C   UNL     1     -31.204  66.587  85.785  1.00  0.00     0.094 A 
ATOM      5  C   UNL     1     -30.240  66.319  84.806  1.00  0.00     0.142 A 
ATOM      6  C   UNL     1     -29.077  67.118  84.731  1.00  0.00     0.018 A 
ATOM      7  C   UNL     1     -28.132  66.827  83.743  1.00  0.00     0.019 A 
ATOM      8  C   UNL     1     -28.362  65.766  82.867  1.00  0.00     0.094 A 
ATOM      9  C   UNL     1     -29.538  65.019  83.001  1.00  0.00     0.336 A 
ATOM     10  O   UNL     1     -29.763  64.058  82.219  1.00  0.00    -0.246 OA
ATOM     11  O   UNL     1     -30.421  65.317  83.950  1.00  0.00    -0.423 OA
ENDROOT
BRANCH   3  12
ATOM     12  O   UNL     1     -31.987  67.893  87.656  1.00  0.00    -0.508 OA
ATOM     13  H   UNL     1     -31.923  67.494  88.585  1.00  0.00     0.293 HD
ENDBRANCH   3  12
TORSDOF 1
ENDMDL
MODEL 4
REMARK VINA RESULT:    -6.476      3.288      5.058
REMARK INTER + INTRA:          -6.665
REMARK INTER:                  -6.665
REMARK INTRA:                   0.000
REMARK UNBOUND:                 0.000
REMARK SMILES O=c1ccc2ccc(O)cc2o1
REMARK SMILES IDX 6 1 7 2 8 3 10 4 11 5 5 6 4 7 3 8 2 9 1 10 12 11 9 12
REMARK H PARENT 9 13
REMARK Flexibility Score: inf
ROOT
ATOM      1  C   UNL     1     -28.495  67.128  83.453  1.00  0.00     0.016 A 
ATOM      2  C   UNL     1     -28.225  66.786  82.124  1.00  0.00     0.047 A 
ATOM      3  C   UNL     1     -28.474  65.485  81.663  1.00  0.00     0.119 A 
ATOM      4  C   UNL     1     -28.994  64.523  82.537  1.00  0.00     0.094 A 
ATOM      5  C   UNL     1     -29.267  64.855  83.869  1.00  0.00     0.142 A 
ATOM      6  C   UNL     1     -29.016  66.167  84.329  1.00  0.00     0.018 A 
ATOM      7  C   UNL     1     -29.298  66.469  85.665  1.00  0.00     0.019 A 
ATOM      8  C   UNL     1     -29.816  65.477  86.497  1.00  0.00     0.094 A 
ATOM      9  C   UNL     1     -30.040  64.199  85.970  1.00  0.00     0.336 A 
ATOM     10  O   UNL     1     -30.507  63.290  86.706  1.00  0.00    -0.246 OA
ATOM     11  O   UNL     1     -29.762  63.938  84.696  1.00  0.00    -0.423 OA
ENDROOT
BRANCH   3  12
ATOM     12  O   UNL     1     -28.208  65.138  80.341  1.00  0.00    -0.508 OA
ATOM     13  H   UNL     1     -28.931  64.767  79.735  1.00  0.00     0.293 HD
ENDBRANCH   3  12
TORSDOF 1
ENDMDL
MODEL 5
REMARK VINA RESULT:    -6.469      2.269      4.281
REMARK INTER + INTRA:          -6.658
REMARK INTER:                  -6.658
REMARK INTRA:                   0.000
REMARK UNBOUND:                 0.000
REMARK SMILES O=c1ccc2ccc(O)cc2o1
REMARK SMILES IDX 6 1 7 2 8 3 10 4 11 5 5 6 4 7 3 8 2 9 1 10 12 11 9 12
REMARK H PARENT 9 13
REMARK Flexibility Score: inf
ROOT
ATOM      1  C   UNL     1     -29.765  64.310  84.302  1.00  0.00     0.016 A 
ATOM      2  C   UNL     1     -28.996  64.142  83.146  1.00  0.00     0.047 A 
ATOM      3  C   UNL     1     -28.452  65.256  82.490  1.00  0.00     0.119 A 
ATOM      4  C   UNL     1     -28.679  66.542  82.994  1.00  0.00     0.094 A 
ATOM      5  C   UNL     1     -29.447  66.720  84.150  1.00  0.00     0.142 A 
ATOM      6  C   UNL     1     -29.994  65.596  84.809  1.00  0.00     0.018 A 
ATOM      7  C   UNL     1     -30.757  65.805  85.961  1.00  0.00     0.019 A 
ATOM      8  C   UNL     1     -30.955  67.106  86.425  1.00  0.00     0.094 A 
ATOM      9  C   UNL     1     -30.382  68.171  85.720  1.00  0.00     0.336 A 
ATOM     10  O   UNL     1     -30.550  69.352  86.123  1.00  0.00    -0.246 OA
ATOM     11  O   UNL     1     -29.661  67.944  84.626  1.00  0.00    -0.423 OA
ENDROOT
BRANCH   3  12
ATOM     12  O   UNL     1     -27.685  65.096  81.338  1.00  0.00    -0.508 OA
ATOM     13  H   UNL     1     -26.675  65.180  81.359  1.00  0.00     0.293 HD
ENDBRANCH   3  12
TORSDOF 1
ENDMDL
MODEL 6
REMARK VINA RESULT:    -6.437      2.352      3.405
REMARK INTER + INTRA:          -6.625
REMARK INTER:                  -6.625
REMARK INTRA:                   0.000
REMARK UNBOUND:                 0.000
REMARK SMILES O=c1ccc2ccc(O)cc2o1
REMARK SMILES IDX 6 1 7 2 8 3 10 4 11 5 5 6 4 7 3 8 2 9 1 10 12 11 9 12
REMARK H PARENT 9 13
REMARK Flexibility Score: inf
ROOT
ATOM      1  C   UNL     1     -28.576  65.004  83.735  1.00  0.00     0.016 A 
ATOM      2  C   UNL     1     -29.362  63.873  83.981  1.00  0.00     0.047 A 
ATOM      3  C   UNL     1     -30.017  63.721  85.212  1.00  0.00     0.119 A 
ATOM      4  C   UNL     1     -29.883  64.704  86.200  1.00  0.00     0.094 A 
ATOM      5  C   UNL     1     -29.098  65.839  85.963  1.00  0.00     0.142 A 
ATOM      6  C   UNL     1     -28.440  65.989  84.722  1.00  0.00     0.018 A 
ATOM      7  C   UNL     1     -27.663  67.133  84.515  1.00  0.00     0.019 A 
ATOM      8  C   UNL     1     -27.561  68.084  85.529  1.00  0.00     0.094 A 
ATOM      9  C   UNL     1     -28.242  67.868  86.733  1.00  0.00     0.336 A 
ATOM     10  O   UNL     1     -28.161  68.715  87.661  1.00  0.00    -0.246 OA
ATOM     11  O   UNL     1     -28.974  66.771  86.905  1.00  0.00    -0.423 OA
ENDROOT
BRANCH   3  12
ATOM     12  O   UNL     1     -30.801  62.598  85.464  1.00  0.00    -0.508 OA
ATOM     13  H   UNL     1     -30.385  61.689  85.630  1.00  0.00     0.293 HD
ENDBRANCH   3  12
TORSDOF 1
ENDMDL
MODEL 7
REMARK VINA RESULT:    -6.362      2.255      3.941
REMARK INTER + INTRA:          -6.548
REMARK INTER:                  -6.548
REMARK INTRA:                   0.000
REMARK UNBOUND:                 0.000
REMARK SMILES O=c1ccc2ccc(O)cc2o1
REMARK SMILES IDX 6 1 7 2 8 3 10 4 11 5 5 6 4 7 3 8 2 9 1 10 12 11 9 12
REMARK H PARENT 9 13
REMARK Flexibility Score: inf
ROOT
ATOM      1  C   UNL     1     -29.655  67.564  86.468  1.00  0.00     0.016 A 
ATOM      2  C   UNL     1     -28.647  68.533  86.420  1.00  0.00     0.047 A 
ATOM      3  C   UNL     1     -27.420  68.248  85.804  1.00  0.00     0.119 A 
ATOM      4  C   UNL     1     -27.201  66.987  85.236  1.00  0.00     0.094 A 
ATOM      5  C   UNL     1     -28.203  66.011  85.279  1.00  0.00     0.142 A 
ATOM      6  C   UNL     1     -29.438  66.302  85.900  1.00  0.00     0.018 A 
ATOM      7  C   UNL     1     -30.420  65.307  85.928  1.00  0.00     0.019 A 
ATOM      8  C   UNL     1     -30.155  64.067  85.347  1.00  0.00     0.094 A 
ATOM      9  C   UNL     1     -28.907  63.851  84.750  1.00  0.00     0.336 A 
ATOM     10  O   UNL     1     -28.650  62.737  84.221  1.00  0.00    -0.246 OA
ATOM     11  O   UNL     1     -27.991  64.814  84.737  1.00  0.00    -0.423 OA
ENDROOT
BRANCH   3  12
ATOM     12  O   UNL     1     -26.412  69.207  85.752  1.00  0.00    -0.508 OA
ATOM     13  H   UNL     1     -26.583  70.170  86.020  1.00  0.00     0.293 HD
ENDBRANCH   3  12
TORSDOF 1
ENDMDL
MODEL 8
REMARK VINA RESULT:    -6.252      2.316      3.822
REMARK INTER + INTRA:          -6.435
REMARK INTER:                  -6.435
REMARK INTRA:                   0.000
REMARK UNBOUND:                 0.000
REMARK SMILES O=c1ccc2ccc(O)cc2o1
REMARK SMILES IDX 6 1 7 2 8 3 10 4 11 5 5 6 4 7 3 8 2 9 1 10 12 11 9 12
REMARK H PARENT 9 13
REMARK Flexibility Score: inf
ROOT
ATOM      1  C   UNL     1     -29.591  67.940  86.324  1.00  0.00     0.016 A 
ATOM      2  C   UNL     1     -28.481  68.616  86.839  1.00  0.00     0.047 A 
ATOM      3  C   UNL     1     -27.225  68.482  86.229  1.00  0.00     0.119 A 
ATOM      4  C   UNL     1     -27.081  67.666  85.099  1.00  0.00     0.094 A 
ATOM      5  C   UNL     1     -28.186  66.986  84.577  1.00  0.00     0.142 A 
ATOM      6  C   UNL     1     -29.450  67.123  85.194  1.00  0.00     0.018 A 
ATOM      7  C   UNL     1     -30.536  66.431  84.650  1.00  0.00     0.019 A 
ATOM      8  C   UNL     1     -30.343  65.631  83.523  1.00  0.00     0.094 A 
ATOM      9  C   UNL     1     -29.061  65.543  82.966  1.00  0.00     0.336 A 
ATOM     10  O   UNL     1     -28.868  64.826  81.949  1.00  0.00    -0.246 OA
ATOM     11  O   UNL     1     -28.046  66.212  83.504  1.00  0.00    -0.423 OA
ENDROOT
BRANCH   3  12
ATOM     12  O   UNL     1     -26.115  69.153  86.736  1.00  0.00    -0.508 OA
ATOM     13  H   UNL     1     -25.946  69.218  87.733  1.00  0.00     0.293 HD
ENDBRANCH   3  12
TORSDOF 1
ENDMDL
MODEL 9
REMARK VINA RESULT:    -6.122      2.606      3.506
REMARK INTER + INTRA:          -6.301
REMARK INTER:                  -6.301
REMARK INTRA:                   0.000
REMARK UNBOUND:                 0.000
REMARK SMILES O=c1ccc2ccc(O)cc2o1
REMARK SMILES IDX 6 1 7 2 8 3 10 4 11 5 5 6 4 7 3 8 2 9 1 10 12 11 9 12
REMARK H PARENT 9 13
REMARK Flexibility Score: inf
ROOT
ATOM      1  C   UNL     1     -28.434  65.978  86.497  1.00  0.00     0.016 A 
ATOM      2  C   UNL     1     -28.664  67.326  86.789  1.00  0.00     0.047 A 
ATOM      3  C   UNL     1     -29.301  68.154  85.853  1.00  0.00     0.119 A 
ATOM      4  C   UNL     1     -29.708  67.629  84.620  1.00  0.00     0.094 A 
ATOM      5  C   UNL     1     -29.482  66.282  84.319  1.00  0.00     0.142 A 
ATOM      6  C   UNL     1     -28.840  65.450  85.264  1.00  0.00     0.018 A 
ATOM      7  C   UNL     1     -28.627  64.108  84.934  1.00  0.00     0.019 A 
ATOM      8  C   UNL     1     -29.051  63.632  83.694  1.00  0.00     0.094 A 
ATOM      9  C   UNL     1     -29.681  64.515  82.808  1.00  0.00     0.336 A 
ATOM     10  O   UNL     1     -30.070  64.104  81.683  1.00  0.00    -0.246 OA
ATOM     11  O   UNL     1     -29.870  65.787  83.146  1.00  0.00    -0.423 OA
ENDROOT
BRANCH   3  12
ATOM     12  O   UNL     1     -29.535  69.497  86.137  1.00  0.00    -0.508 OA
ATOM     13  H   UNL     1     -29.864  69.796  87.048  1.00  0.00     0.293 HD
ENDBRANCH   3  12
TORSDOF 1
ENDMDL
