MODEL 1
REMARK VINA RESULT:    -1.805      0.000      0.000
REMARK INTER + INTRA:          -3.071
REMARK INTER:                  -2.755
REMARK INTRA:                  -0.316
REMARK UNBOUND:                -0.316
REMARK SMILES CCCCCCCCCCC(=O)[O-]
REMARK SMILES IDX 7 1 8 2 9 3 10 4 11 5 12 6 13 7 6 8 5 9 4 10 3 11 2 12 1 13
REMARK H PARENT
REMARK Flexibility Score: inf
ROOT
ATOM      1  C   UNL     1      58.738  -4.793  -2.857  1.00  0.00     0.000 C 
ENDROOT
BRANCH   1   2
ATOM      2  C   UNL     1      59.043  -6.287  -2.664  1.00  0.00     0.000 C 
BRANCH   2   3
ATOM      3  C   UNL     1      58.920  -6.730  -1.195  1.00  0.00     0.006 C 
BRANCH   3   4
ATOM      4  C   UNL     1      58.946  -5.539  -0.228  1.00  0.00     0.053 C 
BRANCH   4   5
ATOM      5  C   UNL     1      58.390  -5.903   1.115  1.00  0.00     0.041 C 
ATOM      6  O   UNL     1      58.877  -6.866   1.762  1.00  0.00    -0.550 OA
ATOM      7  O   UNL     1      57.311  -5.199   1.636  1.00  0.00    -0.550 OA
ENDBRANCH   4   5
ENDBRANCH   3   4
ENDBRANCH   2   3
ENDBRANCH   1   2
BRANCH   1   8
ATOM      8  C   UNL     1      58.187  -4.478  -4.256  1.00  0.00     0.000 C 
BRANCH   8   9
ATOM      9  C   UNL     1      58.668  -3.104  -4.739  1.00  0.00    -0.000 C 
BRANCH   9  10
ATOM     10  C   UNL     1      58.917  -3.111  -6.255  1.00  0.00    -0.000 C 
BRANCH  10  11
ATOM     11  C   UNL     1      59.042  -1.695  -6.841  1.00  0.00    -0.000 C 
BRANCH  11  12
ATOM     12  C   UNL     1      57.970  -0.736  -6.305  1.00  0.00    -0.003 C 
ATOM     13  C   UNL     1      58.264   0.703  -6.720  1.00  0.00     0.004 C 
ENDBRANCH  11  12
ENDBRANCH  10  11
ENDBRANCH   9  10
ENDBRANCH   8   9
ENDBRANCH   1   8
TORSDOF 9
ENDMDL
MODEL 2
REMARK VINA RESULT:    -1.301      3.603      7.238
REMARK INTER + INTRA:          -2.302
REMARK INTER:                  -1.905
REMARK INTRA:                  -0.397
REMARK UNBOUND:                -0.316
REMARK SMILES CCCCCCCCCCC(=O)[O-]
REMARK SMILES IDX 7 1 8 2 9 3 10 4 11 5 12 6 13 7 6 8 5 9 4 10 3 11 2 12 1 13
REMARK H PARENT
REMARK Flexibility Score: inf
ROOT
ATOM      1  C   UNL     1      58.165  -3.748  -4.155  1.00  0.00     0.000 C 
ENDROOT
BRANCH   1   2
ATOM      2  C   UNL     1      58.732  -3.893  -5.576  1.00  0.00     0.000 C 
BRANCH   2   3
ATOM      3  C   UNL     1      58.024  -2.978  -6.591  1.00  0.00     0.006 C 
BRANCH   3   4
ATOM      4  C   UNL     1      58.775  -1.657  -6.801  1.00  0.00     0.053 C 
BRANCH   4   5
ATOM      5  C   UNL     1      58.137  -0.529  -6.051  1.00  0.00     0.041 C 
ATOM      6  O   UNL     1      58.709   0.590  -5.983  1.00  0.00    -0.550 OA
ATOM      7  O   UNL     1      56.927  -0.724  -5.397  1.00  0.00    -0.550 OA
ENDBRANCH   4   5
ENDBRANCH   3   4
ENDBRANCH   2   3
ENDBRANCH   1   2
BRANCH   1   8
ATOM      8  C   UNL     1      59.021  -4.467  -3.100  1.00  0.00     0.000 C 
BRANCH   8   9
ATOM      9  C   UNL     1      58.713  -5.969  -3.074  1.00  0.00    -0.000 C 
BRANCH   9  10
ATOM     10  C   UNL     1      59.123  -6.591  -1.731  1.00  0.00    -0.000 C 
BRANCH  10  11
ATOM     11  C   UNL     1      58.976  -5.611  -0.555  1.00  0.00    -0.000 C 
BRANCH  11  12
ATOM     12  C   UNL     1      58.908  -6.324   0.803  1.00  0.00    -0.003 C 
ATOM     13  C   UNL     1      57.711  -5.841   1.617  1.00  0.00     0.004 C 
ENDBRANCH  11  12
ENDBRANCH  10  11
ENDBRANCH   9  10
ENDBRANCH   8   9
ENDBRANCH   1   8
TORSDOF 9
ENDMDL
