MODEL 1
REMARK VINA RESULT:    -3.969      0.000      0.000
REMARK INTER + INTRA:          -4.838
REMARK INTER:                  -4.781
REMARK INTRA:                  -0.057
REMARK UNBOUND:                -0.057
REMARK SMILES CC[C@H](C)[C@@H]([NH3+])C(=O)[O-]
REMARK SMILES IDX 3 1 4 2 5 3 6 4 7 8 8 9 9 10 2 11 1 12
REMARK H PARENT 6 5 6 6 6 7
REMARK Flexibility Score: inf
ROOT
ATOM      1  C   UNL     1       1.818  29.022  12.515  1.00  0.00     0.050 C 
ATOM      2  C   UNL     1       0.896  29.432  13.680  1.00  0.00     0.014 C 
ENDROOT
BRANCH   1   3
ATOM      3  C   UNL     1       2.835  27.907  12.912  1.00  0.00     0.230 C 
BRANCH   3   4
ATOM      4  N   UNL     1       2.506  27.263  14.195  1.00  0.00    -0.350 N 
ATOM      5  H   UNL     1       3.091  27.682  14.955  1.00  0.00     0.345 HD
ATOM      6  H   UNL     1       1.505  27.431  14.440  1.00  0.00     0.345 HD
ATOM      7  H   UNL     1       2.688  26.235  14.164  1.00  0.00     0.345 HD
ENDBRANCH   3   4
BRANCH   3   8
ATOM      8  C   UNL     1       2.977  26.883  11.811  1.00  0.00     0.099 C 
ATOM      9  O   UNL     1       2.353  25.790  11.859  1.00  0.00    -0.544 OA
ATOM     10  O   UNL     1       3.772  27.167  10.709  1.00  0.00    -0.544 OA
ENDBRANCH   3   8
ENDBRANCH   1   3
BRANCH   1  11
ATOM     11  C   UNL     1       2.542  30.252  11.914  1.00  0.00     0.006 C 
ATOM     12  C   UNL     1       1.587  31.215  11.205  1.00  0.00     0.004 C 
ENDBRANCH   1  11
TORSDOF 4
ENDMDL
MODEL 2
REMARK VINA RESULT:    -3.889      0.737      1.156
REMARK INTER + INTRA:          -4.741
REMARK INTER:                  -4.594
REMARK INTRA:                  -0.147
REMARK UNBOUND:                -0.057
REMARK SMILES CC[C@H](C)[C@@H]([NH3+])C(=O)[O-]
REMARK SMILES IDX 3 1 4 2 5 3 6 4 7 8 8 9 9 10 2 11 1 12
REMARK H PARENT 6 5 6 6 6 7
REMARK Flexibility Score: inf
ROOT
ATOM      1  C   UNL     1       2.116  29.040  12.294  1.00  0.00     0.050 C 
ATOM      2  C   UNL     1       1.044  29.434  13.329  1.00  0.00     0.014 C 
ENDROOT
BRANCH   1   3
ATOM      3  C   UNL     1       2.954  27.800  12.733  1.00  0.00     0.230 C 
BRANCH   3   4
ATOM      4  N   UNL     1       2.500  27.225  14.011  1.00  0.00    -0.350 N 
ATOM      5  H   UNL     1       2.311  27.997  14.692  1.00  0.00     0.345 HD
ATOM      6  H   UNL     1       1.608  26.699  13.876  1.00  0.00     0.345 HD
ATOM      7  H   UNL     1       3.221  26.589  14.421  1.00  0.00     0.345 HD
ENDBRANCH   3   4
BRANCH   3   8
ATOM      8  C   UNL     1       2.985  26.751  11.647  1.00  0.00     0.099 C 
ATOM      9  O   UNL     1       2.486  25.610  11.834  1.00  0.00    -0.544 OA
ATOM     10  O   UNL     1       3.531  27.063  10.408  1.00  0.00    -0.544 OA
ENDBRANCH   3   8
ENDBRANCH   1   3
BRANCH   1  11
ATOM     11  C   UNL     1       3.030  30.241  11.949  1.00  0.00     0.006 C 
ATOM     12  C   UNL     1       4.456  30.073  12.479  1.00  0.00     0.004 C 
ENDBRANCH   1  11
TORSDOF 4
ENDMDL
MODEL 3
REMARK VINA RESULT:    -3.819      2.944      3.407
REMARK INTER + INTRA:          -4.657
REMARK INTER:                  -4.593
REMARK INTRA:                  -0.064
REMARK UNBOUND:                -0.057
REMARK SMILES CC[C@H](C)[C@@H]([NH3+])C(=O)[O-]
REMARK SMILES IDX 3 1 4 2 5 3 6 4 7 8 8 9 9 10 2 11 1 12
REMARK H PARENT 6 5 6 6 6 7
REMARK Flexibility Score: inf
ROOT
ATOM      1  C   UNL     1       2.391  29.489  13.165  1.00  0.00     0.050 C 
ATOM      2  C   UNL     1       3.581  29.023  12.303  1.00  0.00     0.014 C 
ENDROOT
BRANCH   1   3
ATOM      3  C   UNL     1       1.743  28.327  13.980  1.00  0.00     0.230 C 
BRANCH   3   4
ATOM      4  N   UNL     1       2.608  27.138  14.067  1.00  0.00    -0.350 N 
ATOM      5  H   UNL     1       3.405  27.333  14.717  1.00  0.00     0.345 HD
ATOM      6  H   UNL     1       2.074  26.329  14.457  1.00  0.00     0.345 HD
ATOM      7  H   UNL     1       2.997  26.879  13.133  1.00  0.00     0.345 HD
ENDBRANCH   3   4
BRANCH   3   8
ATOM      8  C   UNL     1       1.322  28.794  15.353  1.00  0.00     0.099 C 
ATOM      9  O   UNL     1       2.144  28.826  16.307  1.00  0.00    -0.544 OA
ATOM     10  O   UNL     1       0.022  29.237  15.558  1.00  0.00    -0.544 OA
ENDBRANCH   3   8
ENDBRANCH   1   3
BRANCH   1  11
ATOM     11  C   UNL     1       1.335  30.230  12.308  1.00  0.00     0.006 C 
ATOM     12  C   UNL     1       1.938  31.355  11.465  1.00  0.00     0.004 C 
ENDBRANCH   1  11
TORSDOF 4
ENDMDL
MODEL 4
REMARK VINA RESULT:    -3.735      1.614      2.506
REMARK INTER + INTRA:          -4.556
REMARK INTER:                  -4.464
REMARK INTRA:                  -0.093
REMARK UNBOUND:                -0.057
REMARK SMILES CC[C@H](C)[C@@H]([NH3+])C(=O)[O-]
REMARK SMILES IDX 3 1 4 2 5 3 6 4 7 8 8 9 9 10 2 11 1 12
REMARK H PARENT 6 5 6 6 6 7
REMARK Flexibility Score: inf
ROOT
ATOM      1  C   UNL     1       2.387  28.738  13.477  1.00  0.00     0.050 C 
ATOM      2  C   UNL     1       1.129  29.475  12.977  1.00  0.00     0.014 C 
ENDROOT
BRANCH   1   3
ATOM      3  C   UNL     1       2.733  27.481  12.620  1.00  0.00     0.230 C 
BRANCH   3   4
ATOM      4  N   UNL     1       1.547  26.677  12.279  1.00  0.00    -0.350 N 
ATOM      5  H   UNL     1       1.736  26.130  11.407  1.00  0.00     0.345 HD
ATOM      6  H   UNL     1       1.341  25.993  13.041  1.00  0.00     0.345 HD
ATOM      7  H   UNL     1       0.710  27.280  12.118  1.00  0.00     0.345 HD
ENDBRANCH   3   4
BRANCH   3   8
ATOM      8  C   UNL     1       3.504  27.864  11.379  1.00  0.00     0.099 C 
ATOM      9  O   UNL     1       3.451  27.155  10.339  1.00  0.00    -0.544 OA
ATOM     10  O   UNL     1       4.246  29.038  11.367  1.00  0.00    -0.544 OA
ENDBRANCH   3   8
ENDBRANCH   1   3
BRANCH   1  11
ATOM     11  C   UNL     1       2.265  28.376  14.978  1.00  0.00     0.006 C 
ATOM     12  C   UNL     1       0.918  28.784  15.578  1.00  0.00     0.004 C 
ENDBRANCH   1  11
TORSDOF 4
ENDMDL
MODEL 5
REMARK VINA RESULT:    -3.476      3.359      4.640
REMARK INTER + INTRA:          -4.244
REMARK INTER:                  -4.110
REMARK INTRA:                  -0.134
REMARK UNBOUND:                -0.057
REMARK SMILES CC[C@H](C)[C@@H]([NH3+])C(=O)[O-]
REMARK SMILES IDX 3 1 4 2 5 3 6 4 7 8 8 9 9 10 2 11 1 12
REMARK H PARENT 6 5 6 6 6 7
REMARK Flexibility Score: inf
ROOT
ATOM      1  C   UNL     1       3.223  25.810  10.527  1.00  0.00     0.050 C 
ATOM      2  C   UNL     1       3.692  27.273  10.651  1.00  0.00     0.014 C 
ENDROOT
BRANCH   1   3
ATOM      3  C   UNL     1       2.102  25.446  11.548  1.00  0.00     0.230 C 
BRANCH   3   4
ATOM      4  N   UNL     1       1.574  26.621  12.262  1.00  0.00    -0.350 N 
ATOM      5  H   UNL     1       2.365  27.255  12.521  1.00  0.00     0.345 HD
ATOM      6  H   UNL     1       0.927  27.161  11.645  1.00  0.00     0.345 HD
ATOM      7  H   UNL     1       1.071  26.344  13.135  1.00  0.00     0.345 HD
ENDBRANCH   3   4
BRANCH   3   8
ATOM      8  C   UNL     1       0.989  24.670  10.882  1.00  0.00     0.099 C 
ATOM      9  O   UNL     1       0.930  24.571   9.628  1.00  0.00    -0.544 OA
ATOM     10  O   UNL     1       0.045  24.018  11.664  1.00  0.00    -0.544 OA
ENDBRANCH   3   8
ENDBRANCH   1   3
BRANCH   1  11
ATOM     11  C   UNL     1       4.416  24.828  10.631  1.00  0.00     0.006 C 
ATOM     12  C   UNL     1       4.582  23.960   9.382  1.00  0.00     0.004 C 
ENDBRANCH   1  11
TORSDOF 4
ENDMDL
MODEL 6
REMARK VINA RESULT:    -3.441      2.199      2.951
REMARK INTER + INTRA:          -4.202
REMARK INTER:                  -4.218
REMARK INTRA:                   0.017
REMARK UNBOUND:                -0.057
REMARK SMILES CC[C@H](C)[C@@H]([NH3+])C(=O)[O-]
REMARK SMILES IDX 3 1 4 2 5 3 6 4 7 8 8 9 9 10 2 11 1 12
REMARK H PARENT 6 5 6 6 6 7
REMARK Flexibility Score: inf
ROOT
ATOM      1  C   UNL     1       3.155  27.327  11.937  1.00  0.00     0.050 C 
ATOM      2  C   UNL     1       3.539  27.882  10.551  1.00  0.00     0.014 C 
ENDROOT
BRANCH   1   3
ATOM      3  C   UNL     1       2.602  25.870  11.872  1.00  0.00     0.230 C 
BRANCH   3   4
ATOM      4  N   UNL     1       1.133  25.819  11.773  1.00  0.00    -0.350 N 
ATOM      5  H   UNL     1       0.858  25.153  11.013  1.00  0.00     0.345 HD
ATOM      6  H   UNL     1       0.721  25.466  12.665  1.00  0.00     0.345 HD
ATOM      7  H   UNL     1       0.733  26.758  11.552  1.00  0.00     0.345 HD
ENDBRANCH   3   4
BRANCH   3   8
ATOM      8  C   UNL     1       3.249  25.091  10.750  1.00  0.00     0.099 C 
ATOM      9  O   UNL     1       2.623  24.850   9.684  1.00  0.00    -0.544 OA
ATOM     10  O   UNL     1       4.567  24.674  10.877  1.00  0.00    -0.544 OA
ENDBRANCH   3   8
ENDBRANCH   1   3
BRANCH   1  11
ATOM     11  C   UNL     1       2.166  28.270  12.665  1.00  0.00     0.006 C 
ATOM     12  C   UNL     1       2.458  28.394  14.162  1.00  0.00     0.004 C 
ENDBRANCH   1  11
TORSDOF 4
ENDMDL
MODEL 7
REMARK VINA RESULT:    -3.434      2.408      3.150
REMARK INTER + INTRA:          -4.193
REMARK INTER:                  -4.119
REMARK INTRA:                  -0.074
REMARK UNBOUND:                -0.057
REMARK SMILES CC[C@H](C)[C@@H]([NH3+])C(=O)[O-]
REMARK SMILES IDX 3 1 4 2 5 3 6 4 7 8 8 9 9 10 2 11 1 12
REMARK H PARENT 6 5 6 6 6 7
REMARK Flexibility Score: inf
ROOT
ATOM      1  C   UNL     1       3.594  28.359  11.702  1.00  0.00     0.050 C 
ATOM      2  C   UNL     1       3.833  27.748  10.307  1.00  0.00     0.014 C 
ENDROOT
BRANCH   1   3
ATOM      3  C   UNL     1       2.282  27.843  12.371  1.00  0.00     0.230 C 
BRANCH   3   4
ATOM      4  N   UNL     1       2.343  26.415  12.726  1.00  0.00    -0.350 N 
ATOM      5  H   UNL     1       3.342  26.133  12.863  1.00  0.00     0.345 HD
ATOM      6  H   UNL     1       1.841  26.242  13.625  1.00  0.00     0.345 HD
ATOM      7  H   UNL     1       1.929  25.817  11.976  1.00  0.00     0.345 HD
ENDBRANCH   3   4
BRANCH   3   8
ATOM      8  C   UNL     1       1.914  28.685  13.570  1.00  0.00     0.099 C 
ATOM      9  O   UNL     1       0.870  29.389  13.570  1.00  0.00    -0.544 OA
ATOM     10  O   UNL     1       2.713  28.648  14.705  1.00  0.00    -0.544 OA
ENDBRANCH   3   8
ENDBRANCH   1   3
BRANCH   1  11
ATOM     11  C   UNL     1       3.625  29.906  11.650  1.00  0.00     0.006 C 
ATOM     12  C   UNL     1       4.864  30.498  12.325  1.00  0.00     0.004 C 
ENDBRANCH   1  11
TORSDOF 4
ENDMDL
MODEL 8
REMARK VINA RESULT:    -3.423      2.208      3.474
REMARK INTER + INTRA:          -4.180
REMARK INTER:                  -4.257
REMARK INTRA:                   0.077
REMARK UNBOUND:                -0.057
REMARK SMILES CC[C@H](C)[C@@H]([NH3+])C(=O)[O-]
REMARK SMILES IDX 3 1 4 2 5 3 6 4 7 8 8 9 9 10 2 11 1 12
REMARK H PARENT 6 5 6 6 6 7
REMARK Flexibility Score: inf
ROOT
ATOM      1  C   UNL     1       3.161  26.772  11.747  1.00  0.00     0.050 C 
ATOM      2  C   UNL     1       2.426  25.446  11.467  1.00  0.00     0.014 C 
ENDROOT
BRANCH   1   3
ATOM      3  C   UNL     1       2.369  27.710  12.711  1.00  0.00     0.230 C 
BRANCH   3   4
ATOM      4  N   UNL     1       2.456  27.288  14.119  1.00  0.00    -0.350 N 
ATOM      5  H   UNL     1       1.613  26.719  14.364  1.00  0.00     0.345 HD
ATOM      6  H   UNL     1       3.297  26.687  14.268  1.00  0.00     0.345 HD
ATOM      7  H   UNL     1       2.499  28.111  14.762  1.00  0.00     0.345 HD
ENDBRANCH   3   4
BRANCH   3   8
ATOM      8  C   UNL     1       2.801  29.148  12.547  1.00  0.00     0.099 C 
ATOM      9  O   UNL     1       3.932  29.534  12.945  1.00  0.00    -0.544 OA
ATOM     10  O   UNL     1       1.958  30.048  11.908  1.00  0.00    -0.544 OA
ENDBRANCH   3   8
ENDBRANCH   1   3
BRANCH   1  11
ATOM     11  C   UNL     1       3.524  27.501  10.430  1.00  0.00     0.006 C 
ATOM     12  C   UNL     1       3.808  26.535   9.277  1.00  0.00     0.004 C 
ENDBRANCH   1  11
TORSDOF 4
ENDMDL
MODEL 9
REMARK VINA RESULT:    -3.353      1.836      2.386
REMARK INTER + INTRA:          -4.096
REMARK INTER:                  -4.013
REMARK INTRA:                  -0.083
REMARK UNBOUND:                -0.057
REMARK SMILES CC[C@H](C)[C@@H]([NH3+])C(=O)[O-]
REMARK SMILES IDX 3 1 4 2 5 3 6 4 7 8 8 9 9 10 2 11 1 12
REMARK H PARENT 6 5 6 6 6 7
REMARK Flexibility Score: inf
ROOT
ATOM      1  C   UNL     1       3.008  30.001  12.156  1.00  0.00     0.050 C 
ATOM      2  C   UNL     1       4.140  30.959  11.732  1.00  0.00     0.014 C 
ENDROOT
BRANCH   1   3
ATOM      3  C   UNL     1       3.146  28.584  11.520  1.00  0.00     0.230 C 
BRANCH   3   4
ATOM      4  N   UNL     1       4.502  28.313  11.012  1.00  0.00    -0.350 N 
ATOM      5  H   UNL     1       4.765  27.324  11.231  1.00  0.00     0.345 HD
ATOM      6  H   UNL     1       4.530  28.424   9.974  1.00  0.00     0.345 HD
ATOM      7  H   UNL     1       5.207  28.949  11.449  1.00  0.00     0.345 HD
ENDBRANCH   3   4
BRANCH   3   8
ATOM      8  C   UNL     1       2.703  27.508  12.484  1.00  0.00     0.099 C 
ATOM      9  O   UNL     1       2.674  27.724  13.725  1.00  0.00    -0.544 OA
ATOM     10  O   UNL     1       2.278  26.281  11.994  1.00  0.00    -0.544 OA
ENDBRANCH   3   8
ENDBRANCH   1   3
BRANCH   1  11
ATOM     11  C   UNL     1       1.616  30.614  11.863  1.00  0.00     0.006 C 
ATOM     12  C   UNL     1       1.575  31.391  10.545  1.00  0.00     0.004 C 
ENDBRANCH   1  11
TORSDOF 4
ENDMDL
