MODEL 1
REMARK VINA RESULT:    16.726      0.000      0.000
REMARK INTER + INTRA:          18.193
REMARK INTER:                  18.193
REMARK INTRA:                   0.000
REMARK UNBOUND:                 0.000
REMARK SMILES Cc1cc(O)c2c(c1)C(=O)c1cc(O)cc(O)c1C2=O
REMARK SMILES IDX 1 1 2 2 8 3 7 4 6 5 4 6 3 7 19 8 20 9 18 10 11 11 9 12 10 13
REMARK SMILES IDX 12 14 13 15 15 16 16 17 5 18 17 20 14 22
REMARK H PARENT 5 19 17 21 14 23
REMARK Flexibility Score: inf
ROOT
ATOM      1  C   UNL     1     140.560 170.705 177.901  1.00  0.00     0.044 C 
ATOM      2  C   UNL     1     141.359 171.714 177.129  1.00  0.00    -0.047 A 
ATOM      3  C   UNL     1     140.852 172.253 175.942  1.00  0.00     0.016 A 
ATOM      4  C   UNL     1     141.604 173.177 175.197  1.00  0.00     0.038 A 
ATOM      5  C   UNL     1     142.885 173.567 175.648  1.00  0.00     0.076 A 
ATOM      6  C   UNL     1     143.427 172.952 176.806  1.00  0.00     0.127 A 
ATOM      7  C   UNL     1     142.652 172.052 177.542  1.00  0.00     0.050 A 
ATOM      8  C   UNL     1     143.587 174.653 174.917  1.00  0.00     0.201 C 
ATOM      9  O   UNL     1     144.382 175.411 175.533  1.00  0.00    -0.288 OA
ATOM     10  C   UNL     1     143.209 174.961 173.513  1.00  0.00     0.076 A 
ATOM     11  C   UNL     1     141.928 174.567 173.064  1.00  0.00     0.041 A 
ATOM     12  C   UNL     1     141.063 173.738 173.936  1.00  0.00     0.194 C 
ATOM     13  O   UNL     1     139.874 173.491 173.594  1.00  0.00    -0.289 OA
ATOM     14  C   UNL     1     141.483 174.959 171.791  1.00  0.00     0.059 A 
ATOM     15  C   UNL     1     142.303 175.724 170.956  1.00  0.00     0.120 A 
ATOM     16  C   UNL     1     143.583 176.080 171.379  1.00  0.00     0.093 A 
ATOM     17  C   UNL     1     144.058 175.685 172.635  1.00  0.00     0.131 A 
ENDROOT
BRANCH   6  18
ATOM     18  O   UNL     1     144.736 173.179 177.238  1.00  0.00    -0.507 OA
ATOM     19  H   UNL     1     144.966 173.583 178.136  1.00  0.00     0.293 HD
ENDBRANCH   6  18
BRANCH  17  20
ATOM     20  O   UNL     1     145.381 176.001 172.950  1.00  0.00    -0.507 OA
ATOM     21  H   UNL     1     145.801 175.809 173.849  1.00  0.00     0.293 HD
ENDBRANCH  17  20
BRANCH  15  22
ATOM     22  O   UNL     1     141.860 176.125 169.698  1.00  0.00    -0.508 OA
ATOM     23  H   UNL     1     141.047 176.721 169.588  1.00  0.00     0.293 HD
ENDBRANCH  15  22
TORSDOF 3
ENDMDL
MODEL 2
REMARK VINA RESULT:    17.553      1.617      5.589
REMARK INTER + INTRA:          19.092
REMARK INTER:                  19.092
REMARK INTRA:                   0.000
REMARK UNBOUND:                 0.000
REMARK SMILES Cc1cc(O)c2c(c1)C(=O)c1cc(O)cc(O)c1C2=O
REMARK SMILES IDX 1 1 2 2 8 3 7 4 6 5 4 6 3 7 19 8 20 9 18 10 11 11 9 12 10 13
REMARK SMILES IDX 12 14 13 15 15 16 16 17 5 18 17 20 14 22
REMARK H PARENT 5 19 17 21 14 23
REMARK Flexibility Score: inf
ROOT
ATOM      1  C   UNL     1     141.983 176.125 170.743  1.00  0.00     0.044 C 
ATOM      2  C   UNL     1     142.494 175.544 172.029  1.00  0.00    -0.047 A 
ATOM      3  C   UNL     1     141.700 174.657 172.764  1.00  0.00     0.016 A 
ATOM      4  C   UNL     1     142.157 174.129 173.984  1.00  0.00     0.038 A 
ATOM      5  C   UNL     1     143.430 174.496 174.475  1.00  0.00     0.076 A 
ATOM      6  C   UNL     1     144.193 175.460 173.767  1.00  0.00     0.127 A 
ATOM      7  C   UNL     1     143.727 175.955 172.546  1.00  0.00     0.050 A 
ATOM      8  C   UNL     1     143.940 173.807 175.688  1.00  0.00     0.201 C 
ATOM      9  O   UNL     1     145.180 173.640 175.839  1.00  0.00    -0.288 OA
ATOM     10  C   UNL     1     142.986 173.150 176.620  1.00  0.00     0.076 A 
ATOM     11  C   UNL     1     141.712 172.788 176.125  1.00  0.00     0.041 A 
ATOM     12  C   UNL     1     141.306 173.197 174.760  1.00  0.00     0.194 C 
ATOM     13  O   UNL     1     140.225 172.770 174.269  1.00  0.00    -0.289 OA
ATOM     14  C   UNL     1     140.835 172.045 176.934  1.00  0.00     0.059 A 
ATOM     15  C   UNL     1     141.205 171.674 178.230  1.00  0.00     0.120 A 
ATOM     16  C   UNL     1     142.445 172.065 178.734  1.00  0.00     0.093 A 
ATOM     17  C   UNL     1     143.329 172.822 177.957  1.00  0.00     0.131 A 
ENDROOT
BRANCH   6  18
ATOM     18  O   UNL     1     145.395 175.977 174.255  1.00  0.00    -0.507 OA
ATOM     19  H   UNL     1     145.534 176.257 175.216  1.00  0.00     0.293 HD
ENDBRANCH   6  18
BRANCH  17  20
ATOM     20  O   UNL     1     144.511 173.253 178.563  1.00  0.00    -0.507 OA
ATOM     21  H   UNL     1     145.240 172.626 178.875  1.00  0.00     0.293 HD
ENDBRANCH  17  20
BRANCH  15  22
ATOM     22  O   UNL     1     140.344 170.928 179.029  1.00  0.00    -0.508 OA
ATOM     23  H   UNL     1     139.982 170.030 178.724  1.00  0.00     0.293 HD
ENDBRANCH  15  22
TORSDOF 3
ENDMDL
MODEL 3
REMARK VINA RESULT:    19.165      2.846      6.246
REMARK INTER + INTRA:          20.846
REMARK INTER:                  20.846
REMARK INTRA:                   0.000
REMARK UNBOUND:                 0.000
REMARK SMILES Cc1cc(O)c2c(c1)C(=O)c1cc(O)cc(O)c1C2=O
REMARK SMILES IDX 1 1 2 2 8 3 7 4 6 5 4 6 3 7 19 8 20 9 18 10 11 11 9 12 10 13
REMARK SMILES IDX 12 14 13 15 15 16 16 17 5 18 17 20 14 22
REMARK H PARENT 5 19 17 21 14 23
REMARK Flexibility Score: inf
ROOT
ATOM      1  C   UNL     1     143.195 176.125 172.702  1.00  0.00     0.044 C 
ATOM      2  C   UNL     1     142.680 175.314 173.855  1.00  0.00    -0.047 A 
ATOM      3  C   UNL     1     142.802 173.921 173.844  1.00  0.00     0.016 A 
ATOM      4  C   UNL     1     142.298 173.149 174.905  1.00  0.00     0.038 A 
ATOM      5  C   UNL     1     141.659 173.785 175.994  1.00  0.00     0.076 A 
ATOM      6  C   UNL     1     141.464 175.190 175.958  1.00  0.00     0.127 A 
ATOM      7  C   UNL     1     141.993 175.937 174.902  1.00  0.00     0.050 A 
ATOM      8  C   UNL     1     141.272 172.954 177.163  1.00  0.00     0.201 C 
ATOM      9  O   UNL     1     141.251 173.465 178.315  1.00  0.00    -0.288 OA
ATOM     10  C   UNL     1     141.097 171.488 177.001  1.00  0.00     0.076 A 
ATOM     11  C   UNL     1     141.734 170.856 175.908  1.00  0.00     0.041 A 
ATOM     12  C   UNL     1     142.425 171.673 174.883  1.00  0.00     0.194 C 
ATOM     13  O   UNL     1     143.100 171.110 173.978  1.00  0.00    -0.289 OA
ATOM     14  C   UNL     1     141.706 169.455 175.798  1.00  0.00     0.059 A 
ATOM     15  C   UNL     1     141.038 168.681 176.751  1.00  0.00     0.120 A 
ATOM     16  C   UNL     1     140.375 169.304 177.808  1.00  0.00     0.093 A 
ATOM     17  C   UNL     1     140.371 170.697 177.930  1.00  0.00     0.131 A 
ENDROOT
BRANCH   6  18
ATOM     18  O   UNL     1     140.724 175.874 176.925  1.00  0.00    -0.507 OA
ATOM     19  H   UNL     1     140.992 176.773 177.300  1.00  0.00     0.293 HD
ENDBRANCH   6  18
BRANCH  17  20
ATOM     20  O   UNL     1     139.609 171.251 178.961  1.00  0.00    -0.507 OA
ATOM     21  H   UNL     1     138.756 170.836 179.309  1.00  0.00     0.293 HD
ENDBRANCH  17  20
BRANCH  15  22
ATOM     22  O   UNL     1     141.019 167.292 176.652  1.00  0.00    -0.508 OA
ATOM     23  H   UNL     1     141.620 166.711 177.226  1.00  0.00     0.293 HD
ENDBRANCH  15  22
TORSDOF 3
ENDMDL
