MODEL 1
REMARK VINA RESULT:    -5.198      0.000      0.000
REMARK INTER + INTRA:          -5.701
REMARK INTER:                  -5.502
REMARK INTRA:                  -0.199
REMARK UNBOUND:                -0.199
REMARK SMILES C=C(C)[C@H]1CC[C@]2(C)CCCC(=C)[C@@H]2C1
REMARK SMILES IDX 4 1 5 2 6 3 7 4 9 5 10 6 11 7 12 8 13 9 14 10 15 11 8 12
REMARK SMILES IDX 2 13 3 14 1 15
REMARK H PARENT
REMARK Flexibility Score: inf
ROOT
ATOM      1  C   UNL     1     139.460 138.875 132.434  1.00  0.00     0.015 C 
ATOM      2  C   UNL     1     138.818 139.896 133.384  1.00  0.00     0.008 C 
ATOM      3  C   UNL     1     139.806 140.304 134.484  1.00  0.00     0.008 C 
ATOM      4  C   UNL     1     140.351 139.104 135.317  1.00  0.00    -0.026 C 
ATOM      5  C   UNL     1     141.452 139.657 136.299  1.00  0.00     0.008 C 
ATOM      6  C   UNL     1     142.699 138.772 136.379  1.00  0.00     0.005 C 
ATOM      7  C   UNL     1     143.358 138.667 135.001  1.00  0.00     0.031 C 
ATOM      8  C   UNL     1     142.358 138.307 133.926  1.00  0.00    -0.074 C 
ATOM      9  C   UNL     1     142.811 138.210 132.661  1.00  0.00     0.008 C 
ATOM     10  C   UNL     1     140.919 137.987 134.356  1.00  0.00     0.021 C 
ATOM     11  C   UNL     1     139.931 137.632 133.211  1.00  0.00     0.016 C 
ATOM     12  C   UNL     1     139.211 138.510 136.184  1.00  0.00     0.012 C 
ENDROOT
BRANCH   1  13
ATOM     13  C   UNL     1     138.506 138.491 131.310  1.00  0.00    -0.077 C 
ATOM     14  C   UNL     1     139.016 137.941 130.000  1.00  0.00     0.039 C 
ATOM     15  C   UNL     1     137.183 138.650 131.466  1.00  0.00     0.008 C 
ENDBRANCH   1  13
TORSDOF 1
ENDMDL
MODEL 2
REMARK VINA RESULT:    -5.181      2.903      4.348
REMARK INTER + INTRA:          -5.683
REMARK INTER:                  -5.484
REMARK INTRA:                  -0.199
REMARK UNBOUND:                -0.199
REMARK SMILES C=C(C)[C@H]1CC[C@]2(C)CCCC(=C)[C@@H]2C1
REMARK SMILES IDX 4 1 5 2 6 3 7 4 9 5 10 6 11 7 12 8 13 9 14 10 15 11 8 12
REMARK SMILES IDX 2 13 3 14 1 15
REMARK H PARENT
REMARK Flexibility Score: inf
ROOT
ATOM      1  C   UNL     1     138.831 142.647 132.406  1.00  0.00     0.015 C 
ATOM      2  C   UNL     1     139.820 143.331 133.360  1.00  0.00     0.008 C 
ATOM      3  C   UNL     1     140.233 142.373 134.485  1.00  0.00     0.008 C 
ATOM      4  C   UNL     1     139.034 141.814 135.309  1.00  0.00    -0.026 C 
ATOM      5  C   UNL     1     139.597 140.745 136.320  1.00  0.00     0.008 C 
ATOM      6  C   UNL     1     138.741 139.479 136.409  1.00  0.00     0.005 C 
ATOM      7  C   UNL     1     138.674 138.793 135.042  1.00  0.00     0.031 C 
ATOM      8  C   UNL     1     138.307 139.764 133.942  1.00  0.00    -0.074 C 
ATOM      9  C   UNL     1     138.242 139.286 132.685  1.00  0.00     0.008 C 
ATOM     10  C   UNL     1     137.946 141.202 134.341  1.00  0.00     0.021 C 
ATOM     11  C   UNL     1     137.587 142.160 133.172  1.00  0.00     0.016 C 
ATOM     12  C   UNL     1     138.398 142.956 136.145  1.00  0.00     0.012 C 
ENDROOT
BRANCH   1  13
ATOM     13  C   UNL     1     138.442 143.571 131.259  1.00  0.00    -0.077 C 
ATOM     14  C   UNL     1     137.954 143.024 129.939  1.00  0.00     0.039 C 
ATOM     15  C   UNL     1     138.540 144.902 131.403  1.00  0.00     0.008 C 
ENDBRANCH   1  13
TORSDOF 1
ENDMDL
MODEL 3
REMARK VINA RESULT:    -5.178      4.500      6.261
REMARK INTER + INTRA:          -5.680
REMARK INTER:                  -5.481
REMARK INTRA:                  -0.200
REMARK UNBOUND:                -0.199
REMARK SMILES C=C(C)[C@H]1CC[C@]2(C)CCCC(=C)[C@@H]2C1
REMARK SMILES IDX 4 1 5 2 6 3 7 4 9 5 10 6 11 7 12 8 13 9 14 10 15 11 8 12
REMARK SMILES IDX 2 13 3 14 1 15
REMARK H PARENT
REMARK Flexibility Score: inf
ROOT
ATOM      1  C   UNL     1     142.684 143.377 132.525  1.00  0.00     0.015 C 
ATOM      2  C   UNL     1     143.380 142.446 133.528  1.00  0.00     0.008 C 
ATOM      3  C   UNL     1     142.411 142.036 134.644  1.00  0.00     0.008 C 
ATOM      4  C   UNL     1     141.790 143.241 135.414  1.00  0.00    -0.026 C 
ATOM      5  C   UNL     1     140.718 142.674 136.419  1.00  0.00     0.008 C 
ATOM      6  C   UNL     1     139.421 143.486 136.450  1.00  0.00     0.005 C 
ATOM      7  C   UNL     1     138.765 143.482 135.066  1.00  0.00     0.031 C 
ATOM      8  C   UNL     1     139.749 143.847 133.977  1.00  0.00    -0.074 C 
ATOM      9  C   UNL     1     139.298 143.852 132.708  1.00  0.00     0.008 C 
ATOM     10  C   UNL     1     141.163 144.273 134.395  1.00  0.00     0.021 C 
ATOM     11  C   UNL     1     142.135 144.627 133.237  1.00  0.00     0.016 C 
ATOM     12  C   UNL     1     142.888 143.946 136.253  1.00  0.00     0.012 C 
ENDROOT
BRANCH   1  13
ATOM     13  C   UNL     1     143.620 143.761 131.386  1.00  0.00    -0.077 C 
ATOM     14  C   UNL     1     143.090 144.305 130.082  1.00  0.00     0.039 C 
ATOM     15  C   UNL     1     144.946 143.607 131.524  1.00  0.00     0.008 C 
ENDBRANCH   1  13
TORSDOF 1
ENDMDL
MODEL 4
REMARK VINA RESULT:    -5.162      2.897      4.341
REMARK INTER + INTRA:          -5.663
REMARK INTER:                  -5.465
REMARK INTRA:                  -0.198
REMARK UNBOUND:                -0.199
REMARK SMILES C=C(C)[C@H]1CC[C@]2(C)CCCC(=C)[C@@H]2C1
REMARK SMILES IDX 4 1 5 2 6 3 7 4 9 5 10 6 11 7 12 8 13 9 14 10 15 11 8 12
REMARK SMILES IDX 2 13 3 14 1 15
REMARK H PARENT
REMARK Flexibility Score: inf
ROOT
ATOM      1  C   UNL     1     143.278 139.487 132.403  1.00  0.00     0.015 C 
ATOM      2  C   UNL     1     142.235 138.837 133.323  1.00  0.00     0.008 C 
ATOM      3  C   UNL     1     141.860 139.787 134.468  1.00  0.00     0.008 C 
ATOM      4  C   UNL     1     143.076 140.252 135.325  1.00  0.00    -0.026 C 
ATOM      5  C   UNL     1     142.560 141.325 136.356  1.00  0.00     0.008 C 
ATOM      6  C   UNL     1     143.487 142.536 136.494  1.00  0.00     0.005 C 
ATOM      7  C   UNL     1     143.617 143.253 135.147  1.00  0.00     0.031 C 
ATOM      8  C   UNL     1     143.944 142.292 134.027  1.00  0.00    -0.074 C 
ATOM      9  C   UNL     1     144.058 142.799 132.785  1.00  0.00     0.008 C 
ATOM     10  C   UNL     1     144.213 140.825 134.391  1.00  0.00     0.021 C 
ATOM     11  C   UNL     1     144.535 139.879 133.201  1.00  0.00     0.016 C 
ATOM     12  C   UNL     1     143.630 139.053 136.138  1.00  0.00     0.012 C 
ENDROOT
BRANCH   1  13
ATOM     13  C   UNL     1     143.631 138.574 131.237  1.00  0.00    -0.077 C 
ATOM     14  C   UNL     1     144.014 139.133 129.888  1.00  0.00     0.039 C 
ATOM     15  C   UNL     1     143.595 137.241 131.390  1.00  0.00     0.008 C 
ENDBRANCH   1  13
TORSDOF 1
ENDMDL
MODEL 5
REMARK VINA RESULT:    -5.043      2.133      4.528
REMARK INTER + INTRA:          -5.538
REMARK INTER:                  -5.351
REMARK INTRA:                  -0.187
REMARK UNBOUND:                -0.199
REMARK SMILES C=C(C)[C@H]1CC[C@]2(C)CCCC(=C)[C@@H]2C1
REMARK SMILES IDX 4 1 5 2 6 3 7 4 9 5 10 6 11 7 12 8 13 9 14 10 15 11 8 12
REMARK SMILES IDX 2 13 3 14 1 15
REMARK H PARENT
REMARK Flexibility Score: inf
ROOT
ATOM      1  C   UNL     1     138.874 141.215 136.006  1.00  0.00     0.015 C 
ATOM      2  C   UNL     1     140.350 141.266 136.424  1.00  0.00     0.008 C 
ATOM      3  C   UNL     1     141.196 140.353 135.526  1.00  0.00     0.008 C 
ATOM      4  C   UNL     1     140.721 138.869 135.510  1.00  0.00    -0.026 C 
ATOM      5  C   UNL     1     141.584 138.095 134.444  1.00  0.00     0.008 C 
ATOM      6  C   UNL     1     140.763 137.149 133.563  1.00  0.00     0.005 C 
ATOM      7  C   UNL     1     139.711 137.940 132.781  1.00  0.00     0.031 C 
ATOM      8  C   UNL     1     138.919 138.864 133.679  1.00  0.00    -0.074 C 
ATOM      9  C   UNL     1     137.978 139.636 133.103  1.00  0.00     0.008 C 
ATOM     10  C   UNL     1     139.175 138.795 135.191  1.00  0.00     0.021 C 
ATOM     11  C   UNL     1     138.342 139.771 136.066  1.00  0.00     0.016 C 
ATOM     12  C   UNL     1     140.995 138.219 136.892  1.00  0.00     0.012 C 
ENDROOT
BRANCH   1  13
ATOM     13  C   UNL     1     138.026 142.148 136.861  1.00  0.00    -0.077 C 
ATOM     14  C   UNL     1     138.484 143.548 137.189  1.00  0.00     0.039 C 
ATOM     15  C   UNL     1     136.850 141.728 137.353  1.00  0.00     0.008 C 
ENDBRANCH   1  13
TORSDOF 1
ENDMDL
MODEL 6
REMARK VINA RESULT:    -5.038      2.799      4.205
REMARK INTER + INTRA:          -5.532
REMARK INTER:                  -5.360
REMARK INTRA:                  -0.172
REMARK UNBOUND:                -0.199
REMARK SMILES C=C(C)[C@H]1CC[C@]2(C)CCCC(=C)[C@@H]2C1
REMARK SMILES IDX 4 1 5 2 6 3 7 4 9 5 10 6 11 7 12 8 13 9 14 10 15 11 8 12
REMARK SMILES IDX 2 13 3 14 1 15
REMARK H PARENT
REMARK Flexibility Score: inf
ROOT
ATOM      1  C   UNL     1     141.011 138.957 135.925  1.00  0.00     0.015 C 
ATOM      2  C   UNL     1     140.973 140.433 136.347  1.00  0.00     0.008 C 
ATOM      3  C   UNL     1     141.905 141.270 135.461  1.00  0.00     0.008 C 
ATOM      4  C   UNL     1     143.384 140.777 135.461  1.00  0.00    -0.026 C 
ATOM      5  C   UNL     1     144.180 141.634 134.405  1.00  0.00     0.008 C 
ATOM      6  C   UNL     1     145.126 140.804 133.533  1.00  0.00     0.005 C 
ATOM      7  C   UNL     1     144.331 139.764 132.739  1.00  0.00     0.031 C 
ATOM      8  C   UNL     1     143.388 138.981 133.624  1.00  0.00    -0.074 C 
ATOM      9  C   UNL     1     142.612 138.051 133.037  1.00  0.00     0.008 C 
ATOM     10  C   UNL     1     143.444 139.232 135.138  1.00  0.00     0.021 C 
ATOM     11  C   UNL     1     142.448 138.408 135.999  1.00  0.00     0.016 C 
ATOM     12  C   UNL     1     144.022 141.040 136.850  1.00  0.00     0.012 C 
ENDROOT
BRANCH   1  13
ATOM     13  C   UNL     1     140.059 138.118 136.768  1.00  0.00    -0.077 C 
ATOM     14  C   UNL     1     140.505 136.823 137.403  1.00  0.00     0.039 C 
ATOM     15  C   UNL     1     138.790 138.516 136.949  1.00  0.00     0.008 C 
ENDBRANCH   1  13
TORSDOF 1
ENDMDL
MODEL 7
REMARK VINA RESULT:    -5.033      4.285      6.348
REMARK INTER + INTRA:          -5.527
REMARK INTER:                  -5.340
REMARK INTRA:                  -0.187
REMARK UNBOUND:                -0.199
REMARK SMILES C=C(C)[C@H]1CC[C@]2(C)CCCC(=C)[C@@H]2C1
REMARK SMILES IDX 4 1 5 2 6 3 7 4 9 5 10 6 11 7 12 8 13 9 14 10 15 11 8 12
REMARK SMILES IDX 2 13 3 14 1 15
REMARK H PARENT
REMARK Flexibility Score: inf
ROOT
ATOM      1  C   UNL     1     143.233 141.136 136.018  1.00  0.00     0.015 C 
ATOM      2  C   UNL     1     141.771 141.107 136.485  1.00  0.00     0.008 C 
ATOM      3  C   UNL     1     140.908 142.026 135.610  1.00  0.00     0.008 C 
ATOM      4  C   UNL     1     141.400 143.504 135.571  1.00  0.00    -0.026 C 
ATOM      5  C   UNL     1     140.512 144.283 134.530  1.00  0.00     0.008 C 
ATOM      6  C   UNL     1     141.315 145.214 133.618  1.00  0.00     0.005 C 
ATOM      7  C   UNL     1     142.330 144.406 132.805  1.00  0.00     0.031 C 
ATOM      8  C   UNL     1     143.140 143.477 133.681  1.00  0.00    -0.074 C 
ATOM      9  C   UNL     1     144.051 142.690 133.078  1.00  0.00     0.008 C 
ATOM     10  C   UNL     1     142.935 143.557 135.200  1.00  0.00     0.021 C 
ATOM     11  C   UNL     1     143.785 142.574 136.052  1.00  0.00     0.016 C 
ATOM     12  C   UNL     1     141.181 144.164 136.958  1.00  0.00     0.012 C 
ENDROOT
BRANCH   1  13
ATOM     13  C   UNL     1     144.097 140.197 136.850  1.00  0.00    -0.077 C 
ATOM     14  C   UNL     1     143.631 138.805 137.202  1.00  0.00     0.039 C 
ATOM     15  C   UNL     1     145.295 140.604 137.298  1.00  0.00     0.008 C 
ENDBRANCH   1  13
TORSDOF 1
ENDMDL
MODEL 8
REMARK VINA RESULT:    -5.003      4.511      6.457
REMARK INTER + INTRA:          -5.495
REMARK INTER:                  -5.301
REMARK INTRA:                  -0.194
REMARK UNBOUND:                -0.199
REMARK SMILES C=C(C)[C@H]1CC[C@]2(C)CCCC(=C)[C@@H]2C1
REMARK SMILES IDX 4 1 5 2 6 3 7 4 9 5 10 6 11 7 12 8 13 9 14 10 15 11 8 12
REMARK SMILES IDX 2 13 3 14 1 15
REMARK H PARENT
REMARK Flexibility Score: inf
ROOT
ATOM      1  C   UNL     1     140.245 143.369 135.437  1.00  0.00     0.015 C 
ATOM      2  C   UNL     1     139.249 142.838 134.395  1.00  0.00     0.008 C 
ATOM      3  C   UNL     1     139.964 142.538 133.071  1.00  0.00     0.008 C 
ATOM      4  C   UNL     1     140.723 143.761 132.474  1.00  0.00    -0.026 C 
ATOM      5  C   UNL     1     141.519 143.266 131.207  1.00  0.00     0.008 C 
ATOM      6  C   UNL     1     142.944 143.819 131.126  1.00  0.00     0.005 C 
ATOM      7  C   UNL     1     143.751 143.374 132.348  1.00  0.00     0.031 C 
ATOM      8  C   UNL     1     143.009 143.640 133.639  1.00  0.00    -0.074 C 
ATOM      9  C   UNL     1     143.605 143.267 134.788  1.00  0.00     0.008 C 
ATOM     10  C   UNL     1     141.675 144.396 133.562  1.00  0.00     0.021 C 
ATOM     11  C   UNL     1     140.951 144.634 134.916  1.00  0.00     0.016 C 
ATOM     12  C   UNL     1     139.702 144.826 131.995  1.00  0.00     0.012 C 
ENDROOT
BRANCH   1  13
ATOM     13  C   UNL     1     139.559 143.634 136.771  1.00  0.00    -0.077 C 
ATOM     14  C   UNL     1     140.266 144.366 137.886  1.00  0.00     0.039 C 
ATOM     15  C   UNL     1     138.306 143.203 136.981  1.00  0.00     0.008 C 
ENDBRANCH   1  13
TORSDOF 1
ENDMDL
MODEL 9
REMARK VINA RESULT:    -4.993      3.284      5.285
REMARK INTER + INTRA:          -5.485
REMARK INTER:                  -5.306
REMARK INTRA:                  -0.178
REMARK UNBOUND:                -0.199
REMARK SMILES C=C(C)[C@H]1CC[C@]2(C)CCCC(=C)[C@@H]2C1
REMARK SMILES IDX 4 1 5 2 6 3 7 4 9 5 10 6 11 7 12 8 13 9 14 10 15 11 8 12
REMARK SMILES IDX 2 13 3 14 1 15
REMARK H PARENT
REMARK Flexibility Score: inf
ROOT
ATOM      1  C   UNL     1     143.435 139.723 132.293  1.00  0.00     0.015 C 
ATOM      2  C   UNL     1     144.725 140.284 132.909  1.00  0.00     0.008 C 
ATOM      3  C   UNL     1     144.406 141.441 133.865  1.00  0.00     0.008 C 
ATOM      4  C   UNL     1     143.608 142.605 133.203  1.00  0.00    -0.026 C 
ATOM      5  C   UNL     1     143.233 143.638 134.331  1.00  0.00     0.008 C 
ATOM      6  C   UNL     1     141.793 144.150 134.235  1.00  0.00     0.005 C 
ATOM      7  C   UNL     1     140.810 142.984 134.369  1.00  0.00     0.031 C 
ATOM      8  C   UNL     1     141.169 141.838 133.448  1.00  0.00    -0.074 C 
ATOM      9  C   UNL     1     140.393 140.739 133.492  1.00  0.00     0.008 C 
ATOM     10  C   UNL     1     142.331 142.039 132.466  1.00  0.00     0.021 C 
ATOM     11  C   UNL     1     142.662 140.828 131.550  1.00  0.00     0.016 C 
ATOM     12  C   UNL     1     144.512 143.341 132.180  1.00  0.00     0.012 C 
ENDROOT
BRANCH   1  13
ATOM     13  C   UNL     1     143.730 138.546 131.372  1.00  0.00    -0.077 C 
ATOM     14  C   UNL     1     144.384 138.746 130.026  1.00  0.00     0.039 C 
ATOM     15  C   UNL     1     143.396 137.300 131.743  1.00  0.00     0.008 C 
ENDBRANCH   1  13
TORSDOF 1
ENDMDL
