MODEL 1
REMARK VINA RESULT:    -4.208      0.000      0.000
REMARK INTER + INTRA:          -4.233
REMARK INTER:                  -5.069
REMARK INTRA:                   0.837
REMARK UNBOUND:                 0.837
REMARK SMILES Oc1cc(O)c2c(c1)O[C@@H](c1ccc(O)c(O)c1)[C@@H](O)C2
REMARK SMILES IDX 21 1 19 2 10 3 9 4 7 5 8 6 2 7 3 8 4 9 6 10 20 11 11 13
REMARK SMILES IDX 18 14 12 15 16 16 13 17 14 18 17 19 15 21 5 23 1 25
REMARK H PARENT 20 12 17 20 15 22 5 24 1 26
REMARK Flexibility Score: inf
ROOT
ATOM      1  C   UNL     1      26.653  -7.917 -20.201  1.00  0.00     0.079 C 
ATOM      2  C   UNL     1      25.498  -8.935 -19.914  1.00  0.00     0.164 C 
ATOM      3  C   UNL     1      24.249  -8.321 -19.195  1.00  0.00     0.232 C 
ATOM      4  O   UNL     1      24.730  -7.410 -18.207  1.00  0.00    -0.482 OA
ATOM      5  C   UNL     1      25.464  -6.312 -18.657  1.00  0.00     0.131 A 
ATOM      6  C   UNL     1      25.053  -5.020 -18.317  1.00  0.00     0.093 A 
ATOM      7  C   UNL     1      25.525  -3.929 -19.043  1.00  0.00     0.122 A 
ATOM      8  C   UNL     1      26.601  -4.098 -19.919  1.00  0.00     0.092 A 
ATOM      9  C   UNL     1      27.075  -5.385 -20.216  1.00  0.00     0.126 A 
ATOM     10  C   UNL     1      26.441  -6.511 -19.640  1.00  0.00     0.039 A 
ENDROOT
BRANCH   2  11
ATOM     11  O   UNL     1      25.184  -9.679 -21.072  1.00  0.00    -0.389 OA
ATOM     12  H   UNL     1      25.455  -9.162 -21.865  1.00  0.00     0.211 HD
ENDBRANCH   2  11
BRANCH   3  13
ATOM     13  C   UNL     1      23.259  -7.525 -20.046  1.00  0.00    -0.001 A 
ATOM     14  C   UNL     1      21.908  -7.608 -19.672  1.00  0.00     0.057 A 
ATOM     15  C   UNL     1      23.674  -6.429 -20.841  1.00  0.00     0.012 A 
ATOM     16  C   UNL     1      21.020  -6.568 -19.961  1.00  0.00     0.157 A 
ATOM     17  C   UNL     1      22.799  -5.373 -21.098  1.00  0.00     0.050 A 
ATOM     18  C   UNL     1      21.480  -5.426 -20.640  1.00  0.00     0.157 A 
BRANCH  16  19
ATOM     19  O   UNL     1      19.695  -6.679 -19.529  1.00  0.00    -0.504 OA
ATOM     20  H   UNL     1      18.957  -6.093 -19.906  1.00  0.00     0.293 HD
ENDBRANCH  16  19
BRANCH  18  21
ATOM     21  O   UNL     1      20.630  -4.341 -20.844  1.00  0.00    -0.504 OA
ATOM     22  H   UNL     1      20.945  -3.503 -21.328  1.00  0.00     0.293 HD
ENDBRANCH  18  21
ENDBRANCH   3  13
BRANCH   9  23
ATOM     23  O   UNL     1      28.124  -5.517 -21.125  1.00  0.00    -0.507 OA
ATOM     24  H   UNL     1      28.896  -6.153 -21.005  1.00  0.00     0.293 HD
ENDBRANCH   9  23
BRANCH   7  25
ATOM     25  O   UNL     1      24.865  -2.708 -18.967  1.00  0.00    -0.508 OA
ATOM     26  H   UNL     1      25.298  -1.906 -18.508  1.00  0.00     0.293 HD
ENDBRANCH   7  25
TORSDOF 6
ENDMDL
MODEL 2
REMARK VINA RESULT:    -4.136      2.113      5.003
REMARK INTER + INTRA:          -4.146
REMARK INTER:                  -4.352
REMARK INTRA:                   0.206
REMARK UNBOUND:                 0.837
REMARK SMILES Oc1cc(O)c2c(c1)O[C@@H](c1ccc(O)c(O)c1)[C@@H](O)C2
REMARK SMILES IDX 21 1 19 2 10 3 9 4 7 5 8 6 2 7 3 8 4 9 6 10 20 11 11 13
REMARK SMILES IDX 18 14 12 15 16 16 13 17 14 18 17 19 15 21 5 23 1 25
REMARK H PARENT 20 12 17 20 15 22 5 24 1 26
REMARK Flexibility Score: inf
ROOT
ATOM      1  C   UNL     1      25.778  -9.733 -18.720  1.00  0.00     0.079 C 
ATOM      2  C   UNL     1      27.266  -9.881 -19.189  1.00  0.00     0.164 C 
ATOM      3  C   UNL     1      27.749  -8.780 -20.193  1.00  0.00     0.232 C 
ATOM      4  O   UNL     1      26.679  -8.537 -21.106  1.00  0.00    -0.482 OA
ATOM      5  C   UNL     1      25.487  -8.043 -20.574  1.00  0.00     0.131 A 
ATOM      6  C   UNL     1      24.951  -6.850 -21.069  1.00  0.00     0.093 A 
ATOM      7  C   UNL     1      24.002  -6.156 -20.322  1.00  0.00     0.122 A 
ATOM      8  C   UNL     1      23.395  -6.778 -19.228  1.00  0.00     0.092 A 
ATOM      9  C   UNL     1      23.874  -8.012 -18.763  1.00  0.00     0.126 A 
ATOM     10  C   UNL     1      24.989  -8.610 -19.394  1.00  0.00     0.039 A 
ENDROOT
BRANCH   2  11
ATOM     11  O   UNL     1      28.124 -10.065 -18.084  1.00  0.00    -0.389 OA
ATOM     12  H   UNL     1      29.016  -9.714 -18.312  1.00  0.00     0.211 HD
ENDBRANCH   2  11
BRANCH   3  13
ATOM     13  C   UNL     1      28.125  -7.412 -19.621  1.00  0.00    -0.001 A 
ATOM     14  C   UNL     1      28.099  -6.333 -20.519  1.00  0.00     0.057 A 
ATOM     15  C   UNL     1      28.051  -7.140 -18.233  1.00  0.00     0.012 A 
ATOM     16  C   UNL     1      27.868  -5.031 -20.066  1.00  0.00     0.157 A 
ATOM     17  C   UNL     1      27.783  -5.846 -17.783  1.00  0.00     0.050 A 
ATOM     18  C   UNL     1      27.667  -4.794 -18.695  1.00  0.00     0.157 A 
BRANCH  16  19
ATOM     19  O   UNL     1      27.807  -3.996 -21.004  1.00  0.00    -0.504 OA
ATOM     20  H   UNL     1      27.665  -4.176 -21.993  1.00  0.00     0.293 HD
ENDBRANCH  16  19
BRANCH  18  21
ATOM     21  O   UNL     1      27.338  -3.518 -18.244  1.00  0.00    -0.504 OA
ATOM     22  H   UNL     1      27.118  -2.765 -18.893  1.00  0.00     0.293 HD
ENDBRANCH  18  21
ENDBRANCH   3  13
BRANCH   9  23
ATOM     23  O   UNL     1      23.268  -8.584 -17.644  1.00  0.00    -0.507 OA
ATOM     24  H   UNL     1      22.972  -9.546 -17.594  1.00  0.00     0.293 HD
ENDBRANCH   9  23
BRANCH   7  25
ATOM     25  O   UNL     1      23.737  -4.821 -20.609  1.00  0.00    -0.508 OA
ATOM     26  H   UNL     1      22.943  -4.341 -20.183  1.00  0.00     0.293 HD
ENDBRANCH   7  25
TORSDOF 6
ENDMDL
MODEL 3
REMARK VINA RESULT:    -2.841      2.096      3.514
REMARK INTER + INTRA:          -2.586
REMARK INTER:                  -3.212
REMARK INTRA:                   0.626
REMARK UNBOUND:                 0.837
REMARK SMILES Oc1cc(O)c2c(c1)O[C@@H](c1ccc(O)c(O)c1)[C@@H](O)C2
REMARK SMILES IDX 21 1 19 2 10 3 9 4 7 5 8 6 2 7 3 8 4 9 6 10 20 11 11 13
REMARK SMILES IDX 18 14 12 15 16 16 13 17 14 18 17 19 15 21 5 23 1 25
REMARK H PARENT 20 12 17 20 15 22 5 24 1 26
REMARK Flexibility Score: inf
ROOT
ATOM      1  C   UNL     1      28.125  -4.357 -20.547  1.00  0.00     0.079 C 
ATOM      2  C   UNL     1      28.068  -5.862 -20.114  1.00  0.00     0.164 C 
ATOM      3  C   UNL     1      27.473  -6.110 -18.687  1.00  0.00     0.232 C 
ATOM      4  O   UNL     1      27.977  -5.085 -17.830  1.00  0.00    -0.482 OA
ATOM      5  C   UNL     1      27.633  -3.769 -18.141  1.00  0.00     0.131 A 
ATOM      6  C   UNL     1      26.998  -2.975 -17.181  1.00  0.00     0.093 A 
ATOM      7  C   UNL     1      26.321  -1.823 -17.573  1.00  0.00     0.122 A 
ATOM      8  C   UNL     1      26.503  -1.322 -18.865  1.00  0.00     0.092 A 
ATOM      9  C   UNL     1      27.202  -2.074 -19.822  1.00  0.00     0.126 A 
ATOM     10  C   UNL     1      27.700  -3.352 -19.476  1.00  0.00     0.039 A 
ENDROOT
BRANCH   2  11
ATOM     11  O   UNL     1      27.482  -6.653 -21.125  1.00  0.00    -0.389 OA
ATOM     12  H   UNL     1      26.798  -7.234 -20.718  1.00  0.00     0.211 HD
ENDBRANCH   2  11
BRANCH   3  13
ATOM     13  C   UNL     1      25.952  -6.067 -18.533  1.00  0.00    -0.001 A 
ATOM     14  C   UNL     1      25.256  -5.262 -19.449  1.00  0.00     0.057 A 
ATOM     15  C   UNL     1      25.243  -7.090 -17.856  1.00  0.00     0.012 A 
ATOM     16  C   UNL     1      23.929  -5.546 -19.788  1.00  0.00     0.157 A 
ATOM     17  C   UNL     1      23.932  -7.398 -18.220  1.00  0.00     0.050 A 
ATOM     18  C   UNL     1      23.279  -6.646 -19.201  1.00  0.00     0.157 A 
BRANCH  16  19
ATOM     19  O   UNL     1      23.293  -4.741 -20.737  1.00  0.00    -0.504 OA
ATOM     20  H   UNL     1      22.512  -4.141 -20.494  1.00  0.00     0.293 HD
ENDBRANCH  16  19
BRANCH  18  21
ATOM     21  O   UNL     1      21.993  -6.998 -19.604  1.00  0.00    -0.504 OA
ATOM     22  H   UNL     1      21.788  -7.923 -19.976  1.00  0.00     0.293 HD
ENDBRANCH  18  21
ENDBRANCH   3  13
BRANCH   9  23
ATOM     23  O   UNL     1      27.329  -1.559 -21.112  1.00  0.00    -0.507 OA
ATOM     24  H   UNL     1      26.572  -1.142 -21.629  1.00  0.00     0.293 HD
ENDBRANCH   9  23
BRANCH   7  25
ATOM     25  O   UNL     1      25.397  -1.237 -16.715  1.00  0.00    -0.508 OA
ATOM     26  H   UNL     1      24.499  -1.684 -16.528  1.00  0.00     0.293 HD
ENDBRANCH   7  25
TORSDOF 6
ENDMDL
MODEL 4
REMARK VINA RESULT:    -2.194      2.021      3.136
REMARK INTER + INTRA:          -1.807
REMARK INTER:                  -3.260
REMARK INTRA:                   1.453
REMARK UNBOUND:                 0.837
REMARK SMILES Oc1cc(O)c2c(c1)O[C@@H](c1ccc(O)c(O)c1)[C@@H](O)C2
REMARK SMILES IDX 21 1 19 2 10 3 9 4 7 5 8 6 2 7 3 8 4 9 6 10 20 11 11 13
REMARK SMILES IDX 18 14 12 15 16 16 13 17 14 18 17 19 15 21 5 23 1 25
REMARK H PARENT 20 12 17 20 15 22 5 24 1 26
REMARK Flexibility Score: inf
ROOT
ATOM      1  C   UNL     1      25.195 -11.044 -19.596  1.00  0.00     0.079 C 
ATOM      2  C   UNL     1      23.654 -10.766 -19.653  1.00  0.00     0.164 C 
ATOM      3  C   UNL     1      23.227  -9.342 -19.159  1.00  0.00     0.232 C 
ATOM      4  O   UNL     1      24.019  -9.034 -18.012  1.00  0.00    -0.482 OA
ATOM      5  C   UNL     1      25.400  -8.954 -18.194  1.00  0.00     0.131 A 
ATOM      6  C   UNL     1      26.079  -7.787 -17.831  1.00  0.00     0.093 A 
ATOM      7  C   UNL     1      27.352  -7.540 -18.338  1.00  0.00     0.122 A 
ATOM      8  C   UNL     1      28.050  -8.567 -18.980  1.00  0.00     0.092 A 
ATOM      9  C   UNL     1      27.404  -9.774 -19.288  1.00  0.00     0.126 A 
ATOM     10  C   UNL     1      26.036  -9.935 -18.965  1.00  0.00     0.039 A 
ENDROOT
BRANCH   2  11
ATOM     11  O   UNL     1      23.127 -11.117 -20.914  1.00  0.00    -0.389 OA
ATOM     12  H   UNL     1      22.283 -11.608 -20.781  1.00  0.00     0.211 HD
ENDBRANCH   2  11
BRANCH   3  13
ATOM     13  C   UNL     1      23.416  -8.170 -20.122  1.00  0.00    -0.001 A 
ATOM     14  C   UNL     1      22.323  -7.301 -20.269  1.00  0.00     0.057 A 
ATOM     15  C   UNL     1      24.704  -7.703 -20.482  1.00  0.00     0.012 A 
ATOM     16  C   UNL     1      22.514  -5.965 -20.632  1.00  0.00     0.157 A 
ATOM     17  C   UNL     1      24.901  -6.360 -20.808  1.00  0.00     0.050 A 
ATOM     18  C   UNL     1      23.815  -5.483 -20.861  1.00  0.00     0.157 A 
BRANCH  16  19
ATOM     19  O   UNL     1      21.397  -5.129 -20.722  1.00  0.00    -0.504 OA
ATOM     20  H   UNL     1      21.452  -4.203 -21.135  1.00  0.00     0.293 HD
ENDBRANCH  16  19
BRANCH  18  21
ATOM     21  O   UNL     1      24.026  -4.131 -21.125  1.00  0.00    -0.504 OA
ATOM     22  H   UNL     1      23.552  -3.405 -20.592  1.00  0.00     0.293 HD
ENDBRANCH  18  21
ENDBRANCH   3  13
BRANCH   9  23
ATOM     23  O   UNL     1      28.121 -10.761 -19.964  1.00  0.00    -0.507 OA
ATOM     24  H   UNL     1      28.531 -10.634 -20.876  1.00  0.00     0.293 HD
ENDBRANCH   9  23
BRANCH   7  25
ATOM     25  O   UNL     1      27.880  -6.254 -18.290  1.00  0.00    -0.508 OA
ATOM     26  H   UNL     1      27.777  -5.677 -17.454  1.00  0.00     0.293 HD
ENDBRANCH   7  25
TORSDOF 6
ENDMDL
MODEL 5
REMARK VINA RESULT:    -2.035      1.960      4.076
REMARK INTER + INTRA:          -1.615
REMARK INTER:                  -3.454
REMARK INTRA:                   1.839
REMARK UNBOUND:                 0.837
REMARK SMILES Oc1cc(O)c2c(c1)O[C@@H](c1ccc(O)c(O)c1)[C@@H](O)C2
REMARK SMILES IDX 21 1 19 2 10 3 9 4 7 5 8 6 2 7 3 8 4 9 6 10 20 11 11 13
REMARK SMILES IDX 18 14 12 15 16 16 13 17 14 18 17 19 15 21 5 23 1 25
REMARK H PARENT 20 12 17 20 15 22 5 24 1 26
REMARK Flexibility Score: inf
ROOT
ATOM      1  C   UNL     1      24.109  -4.369 -20.327  1.00  0.00     0.079 C 
ATOM      2  C   UNL     1      23.319  -5.463 -21.123  1.00  0.00     0.164 C 
ATOM      3  C   UNL     1      23.931  -6.902 -21.040  1.00  0.00     0.232 C 
ATOM      4  O   UNL     1      25.350  -6.768 -21.125  1.00  0.00    -0.482 OA
ATOM      5  C   UNL     1      25.983  -6.048 -20.111  1.00  0.00     0.131 A 
ATOM      6  C   UNL     1      27.010  -6.646 -19.375  1.00  0.00     0.093 A 
ATOM      7  C   UNL     1      27.386  -6.108 -18.147  1.00  0.00     0.122 A 
ATOM      8  C   UNL     1      26.935  -4.836 -17.784  1.00  0.00     0.092 A 
ATOM      9  C   UNL     1      25.956  -4.188 -18.553  1.00  0.00     0.126 A 
ATOM     10  C   UNL     1      25.413  -4.841 -19.684  1.00  0.00     0.039 A 
ENDROOT
BRANCH   2  11
ATOM     11  O   UNL     1      21.942  -5.407 -20.822  1.00  0.00    -0.389 OA
ATOM     12  H   UNL     1      21.669  -6.264 -20.421  1.00  0.00     0.211 HD
ENDBRANCH   2  11
BRANCH   3  13
ATOM     13  C   UNL     1      23.666  -7.715 -19.773  1.00  0.00    -0.001 A 
ATOM     14  C   UNL     1      22.887  -8.874 -19.927  1.00  0.00     0.057 A 
ATOM     15  C   UNL     1      24.496  -7.605 -18.630  1.00  0.00     0.012 A 
ATOM     16  C   UNL     1      23.028  -9.952 -19.048  1.00  0.00     0.157 A 
ATOM     17  C   UNL     1      24.665  -8.694 -17.774  1.00  0.00     0.050 A 
ATOM     18  C   UNL     1      23.952  -9.876 -17.992  1.00  0.00     0.157 A 
BRANCH  16  19
ATOM     19  O   UNL     1      22.261 -11.100 -19.270  1.00  0.00    -0.504 OA
ATOM     20  H   UNL     1      21.287 -11.156 -18.992  1.00  0.00     0.293 HD
ENDBRANCH  16  19
BRANCH  18  21
ATOM     21  O   UNL     1      24.173 -10.981 -17.172  1.00  0.00    -0.504 OA
ATOM     22  H   UNL     1      23.831 -11.007 -16.213  1.00  0.00     0.293 HD
ENDBRANCH  18  21
ENDBRANCH   3  13
BRANCH   9  23
ATOM     23  O   UNL     1      25.501  -2.937 -18.138  1.00  0.00    -0.507 OA
ATOM     24  H   UNL     1      24.533  -2.657 -18.150  1.00  0.00     0.293 HD
ENDBRANCH   9  23
BRANCH   7  25
ATOM     25  O   UNL     1      28.125  -6.874 -17.252  1.00  0.00    -0.508 OA
ATOM     26  H   UNL     1      29.145  -6.883 -17.288  1.00  0.00     0.293 HD
ENDBRANCH   7  25
TORSDOF 6
ENDMDL
MODEL 6
REMARK VINA RESULT:    -1.931      2.370      5.155
REMARK INTER + INTRA:          -1.490
REMARK INTER:                  -2.118
REMARK INTRA:                   0.628
REMARK UNBOUND:                 0.837
REMARK SMILES Oc1cc(O)c2c(c1)O[C@@H](c1ccc(O)c(O)c1)[C@@H](O)C2
REMARK SMILES IDX 21 1 19 2 10 3 9 4 7 5 8 6 2 7 3 8 4 9 6 10 20 11 11 13
REMARK SMILES IDX 18 14 12 15 16 16 13 17 14 18 17 19 15 21 5 23 1 25
REMARK H PARENT 20 12 17 20 15 22 5 24 1 26
REMARK Flexibility Score: inf
ROOT
ATOM      1  C   UNL     1      22.854  -7.213 -19.810  1.00  0.00     0.079 C 
ATOM      2  C   UNL     1      22.546  -8.523 -20.612  1.00  0.00     0.164 C 
ATOM      3  C   UNL     1      23.780  -9.462 -20.830  1.00  0.00     0.232 C 
ATOM      4  O   UNL     1      24.903  -8.630 -21.124  1.00  0.00    -0.482 OA
ATOM      5  C   UNL     1      25.304  -7.730 -20.137  1.00  0.00     0.131 A 
ATOM      6  C   UNL     1      26.621  -7.760 -19.668  1.00  0.00     0.093 A 
ATOM      7  C   UNL     1      26.938  -7.154 -18.455  1.00  0.00     0.122 A 
ATOM      8  C   UNL     1      26.015  -6.296 -17.850  1.00  0.00     0.092 A 
ATOM      9  C   UNL     1      24.708  -6.199 -18.353  1.00  0.00     0.126 A 
ATOM     10  C   UNL     1      24.326  -6.991 -19.460  1.00  0.00     0.039 A 
ENDROOT
BRANCH   2  11
ATOM     11  O   UNL     1      21.413  -9.179 -20.085  1.00  0.00    -0.389 OA
ATOM     12  H   UNL     1      20.945  -8.564 -19.475  1.00  0.00     0.211 HD
ENDBRANCH   2  11
BRANCH   3  13
ATOM     13  C   UNL     1      24.216 -10.347 -19.662  1.00  0.00    -0.001 A 
ATOM     14  C   UNL     1      25.590 -10.615 -19.561  1.00  0.00     0.057 A 
ATOM     15  C   UNL     1      23.409 -10.508 -18.509  1.00  0.00     0.012 A 
ATOM     16  C   UNL     1      26.175 -10.900 -18.323  1.00  0.00     0.157 A 
ATOM     17  C   UNL     1      23.996 -10.756 -17.267  1.00  0.00     0.050 A 
ATOM     18  C   UNL     1      25.379 -10.929 -17.165  1.00  0.00     0.157 A 
BRANCH  16  19
ATOM     19  O   UNL     1      27.555 -11.117 -18.268  1.00  0.00    -0.504 OA
ATOM     20  H   UNL     1      27.947 -12.035 -18.090  1.00  0.00     0.293 HD
ENDBRANCH  16  19
BRANCH  18  21
ATOM     21  O   UNL     1      25.964 -11.114 -15.915  1.00  0.00    -0.504 OA
ATOM     22  H   UNL     1      26.158 -10.328 -15.298  1.00  0.00     0.293 HD
ENDBRANCH  18  21
ENDBRANCH   3  13
BRANCH   9  23
ATOM     23  O   UNL     1      23.803  -5.363 -17.699  1.00  0.00    -0.507 OA
ATOM     24  H   UNL     1      22.851  -5.619 -17.489  1.00  0.00     0.293 HD
ENDBRANCH   9  23
BRANCH   7  25
ATOM     25  O   UNL     1      28.125  -7.480 -17.808  1.00  0.00    -0.508 OA
ATOM     26  H   UNL     1      28.718  -8.237 -18.150  1.00  0.00     0.293 HD
ENDBRANCH   7  25
TORSDOF 6
ENDMDL
