MODEL 1
REMARK VINA RESULT:    -5.390      0.000      0.000
REMARK INTER + INTRA:          -5.390
REMARK INTER:                  -5.390
REMARK INTRA:                   0.000
REMARK UNBOUND:                 0.000
REMARK SMILES O=c1ccc2ccccc2o1
REMARK SMILES IDX 7 1 8 2 9 3 10 4 5 5 6 6 4 7 3 8 2 9 1 10 11 11
REMARK H PARENT
REMARK Flexibility Score: inf
ROOT
ATOM      1  C   UNL     1     -35.452  42.674  42.531  1.00  0.00     0.001 A 
ATOM      2  C   UNL     1     -35.047  41.613  41.713  1.00  0.00     0.004 A 
ATOM      3  C   UNL     1     -34.671  41.851  40.387  1.00  0.00     0.048 A 
ATOM      4  C   UNL     1     -34.700  43.152  39.872  1.00  0.00     0.138 A 
ATOM      5  C   UNL     1     -35.109  44.223  40.699  1.00  0.00     0.018 A 
ATOM      6  C   UNL     1     -35.484  43.978  42.027  1.00  0.00     0.012 A 
ATOM      7  C   UNL     1     -35.127  45.512  40.158  1.00  0.00     0.019 A 
ATOM      8  C   UNL     1     -34.745  45.703  38.830  1.00  0.00     0.094 A 
ATOM      9  C   UNL     1     -34.351  44.594  38.071  1.00  0.00     0.336 A 
ATOM     10  O   UNL     1     -34.004  44.746  36.872  1.00  0.00    -0.246 OA
ATOM     11  O   UNL     1     -34.343  43.377  38.610  1.00  0.00    -0.423 OA
ENDROOT
TORSDOF 0
ENDMDL
MODEL 2
REMARK VINA RESULT:    -5.289      7.764      9.910
REMARK INTER + INTRA:          -5.289
REMARK INTER:                  -5.289
REMARK INTRA:                   0.000
REMARK UNBOUND:                 0.000
REMARK SMILES O=c1ccc2ccccc2o1
REMARK SMILES IDX 7 1 8 2 9 3 10 4 5 5 6 6 4 7 3 8 2 9 1 10 11 11
REMARK H PARENT
REMARK Flexibility Score: inf
ROOT
ATOM      1  C   UNL     1     -38.506  39.980  43.800  1.00  0.00     0.001 A 
ATOM      2  C   UNL     1     -37.272  39.932  44.458  1.00  0.00     0.004 A 
ATOM      3  C   UNL     1     -37.196  39.472  45.777  1.00  0.00     0.048 A 
ATOM      4  C   UNL     1     -38.355  39.058  46.443  1.00  0.00     0.138 A 
ATOM      5  C   UNL     1     -39.601  39.106  45.778  1.00  0.00     0.018 A 
ATOM      6  C   UNL     1     -39.671  39.568  44.456  1.00  0.00     0.012 A 
ATOM      7  C   UNL     1     -40.742  38.686  46.469  1.00  0.00     0.019 A 
ATOM      8  C   UNL     1     -40.619  38.235  47.783  1.00  0.00     0.094 A 
ATOM      9  C   UNL     1     -39.352  38.215  48.378  1.00  0.00     0.336 A 
ATOM     10  O   UNL     1     -39.221  37.812  49.562  1.00  0.00    -0.246 OA
ATOM     11  O   UNL     1     -38.282  38.621  47.698  1.00  0.00    -0.423 OA
ENDROOT
TORSDOF 0
ENDMDL
MODEL 3
REMARK VINA RESULT:    -5.265      8.958     10.952
REMARK INTER + INTRA:          -5.265
REMARK INTER:                  -5.265
REMARK INTRA:                   0.000
REMARK UNBOUND:                 0.000
REMARK SMILES O=c1ccc2ccccc2o1
REMARK SMILES IDX 7 1 8 2 9 3 10 4 5 5 6 6 4 7 3 8 2 9 1 10 11 11
REMARK H PARENT
REMARK Flexibility Score: inf
ROOT
ATOM      1  C   UNL     1     -41.030  36.000  49.021  1.00  0.00     0.001 A 
ATOM      2  C   UNL     1     -41.355  37.318  49.360  1.00  0.00     0.004 A 
ATOM      3  C   UNL     1     -40.635  38.384  48.810  1.00  0.00     0.048 A 
ATOM      4  C   UNL     1     -39.586  38.135  47.918  1.00  0.00     0.138 A 
ATOM      5  C   UNL     1     -39.258  36.804  47.576  1.00  0.00     0.018 A 
ATOM      6  C   UNL     1     -39.984  35.740  48.130  1.00  0.00     0.012 A 
ATOM      7  C   UNL     1     -38.206  36.586  46.681  1.00  0.00     0.019 A 
ATOM      8  C   UNL     1     -37.516  37.679  46.157  1.00  0.00     0.094 A 
ATOM      9  C   UNL     1     -37.897  38.970  46.542  1.00  0.00     0.336 A 
ATOM     10  O   UNL     1     -37.286  39.968  46.080  1.00  0.00    -0.246 OA
ATOM     11  O   UNL     1     -38.902  39.150  47.395  1.00  0.00    -0.423 OA
ENDROOT
TORSDOF 0
ENDMDL
MODEL 4
REMARK VINA RESULT:    -5.220      9.319     11.412
REMARK INTER + INTRA:          -5.220
REMARK INTER:                  -5.220
REMARK INTRA:                   0.000
REMARK UNBOUND:                 0.000
REMARK SMILES O=c1ccc2ccccc2o1
REMARK SMILES IDX 7 1 8 2 9 3 10 4 5 5 6 6 4 7 3 8 2 9 1 10 11 11
REMARK H PARENT
REMARK Flexibility Score: inf
ROOT
ATOM      1  C   UNL     1     -37.988  38.838  45.345  1.00  0.00     0.001 A 
ATOM      2  C   UNL     1     -37.330  37.611  45.485  1.00  0.00     0.004 A 
ATOM      3  C   UNL     1     -37.800  36.662  46.399  1.00  0.00     0.048 A 
ATOM      4  C   UNL     1     -38.931  36.937  47.177  1.00  0.00     0.138 A 
ATOM      5  C   UNL     1     -39.594  38.176  47.034  1.00  0.00     0.018 A 
ATOM      6  C   UNL     1     -39.119  39.123  46.117  1.00  0.00     0.012 A 
ATOM      7  C   UNL     1     -40.722  38.422  47.824  1.00  0.00     0.019 A 
ATOM      8  C   UNL     1     -41.154  37.447  48.723  1.00  0.00     0.094 A 
ATOM      9  C   UNL     1     -40.447  36.242  48.809  1.00  0.00     0.336 A 
ATOM     10  O   UNL     1     -40.821  35.350  49.614  1.00  0.00    -0.246 OA
ATOM     11  O   UNL     1     -39.377  36.033  48.046  1.00  0.00    -0.423 OA
ENDROOT
TORSDOF 0
ENDMDL
MODEL 5
REMARK VINA RESULT:    -5.178      9.286     11.142
REMARK INTER + INTRA:          -5.178
REMARK INTER:                  -5.178
REMARK INTRA:                   0.000
REMARK UNBOUND:                 0.000
REMARK SMILES O=c1ccc2ccccc2o1
REMARK SMILES IDX 7 1 8 2 9 3 10 4 5 5 6 6 4 7 3 8 2 9 1 10 11 11
REMARK H PARENT
REMARK Flexibility Score: inf
ROOT
ATOM      1  C   UNL     1     -41.424  37.457  49.460  1.00  0.00     0.001 A 
ATOM      2  C   UNL     1     -41.153  36.088  49.358  1.00  0.00     0.004 A 
ATOM      3  C   UNL     1     -40.143  35.633  48.505  1.00  0.00     0.048 A 
ATOM      4  C   UNL     1     -39.399  36.546  47.749  1.00  0.00     0.138 A 
ATOM      5  C   UNL     1     -39.673  37.928  47.852  1.00  0.00     0.018 A 
ATOM      6  C   UNL     1     -40.687  38.378  48.709  1.00  0.00     0.012 A 
ATOM      7  C   UNL     1     -38.913  38.817  47.085  1.00  0.00     0.019 A 
ATOM      8  C   UNL     1     -37.916  38.318  46.247  1.00  0.00     0.094 A 
ATOM      9  C   UNL     1     -37.701  36.936  46.196  1.00  0.00     0.336 A 
ATOM     10  O   UNL     1     -36.807  36.467  45.446  1.00  0.00    -0.246 OA
ATOM     11  O   UNL     1     -38.439  36.112  46.937  1.00  0.00    -0.423 OA
ENDROOT
TORSDOF 0
ENDMDL
MODEL 6
REMARK VINA RESULT:    -5.176     10.047     12.280
REMARK INTER + INTRA:          -5.176
REMARK INTER:                  -5.176
REMARK INTRA:                   0.000
REMARK UNBOUND:                 0.000
REMARK SMILES O=c1ccc2ccccc2o1
REMARK SMILES IDX 7 1 8 2 9 3 10 4 5 5 6 6 4 7 3 8 2 9 1 10 11 11
REMARK H PARENT
REMARK Flexibility Score: inf
ROOT
ATOM      1  C   UNL     1     -37.764  37.028  46.216  1.00  0.00     0.001 A 
ATOM      2  C   UNL     1     -37.876  38.397  46.481  1.00  0.00     0.004 A 
ATOM      3  C   UNL     1     -38.765  38.855  47.459  1.00  0.00     0.048 A 
ATOM      4  C   UNL     1     -39.547  37.943  48.177  1.00  0.00     0.138 A 
ATOM      5  C   UNL     1     -39.434  36.560  47.909  1.00  0.00     0.018 A 
ATOM      6  C   UNL     1     -38.541  36.108  46.928  1.00  0.00     0.012 A 
ATOM      7  C   UNL     1     -40.228  35.673  48.643  1.00  0.00     0.019 A 
ATOM      8  C   UNL     1     -41.101  36.174  49.608  1.00  0.00     0.094 A 
ATOM      9  C   UNL     1     -41.160  37.556  49.819  1.00  0.00     0.336 A 
ATOM     10  O   UNL     1     -41.941  38.027  50.685  1.00  0.00    -0.246 OA
ATOM     11  O   UNL     1     -40.393  38.379  49.107  1.00  0.00    -0.423 OA
ENDROOT
TORSDOF 0
ENDMDL
MODEL 7
REMARK VINA RESULT:    -5.128      1.301      2.251
REMARK INTER + INTRA:          -5.128
REMARK INTER:                  -5.128
REMARK INTRA:                   0.000
REMARK UNBOUND:                 0.000
REMARK SMILES O=c1ccc2ccccc2o1
REMARK SMILES IDX 7 1 8 2 9 3 10 4 5 5 6 6 4 7 3 8 2 9 1 10 11 11
REMARK H PARENT
REMARK Flexibility Score: inf
ROOT
ATOM      1  C   UNL     1     -35.058  41.725  42.996  1.00  0.00     0.001 A 
ATOM      2  C   UNL     1     -35.636  42.921  43.438  1.00  0.00     0.004 A 
ATOM      3  C   UNL     1     -35.703  44.027  42.585  1.00  0.00     0.048 A 
ATOM      4  C   UNL     1     -35.192  43.943  41.285  1.00  0.00     0.138 A 
ATOM      5  C   UNL     1     -34.609  42.735  40.840  1.00  0.00     0.018 A 
ATOM      6  C   UNL     1     -34.545  41.630  41.699  1.00  0.00     0.012 A 
ATOM      7  C   UNL     1     -34.107  42.680  39.535  1.00  0.00     0.019 A 
ATOM      8  C   UNL     1     -34.195  43.808  38.720  1.00  0.00     0.094 A 
ATOM      9  C   UNL     1     -34.786  44.969  39.230  1.00  0.00     0.336 A 
ATOM     10  O   UNL     1     -34.874  45.997  38.509  1.00  0.00    -0.246 OA
ATOM     11  O   UNL     1     -35.256  44.996  40.475  1.00  0.00    -0.423 OA
ENDROOT
TORSDOF 0
ENDMDL
MODEL 8
REMARK VINA RESULT:    -5.126      1.907      4.255
REMARK INTER + INTRA:          -5.126
REMARK INTER:                  -5.126
REMARK INTRA:                   0.000
REMARK UNBOUND:                 0.000
REMARK SMILES O=c1ccc2ccccc2o1
REMARK SMILES IDX 7 1 8 2 9 3 10 4 5 5 6 6 4 7 3 8 2 9 1 10 11 11
REMARK H PARENT
REMARK Flexibility Score: inf
ROOT
ATOM      1  C   UNL     1     -32.609  45.762  37.997  1.00  0.00     0.001 A 
ATOM      2  C   UNL     1     -33.966  46.099  37.936  1.00  0.00     0.004 A 
ATOM      3  C   UNL     1     -34.905  45.374  38.678  1.00  0.00     0.048 A 
ATOM      4  C   UNL     1     -34.489  44.307  39.483  1.00  0.00     0.138 A 
ATOM      5  C   UNL     1     -33.119  43.967  39.543  1.00  0.00     0.018 A 
ATOM      6  C   UNL     1     -32.183  44.699  38.798  1.00  0.00     0.012 A 
ATOM      7  C   UNL     1     -32.733  42.897  40.357  1.00  0.00     0.019 A 
ATOM      8  C   UNL     1     -33.704  42.202  41.078  1.00  0.00     0.094 A 
ATOM      9  C   UNL     1     -35.042  42.595  40.969  1.00  0.00     0.336 A 
ATOM     10  O   UNL     1     -35.932  41.980  41.611  1.00  0.00    -0.246 OA
ATOM     11  O   UNL     1     -35.383  43.617  40.187  1.00  0.00    -0.423 OA
ENDROOT
TORSDOF 0
ENDMDL
MODEL 9
REMARK VINA RESULT:    -5.054      1.441      3.636
REMARK INTER + INTRA:          -5.054
REMARK INTER:                  -5.054
REMARK INTRA:                   0.000
REMARK UNBOUND:                 0.000
REMARK SMILES O=c1ccc2ccccc2o1
REMARK SMILES IDX 7 1 8 2 9 3 10 4 5 5 6 6 4 7 3 8 2 9 1 10 11 11
REMARK H PARENT
REMARK Flexibility Score: inf
ROOT
ATOM      1  C   UNL     1     -35.115  45.867  39.582  1.00  0.00     0.001 A 
ATOM      2  C   UNL     1     -34.727  45.419  38.314  1.00  0.00     0.004 A 
ATOM      3  C   UNL     1     -34.341  44.087  38.127  1.00  0.00     0.048 A 
ATOM      4  C   UNL     1     -34.339  43.199  39.208  1.00  0.00     0.138 A 
ATOM      5  C   UNL     1     -34.731  43.653  40.488  1.00  0.00     0.018 A 
ATOM      6  C   UNL     1     -35.118  44.988  40.669  1.00  0.00     0.012 A 
ATOM      7  C   UNL     1     -34.721  42.742  41.549  1.00  0.00     0.019 A 
ATOM      8  C   UNL     1     -34.328  41.424  41.317  1.00  0.00     0.094 A 
ATOM      9  C   UNL     1     -33.953  41.046  40.022  1.00  0.00     0.336 A 
ATOM     10  O   UNL     1     -33.594  39.862  39.793  1.00  0.00    -0.246 OA
ATOM     11  O   UNL     1     -33.971  41.933  39.030  1.00  0.00    -0.423 OA
ENDROOT
TORSDOF 0
ENDMDL
