MODEL 1
REMARK VINA RESULT:    -5.848      0.000      0.000
REMARK INTER + INTRA:          -6.620
REMARK INTER:                  -6.532
REMARK INTRA:                  -0.088
REMARK UNBOUND:                -0.088
REMARK SMILES CCc1ccc(O)cc1O
REMARK SMILES IDX 3 1 9 2 8 3 6 4 5 5 4 6 2 7 1 8 10 9 7 11
REMARK H PARENT 10 10 7 12
REMARK Flexibility Score: inf
ROOT
ATOM      1  C   UNL     1      29.585  37.756  27.770  1.00  0.00    -0.006 A 
ATOM      2  C   UNL     1      28.175  37.765  27.779  1.00  0.00     0.122 A 
ATOM      3  C   UNL     1      27.468  36.624  27.371  1.00  0.00     0.092 A 
ATOM      4  C   UNL     1      28.152  35.482  26.943  1.00  0.00     0.119 A 
ATOM      5  C   UNL     1      29.551  35.478  26.921  1.00  0.00     0.047 A 
ATOM      6  C   UNL     1      30.264  36.610  27.327  1.00  0.00     0.011 A 
ENDROOT
BRANCH   1   7
ATOM      7  C   UNL     1      30.370  38.979  28.175  1.00  0.00     0.036 C 
ATOM      8  C   UNL     1      31.615  39.134  27.307  1.00  0.00     0.009 C 
ENDBRANCH   1   7
BRANCH   2   9
ATOM      9  O   UNL     1      27.483  38.904  28.191  1.00  0.00    -0.508 OA
ATOM     10  H   UNL     1      26.487  39.005  28.034  1.00  0.00     0.293 HD
ENDBRANCH   2   9
BRANCH   4  11
ATOM     11  O   UNL     1      27.432  34.360  26.542  1.00  0.00    -0.508 OA
ATOM     12  H   UNL     1      27.845  33.649  25.949  1.00  0.00     0.293 HD
ENDBRANCH   4  11
TORSDOF 3
ENDMDL
MODEL 2
REMARK VINA RESULT:    -5.847      2.303      3.564
REMARK INTER + INTRA:          -6.619
REMARK INTER:                  -6.561
REMARK INTRA:                  -0.059
REMARK UNBOUND:                -0.088
REMARK SMILES CCc1ccc(O)cc1O
REMARK SMILES IDX 3 1 9 2 8 3 6 4 5 5 4 6 2 7 1 8 10 9 7 11
REMARK H PARENT 10 10 7 12
REMARK Flexibility Score: inf
ROOT
ATOM      1  C   UNL     1      29.271  36.690  26.417  1.00  0.00    -0.006 A 
ATOM      2  C   UNL     1      27.885  36.942  26.459  1.00  0.00     0.122 A 
ATOM      3  C   UNL     1      27.341  37.979  25.686  1.00  0.00     0.092 A 
ATOM      4  C   UNL     1      28.166  38.772  24.883  1.00  0.00     0.119 A 
ATOM      5  C   UNL     1      29.545  38.531  24.853  1.00  0.00     0.047 A 
ATOM      6  C   UNL     1      30.095  37.499  25.618  1.00  0.00     0.011 A 
ENDROOT
BRANCH   1   7
ATOM      7  C   UNL     1      29.887  35.601  27.261  1.00  0.00     0.036 C 
ATOM      8  C   UNL     1      29.753  34.245  26.576  1.00  0.00     0.009 C 
ENDBRANCH   1   7
BRANCH   2   9
ATOM      9  O   UNL     1      27.054  36.165  27.267  1.00  0.00    -0.508 OA
ATOM     10  H   UNL     1      26.057  36.103  27.097  1.00  0.00     0.293 HD
ENDBRANCH   2   9
BRANCH   4  11
ATOM     11  O   UNL     1      27.607  39.796  24.124  1.00  0.00    -0.508 OA
ATOM     12  H   UNL     1      28.077  40.687  24.006  1.00  0.00     0.293 HD
ENDBRANCH   4  11
TORSDOF 3
ENDMDL
MODEL 3
REMARK VINA RESULT:    -5.800      2.145      3.052
REMARK INTER + INTRA:          -6.567
REMARK INTER:                  -6.475
REMARK INTRA:                  -0.092
REMARK UNBOUND:                -0.088
REMARK SMILES CCc1ccc(O)cc1O
REMARK SMILES IDX 3 1 9 2 8 3 6 4 5 5 4 6 2 7 1 8 10 9 7 11
REMARK H PARENT 10 10 7 12
REMARK Flexibility Score: inf
ROOT
ATOM      1  C   UNL     1      28.975  38.079  26.194  1.00  0.00    -0.006 A 
ATOM      2  C   UNL     1      27.924  37.140  26.238  1.00  0.00     0.122 A 
ATOM      3  C   UNL     1      27.294  36.855  27.459  1.00  0.00     0.092 A 
ATOM      4  C   UNL     1      27.708  37.488  28.635  1.00  0.00     0.119 A 
ATOM      5  C   UNL     1      28.761  38.410  28.594  1.00  0.00     0.047 A 
ATOM      6  C   UNL     1      29.394  38.700  27.382  1.00  0.00     0.011 A 
ENDROOT
BRANCH   1   7
ATOM      7  C   UNL     1      29.690  38.381  24.901  1.00  0.00     0.036 C 
ATOM      8  C   UNL     1      28.995  39.513  24.151  1.00  0.00     0.009 C 
ENDBRANCH   1   7
BRANCH   2   9
ATOM      9  O   UNL     1      27.511  36.493  25.074  1.00  0.00    -0.508 OA
ATOM     10  H   UNL     1      26.593  36.072  24.998  1.00  0.00     0.293 HD
ENDBRANCH   2   9
BRANCH   4  11
ATOM     11  O   UNL     1      27.070  37.192  29.837  1.00  0.00    -0.508 OA
ATOM     12  H   UNL     1      26.494  37.876  30.314  1.00  0.00     0.293 HD
ENDBRANCH   4  11
TORSDOF 3
ENDMDL
MODEL 4
REMARK VINA RESULT:    -5.717      2.330      3.426
REMARK INTER + INTRA:          -6.474
REMARK INTER:                  -6.387
REMARK INTRA:                  -0.087
REMARK UNBOUND:                -0.088
REMARK SMILES CCc1ccc(O)cc1O
REMARK SMILES IDX 3 1 9 2 8 3 6 4 5 5 4 6 2 7 1 8 10 9 7 11
REMARK H PARENT 10 10 7 12
REMARK Flexibility Score: inf
ROOT
ATOM      1  C   UNL     1      28.783  38.500  26.724  1.00  0.00    -0.006 A 
ATOM      2  C   UNL     1      27.796  38.691  27.711  1.00  0.00     0.122 A 
ATOM      3  C   UNL     1      28.169  38.802  29.059  1.00  0.00     0.092 A 
ATOM      4  C   UNL     1      29.514  38.714  29.431  1.00  0.00     0.119 A 
ATOM      5  C   UNL     1      30.494  38.511  28.452  1.00  0.00     0.047 A 
ATOM      6  C   UNL     1      30.130  38.399  27.107  1.00  0.00     0.011 A 
ENDROOT
BRANCH   1   7
ATOM      7  C   UNL     1      28.407  38.347  25.271  1.00  0.00     0.036 C 
ATOM      8  C   UNL     1      29.387  39.099  24.377  1.00  0.00     0.009 C 
ENDBRANCH   1   7
BRANCH   2   9
ATOM      9  O   UNL     1      26.450  38.767  27.353  1.00  0.00    -0.508 OA
ATOM     10  H   UNL     1      26.117  38.417  26.463  1.00  0.00     0.293 HD
ENDBRANCH   2   9
BRANCH   4  11
ATOM     11  O   UNL     1      29.865  38.827  30.774  1.00  0.00    -0.508 OA
ATOM     12  H   UNL     1      30.510  39.540  31.095  1.00  0.00     0.293 HD
ENDBRANCH   4  11
TORSDOF 3
ENDMDL
MODEL 5
REMARK VINA RESULT:    -5.706      1.866      2.068
REMARK INTER + INTRA:          -6.461
REMARK INTER:                  -6.357
REMARK INTRA:                  -0.104
REMARK UNBOUND:                -0.088
REMARK SMILES CCc1ccc(O)cc1O
REMARK SMILES IDX 3 1 9 2 8 3 6 4 5 5 4 6 2 7 1 8 10 9 7 11
REMARK H PARENT 10 10 7 12
REMARK Flexibility Score: inf
ROOT
ATOM      1  C   UNL     1      28.342  38.342  27.830  1.00  0.00    -0.006 A 
ATOM      2  C   UNL     1      27.674  37.143  28.149  1.00  0.00     0.122 A 
ATOM      3  C   UNL     1      27.295  36.261  27.125  1.00  0.00     0.092 A 
ATOM      4  C   UNL     1      27.566  36.570  25.788  1.00  0.00     0.119 A 
ATOM      5  C   UNL     1      28.217  37.767  25.470  1.00  0.00     0.047 A 
ATOM      6  C   UNL     1      28.599  38.651  26.484  1.00  0.00     0.011 A 
ENDROOT
BRANCH   1   7
ATOM      7  C   UNL     1      28.733  39.322  28.908  1.00  0.00     0.036 C 
ATOM      8  C   UNL     1      30.188  39.123  29.317  1.00  0.00     0.009 C 
ENDBRANCH   1   7
BRANCH   2   9
ATOM      9  O   UNL     1      27.386  36.831  29.478  1.00  0.00    -0.508 OA
ATOM     10  H   UNL     1      27.299  37.552  30.185  1.00  0.00     0.293 HD
ENDBRANCH   2   9
BRANCH   4  11
ATOM     11  O   UNL     1      27.183  35.682  24.787  1.00  0.00    -0.508 OA
ATOM     12  H   UNL     1      26.531  34.927  24.968  1.00  0.00     0.293 HD
ENDBRANCH   4  11
TORSDOF 3
ENDMDL
MODEL 6
REMARK VINA RESULT:    -5.683      2.949      3.893
REMARK INTER + INTRA:          -6.435
REMARK INTER:                  -6.333
REMARK INTRA:                  -0.102
REMARK UNBOUND:                -0.088
REMARK SMILES CCc1ccc(O)cc1O
REMARK SMILES IDX 3 1 9 2 8 3 6 4 5 5 4 6 2 7 1 8 10 9 7 11
REMARK H PARENT 10 10 7 12
REMARK Flexibility Score: inf
ROOT
ATOM      1  C   UNL     1      28.036  38.473  26.283  1.00  0.00    -0.006 A 
ATOM      2  C   UNL     1      28.440  38.831  24.981  1.00  0.00     0.122 A 
ATOM      3  C   UNL     1      29.706  38.447  24.513  1.00  0.00     0.092 A 
ATOM      4  C   UNL     1      30.574  37.721  25.334  1.00  0.00     0.119 A 
ATOM      5  C   UNL     1      30.178  37.378  26.633  1.00  0.00     0.047 A 
ATOM      6  C   UNL     1      28.919  37.756  27.106  1.00  0.00     0.011 A 
ENDROOT
BRANCH   1   7
ATOM      7  C   UNL     1      26.693  38.900  26.822  1.00  0.00     0.036 C 
ATOM      8  C   UNL     1      25.717  37.727  26.831  1.00  0.00     0.009 C 
ENDBRANCH   1   7
BRANCH   2   9
ATOM      9  O   UNL     1      27.587  39.566  24.157  1.00  0.00    -0.508 OA
ATOM     10  H   UNL     1      26.657  39.832  24.459  1.00  0.00     0.293 HD
ENDBRANCH   2   9
BRANCH   4  11
ATOM     11  O   UNL     1      31.826  37.349  24.852  1.00  0.00    -0.508 OA
ATOM     12  H   UNL     1      31.998  36.421  24.483  1.00  0.00     0.293 HD
ENDBRANCH   4  11
TORSDOF 3
ENDMDL
MODEL 7
REMARK VINA RESULT:    -5.638      2.687      2.874
REMARK INTER + INTRA:          -6.386
REMARK INTER:                  -6.300
REMARK INTRA:                  -0.086
REMARK UNBOUND:                -0.088
REMARK SMILES CCc1ccc(O)cc1O
REMARK SMILES IDX 3 1 9 2 8 3 6 4 5 5 4 6 2 7 1 8 10 9 7 11
REMARK H PARENT 10 10 7 12
REMARK Flexibility Score: inf
ROOT
ATOM      1  C   UNL     1      29.021  38.373  25.220  1.00  0.00    -0.006 A 
ATOM      2  C   UNL     1      28.070  37.500  25.786  1.00  0.00     0.122 A 
ATOM      3  C   UNL     1      28.491  36.468  26.639  1.00  0.00     0.092 A 
ATOM      4  C   UNL     1      29.849  36.294  26.923  1.00  0.00     0.119 A 
ATOM      5  C   UNL     1      30.794  37.152  26.350  1.00  0.00     0.047 A 
ATOM      6  C   UNL     1      30.384  38.183  25.500  1.00  0.00     0.011 A 
ENDROOT
BRANCH   1   7
ATOM      7  C   UNL     1      28.599  39.471  24.276  1.00  0.00     0.036 C 
ATOM      8  C   UNL     1      29.818  40.163  23.673  1.00  0.00     0.009 C 
ENDBRANCH   1   7
BRANCH   2   9
ATOM      9  O   UNL     1      26.714  37.656  25.498  1.00  0.00    -0.508 OA
ATOM     10  H   UNL     1      26.251  37.089  24.798  1.00  0.00     0.293 HD
ENDBRANCH   2   9
BRANCH   4  11
ATOM     11  O   UNL     1      30.246  35.264  27.772  1.00  0.00    -0.508 OA
ATOM     12  H   UNL     1      31.203  34.927  27.785  1.00  0.00     0.293 HD
ENDBRANCH   4  11
TORSDOF 3
ENDMDL
MODEL 8
REMARK VINA RESULT:    -5.579      2.494      2.819
REMARK INTER + INTRA:          -6.319
REMARK INTER:                  -6.233
REMARK INTRA:                  -0.086
REMARK UNBOUND:                -0.088
REMARK SMILES CCc1ccc(O)cc1O
REMARK SMILES IDX 3 1 9 2 8 3 6 4 5 5 4 6 2 7 1 8 10 9 7 11
REMARK H PARENT 10 10 7 12
REMARK Flexibility Score: inf
ROOT
ATOM      1  C   UNL     1      29.578  38.562  28.211  1.00  0.00    -0.006 A 
ATOM      2  C   UNL     1      28.885  38.814  27.010  1.00  0.00     0.122 A 
ATOM      3  C   UNL     1      29.419  38.373  25.790  1.00  0.00     0.092 A 
ATOM      4  C   UNL     1      30.642  37.696  25.756  1.00  0.00     0.119 A 
ATOM      5  C   UNL     1      31.338  37.458  26.948  1.00  0.00     0.047 A 
ATOM      6  C   UNL     1      30.812  37.893  28.167  1.00  0.00     0.011 A 
ENDROOT
BRANCH   1   7
ATOM      7  C   UNL     1      29.042  39.051  29.534  1.00  0.00     0.036 C 
ATOM      8  C   UNL     1      30.127  39.016  30.604  1.00  0.00     0.009 C 
ENDBRANCH   1   7
BRANCH   2   9
ATOM      9  O   UNL     1      27.671  39.501  27.031  1.00  0.00    -0.508 OA
ATOM     10  H   UNL     1      27.056  39.517  26.226  1.00  0.00     0.293 HD
ENDBRANCH   2   9
BRANCH   4  11
ATOM     11  O   UNL     1      31.156  37.266  24.536  1.00  0.00    -0.508 OA
ATOM     12  H   UNL     1      30.829  37.652  23.657  1.00  0.00     0.293 HD
ENDBRANCH   4  11
TORSDOF 3
ENDMDL
MODEL 9
REMARK VINA RESULT:    -5.564      1.494      3.650
REMARK INTER + INTRA:          -6.303
REMARK INTER:                  -6.217
REMARK INTRA:                  -0.086
REMARK UNBOUND:                -0.088
REMARK SMILES CCc1ccc(O)cc1O
REMARK SMILES IDX 3 1 9 2 8 3 6 4 5 5 4 6 2 7 1 8 10 9 7 11
REMARK H PARENT 10 10 7 12
REMARK Flexibility Score: inf
ROOT
ATOM      1  C   UNL     1      28.968  36.089  27.122  1.00  0.00    -0.006 A 
ATOM      2  C   UNL     1      28.063  37.001  27.702  1.00  0.00     0.122 A 
ATOM      3  C   UNL     1      28.524  38.242  28.166  1.00  0.00     0.092 A 
ATOM      4  C   UNL     1      29.878  38.576  28.068  1.00  0.00     0.119 A 
ATOM      5  C   UNL     1      30.779  37.665  27.505  1.00  0.00     0.047 A 
ATOM      6  C   UNL     1      30.328  36.427  27.039  1.00  0.00     0.011 A 
ENDROOT
BRANCH   1   7
ATOM      7  C   UNL     1      28.505  34.736  26.642  1.00  0.00     0.036 C 
ATOM      8  C   UNL     1      29.693  33.871  26.236  1.00  0.00     0.009 C 
ENDBRANCH   1   7
BRANCH   2   9
ATOM      9  O   UNL     1      26.712  36.673  27.817  1.00  0.00    -0.508 OA
ATOM     10  H   UNL     1      26.118  37.105  28.515  1.00  0.00     0.293 HD
ENDBRANCH   2   9
BRANCH   4  11
ATOM     11  O   UNL     1      30.316  39.813  28.535  1.00  0.00    -0.508 OA
ATOM     12  H   UNL     1      30.598  39.946  29.499  1.00  0.00     0.293 HD
ENDBRANCH   4  11
TORSDOF 3
ENDMDL
