MODEL 1
REMARK VINA RESULT:    -4.170      0.000      0.000
REMARK INTER + INTRA:          -9.741
REMARK INTER:                  -7.583
REMARK INTRA:                  -2.158
REMARK UNBOUND:                -2.158
REMARK SMILES CCCCCCCCCCCCCC[C@@H](C)C(=O)[O-]
REMARK SMILES IDX 9 1 10 2 11 3 12 4 13 5 14 6 15 7 16 8 17 9 18 10 19 11 8 12
REMARK SMILES IDX 7 13 6 14 5 15 4 16 3 17 2 18 1 19
REMARK H PARENT
REMARK Flexibility Score: inf
ROOT
ATOM      1  C   UNL     1     -43.723 -30.775  39.665  1.00  0.00     0.000 C 
ENDROOT
BRANCH   1   2
ATOM      2  C   UNL     1     -45.168 -30.815  39.145  1.00  0.00     0.000 C 
BRANCH   2   3
ATOM      3  C   UNL     1     -45.277 -31.409  37.731  1.00  0.00     0.000 C 
BRANCH   3   4
ATOM      4  C   UNL     1     -46.388 -32.467  37.619  1.00  0.00     0.000 C 
BRANCH   4   5
ATOM      5  C   UNL     1     -45.917 -33.755  36.924  1.00  0.00     0.001 C 
BRANCH   5   6
ATOM      6  C   UNL     1     -44.554 -34.301  37.398  1.00  0.00     0.009 C 
BRANCH   6   7
ATOM      7  C   UNL     1     -44.645 -35.658  38.149  1.00  0.00     0.032 C 
ATOM      8  C   UNL     1     -45.547 -35.565  39.388  1.00  0.00     0.014 C 
BRANCH   7   9
ATOM      9  C   UNL     1     -45.174 -36.733  37.237  1.00  0.00     0.044 C 
ATOM     10  O   UNL     1     -44.426 -37.248  36.364  1.00  0.00    -0.550 OA
ATOM     11  O   UNL     1     -46.490 -37.166  37.353  1.00  0.00    -0.550 OA
ENDBRANCH   7   9
ENDBRANCH   6   7
ENDBRANCH   5   6
ENDBRANCH   4   5
ENDBRANCH   3   4
ENDBRANCH   2   3
ENDBRANCH   1   2
BRANCH   1  12
ATOM     12  C   UNL     1     -42.734 -31.184  38.563  1.00  0.00     0.000 C 
BRANCH  12  13
ATOM     13  C   UNL     1     -41.591 -32.070  39.087  1.00  0.00    -0.000 C 
BRANCH  13  14
ATOM     14  C   UNL     1     -42.097 -33.228  39.964  1.00  0.00    -0.000 C 
BRANCH  14  15
ATOM     15  C   UNL     1     -41.515 -34.592  39.550  1.00  0.00    -0.000 C 
BRANCH  15  16
ATOM     16  C   UNL     1     -39.997 -34.605  39.294  1.00  0.00    -0.000 C 
BRANCH  16  17
ATOM     17  C   UNL     1     -39.585 -35.572  38.174  1.00  0.00    -0.000 C 
BRANCH  17  18
ATOM     18  C   UNL     1     -40.039 -35.051  36.805  1.00  0.00    -0.003 C 
ATOM     19  C   UNL     1     -41.052 -35.995  36.164  1.00  0.00     0.004 C 
ENDBRANCH  17  18
ENDBRANCH  16  17
ENDBRANCH  15  16
ENDBRANCH  14  15
ENDBRANCH  13  14
ENDBRANCH  12  13
ENDBRANCH   1  12
TORSDOF 14
ENDMDL
MODEL 2
REMARK VINA RESULT:    -4.157      1.575      2.236
REMARK INTER + INTRA:          -9.718
REMARK INTER:                  -7.914
REMARK INTRA:                  -1.804
REMARK UNBOUND:                -2.158
REMARK SMILES CCCCCCCCCCCCCC[C@@H](C)C(=O)[O-]
REMARK SMILES IDX 9 1 10 2 11 3 12 4 13 5 14 6 15 7 16 8 17 9 18 10 19 11 8 12
REMARK SMILES IDX 7 13 6 14 5 15 4 16 3 17 2 18 1 19
REMARK H PARENT
REMARK Flexibility Score: inf
ROOT
ATOM      1  C   UNL     1     -46.284 -31.832  40.113  1.00  0.00     0.000 C 
ENDROOT
BRANCH   1   2
ATOM      2  C   UNL     1     -46.596 -31.551  38.636  1.00  0.00     0.000 C 
BRANCH   2   3
ATOM      3  C   UNL     1     -46.723 -32.834  37.799  1.00  0.00     0.000 C 
BRANCH   3   4
ATOM      4  C   UNL     1     -45.459 -33.129  36.973  1.00  0.00     0.000 C 
BRANCH   4   5
ATOM      5  C   UNL     1     -45.142 -34.631  36.883  1.00  0.00     0.001 C 
BRANCH   5   6
ATOM      6  C   UNL     1     -45.774 -35.507  37.984  1.00  0.00     0.009 C 
BRANCH   6   7
ATOM      7  C   UNL     1     -46.343 -36.856  37.467  1.00  0.00     0.032 C 
ATOM      8  C   UNL     1     -45.237 -37.769  36.917  1.00  0.00     0.014 C 
BRANCH   7   9
ATOM      9  C   UNL     1     -47.073 -37.580  38.567  1.00  0.00     0.044 C 
ATOM     10  O   UNL     1     -48.311 -37.410  38.723  1.00  0.00    -0.550 OA
ATOM     11  O   UNL     1     -46.386 -38.439  39.418  1.00  0.00    -0.550 OA
ENDBRANCH   7   9
ENDBRANCH   6   7
ENDBRANCH   5   6
ENDBRANCH   4   5
ENDBRANCH   3   4
ENDBRANCH   2   3
ENDBRANCH   1   2
BRANCH   1  12
ATOM     12  C   UNL     1     -44.769 -31.813  40.366  1.00  0.00     0.000 C 
BRANCH  12  13
ATOM     13  C   UNL     1     -44.172 -33.223  40.515  1.00  0.00    -0.000 C 
BRANCH  13  14
ATOM     14  C   UNL     1     -42.634 -33.220  40.465  1.00  0.00    -0.000 C 
BRANCH  14  15
ATOM     15  C   UNL     1     -42.080 -33.350  39.034  1.00  0.00    -0.000 C 
BRANCH  15  16
ATOM     16  C   UNL     1     -41.318 -34.656  38.743  1.00  0.00    -0.000 C 
BRANCH  16  17
ATOM     17  C   UNL     1     -40.219 -34.486  37.684  1.00  0.00    -0.000 C 
BRANCH  17  18
ATOM     18  C   UNL     1     -40.306 -35.587  36.621  1.00  0.00    -0.003 C 
ATOM     19  C   UNL     1     -41.733 -35.744  36.106  1.00  0.00     0.004 C 
ENDBRANCH  17  18
ENDBRANCH  16  17
ENDBRANCH  15  16
ENDBRANCH  14  15
ENDBRANCH  13  14
ENDBRANCH  12  13
ENDBRANCH   1  12
TORSDOF 14
ENDMDL
MODEL 3
REMARK VINA RESULT:    -4.124      2.860      6.008
REMARK INTER + INTRA:          -9.657
REMARK INTER:                  -7.388
REMARK INTRA:                  -2.269
REMARK UNBOUND:                -2.158
REMARK SMILES CCCCCCCCCCCCCC[C@@H](C)C(=O)[O-]
REMARK SMILES IDX 9 1 10 2 11 3 12 4 13 5 14 6 15 7 16 8 17 9 18 10 19 11 8 12
REMARK SMILES IDX 7 13 6 14 5 15 4 16 3 17 2 18 1 19
REMARK H PARENT
REMARK Flexibility Score: inf
ROOT
ATOM      1  C   UNL     1     -40.553 -35.897  36.473  1.00  0.00     0.000 C 
ENDROOT
BRANCH   1   2
ATOM      2  C   UNL     1     -39.970 -34.719  37.267  1.00  0.00     0.000 C 
BRANCH   2   3
ATOM      3  C   UNL     1     -39.928 -34.982  38.781  1.00  0.00     0.000 C 
BRANCH   3   4
ATOM      4  C   UNL     1     -41.148 -34.399  39.516  1.00  0.00     0.000 C 
BRANCH   4   5
ATOM      5  C   UNL     1     -41.685 -33.117  38.857  1.00  0.00     0.001 C 
BRANCH   5   6
ATOM      6  C   UNL     1     -43.203 -32.885  39.007  1.00  0.00     0.009 C 
BRANCH   6   7
ATOM      7  C   UNL     1     -43.707 -31.571  38.348  1.00  0.00     0.032 C 
ATOM      8  C   UNL     1     -45.216 -31.616  38.069  1.00  0.00     0.014 C 
BRANCH   7   9
ATOM      9  C   UNL     1     -43.405 -30.388  39.228  1.00  0.00     0.044 C 
ATOM     10  O   UNL     1     -43.973 -30.269  40.346  1.00  0.00    -0.550 OA
ATOM     11  O   UNL     1     -42.499 -29.419  38.814  1.00  0.00    -0.550 OA
ENDBRANCH   7   9
ENDBRANCH   6   7
ENDBRANCH   5   6
ENDBRANCH   4   5
ENDBRANCH   3   4
ENDBRANCH   2   3
ENDBRANCH   1   2
BRANCH   1  12
ATOM     12  C   UNL     1     -41.867 -35.497  35.785  1.00  0.00     0.000 C 
BRANCH  12  13
ATOM     13  C   UNL     1     -43.110 -35.863  36.614  1.00  0.00    -0.000 C 
BRANCH  13  14
ATOM     14  C   UNL     1     -44.373 -35.125  36.140  1.00  0.00    -0.000 C 
BRANCH  14  15
ATOM     15  C   UNL     1     -45.520 -35.179  37.166  1.00  0.00    -0.000 C 
BRANCH  15  16
ATOM     16  C   UNL     1     -45.971 -36.594  37.570  1.00  0.00    -0.000 C 
BRANCH  16  17
ATOM     17  C   UNL     1     -46.045 -36.789  39.092  1.00  0.00    -0.000 C 
BRANCH  17  18
ATOM     18  C   UNL     1     -45.077 -35.845  39.814  1.00  0.00    -0.003 C 
ATOM     19  C   UNL     1     -45.808 -34.988  40.843  1.00  0.00     0.004 C 
ENDBRANCH  17  18
ENDBRANCH  16  17
ENDBRANCH  15  16
ENDBRANCH  14  15
ENDBRANCH  13  14
ENDBRANCH  12  13
ENDBRANCH   1  12
TORSDOF 14
ENDMDL
MODEL 4
REMARK VINA RESULT:    -4.097      2.217      3.379
REMARK INTER + INTRA:          -9.607
REMARK INTER:                  -7.429
REMARK INTRA:                  -2.179
REMARK UNBOUND:                -2.158
REMARK SMILES CCCCCCCCCCCCCC[C@@H](C)C(=O)[O-]
REMARK SMILES IDX 9 1 10 2 11 3 12 4 13 5 14 6 15 7 16 8 17 9 18 10 19 11 8 12
REMARK SMILES IDX 7 13 6 14 5 15 4 16 3 17 2 18 1 19
REMARK H PARENT
REMARK Flexibility Score: inf
ROOT
ATOM      1  C   UNL     1     -43.723 -34.867  38.870  1.00  0.00     0.000 C 
ENDROOT
BRANCH   1   2
ATOM      2  C   UNL     1     -44.673 -34.332  37.787  1.00  0.00     0.000 C 
BRANCH   2   3
ATOM      3  C   UNL     1     -44.636 -35.165  36.497  1.00  0.00     0.000 C 
BRANCH   3   4
ATOM      4  C   UNL     1     -44.884 -36.662  36.752  1.00  0.00     0.000 C 
BRANCH   4   5
ATOM      5  C   UNL     1     -46.310 -36.955  37.247  1.00  0.00     0.001 C 
BRANCH   5   6
ATOM      6  C   UNL     1     -46.403 -37.807  38.530  1.00  0.00     0.009 C 
BRANCH   6   7
ATOM      7  C   UNL     1     -46.589 -36.973  39.827  1.00  0.00     0.032 C 
ATOM      8  C   UNL     1     -47.517 -35.771  39.605  1.00  0.00     0.014 C 
BRANCH   7   9
ATOM      9  C   UNL     1     -47.152 -37.830  40.930  1.00  0.00     0.044 C 
ATOM     10  O   UNL     1     -47.581 -37.298  41.989  1.00  0.00    -0.550 OA
ATOM     11  O   UNL     1     -47.201 -39.212  40.789  1.00  0.00    -0.550 OA
ENDBRANCH   7   9
ENDBRANCH   6   7
ENDBRANCH   5   6
ENDBRANCH   4   5
ENDBRANCH   3   4
ENDBRANCH   2   3
ENDBRANCH   1   2
BRANCH   1  12
ATOM     12  C   UNL     1     -43.887 -34.080  40.179  1.00  0.00     0.000 C 
BRANCH  12  13
ATOM     13  C   UNL     1     -42.639 -33.256  40.540  1.00  0.00    -0.000 C 
BRANCH  13  14
ATOM     14  C   UNL     1     -42.490 -31.999  39.666  1.00  0.00    -0.000 C 
BRANCH  14  15
ATOM     15  C   UNL     1     -41.303 -32.086  38.688  1.00  0.00    -0.000 C 
BRANCH  15  16
ATOM     16  C   UNL     1     -40.402 -33.322  38.861  1.00  0.00    -0.000 C 
BRANCH  16  17
ATOM     17  C   UNL     1     -40.002 -33.964  37.524  1.00  0.00    -0.000 C 
BRANCH  17  18
ATOM     18  C   UNL     1     -40.451 -35.429  37.463  1.00  0.00    -0.003 C 
ATOM     19  C   UNL     1     -41.106 -35.749  36.123  1.00  0.00     0.004 C 
ENDBRANCH  17  18
ENDBRANCH  16  17
ENDBRANCH  15  16
ENDBRANCH  14  15
ENDBRANCH  13  14
ENDBRANCH  12  13
ENDBRANCH   1  12
TORSDOF 14
ENDMDL
MODEL 5
REMARK VINA RESULT:    -4.029      5.474      8.236
REMARK INTER + INTRA:          -9.484
REMARK INTER:                  -6.977
REMARK INTRA:                  -2.507
REMARK UNBOUND:                -2.158
REMARK SMILES CCCCCCCCCCCCCC[C@@H](C)C(=O)[O-]
REMARK SMILES IDX 9 1 10 2 11 3 12 4 13 5 14 6 15 7 16 8 17 9 18 10 19 11 8 12
REMARK SMILES IDX 7 13 6 14 5 15 4 16 3 17 2 18 1 19
REMARK H PARENT
REMARK Flexibility Score: inf
ROOT
ATOM      1  C   UNL     1     -38.141 -25.463  40.328  1.00  0.00     0.000 C 
ENDROOT
BRANCH   1   2
ATOM      2  C   UNL     1     -38.240 -26.894  39.780  1.00  0.00     0.000 C 
BRANCH   2   3
ATOM      3  C   UNL     1     -38.521 -27.934  40.876  1.00  0.00     0.000 C 
BRANCH   3   4
ATOM      4  C   UNL     1     -40.014 -28.025  41.236  1.00  0.00     0.000 C 
BRANCH   4   5
ATOM      5  C   UNL     1     -40.848 -28.728  40.152  1.00  0.00     0.001 C 
BRANCH   5   6
ATOM      6  C   UNL     1     -42.086 -29.494  40.663  1.00  0.00     0.009 C 
BRANCH   6   7
ATOM      7  C   UNL     1     -42.974 -30.081  39.532  1.00  0.00     0.032 C 
ATOM      8  C   UNL     1     -42.535 -29.588  38.146  1.00  0.00     0.014 C 
BRANCH   7   9
ATOM      9  C   UNL     1     -42.932 -31.586  39.554  1.00  0.00     0.044 C 
ATOM     10  O   UNL     1     -42.334 -32.190  40.484  1.00  0.00    -0.550 OA
ATOM     11  O   UNL     1     -43.551 -32.319  38.548  1.00  0.00    -0.550 OA
ENDBRANCH   7   9
ENDBRANCH   6   7
ENDBRANCH   5   6
ENDBRANCH   4   5
ENDBRANCH   3   4
ENDBRANCH   2   3
ENDBRANCH   1   2
BRANCH   1  12
ATOM     12  C   UNL     1     -39.384 -24.644  39.949  1.00  0.00     0.000 C 
BRANCH  12  13
ATOM     13  C   UNL     1     -39.926 -23.806  41.119  1.00  0.00    -0.000 C 
BRANCH  13  14
ATOM     14  C   UNL     1     -40.950 -24.575  41.971  1.00  0.00    -0.000 C 
BRANCH  14  15
ATOM     15  C   UNL     1     -42.367 -24.555  41.369  1.00  0.00    -0.000 C 
BRANCH  15  16
ATOM     16  C   UNL     1     -43.066 -25.924  41.293  1.00  0.00    -0.000 C 
BRANCH  16  17
ATOM     17  C   UNL     1     -43.662 -26.217  39.908  1.00  0.00    -0.000 C 
BRANCH  17  18
ATOM     18  C   UNL     1     -43.048 -25.302  38.842  1.00  0.00    -0.003 C 
ATOM     19  C   UNL     1     -42.033 -26.056  37.987  1.00  0.00     0.004 C 
ENDBRANCH  17  18
ENDBRANCH  16  17
ENDBRANCH  15  16
ENDBRANCH  14  15
ENDBRANCH  13  14
ENDBRANCH  12  13
ENDBRANCH   1  12
TORSDOF 14
ENDMDL
MODEL 6
REMARK VINA RESULT:    -4.017      2.664      4.245
REMARK INTER + INTRA:          -9.462
REMARK INTER:                  -7.199
REMARK INTRA:                  -2.262
REMARK UNBOUND:                -2.158
REMARK SMILES CCCCCCCCCCCCCC[C@@H](C)C(=O)[O-]
REMARK SMILES IDX 9 1 10 2 11 3 12 4 13 5 14 6 15 7 16 8 17 9 18 10 19 11 8 12
REMARK SMILES IDX 7 13 6 14 5 15 4 16 3 17 2 18 1 19
REMARK H PARENT
REMARK Flexibility Score: inf
ROOT
ATOM      1  C   UNL     1     -44.432 -34.926  36.303  1.00  0.00     0.000 C 
ENDROOT
BRANCH   1   2
ATOM      2  C   UNL     1     -44.580 -36.431  36.571  1.00  0.00     0.000 C 
BRANCH   2   3
ATOM      3  C   UNL     1     -45.309 -36.734  37.889  1.00  0.00     0.000 C 
BRANCH   3   4
ATOM      4  C   UNL     1     -46.722 -37.301  37.666  1.00  0.00     0.000 C 
BRANCH   4   5
ATOM      5  C   UNL     1     -47.654 -37.071  38.867  1.00  0.00     0.001 C 
BRANCH   5   6
ATOM      6  C   UNL     1     -46.946 -36.780  40.206  1.00  0.00     0.009 C 
BRANCH   6   7
ATOM      7  C   UNL     1     -47.302 -35.398  40.821  1.00  0.00     0.032 C 
ATOM      8  C   UNL     1     -47.783 -34.405  39.753  1.00  0.00     0.014 C 
BRANCH   7   9
ATOM      9  C   UNL     1     -48.373 -35.546  41.870  1.00  0.00     0.044 C 
ATOM     10  O   UNL     1     -48.064 -35.857  43.051  1.00  0.00    -0.550 OA
ATOM     11  O   UNL     1     -49.708 -35.340  41.542  1.00  0.00    -0.550 OA
ENDBRANCH   7   9
ENDBRANCH   6   7
ENDBRANCH   5   6
ENDBRANCH   4   5
ENDBRANCH   3   4
ENDBRANCH   2   3
ENDBRANCH   1   2
BRANCH   1  12
ATOM     12  C   UNL     1     -45.165 -34.105  37.375  1.00  0.00     0.000 C 
BRANCH  12  13
ATOM     13  C   UNL     1     -44.220 -33.200  38.184  1.00  0.00    -0.000 C 
BRANCH  13  14
ATOM     14  C   UNL     1     -43.805 -33.830  39.525  1.00  0.00    -0.000 C 
BRANCH  14  15
ATOM     15  C   UNL     1     -42.278 -33.930  39.693  1.00  0.00    -0.000 C 
BRANCH  15  16
ATOM     16  C   UNL     1     -41.457 -32.969  38.814  1.00  0.00    -0.000 C 
BRANCH  16  17
ATOM     17  C   UNL     1     -40.451 -33.694  37.908  1.00  0.00    -0.000 C 
BRANCH  17  18
ATOM     18  C   UNL     1     -40.793 -35.184  37.791  1.00  0.00    -0.003 C 
ATOM     19  C   UNL     1     -40.815 -35.632  36.333  1.00  0.00     0.004 C 
ENDBRANCH  17  18
ENDBRANCH  16  17
ENDBRANCH  15  16
ENDBRANCH  14  15
ENDBRANCH  13  14
ENDBRANCH  12  13
ENDBRANCH   1  12
TORSDOF 14
ENDMDL
MODEL 7
REMARK VINA RESULT:    -4.008      5.328      7.362
REMARK INTER + INTRA:          -9.445
REMARK INTER:                  -6.829
REMARK INTRA:                  -2.616
REMARK UNBOUND:                -2.158
REMARK SMILES CCCCCCCCCCCCCC[C@@H](C)C(=O)[O-]
REMARK SMILES IDX 9 1 10 2 11 3 12 4 13 5 14 6 15 7 16 8 17 9 18 10 19 11 8 12
REMARK SMILES IDX 7 13 6 14 5 15 4 16 3 17 2 18 1 19
REMARK H PARENT
REMARK Flexibility Score: inf
ROOT
ATOM      1  C   UNL     1     -42.618 -25.953  40.410  1.00  0.00     0.000 C 
ENDROOT
BRANCH   1   2
ATOM      2  C   UNL     1     -42.558 -25.600  38.916  1.00  0.00     0.000 C 
BRANCH   2   3
ATOM      3  C   UNL     1     -41.809 -26.652  38.084  1.00  0.00     0.000 C 
BRANCH   3   4
ATOM      4  C   UNL     1     -42.756 -27.518  37.235  1.00  0.00     0.000 C 
BRANCH   4   5
ATOM      5  C   UNL     1     -43.201 -28.801  37.957  1.00  0.00     0.001 C 
BRANCH   5   6
ATOM      6  C   UNL     1     -42.121 -29.895  38.086  1.00  0.00     0.009 C 
BRANCH   6   7
ATOM      7  C   UNL     1     -42.006 -30.502  39.512  1.00  0.00     0.032 C 
ATOM      8  C   UNL     1     -42.808 -29.694  40.542  1.00  0.00     0.014 C 
BRANCH   7   9
ATOM      9  C   UNL     1     -42.490 -31.927  39.521  1.00  0.00     0.044 C 
ATOM     10  O   UNL     1     -43.280 -32.334  38.628  1.00  0.00    -0.550 OA
ATOM     11  O   UNL     1     -42.068 -32.804  40.514  1.00  0.00    -0.550 OA
ENDBRANCH   7   9
ENDBRANCH   6   7
ENDBRANCH   5   6
ENDBRANCH   4   5
ENDBRANCH   3   4
ENDBRANCH   2   3
ENDBRANCH   1   2
BRANCH   1  12
ATOM     12  C   UNL     1     -42.487 -24.692  41.276  1.00  0.00     0.000 C 
BRANCH  12  13
ATOM     13  C   UNL     1     -41.056 -24.471  41.796  1.00  0.00    -0.000 C 
BRANCH  13  14
ATOM     14  C   UNL     1     -40.233 -23.546  40.883  1.00  0.00    -0.000 C 
BRANCH  14  15
ATOM     15  C   UNL     1     -39.218 -24.310  40.014  1.00  0.00    -0.000 C 
BRANCH  15  16
ATOM     16  C   UNL     1     -38.663 -25.603  40.639  1.00  0.00    -0.000 C 
BRANCH  16  17
ATOM     17  C   UNL     1     -38.388 -26.702  39.601  1.00  0.00    -0.000 C 
BRANCH  17  18
ATOM     18  C   UNL     1     -39.089 -28.009  39.988  1.00  0.00    -0.003 C 
ATOM     19  C   UNL     1     -39.603 -27.955  41.424  1.00  0.00     0.004 C 
ENDBRANCH  17  18
ENDBRANCH  16  17
ENDBRANCH  15  16
ENDBRANCH  14  15
ENDBRANCH  13  14
ENDBRANCH  12  13
ENDBRANCH   1  12
TORSDOF 14
ENDMDL
MODEL 8
REMARK VINA RESULT:    -3.996      2.733      4.708
REMARK INTER + INTRA:          -9.425
REMARK INTER:                  -7.339
REMARK INTRA:                  -2.086
REMARK UNBOUND:                -2.158
REMARK SMILES CCCCCCCCCCCCCC[C@@H](C)C(=O)[O-]
REMARK SMILES IDX 9 1 10 2 11 3 12 4 13 5 14 6 15 7 16 8 17 9 18 10 19 11 8 12
REMARK SMILES IDX 7 13 6 14 5 15 4 16 3 17 2 18 1 19
REMARK H PARENT
REMARK Flexibility Score: inf
ROOT
ATOM      1  C   UNL     1     -44.989 -37.186  36.527  1.00  0.00     0.000 C 
ENDROOT
BRANCH   1   2
ATOM      2  C   UNL     1     -45.901 -37.805  37.596  1.00  0.00     0.000 C 
BRANCH   2   3
ATOM      3  C   UNL     1     -46.723 -36.755  38.361  1.00  0.00     0.000 C 
BRANCH   3   4
ATOM      4  C   UNL     1     -46.385 -36.717  39.861  1.00  0.00     0.000 C 
BRANCH   4   5
ATOM      5  C   UNL     1     -46.344 -35.288  40.428  1.00  0.00     0.001 C 
BRANCH   5   6
ATOM      6  C   UNL     1     -46.953 -34.200  39.520  1.00  0.00     0.009 C 
BRANCH   6   7
ATOM      7  C   UNL     1     -45.963 -33.060  39.151  1.00  0.00     0.032 C 
ATOM      8  C   UNL     1     -46.334 -32.391  37.820  1.00  0.00     0.014 C 
BRANCH   7   9
ATOM      9  C   UNL     1     -45.932 -32.015  40.234  1.00  0.00     0.044 C 
ATOM     10  O   UNL     1     -44.858 -31.415  40.505  1.00  0.00    -0.550 OA
ATOM     11  O   UNL     1     -47.088 -31.705  40.942  1.00  0.00    -0.550 OA
ENDBRANCH   7   9
ENDBRANCH   6   7
ENDBRANCH   5   6
ENDBRANCH   4   5
ENDBRANCH   3   4
ENDBRANCH   2   3
ENDBRANCH   1   2
BRANCH   1  12
ATOM     12  C   UNL     1     -44.857 -35.669  36.732  1.00  0.00     0.000 C 
BRANCH  12  13
ATOM     13  C   UNL     1     -43.402 -35.221  36.949  1.00  0.00    -0.000 C 
BRANCH  13  14
ATOM     14  C   UNL     1     -43.030 -35.130  38.440  1.00  0.00    -0.000 C 
BRANCH  14  15
ATOM     15  C   UNL     1     -42.417 -33.770  38.822  1.00  0.00    -0.000 C 
BRANCH  15  16
ATOM     16  C   UNL     1     -40.883 -33.688  38.708  1.00  0.00    -0.000 C 
BRANCH  16  17
ATOM     17  C   UNL     1     -40.207 -35.067  38.703  1.00  0.00    -0.000 C 
BRANCH  17  18
ATOM     18  C   UNL     1     -39.201 -35.190  39.853  1.00  0.00    -0.003 C 
ATOM     19  C   UNL     1     -38.942 -36.652  40.205  1.00  0.00     0.004 C 
ENDBRANCH  17  18
ENDBRANCH  16  17
ENDBRANCH  15  16
ENDBRANCH  14  15
ENDBRANCH  13  14
ENDBRANCH  12  13
ENDBRANCH   1  12
TORSDOF 14
ENDMDL
MODEL 9
REMARK VINA RESULT:    -3.993      2.658      5.308
REMARK INTER + INTRA:          -9.418
REMARK INTER:                  -7.318
REMARK INTRA:                  -2.100
REMARK UNBOUND:                -2.158
REMARK SMILES CCCCCCCCCCCCCC[C@@H](C)C(=O)[O-]
REMARK SMILES IDX 9 1 10 2 11 3 12 4 13 5 14 6 15 7 16 8 17 9 18 10 19 11 8 12
REMARK SMILES IDX 7 13 6 14 5 15 4 16 3 17 2 18 1 19
REMARK H PARENT
REMARK Flexibility Score: inf
ROOT
ATOM      1  C   UNL     1     -41.904 -34.377  38.739  1.00  0.00     0.000 C 
ENDROOT
BRANCH   1   2
ATOM      2  C   UNL     1     -42.061 -33.216  39.733  1.00  0.00     0.000 C 
BRANCH   2   3
ATOM      3  C   UNL     1     -43.522 -32.976  40.143  1.00  0.00     0.000 C 
BRANCH   3   4
ATOM      4  C   UNL     1     -43.952 -31.509  39.969  1.00  0.00     0.000 C 
BRANCH   4   5
ATOM      5  C   UNL     1     -45.231 -31.357  39.129  1.00  0.00     0.001 C 
BRANCH   5   6
ATOM      6  C   UNL     1     -45.105 -31.777  37.650  1.00  0.00     0.009 C 
BRANCH   6   7
ATOM      7  C   UNL     1     -46.436 -32.269  37.019  1.00  0.00     0.032 C 
ATOM      8  C   UNL     1     -47.484 -32.608  38.088  1.00  0.00     0.014 C 
BRANCH   7   9
ATOM      9  C   UNL     1     -47.000 -31.224  36.092  1.00  0.00     0.044 C 
ATOM     10  O   UNL     1     -46.298 -30.236  35.749  1.00  0.00    -0.550 OA
ATOM     11  O   UNL     1     -48.298 -31.343  35.611  1.00  0.00    -0.550 OA
ENDBRANCH   7   9
ENDBRANCH   6   7
ENDBRANCH   5   6
ENDBRANCH   4   5
ENDBRANCH   3   4
ENDBRANCH   2   3
ENDBRANCH   1   2
BRANCH   1  12
ATOM     12  C   UNL     1     -43.245 -35.092  38.516  1.00  0.00     0.000 C 
BRANCH  12  13
ATOM     13  C   UNL     1     -43.543 -35.352  37.030  1.00  0.00    -0.000 C 
BRANCH  13  14
ATOM     14  C   UNL     1     -45.042 -35.570  36.758  1.00  0.00    -0.000 C 
BRANCH  14  15
ATOM     15  C   UNL     1     -45.456 -37.051  36.839  1.00  0.00    -0.000 C 
BRANCH  15  16
ATOM     16  C   UNL     1     -46.712 -37.335  37.681  1.00  0.00    -0.000 C 
BRANCH  16  17
ATOM     17  C   UNL     1     -46.385 -37.830  39.098  1.00  0.00    -0.000 C 
BRANCH  17  18
ATOM     18  C   UNL     1     -46.282 -36.657  40.079  1.00  0.00    -0.003 C 
ATOM     19  C   UNL     1     -47.452 -35.692  39.909  1.00  0.00     0.004 C 
ENDBRANCH  17  18
ENDBRANCH  16  17
ENDBRANCH  15  16
ENDBRANCH  14  15
ENDBRANCH  13  14
ENDBRANCH  12  13
ENDBRANCH   1  12
TORSDOF 14
ENDMDL
