MODEL 1
REMARK VINA RESULT:    -5.273      0.000      0.000
REMARK INTER + INTRA:         -14.415
REMARK INTER:                 -12.054
REMARK INTRA:                  -2.361
REMARK UNBOUND:                -2.361
REMARK SMILES CCCCCCCCCCCCCCCCCCCCCCCC(=O)[O-]
REMARK SMILES IDX 13 1 14 2 15 3 16 4 17 5 18 6 19 7 20 8 21 9 22 10 23 11
REMARK SMILES IDX 24 12 25 13 26 14 12 15 11 16 10 17 9 18 8 19 7 20 6 21 5 22
REMARK SMILES IDX 4 23 3 24 2 25 1 26
REMARK H PARENT
REMARK Flexibility Score: inf
ROOT
ATOM      1  C   UNL     1      42.499  55.448  17.605  1.00  0.00     0.000 C 
ENDROOT
BRANCH   1   2
ATOM      2  C   UNL     1      41.123  55.952  17.142  1.00  0.00     0.000 C 
BRANCH   2   3
ATOM      3  C   UNL     1      40.130  56.001  18.315  1.00  0.00     0.000 C 
BRANCH   3   4
ATOM      4  C   UNL     1      38.989  57.006  18.090  1.00  0.00     0.000 C 
BRANCH   4   5
ATOM      5  C   UNL     1      38.087  56.700  16.879  1.00  0.00     0.000 C 
BRANCH   5   6
ATOM      6  C   UNL     1      36.608  57.093  17.087  1.00  0.00     0.000 C 
BRANCH   6   7
ATOM      7  C   UNL     1      36.033  57.872  15.892  1.00  0.00     0.000 C 
BRANCH   7   8
ATOM      8  C   UNL     1      36.388  57.214  14.541  1.00  0.00     0.000 C 
BRANCH   8   9
ATOM      9  C   UNL     1      35.276  56.305  13.988  1.00  0.00     0.000 C 
BRANCH   9  10
ATOM     10  C   UNL     1      33.882  56.947  14.079  1.00  0.00     0.006 C 
BRANCH  10  11
ATOM     11  C   UNL     1      32.827  55.972  14.622  1.00  0.00     0.053 C 
BRANCH  11  12
ATOM     12  C   UNL     1      32.782  55.957  16.121  1.00  0.00     0.041 C 
ATOM     13  O   UNL     1      33.576  55.229  16.775  1.00  0.00    -0.550 OA
ATOM     14  O   UNL     1      31.877  56.767  16.797  1.00  0.00    -0.550 OA
ENDBRANCH  11  12
ENDBRANCH  10  11
ENDBRANCH   9  10
ENDBRANCH   8   9
ENDBRANCH   7   8
ENDBRANCH   6   7
ENDBRANCH   5   6
ENDBRANCH   4   5
ENDBRANCH   3   4
ENDBRANCH   2   3
ENDBRANCH   1   2
BRANCH   1  15
ATOM     15  C   UNL     1      42.957  54.189  16.837  1.00  0.00     0.000 C 
BRANCH  15  16
ATOM     16  C   UNL     1      42.365  54.073  15.421  1.00  0.00     0.000 C 
BRANCH  16  17
ATOM     17  C   UNL     1      43.406  53.664  14.371  1.00  0.00     0.000 C 
BRANCH  17  18
ATOM     18  C   UNL     1      44.609  52.963  15.016  1.00  0.00    -0.000 C 
BRANCH  18  19
ATOM     19  C   UNL     1      45.717  52.631  13.999  1.00  0.00    -0.000 C 
BRANCH  19  20
ATOM     20  C   UNL     1      46.990  52.007  14.602  1.00  0.00    -0.000 C 
BRANCH  20  21
ATOM     21  C   UNL     1      48.269  52.848  14.430  1.00  0.00    -0.000 C 
BRANCH  21  22
ATOM     22  C   UNL     1      48.693  53.554  15.727  1.00  0.00    -0.000 C 
BRANCH  22  23
ATOM     23  C   UNL     1      48.383  55.058  15.667  1.00  0.00    -0.000 C 
BRANCH  23  24
ATOM     24  C   UNL     1      47.555  55.533  16.879  1.00  0.00    -0.000 C 
BRANCH  24  25
ATOM     25  C   UNL     1      46.146  56.031  16.510  1.00  0.00    -0.003 C 
ATOM     26  C   UNL     1      45.998  56.367  15.026  1.00  0.00     0.004 C 
ENDBRANCH  24  25
ENDBRANCH  23  24
ENDBRANCH  22  23
ENDBRANCH  21  22
ENDBRANCH  20  21
ENDBRANCH  19  20
ENDBRANCH  18  19
ENDBRANCH  17  18
ENDBRANCH  16  17
ENDBRANCH  15  16
ENDBRANCH   1  15
TORSDOF 22
ENDMDL
MODEL 2
REMARK VINA RESULT:    -5.216      0.921      1.716
REMARK INTER + INTRA:         -14.285
REMARK INTER:                 -12.357
REMARK INTRA:                  -1.928
REMARK UNBOUND:                -2.361
REMARK SMILES CCCCCCCCCCCCCCCCCCCCCCCC(=O)[O-]
REMARK SMILES IDX 13 1 14 2 15 3 16 4 17 5 18 6 19 7 20 8 21 9 22 10 23 11
REMARK SMILES IDX 24 12 25 13 26 14 12 15 11 16 10 17 9 18 8 19 7 20 6 21 5 22
REMARK SMILES IDX 4 23 3 24 2 25 1 26
REMARK H PARENT
REMARK Flexibility Score: inf
ROOT
ATOM      1  C   UNL     1      41.065  55.978  17.176  1.00  0.00     0.000 C 
ENDROOT
BRANCH   1   2
ATOM      2  C   UNL     1      40.047  56.027  18.328  1.00  0.00     0.000 C 
BRANCH   2   3
ATOM      3  C   UNL     1      38.958  57.078  18.058  1.00  0.00     0.000 C 
BRANCH   3   4
ATOM      4  C   UNL     1      38.038  56.694  16.887  1.00  0.00     0.000 C 
BRANCH   4   5
ATOM      5  C   UNL     1      36.598  57.231  16.994  1.00  0.00     0.000 C 
BRANCH   5   6
ATOM      6  C   UNL     1      36.185  58.151  15.824  1.00  0.00     0.000 C 
BRANCH   6   7
ATOM      7  C   UNL     1      36.019  57.382  14.502  1.00  0.00     0.000 C 
BRANCH   7   8
ATOM      8  C   UNL     1      34.536  57.210  14.109  1.00  0.00     0.000 C 
BRANCH   8   9
ATOM      9  C   UNL     1      33.898  55.924  14.665  1.00  0.00     0.000 C 
BRANCH   9  10
ATOM     10  C   UNL     1      33.258  56.127  16.048  1.00  0.00     0.006 C 
BRANCH  10  11
ATOM     11  C   UNL     1      31.762  55.785  16.053  1.00  0.00     0.053 C 
BRANCH  11  12
ATOM     12  C   UNL     1      31.034  56.426  17.198  1.00  0.00     0.041 C 
ATOM     13  O   UNL     1      30.750  57.653  17.165  1.00  0.00    -0.550 OA
ATOM     14  O   UNL     1      30.648  55.659  18.292  1.00  0.00    -0.550 OA
ENDBRANCH  11  12
ENDBRANCH  10  11
ENDBRANCH   9  10
ENDBRANCH   8   9
ENDBRANCH   7   8
ENDBRANCH   6   7
ENDBRANCH   5   6
ENDBRANCH   4   5
ENDBRANCH   3   4
ENDBRANCH   2   3
ENDBRANCH   1   2
BRANCH   1  15
ATOM     15  C   UNL     1      42.449  55.468  17.631  1.00  0.00     0.000 C 
BRANCH  15  16
ATOM     16  C   UNL     1      42.959  54.254  16.835  1.00  0.00     0.000 C 
BRANCH  16  17
ATOM     17  C   UNL     1      42.348  54.162  15.430  1.00  0.00     0.000 C 
BRANCH  17  18
ATOM     18  C   UNL     1      43.409  53.809  14.379  1.00  0.00    -0.000 C 
BRANCH  18  19
ATOM     19  C   UNL     1      44.573  52.989  14.965  1.00  0.00    -0.000 C 
BRANCH  19  20
ATOM     20  C   UNL     1      45.711  52.672  13.975  1.00  0.00    -0.000 C 
BRANCH  20  21
ATOM     21  C   UNL     1      47.128  52.729  14.576  1.00  0.00    -0.000 C 
BRANCH  21  22
ATOM     22  C   UNL     1      47.720  54.146  14.567  1.00  0.00    -0.000 C 
BRANCH  22  23
ATOM     23  C   UNL     1      48.458  54.448  15.881  1.00  0.00    -0.000 C 
BRANCH  23  24
ATOM     24  C   UNL     1      47.888  55.689  16.599  1.00  0.00    -0.000 C 
BRANCH  24  25
ATOM     25  C   UNL     1      46.357  55.659  16.766  1.00  0.00    -0.003 C 
ATOM     26  C   UNL     1      45.658  56.849  16.110  1.00  0.00     0.004 C 
ENDBRANCH  24  25
ENDBRANCH  23  24
ENDBRANCH  22  23
ENDBRANCH  21  22
ENDBRANCH  20  21
ENDBRANCH  19  20
ENDBRANCH  18  19
ENDBRANCH  17  18
ENDBRANCH  16  17
ENDBRANCH  15  16
ENDBRANCH   1  15
TORSDOF 22
ENDMDL
MODEL 3
REMARK VINA RESULT:    -5.125      4.110     11.955
REMARK INTER + INTRA:         -14.076
REMARK INTER:                 -12.821
REMARK INTRA:                  -1.255
REMARK UNBOUND:                -2.361
REMARK SMILES CCCCCCCCCCCCCCCCCCCCCCCC(=O)[O-]
REMARK SMILES IDX 13 1 14 2 15 3 16 4 17 5 18 6 19 7 20 8 21 9 22 10 23 11
REMARK SMILES IDX 24 12 25 13 26 14 12 15 11 16 10 17 9 18 8 19 7 20 6 21 5 22
REMARK SMILES IDX 4 23 3 24 2 25 1 26
REMARK H PARENT
REMARK Flexibility Score: inf
ROOT
ATOM      1  C   UNL     1      42.508  55.517  17.643  1.00  0.00     0.000 C 
ENDROOT
BRANCH   1   2
ATOM      2  C   UNL     1      43.343  54.943  16.486  1.00  0.00     0.000 C 
BRANCH   2   3
ATOM      3  C   UNL     1      42.757  53.609  15.994  1.00  0.00     0.000 C 
BRANCH   3   4
ATOM      4  C   UNL     1      43.564  52.994  14.838  1.00  0.00     0.000 C 
BRANCH   4   5
ATOM      5  C   UNL     1      45.018  53.489  14.729  1.00  0.00     0.000 C 
BRANCH   5   6
ATOM      6  C   UNL     1      46.029  52.381  14.358  1.00  0.00     0.000 C 
BRANCH   6   7
ATOM      7  C   UNL     1      47.465  52.916  14.227  1.00  0.00     0.000 C 
BRANCH   7   8
ATOM      8  C   UNL     1      48.389  52.391  15.347  1.00  0.00     0.000 C 
BRANCH   8   9
ATOM      9  C   UNL     1      49.045  53.509  16.177  1.00  0.00     0.000 C 
BRANCH   9  10
ATOM     10  C   UNL     1      48.386  54.880  15.956  1.00  0.00     0.006 C 
BRANCH  10  11
ATOM     11  C   UNL     1      47.857  55.489  17.262  1.00  0.00     0.053 C 
BRANCH  11  12
ATOM     12  C   UNL     1      47.727  56.982  17.183  1.00  0.00     0.041 C 
ATOM     13  O   UNL     1      46.661  57.506  16.762  1.00  0.00    -0.550 OA
ATOM     14  O   UNL     1      48.776  57.793  17.599  1.00  0.00    -0.550 OA
ENDBRANCH  11  12
ENDBRANCH  10  11
ENDBRANCH   9  10
ENDBRANCH   8   9
ENDBRANCH   7   8
ENDBRANCH   6   7
ENDBRANCH   5   6
ENDBRANCH   4   5
ENDBRANCH   3   4
ENDBRANCH   2   3
ENDBRANCH   1   2
BRANCH   1  15
ATOM     15  C   UNL     1      41.105  55.974  17.189  1.00  0.00     0.000 C 
BRANCH  15  16
ATOM     16  C   UNL     1      40.078  56.061  18.331  1.00  0.00     0.000 C 
BRANCH  16  17
ATOM     17  C   UNL     1      38.971  57.090  18.062  1.00  0.00     0.000 C 
BRANCH  17  18
ATOM     18  C   UNL     1      38.079  56.659  16.889  1.00  0.00    -0.000 C 
BRANCH  18  19
ATOM     19  C   UNL     1      36.615  57.106  17.064  1.00  0.00    -0.000 C 
BRANCH  19  20
ATOM     20  C   UNL     1      36.020  57.873  15.868  1.00  0.00    -0.000 C 
BRANCH  20  21
ATOM     21  C   UNL     1      35.076  57.049  14.973  1.00  0.00    -0.000 C 
BRANCH  21  22
ATOM     22  C   UNL     1      33.853  56.517  15.735  1.00  0.00    -0.000 C 
BRANCH  22  23
ATOM     23  C   UNL     1      32.670  56.273  14.785  1.00  0.00    -0.000 C 
BRANCH  23  24
ATOM     24  C   UNL     1      31.322  56.210  15.534  1.00  0.00    -0.000 C 
BRANCH  24  25
ATOM     25  C   UNL     1      31.416  56.628  17.012  1.00  0.00    -0.003 C 
ATOM     26  C   UNL     1      30.719  55.650  17.958  1.00  0.00     0.004 C 
ENDBRANCH  24  25
ENDBRANCH  23  24
ENDBRANCH  22  23
ENDBRANCH  21  22
ENDBRANCH  20  21
ENDBRANCH  19  20
ENDBRANCH  18  19
ENDBRANCH  17  18
ENDBRANCH  16  17
ENDBRANCH  15  16
ENDBRANCH   1  15
TORSDOF 22
ENDMDL
MODEL 4
REMARK VINA RESULT:    -5.105      4.498     11.515
REMARK INTER + INTRA:         -14.031
REMARK INTER:                 -12.101
REMARK INTRA:                  -1.930
REMARK UNBOUND:                -2.361
REMARK SMILES CCCCCCCCCCCCCCCCCCCCCCCC(=O)[O-]
REMARK SMILES IDX 13 1 14 2 15 3 16 4 17 5 18 6 19 7 20 8 21 9 22 10 23 11
REMARK SMILES IDX 24 12 25 13 26 14 12 15 11 16 10 17 9 18 8 19 7 20 6 21 5 22
REMARK SMILES IDX 4 23 3 24 2 25 1 26
REMARK H PARENT
REMARK Flexibility Score: inf
ROOT
ATOM      1  C   UNL     1      38.948  57.061  18.053  1.00  0.00     0.000 C 
ENDROOT
BRANCH   1   2
ATOM      2  C   UNL     1      40.060  56.034  18.321  1.00  0.00     0.000 C 
BRANCH   2   3
ATOM      3  C   UNL     1      41.051  55.976  17.146  1.00  0.00     0.000 C 
BRANCH   3   4
ATOM      4  C   UNL     1      42.462  55.544  17.577  1.00  0.00     0.000 C 
BRANCH   4   5
ATOM      5  C   UNL     1      42.852  54.110  17.172  1.00  0.00     0.000 C 
BRANCH   5   6
ATOM      6  C   UNL     1      42.479  53.749  15.717  1.00  0.00     0.000 C 
BRANCH   6   7
ATOM      7  C   UNL     1      43.684  53.234  14.912  1.00  0.00     0.000 C 
BRANCH   7   8
ATOM      8  C   UNL     1      44.602  54.380  14.436  1.00  0.00     0.000 C 
BRANCH   8   9
ATOM      9  C   UNL     1      45.941  54.451  15.193  1.00  0.00     0.000 C 
BRANCH   9  10
ATOM     10  C   UNL     1      46.519  55.874  15.246  1.00  0.00     0.006 C 
BRANCH  10  11
ATOM     11  C   UNL     1      46.450  56.478  16.655  1.00  0.00     0.053 C 
BRANCH  11  12
ATOM     12  C   UNL     1      47.754  56.369  17.388  1.00  0.00     0.041 C 
ATOM     13  O   UNL     1      48.257  55.239  17.628  1.00  0.00    -0.550 OA
ATOM     14  O   UNL     1      48.427  57.519  17.785  1.00  0.00    -0.550 OA
ENDBRANCH  11  12
ENDBRANCH  10  11
ENDBRANCH   9  10
ENDBRANCH   8   9
ENDBRANCH   7   8
ENDBRANCH   6   7
ENDBRANCH   5   6
ENDBRANCH   4   5
ENDBRANCH   3   4
ENDBRANCH   2   3
ENDBRANCH   1   2
BRANCH   1  15
ATOM     15  C   UNL     1      38.066  56.676  16.846  1.00  0.00     0.000 C 
BRANCH  15  16
ATOM     16  C   UNL     1      36.564  56.927  17.066  1.00  0.00     0.000 C 
BRANCH  16  17
ATOM     17  C   UNL     1      35.962  57.890  16.034  1.00  0.00     0.000 C 
BRANCH  17  18
ATOM     18  C   UNL     1      36.349  57.494  14.603  1.00  0.00    -0.000 C 
BRANCH  18  19
ATOM     19  C   UNL     1      35.365  56.485  13.981  1.00  0.00    -0.000 C 
BRANCH  19  20
ATOM     20  C   UNL     1      33.879  56.882  14.076  1.00  0.00    -0.000 C 
BRANCH  20  21
ATOM     21  C   UNL     1      32.896  55.699  14.159  1.00  0.00    -0.000 C 
BRANCH  21  22
ATOM     22  C   UNL     1      33.247  54.714  15.284  1.00  0.00    -0.000 C 
BRANCH  22  23
ATOM     23  C   UNL     1      33.085  55.368  16.665  1.00  0.00    -0.000 C 
BRANCH  23  24
ATOM     24  C   UNL     1      31.867  54.815  17.434  1.00  0.00    -0.000 C 
BRANCH  24  25
ATOM     25  C   UNL     1      30.804  55.881  17.757  1.00  0.00    -0.003 C 
ATOM     26  C   UNL     1      30.986  57.172  16.960  1.00  0.00     0.004 C 
ENDBRANCH  24  25
ENDBRANCH  23  24
ENDBRANCH  22  23
ENDBRANCH  21  22
ENDBRANCH  20  21
ENDBRANCH  19  20
ENDBRANCH  18  19
ENDBRANCH  17  18
ENDBRANCH  16  17
ENDBRANCH  15  16
ENDBRANCH   1  15
TORSDOF 22
ENDMDL
MODEL 5
REMARK VINA RESULT:    -5.057      1.221      2.761
REMARK INTER + INTRA:         -13.921
REMARK INTER:                 -12.030
REMARK INTRA:                  -1.891
REMARK UNBOUND:                -2.361
REMARK SMILES CCCCCCCCCCCCCCCCCCCCCCCC(=O)[O-]
REMARK SMILES IDX 13 1 14 2 15 3 16 4 17 5 18 6 19 7 20 8 21 9 22 10 23 11
REMARK SMILES IDX 24 12 25 13 26 14 12 15 11 16 10 17 9 18 8 19 7 20 6 21 5 22
REMARK SMILES IDX 4 23 3 24 2 25 1 26
REMARK H PARENT
REMARK Flexibility Score: inf
ROOT
ATOM      1  C   UNL     1      42.326  55.551  17.755  1.00  0.00     0.000 C 
ENDROOT
BRANCH   1   2
ATOM      2  C   UNL     1      40.936  55.969  17.247  1.00  0.00     0.000 C 
BRANCH   2   3
ATOM      3  C   UNL     1      39.966  56.197  18.419  1.00  0.00     0.000 C 
BRANCH   3   4
ATOM      4  C   UNL     1      38.813  57.149  18.062  1.00  0.00     0.000 C 
BRANCH   4   5
ATOM      5  C   UNL     1      37.959  56.709  16.858  1.00  0.00     0.000 C 
BRANCH   5   6
ATOM      6  C   UNL     1      36.466  57.086  16.981  1.00  0.00     0.000 C 
BRANCH   6   7
ATOM      7  C   UNL     1      35.939  57.812  15.731  1.00  0.00     0.000 C 
BRANCH   7   8
ATOM      8  C   UNL     1      35.513  56.828  14.620  1.00  0.00     0.000 C 
BRANCH   8   9
ATOM      9  C   UNL     1      33.988  56.653  14.504  1.00  0.00     0.000 C 
BRANCH   9  10
ATOM     10  C   UNL     1      33.328  56.288  15.843  1.00  0.00     0.006 C 
BRANCH  10  11
ATOM     11  C   UNL     1      31.795  56.314  15.763  1.00  0.00     0.053 C 
BRANCH  11  12
ATOM     12  C   UNL     1      31.160  56.623  17.086  1.00  0.00     0.041 C 
ATOM     13  O   UNL     1      30.743  57.785  17.336  1.00  0.00    -0.550 OA
ATOM     14  O   UNL     1      31.006  55.618  18.034  1.00  0.00    -0.550 OA
ENDBRANCH  11  12
ENDBRANCH  10  11
ENDBRANCH   9  10
ENDBRANCH   8   9
ENDBRANCH   7   8
ENDBRANCH   6   7
ENDBRANCH   5   6
ENDBRANCH   4   5
ENDBRANCH   3   4
ENDBRANCH   2   3
ENDBRANCH   1   2
BRANCH   1  15
ATOM     15  C   UNL     1      43.109  54.721  16.716  1.00  0.00     0.000 C 
BRANCH  15  16
ATOM     16  C   UNL     1      44.565  55.180  16.520  1.00  0.00     0.000 C 
BRANCH  16  17
ATOM     17  C   UNL     1      44.912  55.453  15.050  1.00  0.00     0.000 C 
BRANCH  17  18
ATOM     18  C   UNL     1      45.819  56.682  14.907  1.00  0.00    -0.000 C 
BRANCH  18  19
ATOM     19  C   UNL     1      45.773  57.600  16.143  1.00  0.00    -0.000 C 
BRANCH  19  20
ATOM     20  C   UNL     1      47.126  57.811  16.849  1.00  0.00    -0.000 C 
BRANCH  20  21
ATOM     21  C   UNL     1      48.179  56.723  16.572  1.00  0.00    -0.000 C 
BRANCH  21  22
ATOM     22  C   UNL     1      48.094  55.550  17.561  1.00  0.00    -0.000 C 
BRANCH  22  23
ATOM     23  C   UNL     1      48.495  54.227  16.890  1.00  0.00    -0.000 C 
BRANCH  23  24
ATOM     24  C   UNL     1      48.719  54.386  15.372  1.00  0.00    -0.000 C 
BRANCH  24  25
ATOM     25  C   UNL     1      48.561  53.074  14.582  1.00  0.00    -0.003 C 
ATOM     26  C   UNL     1      47.148  52.497  14.653  1.00  0.00     0.004 C 
ENDBRANCH  24  25
ENDBRANCH  23  24
ENDBRANCH  22  23
ENDBRANCH  21  22
ENDBRANCH  20  21
ENDBRANCH  19  20
ENDBRANCH  18  19
ENDBRANCH  17  18
ENDBRANCH  16  17
ENDBRANCH  15  16
ENDBRANCH   1  15
TORSDOF 22
ENDMDL
MODEL 6
REMARK VINA RESULT:    -5.022      4.011     11.731
REMARK INTER + INTRA:         -13.841
REMARK INTER:                 -12.267
REMARK INTRA:                  -1.574
REMARK UNBOUND:                -2.361
REMARK SMILES CCCCCCCCCCCCCCCCCCCCCCCC(=O)[O-]
REMARK SMILES IDX 13 1 14 2 15 3 16 4 17 5 18 6 19 7 20 8 21 9 22 10 23 11
REMARK SMILES IDX 24 12 25 13 26 14 12 15 11 16 10 17 9 18 8 19 7 20 6 21 5 22
REMARK SMILES IDX 4 23 3 24 2 25 1 26
REMARK H PARENT
REMARK Flexibility Score: inf
ROOT
ATOM      1  C   UNL     1      40.073  56.063  18.272  1.00  0.00     0.000 C 
ENDROOT
BRANCH   1   2
ATOM      2  C   UNL     1      41.086  55.926  17.123  1.00  0.00     0.000 C 
BRANCH   2   3
ATOM      3  C   UNL     1      42.464  55.497  17.652  1.00  0.00     0.000 C 
BRANCH   3   4
ATOM      4  C   UNL     1      43.034  54.276  16.911  1.00  0.00     0.000 C 
BRANCH   4   5
ATOM      5  C   UNL     1      42.262  53.873  15.640  1.00  0.00     0.000 C 
BRANCH   5   6
ATOM      6  C   UNL     1      43.166  53.624  14.413  1.00  0.00     0.000 C 
BRANCH   6   7
ATOM      7  C   UNL     1      44.652  53.889  14.714  1.00  0.00     0.000 C 
BRANCH   7   8
ATOM      8  C   UNL     1      45.508  52.610  14.598  1.00  0.00     0.000 C 
BRANCH   8   9
ATOM      9  C   UNL     1      47.023  52.875  14.676  1.00  0.00     0.000 C 
BRANCH   9  10
ATOM     10  C   UNL     1      47.362  54.372  14.738  1.00  0.00     0.006 C 
BRANCH  10  11
ATOM     11  C   UNL     1      48.228  54.724  15.956  1.00  0.00     0.053 C 
BRANCH  11  12
ATOM     12  C   UNL     1      47.578  55.744  16.843  1.00  0.00     0.041 C 
ATOM     13  O   UNL     1      46.356  55.650  17.133  1.00  0.00    -0.550 OA
ATOM     14  O   UNL     1      48.331  56.788  17.368  1.00  0.00    -0.550 OA
ENDBRANCH  11  12
ENDBRANCH  10  11
ENDBRANCH   9  10
ENDBRANCH   8   9
ENDBRANCH   7   8
ENDBRANCH   6   7
ENDBRANCH   5   6
ENDBRANCH   4   5
ENDBRANCH   3   4
ENDBRANCH   2   3
ENDBRANCH   1   2
BRANCH   1  15
ATOM     15  C   UNL     1      38.970  57.099  17.967  1.00  0.00     0.000 C 
BRANCH  15  16
ATOM     16  C   UNL     1      38.012  56.677  16.839  1.00  0.00     0.000 C 
BRANCH  16  17
ATOM     17  C   UNL     1      36.560  57.104  17.097  1.00  0.00     0.000 C 
BRANCH  17  18
ATOM     18  C   UNL     1      36.071  58.097  16.035  1.00  0.00    -0.000 C 
BRANCH  18  19
ATOM     19  C   UNL     1      36.130  57.518  14.610  1.00  0.00    -0.000 C 
BRANCH  19  20
ATOM     20  C   UNL     1      34.760  57.218  13.970  1.00  0.00    -0.000 C 
BRANCH  20  21
ATOM     21  C   UNL     1      34.063  55.950  14.496  1.00  0.00    -0.000 C 
BRANCH  21  22
ATOM     22  C   UNL     1      32.614  56.210  14.936  1.00  0.00    -0.000 C 
BRANCH  22  23
ATOM     23  C   UNL     1      32.549  56.628  16.413  1.00  0.00    -0.000 C 
BRANCH  23  24
ATOM     24  C   UNL     1      31.170  56.339  17.042  1.00  0.00    -0.000 C 
BRANCH  24  25
ATOM     25  C   UNL     1      31.121  55.031  17.852  1.00  0.00    -0.003 C 
ATOM     26  C   UNL     1      29.713  54.667  18.321  1.00  0.00     0.004 C 
ENDBRANCH  24  25
ENDBRANCH  23  24
ENDBRANCH  22  23
ENDBRANCH  21  22
ENDBRANCH  20  21
ENDBRANCH  19  20
ENDBRANCH  18  19
ENDBRANCH  17  18
ENDBRANCH  16  17
ENDBRANCH  15  16
ENDBRANCH   1  15
TORSDOF 22
ENDMDL
MODEL 7
REMARK VINA RESULT:    -5.017      4.388     11.657
REMARK INTER + INTRA:         -13.830
REMARK INTER:                 -12.139
REMARK INTRA:                  -1.691
REMARK UNBOUND:                -2.361
REMARK SMILES CCCCCCCCCCCCCCCCCCCCCCCC(=O)[O-]
REMARK SMILES IDX 13 1 14 2 15 3 16 4 17 5 18 6 19 7 20 8 21 9 22 10 23 11
REMARK SMILES IDX 24 12 25 13 26 14 12 15 11 16 10 17 9 18 8 19 7 20 6 21 5 22
REMARK SMILES IDX 4 23 3 24 2 25 1 26
REMARK H PARENT
REMARK Flexibility Score: inf
ROOT
ATOM      1  C   UNL     1      42.000  55.189  17.581  1.00  0.00     0.000 C 
ENDROOT
BRANCH   1   2
ATOM      2  C   UNL     1      43.297  55.963  17.288  1.00  0.00     0.000 C 
BRANCH   2   3
ATOM      3  C   UNL     1      44.323  55.068  16.573  1.00  0.00     0.000 C 
BRANCH   3   4
ATOM      4  C   UNL     1      43.778  54.460  15.270  1.00  0.00     0.000 C 
BRANCH   4   5
ATOM      5  C   UNL     1      44.300  53.046  14.949  1.00  0.00     0.000 C 
BRANCH   5   6
ATOM      6  C   UNL     1      45.517  53.031  13.997  1.00  0.00     0.000 C 
BRANCH   6   7
ATOM      7  C   UNL     1      46.584  52.008  14.425  1.00  0.00     0.000 C 
BRANCH   7   8
ATOM      8  C   UNL     1      48.018  52.521  14.175  1.00  0.00     0.000 C 
BRANCH   8   9
ATOM      9  C   UNL     1      48.637  53.236  15.390  1.00  0.00     0.000 C 
BRANCH   9  10
ATOM     10  C   UNL     1      48.781  54.752  15.178  1.00  0.00     0.006 C 
BRANCH  10  11
ATOM     11  C   UNL     1      47.670  55.546  15.880  1.00  0.00     0.053 C 
BRANCH  11  12
ATOM     12  C   UNL     1      48.083  56.024  17.240  1.00  0.00     0.041 C 
ATOM     13  O   UNL     1      48.398  57.230  17.423  1.00  0.00    -0.550 OA
ATOM     14  O   UNL     1      48.097  55.140  18.313  1.00  0.00    -0.550 OA
ENDBRANCH  11  12
ENDBRANCH  10  11
ENDBRANCH   9  10
ENDBRANCH   8   9
ENDBRANCH   7   8
ENDBRANCH   6   7
ENDBRANCH   5   6
ENDBRANCH   4   5
ENDBRANCH   3   4
ENDBRANCH   2   3
ENDBRANCH   1   2
BRANCH   1  15
ATOM     15  C   UNL     1      40.736  55.986  17.193  1.00  0.00     0.000 C 
BRANCH  15  16
ATOM     16  C   UNL     1      39.787  56.261  18.372  1.00  0.00     0.000 C 
BRANCH  16  17
ATOM     17  C   UNL     1      38.613  57.175  17.994  1.00  0.00     0.000 C 
BRANCH  17  18
ATOM     18  C   UNL     1      37.890  56.668  16.738  1.00  0.00    -0.000 C 
BRANCH  18  19
ATOM     19  C   UNL     1      36.410  57.091  16.696  1.00  0.00    -0.000 C 
BRANCH  19  20
ATOM     20  C   UNL     1      36.088  58.242  15.724  1.00  0.00    -0.000 C 
BRANCH  20  21
ATOM     21  C   UNL     1      35.765  57.803  14.284  1.00  0.00    -0.000 C 
BRANCH  21  22
ATOM     22  C   UNL     1      35.171  56.389  14.214  1.00  0.00    -0.000 C 
BRANCH  22  23
ATOM     23  C   UNL     1      33.639  56.423  14.322  1.00  0.00    -0.000 C 
BRANCH  23  24
ATOM     24  C   UNL     1      33.122  55.665  15.562  1.00  0.00    -0.000 C 
BRANCH  24  25
ATOM     25  C   UNL     1      32.418  56.568  16.591  1.00  0.00    -0.003 C 
ATOM     26  C   UNL     1      30.907  56.657  16.376  1.00  0.00     0.004 C 
ENDBRANCH  24  25
ENDBRANCH  23  24
ENDBRANCH  22  23
ENDBRANCH  21  22
ENDBRANCH  20  21
ENDBRANCH  19  20
ENDBRANCH  18  19
ENDBRANCH  17  18
ENDBRANCH  16  17
ENDBRANCH  15  16
ENDBRANCH   1  15
TORSDOF 22
ENDMDL
MODEL 8
REMARK VINA RESULT:    -4.986      1.514      2.899
REMARK INTER + INTRA:         -13.759
REMARK INTER:                 -12.110
REMARK INTRA:                  -1.649
REMARK UNBOUND:                -2.361
REMARK SMILES CCCCCCCCCCCCCCCCCCCCCCCC(=O)[O-]
REMARK SMILES IDX 13 1 14 2 15 3 16 4 17 5 18 6 19 7 20 8 21 9 22 10 23 11
REMARK SMILES IDX 24 12 25 13 26 14 12 15 11 16 10 17 9 18 8 19 7 20 6 21 5 22
REMARK SMILES IDX 4 23 3 24 2 25 1 26
REMARK H PARENT
REMARK Flexibility Score: inf
ROOT
ATOM      1  C   UNL     1      39.821  56.228  18.373  1.00  0.00     0.000 C 
ENDROOT
BRANCH   1   2
ATOM      2  C   UNL     1      38.723  57.224  17.967  1.00  0.00     0.000 C 
BRANCH   2   3
ATOM      3  C   UNL     1      37.863  56.661  16.823  1.00  0.00     0.000 C 
BRANCH   3   4
ATOM      4  C   UNL     1      36.414  57.173  16.858  1.00  0.00     0.000 C 
BRANCH   4   5
ATOM      5  C   UNL     1      36.071  58.217  15.778  1.00  0.00     0.000 C 
BRANCH   5   6
ATOM      6  C   UNL     1      35.481  57.610  14.487  1.00  0.00     0.000 C 
BRANCH   6   7
ATOM      7  C   UNL     1      34.731  56.292  14.747  1.00  0.00     0.000 C 
BRANCH   7   8
ATOM      8  C   UNL     1      33.220  56.515  14.974  1.00  0.00     0.000 C 
BRANCH   8   9
ATOM      9  C   UNL     1      32.790  56.362  16.444  1.00  0.00     0.000 C 
BRANCH   9  10
ATOM     10  C   UNL     1      31.279  56.561  16.645  1.00  0.00     0.006 C 
BRANCH  10  11
ATOM     11  C   UNL     1      30.764  55.865  17.913  1.00  0.00     0.053 C 
BRANCH  11  12
ATOM     12  C   UNL     1      30.058  54.576  17.609  1.00  0.00     0.041 C 
ATOM     13  O   UNL     1      29.310  54.042  18.471  1.00  0.00    -0.550 OA
ATOM     14  O   UNL     1      30.208  53.978  16.363  1.00  0.00    -0.550 OA
ENDBRANCH  11  12
ENDBRANCH  10  11
ENDBRANCH   9  10
ENDBRANCH   8   9
ENDBRANCH   7   8
ENDBRANCH   6   7
ENDBRANCH   5   6
ENDBRANCH   4   5
ENDBRANCH   3   4
ENDBRANCH   2   3
ENDBRANCH   1   2
BRANCH   1  15
ATOM     15  C   UNL     1      40.863  56.009  17.256  1.00  0.00     0.000 C 
BRANCH  15  16
ATOM     16  C   UNL     1      42.259  55.616  17.772  1.00  0.00     0.000 C 
BRANCH  16  17
ATOM     17  C   UNL     1      42.963  54.593  16.871  1.00  0.00     0.000 C 
BRANCH  17  18
ATOM     18  C   UNL     1      42.379  54.600  15.451  1.00  0.00    -0.000 C 
BRANCH  18  19
ATOM     19  C   UNL     1      42.845  53.394  14.614  1.00  0.00    -0.000 C 
BRANCH  19  20
ATOM     20  C   UNL     1      44.277  52.909  14.910  1.00  0.00    -0.000 C 
BRANCH  20  21
ATOM     21  C   UNL     1      45.377  53.583  14.069  1.00  0.00    -0.000 C 
BRANCH  21  22
ATOM     22  C   UNL     1      46.773  53.436  14.692  1.00  0.00    -0.000 C 
BRANCH  22  23
ATOM     23  C   UNL     1      47.467  54.800  14.830  1.00  0.00    -0.000 C 
BRANCH  23  24
ATOM     24  C   UNL     1      48.074  55.008  16.233  1.00  0.00    -0.000 C 
BRANCH  24  25
ATOM     25  C   UNL     1      47.176  55.823  17.181  1.00  0.00    -0.003 C 
ATOM     26  C   UNL     1      46.073  56.590  16.453  1.00  0.00     0.004 C 
ENDBRANCH  24  25
ENDBRANCH  23  24
ENDBRANCH  22  23
ENDBRANCH  21  22
ENDBRANCH  20  21
ENDBRANCH  19  20
ENDBRANCH  18  19
ENDBRANCH  17  18
ENDBRANCH  16  17
ENDBRANCH  15  16
ENDBRANCH   1  15
TORSDOF 22
ENDMDL
MODEL 9
REMARK VINA RESULT:    -4.911      4.535     12.062
REMARK INTER + INTRA:         -13.587
REMARK INTER:                 -11.725
REMARK INTRA:                  -1.862
REMARK UNBOUND:                -2.361
REMARK SMILES CCCCCCCCCCCCCCCCCCCCCCCC(=O)[O-]
REMARK SMILES IDX 13 1 14 2 15 3 16 4 17 5 18 6 19 7 20 8 21 9 22 10 23 11
REMARK SMILES IDX 24 12 25 13 26 14 12 15 11 16 10 17 9 18 8 19 7 20 6 21 5 22
REMARK SMILES IDX 4 23 3 24 2 25 1 26
REMARK H PARENT
REMARK Flexibility Score: inf
ROOT
ATOM      1  C   UNL     1      36.420  57.118  16.871  1.00  0.00     0.000 C 
ENDROOT
BRANCH   1   2
ATOM      2  C   UNL     1      37.896  56.705  16.749  1.00  0.00     0.000 C 
BRANCH   2   3
ATOM      3  C   UNL     1      38.704  57.183  17.967  1.00  0.00     0.000 C 
BRANCH   3   4
ATOM      4  C   UNL     1      39.889  56.260  18.296  1.00  0.00     0.000 C 
BRANCH   4   5
ATOM      5  C   UNL     1      40.797  55.922  17.099  1.00  0.00     0.000 C 
BRANCH   5   6
ATOM      6  C   UNL     1      42.284  55.738  17.475  1.00  0.00     0.000 C 
BRANCH   6   7
ATOM      7  C   UNL     1      42.736  54.270  17.386  1.00  0.00     0.000 C 
BRANCH   7   8
ATOM      8  C   UNL     1      43.313  53.919  15.998  1.00  0.00     0.000 C 
BRANCH   8   9
ATOM      9  C   UNL     1      43.991  55.109  15.295  1.00  0.00     0.000 C 
BRANCH   9  10
ATOM     10  C   UNL     1      45.525  55.065  15.395  1.00  0.00     0.006 C 
BRANCH  10  11
ATOM     11  C   UNL     1      46.037  55.620  16.731  1.00  0.00     0.053 C 
BRANCH  11  12
ATOM     12  C   UNL     1      47.532  55.567  16.836  1.00  0.00     0.041 C 
ATOM     13  O   UNL     1      48.158  56.454  17.475  1.00  0.00    -0.550 OA
ATOM     14  O   UNL     1      48.233  54.521  16.246  1.00  0.00    -0.550 OA
ENDBRANCH  11  12
ENDBRANCH  10  11
ENDBRANCH   9  10
ENDBRANCH   8   9
ENDBRANCH   7   8
ENDBRANCH   6   7
ENDBRANCH   5   6
ENDBRANCH   4   5
ENDBRANCH   3   4
ENDBRANCH   2   3
ENDBRANCH   1   2
BRANCH   1  15
ATOM     15  C   UNL     1      36.005  58.152  15.803  1.00  0.00     0.000 C 
BRANCH  15  16
ATOM     16  C   UNL     1      36.241  57.683  14.356  1.00  0.00     0.000 C 
BRANCH  16  17
ATOM     17  C   UNL     1      35.372  56.478  13.970  1.00  0.00     0.000 C 
BRANCH  17  18
ATOM     18  C   UNL     1      33.880  56.772  14.178  1.00  0.00    -0.000 C 
BRANCH  18  19
ATOM     19  C   UNL     1      33.216  55.795  15.165  1.00  0.00    -0.000 C 
BRANCH  19  20
ATOM     20  C   UNL     1      32.654  56.442  16.445  1.00  0.00    -0.000 C 
BRANCH  20  21
ATOM     21  C   UNL     1      31.137  56.276  16.645  1.00  0.00    -0.000 C 
BRANCH  21  22
ATOM     22  C   UNL     1      30.781  55.673  18.012  1.00  0.00    -0.000 C 
BRANCH  22  23
ATOM     23  C   UNL     1      30.014  54.351  17.854  1.00  0.00    -0.000 C 
BRANCH  23  24
ATOM     24  C   UNL     1      30.128  53.776  16.427  1.00  0.00    -0.000 C 
BRANCH  24  25
ATOM     25  C   UNL     1      30.810  52.397  16.369  1.00  0.00    -0.003 C 
ATOM     26  C   UNL     1      32.335  52.478  16.424  1.00  0.00     0.004 C 
ENDBRANCH  24  25
ENDBRANCH  23  24
ENDBRANCH  22  23
ENDBRANCH  21  22
ENDBRANCH  20  21
ENDBRANCH  19  20
ENDBRANCH  18  19
ENDBRANCH  17  18
ENDBRANCH  16  17
ENDBRANCH  15  16
ENDBRANCH   1  15
TORSDOF 22
ENDMDL
