MODEL 1
REMARK VINA RESULT:    -4.317      0.000      0.000
REMARK INTER + INTRA:          -4.317
REMARK INTER:                  -4.317
REMARK INTRA:                   0.000
REMARK UNBOUND:                 0.000
REMARK SMILES O=c1ccc2ccccc2o1
REMARK SMILES IDX 7 1 8 2 9 3 10 4 5 5 6 6 4 7 3 8 2 9 1 10 11 11
REMARK H PARENT
REMARK Flexibility Score: inf
ROOT
ATOM      1  C   UNL     1      46.565 -28.354 -31.753  1.00  0.00     0.001 A 
ATOM      2  C   UNL     1      46.699 -29.133 -30.599  1.00  0.00     0.004 A 
ATOM      3  C   UNL     1      47.967 -29.510 -30.147  1.00  0.00     0.048 A 
ATOM      4  C   UNL     1      49.109 -29.108 -30.849  1.00  0.00     0.138 A 
ATOM      5  C   UNL     1      48.975 -28.320 -32.014  1.00  0.00     0.018 A 
ATOM      6  C   UNL     1      47.700 -27.946 -32.462  1.00  0.00     0.012 A 
ATOM      7  C   UNL     1      50.134 -27.934 -32.694  1.00  0.00     0.019 A 
ATOM      8  C   UNL     1      51.379 -28.333 -32.207  1.00  0.00     0.094 A 
ATOM      9  C   UNL     1      51.435 -29.112 -31.046  1.00  0.00     0.336 A 
ATOM     10  O   UNL     1      52.549 -29.481 -30.591  1.00  0.00    -0.246 OA
ATOM     11  O   UNL     1      50.316 -29.467 -30.418  1.00  0.00    -0.423 OA
ENDROOT
TORSDOF 0
ENDMDL
MODEL 2
REMARK VINA RESULT:    -4.264     14.979     16.765
REMARK INTER + INTRA:          -4.264
REMARK INTER:                  -4.264
REMARK INTRA:                   0.000
REMARK UNBOUND:                 0.000
REMARK SMILES O=c1ccc2ccccc2o1
REMARK SMILES IDX 7 1 8 2 9 3 10 4 5 5 6 6 4 7 3 8 2 9 1 10 11 11
REMARK H PARENT
REMARK Flexibility Score: inf
ROOT
ATOM      1  C   UNL     1      38.300 -43.731 -28.916  1.00  0.00     0.001 A 
ATOM      2  C   UNL     1      38.435 -43.189 -30.199  1.00  0.00     0.004 A 
ATOM      3  C   UNL     1      38.603 -41.811 -30.367  1.00  0.00     0.048 A 
ATOM      4  C   UNL     1      38.638 -40.969 -29.250  1.00  0.00     0.138 A 
ATOM      5  C   UNL     1      38.502 -41.516 -27.954  1.00  0.00     0.018 A 
ATOM      6  C   UNL     1      38.334 -42.899 -27.793  1.00  0.00     0.012 A 
ATOM      7  C   UNL     1      38.541 -40.649 -26.858  1.00  0.00     0.019 A 
ATOM      8  C   UNL     1      38.711 -39.282 -27.072  1.00  0.00     0.094 A 
ATOM      9  C   UNL     1      38.839 -38.811 -28.383  1.00  0.00     0.336 A 
ATOM     10  O   UNL     1      38.994 -37.580 -28.596  1.00  0.00    -0.246 OA
ATOM     11  O   UNL     1      38.799 -39.658 -29.410  1.00  0.00    -0.423 OA
ENDROOT
TORSDOF 0
ENDMDL
MODEL 3
REMARK VINA RESULT:    -4.220      1.563      3.814
REMARK INTER + INTRA:          -4.220
REMARK INTER:                  -4.220
REMARK INTRA:                   0.000
REMARK UNBOUND:                 0.000
REMARK SMILES O=c1ccc2ccccc2o1
REMARK SMILES IDX 7 1 8 2 9 3 10 4 5 5 6 6 4 7 3 8 2 9 1 10 11 11
REMARK H PARENT
REMARK Flexibility Score: inf
ROOT
ATOM      1  C   UNL     1      51.536 -28.213 -32.099  1.00  0.00     0.001 A 
ATOM      2  C   UNL     1      51.624 -28.952 -30.914  1.00  0.00     0.004 A 
ATOM      3  C   UNL     1      50.463 -29.405 -30.279  1.00  0.00     0.048 A 
ATOM      4  C   UNL     1      49.208 -29.120 -30.829  1.00  0.00     0.138 A 
ATOM      5  C   UNL     1      49.118 -28.375 -32.026  1.00  0.00     0.018 A 
ATOM      6  C   UNL     1      50.286 -27.924 -32.657  1.00  0.00     0.012 A 
ATOM      7  C   UNL     1      47.851 -28.107 -32.551  1.00  0.00     0.019 A 
ATOM      8  C   UNL     1      46.720 -28.579 -31.884  1.00  0.00     0.094 A 
ATOM      9  C   UNL     1      46.885 -29.311 -30.703  1.00  0.00     0.336 A 
ATOM     10  O   UNL     1      45.876 -29.745 -30.088  1.00  0.00    -0.246 OA
ATOM     11  O   UNL     1      48.103 -29.552 -30.225  1.00  0.00    -0.423 OA
ENDROOT
TORSDOF 0
ENDMDL
MODEL 4
REMARK VINA RESULT:    -4.169      1.719      3.856
REMARK INTER + INTRA:          -4.169
REMARK INTER:                  -4.169
REMARK INTRA:                   0.000
REMARK UNBOUND:                 0.000
REMARK SMILES O=c1ccc2ccccc2o1
REMARK SMILES IDX 7 1 8 2 9 3 10 4 5 5 6 6 4 7 3 8 2 9 1 10 11 11
REMARK H PARENT
REMARK Flexibility Score: inf
ROOT
ATOM      1  C   UNL     1      52.817 -29.167 -30.967  1.00  0.00     0.001 A 
ATOM      2  C   UNL     1      52.128 -29.731 -29.888  1.00  0.00     0.004 A 
ATOM      3  C   UNL     1      50.730 -29.701 -29.851  1.00  0.00     0.048 A 
ATOM      4  C   UNL     1      50.015 -29.106 -30.897  1.00  0.00     0.138 A 
ATOM      5  C   UNL     1      50.710 -28.537 -31.988  1.00  0.00     0.018 A 
ATOM      6  C   UNL     1      52.112 -28.570 -32.018  1.00  0.00     0.012 A 
ATOM      7  C   UNL     1      49.969 -27.949 -33.017  1.00  0.00     0.019 A 
ATOM      8  C   UNL     1      48.576 -27.942 -32.939  1.00  0.00     0.094 A 
ATOM      9  C   UNL     1      47.956 -28.525 -31.828  1.00  0.00     0.336 A 
ATOM     10  O   UNL     1      46.700 -28.529 -31.741  1.00  0.00    -0.246 OA
ATOM     11  O   UNL     1      48.685 -29.078 -30.862  1.00  0.00    -0.423 OA
ENDROOT
TORSDOF 0
ENDMDL
MODEL 5
REMARK VINA RESULT:    -4.158     14.725     14.799
REMARK INTER + INTRA:          -4.158
REMARK INTER:                  -4.158
REMARK INTRA:                   0.000
REMARK UNBOUND:                 0.000
REMARK SMILES O=c1ccc2ccccc2o1
REMARK SMILES IDX 7 1 8 2 9 3 10 4 5 5 6 6 4 7 3 8 2 9 1 10 11 11
REMARK H PARENT
REMARK Flexibility Score: inf
ROOT
ATOM      1  C   UNL     1      51.737 -41.253 -23.614  1.00  0.00     0.001 A 
ATOM      2  C   UNL     1      52.303 -41.840 -24.751  1.00  0.00     0.004 A 
ATOM      3  C   UNL     1      53.626 -41.556 -25.105  1.00  0.00     0.048 A 
ATOM      4  C   UNL     1      54.389 -40.684 -24.321  1.00  0.00     0.138 A 
ATOM      5  C   UNL     1      53.818 -40.091 -23.172  1.00  0.00     0.018 A 
ATOM      6  C   UNL     1      52.491 -40.380 -22.823  1.00  0.00     0.012 A 
ATOM      7  C   UNL     1      54.605 -39.224 -22.409  1.00  0.00     0.019 A 
ATOM      8  C   UNL     1      55.920 -38.970 -22.799  1.00  0.00     0.094 A 
ATOM      9  C   UNL     1      56.419 -39.593 -23.949  1.00  0.00     0.336 A 
ATOM     10  O   UNL     1      57.603 -39.376 -24.316  1.00  0.00    -0.246 OA
ATOM     11  O   UNL     1      55.648 -40.415 -24.658  1.00  0.00    -0.423 OA
ENDROOT
TORSDOF 0
ENDMDL
MODEL 6
REMARK VINA RESULT:    -4.147      1.143      2.114
REMARK INTER + INTRA:          -4.147
REMARK INTER:                  -4.147
REMARK INTRA:                   0.000
REMARK UNBOUND:                 0.000
REMARK SMILES O=c1ccc2ccccc2o1
REMARK SMILES IDX 7 1 8 2 9 3 10 4 5 5 6 6 4 7 3 8 2 9 1 10 11 11
REMARK H PARENT
REMARK Flexibility Score: inf
ROOT
ATOM      1  C   UNL     1      46.882 -29.136 -30.936  1.00  0.00     0.001 A 
ATOM      2  C   UNL     1      47.017 -28.417 -32.129  1.00  0.00     0.004 A 
ATOM      3  C   UNL     1      48.286 -28.068 -32.601  1.00  0.00     0.048 A 
ATOM      4  C   UNL     1      49.427 -28.439 -31.882  1.00  0.00     0.138 A 
ATOM      5  C   UNL     1      49.292 -29.166 -30.677  1.00  0.00     0.018 A 
ATOM      6  C   UNL     1      48.017 -29.512 -30.209  1.00  0.00     0.012 A 
ATOM      7  C   UNL     1      50.451 -29.523 -29.981  1.00  0.00     0.019 A 
ATOM      8  C   UNL     1      51.696 -29.155 -30.490  1.00  0.00     0.094 A 
ATOM      9  C   UNL     1      51.753 -28.435 -31.688  1.00  0.00     0.336 A 
ATOM     10  O   UNL     1      52.868 -28.095 -32.163  1.00  0.00    -0.246 OA
ATOM     11  O   UNL     1      50.635 -28.108 -32.332  1.00  0.00    -0.423 OA
ENDROOT
TORSDOF 0
ENDMDL
MODEL 7
REMARK VINA RESULT:    -4.114     14.349     14.733
REMARK INTER + INTRA:          -4.114
REMARK INTER:                  -4.114
REMARK INTRA:                   0.000
REMARK UNBOUND:                 0.000
REMARK SMILES O=c1ccc2ccccc2o1
REMARK SMILES IDX 7 1 8 2 9 3 10 4 5 5 6 6 4 7 3 8 2 9 1 10 11 11
REMARK H PARENT
REMARK Flexibility Score: inf
ROOT
ATOM      1  C   UNL     1      52.490 -39.282 -21.665  1.00  0.00     0.001 A 
ATOM      2  C   UNL     1      53.164 -38.134 -21.236  1.00  0.00     0.004 A 
ATOM      3  C   UNL     1      54.458 -37.865 -21.693  1.00  0.00     0.048 A 
ATOM      4  C   UNL     1      55.084 -38.745 -22.583  1.00  0.00     0.138 A 
ATOM      5  C   UNL     1      54.403 -39.904 -23.018  1.00  0.00     0.018 A 
ATOM      6  C   UNL     1      53.106 -40.168 -22.556  1.00  0.00     0.012 A 
ATOM      7  C   UNL     1      55.054 -40.764 -23.907  1.00  0.00     0.019 A 
ATOM      8  C   UNL     1      56.345 -40.456 -24.337  1.00  0.00     0.094 A 
ATOM      9  C   UNL     1      56.957 -39.290 -23.864  1.00  0.00     0.336 A 
ATOM     10  O   UNL     1      58.121 -38.995 -24.241  1.00  0.00    -0.246 OA
ATOM     11  O   UNL     1      56.315 -38.488 -23.018  1.00  0.00    -0.423 OA
ENDROOT
TORSDOF 0
ENDMDL
MODEL 8
REMARK VINA RESULT:    -4.053     12.678     13.146
REMARK INTER + INTRA:          -4.053
REMARK INTER:                  -4.053
REMARK INTRA:                   0.000
REMARK UNBOUND:                 0.000
REMARK SMILES O=c1ccc2ccccc2o1
REMARK SMILES IDX 7 1 8 2 9 3 10 4 5 5 6 6 4 7 3 8 2 9 1 10 11 11
REMARK H PARENT
REMARK Flexibility Score: inf
ROOT
ATOM      1  C   UNL     1      52.536 -41.235 -28.375  1.00  0.00     0.001 A 
ATOM      2  C   UNL     1      51.433 -41.176 -29.235  1.00  0.00     0.004 A 
ATOM      3  C   UNL     1      51.622 -41.041 -30.614  1.00  0.00     0.048 A 
ATOM      4  C   UNL     1      52.917 -40.964 -31.139  1.00  0.00     0.138 A 
ATOM      5  C   UNL     1      54.031 -41.024 -30.272  1.00  0.00     0.018 A 
ATOM      6  C   UNL     1      53.834 -41.160 -28.890  1.00  0.00     0.012 A 
ATOM      7  C   UNL     1      55.312 -40.945 -30.826  1.00  0.00     0.019 A 
ATOM      8  C   UNL     1      55.453 -40.811 -32.207  1.00  0.00     0.094 A 
ATOM      9  C   UNL     1      54.305 -40.759 -33.005  1.00  0.00     0.336 A 
ATOM     10  O   UNL     1      54.412 -40.638 -34.253  1.00  0.00    -0.246 OA
ATOM     11  O   UNL     1      53.096 -40.836 -32.451  1.00  0.00    -0.423 OA
ENDROOT
TORSDOF 0
ENDMDL
MODEL 9
REMARK VINA RESULT:    -4.045     13.526     14.686
REMARK INTER + INTRA:          -4.045
REMARK INTER:                  -4.045
REMARK INTRA:                   0.000
REMARK UNBOUND:                 0.000
REMARK SMILES O=c1ccc2ccccc2o1
REMARK SMILES IDX 7 1 8 2 9 3 10 4 5 5 6 6 4 7 3 8 2 9 1 10 11 11
REMARK H PARENT
REMARK Flexibility Score: inf
ROOT
ATOM      1  C   UNL     1      57.083 -35.962 -23.808  1.00  0.00     0.001 A 
ATOM      2  C   UNL     1      58.125 -36.544 -24.539  1.00  0.00     0.004 A 
ATOM      3  C   UNL     1      58.115 -37.916 -24.809  1.00  0.00     0.048 A 
ATOM      4  C   UNL     1      57.060 -38.712 -24.348  1.00  0.00     0.138 A 
ATOM      5  C   UNL     1      56.007 -38.125 -23.611  1.00  0.00     0.018 A 
ATOM      6  C   UNL     1      56.024 -36.749 -23.344  1.00  0.00     0.012 A 
ATOM      7  C   UNL     1      54.968 -38.947 -23.165  1.00  0.00     0.019 A 
ATOM      8  C   UNL     1      54.998 -40.310 -23.457  1.00  0.00     0.094 A 
ATOM      9  C   UNL     1      56.073 -40.822 -24.193  1.00  0.00     0.336 A 
ATOM     10  O   UNL     1      56.118 -42.049 -24.467  1.00  0.00    -0.246 OA
ATOM     11  O   UNL     1      57.051 -40.018 -24.606  1.00  0.00    -0.423 OA
ENDROOT
TORSDOF 0
ENDMDL
