MODEL 1
REMARK VINA RESULT:    -3.989      0.000      0.000
REMARK INTER + INTRA:          -6.387
REMARK INTER:                  -5.622
REMARK INTRA:                  -0.765
REMARK UNBOUND:                -0.765
REMARK SMILES CCCCCCCCC(=O)[O-]
REMARK SMILES IDX 6 1 7 2 8 3 9 4 10 5 11 6 5 7 4 8 3 9 2 10 1 11
REMARK H PARENT
REMARK Flexibility Score: inf
ROOT
ATOM      1  C   UNL     1     160.103 162.588 149.543  1.00  0.00     0.000 C 
ENDROOT
BRANCH   1   2
ATOM      2  C   UNL     1     160.441 161.799 148.265  1.00  0.00     0.006 C 
BRANCH   2   3
ATOM      3  C   UNL     1     159.370 160.763 147.901  1.00  0.00     0.053 C 
BRANCH   3   4
ATOM      4  C   UNL     1     159.995 159.422 147.675  1.00  0.00     0.041 C 
ATOM      5  O   UNL     1     161.145 159.176 148.124  1.00  0.00    -0.550 OA
ATOM      6  O   UNL     1     159.286 158.427 147.014  1.00  0.00    -0.550 OA
ENDBRANCH   3   4
ENDBRANCH   2   3
ENDBRANCH   1   2
BRANCH   1   7
ATOM      7  C   UNL     1     158.762 162.216 150.201  1.00  0.00     0.000 C 
BRANCH   7   8
ATOM      8  C   UNL     1     158.883 161.967 151.711  1.00  0.00    -0.000 C 
BRANCH   8   9
ATOM      9  C   UNL     1     159.653 160.668 151.993  1.00  0.00    -0.000 C 
BRANCH   9  10
ATOM     10  C   UNL     1     158.992 159.438 151.350  1.00  0.00    -0.003 C 
ATOM     11  C   UNL     1     159.938 158.243 151.251  1.00  0.00     0.004 C 
ENDBRANCH   9  10
ENDBRANCH   8   9
ENDBRANCH   7   8
ENDBRANCH   1   7
TORSDOF 7
ENDMDL
MODEL 2
REMARK VINA RESULT:    -3.986      1.536      3.516
REMARK INTER + INTRA:          -6.383
REMARK INTER:                  -5.609
REMARK INTRA:                  -0.774
REMARK UNBOUND:                -0.765
REMARK SMILES CCCCCCCCC(=O)[O-]
REMARK SMILES IDX 6 1 7 2 8 3 9 4 10 5 11 6 5 7 4 8 3 9 2 10 1 11
REMARK H PARENT
REMARK Flexibility Score: inf
ROOT
ATOM      1  C   UNL     1     159.517 156.992 149.227  1.00  0.00     0.000 C 
ENDROOT
BRANCH   1   2
ATOM      2  C   UNL     1     159.162 157.819 147.978  1.00  0.00     0.006 C 
BRANCH   2   3
ATOM      3  C   UNL     1     160.209 158.894 147.656  1.00  0.00     0.053 C 
BRANCH   3   4
ATOM      4  C   UNL     1     159.597 160.257 147.726  1.00  0.00     0.041 C 
ATOM      5  O   UNL     1     158.385 160.393 148.039  1.00  0.00    -0.550 OA
ATOM      6  O   UNL     1     160.379 161.382 147.497  1.00  0.00    -0.550 OA
ENDBRANCH   3   4
ENDBRANCH   2   3
ENDBRANCH   1   2
BRANCH   1   7
ATOM      7  C   UNL     1     160.732 157.503 150.022  1.00  0.00     0.000 C 
BRANCH   7   8
ATOM      8  C   UNL     1     160.371 157.955 151.444  1.00  0.00    -0.000 C 
BRANCH   8   9
ATOM      9  C   UNL     1     159.454 159.187 151.412  1.00  0.00    -0.000 C 
BRANCH   9  10
ATOM     10  C   UNL     1     160.238 160.506 151.346  1.00  0.00    -0.003 C 
ATOM     11  C   UNL     1     159.328 161.730 151.248  1.00  0.00     0.004 C 
ENDBRANCH   9  10
ENDBRANCH   8   9
ENDBRANCH   7   8
ENDBRANCH   1   7
TORSDOF 7
ENDMDL
MODEL 3
REMARK VINA RESULT:    -3.971      1.679      2.599
REMARK INTER + INTRA:          -6.362
REMARK INTER:                  -5.593
REMARK INTRA:                  -0.768
REMARK UNBOUND:                -0.765
REMARK SMILES CCCCCCCCC(=O)[O-]
REMARK SMILES IDX 6 1 7 2 8 3 9 4 10 5 11 6 5 7 4 8 3 9 2 10 1 11
REMARK H PARENT
REMARK Flexibility Score: inf
ROOT
ATOM      1  C   UNL     1     161.071 160.745 150.559  1.00  0.00     0.000 C 
ENDROOT
BRANCH   1   2
ATOM      2  C   UNL     1     160.214 161.774 149.800  1.00  0.00     0.006 C 
BRANCH   2   3
ATOM      3  C   UNL     1     160.378 161.682 148.277  1.00  0.00     0.053 C 
BRANCH   3   4
ATOM      4  C   UNL     1     159.497 160.609 147.720  1.00  0.00     0.041 C 
ATOM      5  O   UNL     1     158.319 160.472 148.144  1.00  0.00    -0.550 OA
ATOM      6  O   UNL     1     159.960 159.792 146.697  1.00  0.00    -0.550 OA
ENDBRANCH   3   4
ENDBRANCH   2   3
ENDBRANCH   1   2
BRANCH   1   7
ATOM      7  C   UNL     1     160.322 159.944 151.639  1.00  0.00     0.000 C 
BRANCH   7   8
ATOM      8  C   UNL     1     159.475 158.803 151.059  1.00  0.00    -0.000 C 
BRANCH   8   9
ATOM      9  C   UNL     1     160.310 157.924 150.116  1.00  0.00    -0.000 C 
BRANCH   9  10
ATOM     10  C   UNL     1     159.442 157.014 149.232  1.00  0.00    -0.003 C 
ATOM     11  C   UNL     1     157.945 157.247 149.435  1.00  0.00     0.004 C 
ENDBRANCH   9  10
ENDBRANCH   8   9
ENDBRANCH   7   8
ENDBRANCH   1   7
TORSDOF 7
ENDMDL
MODEL 4
REMARK VINA RESULT:    -3.961      2.162      3.811
REMARK INTER + INTRA:          -6.346
REMARK INTER:                  -5.466
REMARK INTRA:                  -0.881
REMARK UNBOUND:                -0.765
REMARK SMILES CCCCCCCCC(=O)[O-]
REMARK SMILES IDX 6 1 7 2 8 3 9 4 10 5 11 6 5 7 4 8 3 9 2 10 1 11
REMARK H PARENT
REMARK Flexibility Score: inf
ROOT
ATOM      1  C   UNL     1     158.591 160.710 148.353  1.00  0.00     0.000 C 
ENDROOT
BRANCH   1   2
ATOM      2  C   UNL     1     158.958 161.317 149.720  1.00  0.00     0.006 C 
BRANCH   2   3
ATOM      3  C   UNL     1     159.014 160.273 150.842  1.00  0.00     0.053 C 
BRANCH   3   4
ATOM      4  C   UNL     1     160.434 159.971 151.205  1.00  0.00     0.041 C 
ATOM      5  O   UNL     1     160.711 158.943 151.876  1.00  0.00    -0.550 OA
ATOM      6  O   UNL     1     161.456 160.798 150.757  1.00  0.00    -0.550 OA
ENDBRANCH   3   4
ENDBRANCH   2   3
ENDBRANCH   1   2
BRANCH   1   7
ATOM      7  C   UNL     1     159.785 160.425 147.426  1.00  0.00     0.000 C 
BRANCH   7   8
ATOM      8  C   UNL     1     160.332 158.998 147.573  1.00  0.00    -0.000 C 
BRANCH   8   9
ATOM      9  C   UNL     1     159.189 157.972 147.597  1.00  0.00    -0.000 C 
BRANCH   9  10
ATOM     10  C   UNL     1     159.250 157.049 148.824  1.00  0.00    -0.003 C 
ATOM     11  C   UNL     1     157.923 156.983 149.581  1.00  0.00     0.004 C 
ENDBRANCH   9  10
ENDBRANCH   8   9
ENDBRANCH   7   8
ENDBRANCH   1   7
TORSDOF 7
ENDMDL
MODEL 5
REMARK VINA RESULT:    -3.944      1.099      3.003
REMARK INTER + INTRA:          -6.323
REMARK INTER:                  -5.547
REMARK INTRA:                  -0.776
REMARK UNBOUND:                -0.765
REMARK SMILES CCCCCCCCC(=O)[O-]
REMARK SMILES IDX 6 1 7 2 8 3 9 4 10 5 11 6 5 7 4 8 3 9 2 10 1 11
REMARK H PARENT
REMARK Flexibility Score: inf
ROOT
ATOM      1  C   UNL     1     158.711 158.845 150.670  1.00  0.00     0.000 C 
ENDROOT
BRANCH   1   2
ATOM      2  C   UNL     1     159.288 157.725 149.785  1.00  0.00     0.006 C 
BRANCH   2   3
ATOM      3  C   UNL     1     159.026 157.949 148.290  1.00  0.00     0.053 C 
BRANCH   3   4
ATOM      4  C   UNL     1     160.039 158.890 147.717  1.00  0.00     0.041 C 
ATOM      5  O   UNL     1     161.189 158.969 148.224  1.00  0.00    -0.550 OA
ATOM      6  O   UNL     1     159.730 159.641 146.591  1.00  0.00    -0.550 OA
ENDBRANCH   3   4
ENDBRANCH   2   3
ENDBRANCH   1   2
BRANCH   1   7
ATOM      7  C   UNL     1     159.746 159.599 151.523  1.00  0.00     0.000 C 
BRANCH   7   8
ATOM      8  C   UNL     1     159.652 161.124 151.372  1.00  0.00    -0.000 C 
BRANCH   8   9
ATOM      9  C   UNL     1     159.015 161.503 150.027  1.00  0.00    -0.000 C 
BRANCH   9  10
ATOM     10  C   UNL     1     159.937 162.379 149.163  1.00  0.00    -0.003 C 
ATOM     11  C   UNL     1     161.411 162.238 149.541  1.00  0.00     0.004 C 
ENDBRANCH   9  10
ENDBRANCH   8   9
ENDBRANCH   7   8
ENDBRANCH   1   7
TORSDOF 7
ENDMDL
MODEL 6
REMARK VINA RESULT:    -3.936      1.660      3.044
REMARK INTER + INTRA:          -6.312
REMARK INTER:                  -5.484
REMARK INTRA:                  -0.828
REMARK UNBOUND:                -0.765
REMARK SMILES CCCCCCCCC(=O)[O-]
REMARK SMILES IDX 6 1 7 2 8 3 9 4 10 5 11 6 5 7 4 8 3 9 2 10 1 11
REMARK H PARENT
REMARK Flexibility Score: inf
ROOT
ATOM      1  C   UNL     1     158.583 158.820 148.904  1.00  0.00     0.000 C 
ENDROOT
BRANCH   1   2
ATOM      2  C   UNL     1     158.527 160.301 148.485  1.00  0.00     0.006 C 
BRANCH   2   3
ATOM      3  C   UNL     1     159.721 160.721 147.617  1.00  0.00     0.053 C 
BRANCH   3   4
ATOM      4  C   UNL     1     160.692 161.529 148.420  1.00  0.00     0.041 C 
ATOM      5  O   UNL     1     161.592 160.957 149.089  1.00  0.00    -0.550 OA
ATOM      6  O   UNL     1     160.634 162.916 148.388  1.00  0.00    -0.550 OA
ENDBRANCH   3   4
ENDBRANCH   2   3
ENDBRANCH   1   2
BRANCH   1   7
ATOM      7  C   UNL     1     158.511 158.571 150.421  1.00  0.00     0.000 C 
BRANCH   7   8
ATOM      8  C   UNL     1     159.894 158.456 151.076  1.00  0.00    -0.000 C 
BRANCH   8   9
ATOM      9  C   UNL     1     160.202 159.696 151.929  1.00  0.00    -0.000 C 
BRANCH   9  10
ATOM     10  C   UNL     1     158.942 160.509 152.265  1.00  0.00    -0.003 C 
ATOM     11  C   UNL     1     159.017 161.950 151.762  1.00  0.00     0.004 C 
ENDBRANCH   9  10
ENDBRANCH   8   9
ENDBRANCH   7   8
ENDBRANCH   1   7
TORSDOF 7
ENDMDL
MODEL 7
REMARK VINA RESULT:    -3.903      2.603      3.968
REMARK INTER + INTRA:          -6.266
REMARK INTER:                  -5.462
REMARK INTRA:                  -0.803
REMARK UNBOUND:                -0.765
REMARK SMILES CCCCCCCCC(=O)[O-]
REMARK SMILES IDX 6 1 7 2 8 3 9 4 10 5 11 6 5 7 4 8 3 9 2 10 1 11
REMARK H PARENT
REMARK Flexibility Score: inf
ROOT
ATOM      1  C   UNL     1     161.165 160.737 148.886  1.00  0.00     0.000 C 
ENDROOT
BRANCH   1   2
ATOM      2  C   UNL     1     161.218 161.056 150.392  1.00  0.00     0.006 C 
BRANCH   2   3
ATOM      3  C   UNL     1     160.449 160.040 151.246  1.00  0.00     0.053 C 
BRANCH   3   4
ATOM      4  C   UNL     1     159.256 160.685 151.879  1.00  0.00     0.041 C 
ATOM      5  O   UNL     1     158.935 161.863 151.572  1.00  0.00    -0.550 OA
ATOM      6  O   UNL     1     158.469 159.966 152.770  1.00  0.00    -0.550 OA
ENDBRANCH   3   4
ENDBRANCH   2   3
ENDBRANCH   1   2
BRANCH   1   7
ATOM      7  C   UNL     1     159.949 161.315 148.141  1.00  0.00     0.000 C 
BRANCH   7   8
ATOM      8  C   UNL     1     158.912 160.246 147.766  1.00  0.00    -0.000 C 
BRANCH   8   9
ATOM      9  C   UNL     1     159.598 158.925 147.385  1.00  0.00    -0.000 C 
BRANCH   9  10
ATOM     10  C   UNL     1     159.055 157.727 148.179  1.00  0.00    -0.003 C 
ATOM     11  C   UNL     1     158.071 158.139 149.273  1.00  0.00     0.004 C 
ENDBRANCH   9  10
ENDBRANCH   8   9
ENDBRANCH   7   8
ENDBRANCH   1   7
TORSDOF 7
ENDMDL
MODEL 8
REMARK VINA RESULT:    -3.887      1.306      3.405
REMARK INTER + INTRA:          -6.242
REMARK INTER:                  -5.457
REMARK INTRA:                  -0.786
REMARK UNBOUND:                -0.765
REMARK SMILES CCCCCCCCC(=O)[O-]
REMARK SMILES IDX 6 1 7 2 8 3 9 4 10 5 11 6 5 7 4 8 3 9 2 10 1 11
REMARK H PARENT
REMARK Flexibility Score: inf
ROOT
ATOM      1  C   UNL     1     159.300 161.488 151.506  1.00  0.00     0.000 C 
ENDROOT
BRANCH   1   2
ATOM      2  C   UNL     1     159.038 159.981 151.684  1.00  0.00     0.006 C 
BRANCH   2   3
ATOM      3  C   UNL     1     160.283 159.124 151.423  1.00  0.00     0.053 C 
BRANCH   3   4
ATOM      4  C   UNL     1     159.996 158.089 150.380  1.00  0.00     0.041 C 
ATOM      5  O   UNL     1     158.808 157.762 150.122  1.00  0.00    -0.550 OA
ATOM      6  O   UNL     1     161.039 157.522 149.658  1.00  0.00    -0.550 OA
ENDBRANCH   3   4
ENDBRANCH   2   3
ENDBRANCH   1   2
BRANCH   1   7
ATOM      7  C   UNL     1     158.836 162.074 150.161  1.00  0.00     0.000 C 
BRANCH   7   8
ATOM      8  C   UNL     1     159.994 162.625 149.316  1.00  0.00    -0.000 C 
BRANCH   8   9
ATOM      9  C   UNL     1     160.453 161.593 148.275  1.00  0.00    -0.000 C 
BRANCH   9  10
ATOM     10  C   UNL     1     159.304 160.700 147.782  1.00  0.00    -0.003 C 
ATOM     11  C   UNL     1     159.790 159.526 146.932  1.00  0.00     0.004 C 
ENDBRANCH   9  10
ENDBRANCH   8   9
ENDBRANCH   7   8
ENDBRANCH   1   7
TORSDOF 7
ENDMDL
MODEL 9
REMARK VINA RESULT:    -3.848      2.158      4.004
REMARK INTER + INTRA:          -6.188
REMARK INTER:                  -5.318
REMARK INTRA:                  -0.869
REMARK UNBOUND:                -0.765
REMARK SMILES CCCCCCCCC(=O)[O-]
REMARK SMILES IDX 6 1 7 2 8 3 9 4 10 5 11 6 5 7 4 8 3 9 2 10 1 11
REMARK H PARENT
REMARK Flexibility Score: inf
ROOT
ATOM      1  C   UNL     1     160.474 158.636 148.282  1.00  0.00     0.000 C 
ENDROOT
BRANCH   1   2
ATOM      2  C   UNL     1     159.347 157.812 148.930  1.00  0.00     0.006 C 
BRANCH   2   3
ATOM      3  C   UNL     1     158.995 158.290 150.345  1.00  0.00     0.053 C 
BRANCH   3   4
ATOM      4  C   UNL     1     160.180 158.158 151.250  1.00  0.00     0.041 C 
ATOM      5  O   UNL     1     160.655 159.173 151.825  1.00  0.00    -0.550 OA
ATOM      6  O   UNL     1     160.728 156.907 151.500  1.00  0.00    -0.550 OA
ENDBRANCH   3   4
ENDBRANCH   2   3
ENDBRANCH   1   2
BRANCH   1   7
ATOM      7  C   UNL     1     160.012 159.645 147.216  1.00  0.00     0.000 C 
BRANCH   7   8
ATOM      8  C   UNL     1     160.134 161.105 147.679  1.00  0.00    -0.000 C 
BRANCH   8   9
ATOM      9  C   UNL     1     161.082 161.221 148.882  1.00  0.00    -0.000 C 
BRANCH   9  10
ATOM     10  C   UNL     1     160.573 162.211 149.942  1.00  0.00    -0.003 C 
ATOM     11  C   UNL     1     159.074 162.074 150.206  1.00  0.00     0.004 C 
ENDBRANCH   9  10
ENDBRANCH   8   9
ENDBRANCH   7   8
ENDBRANCH   1   7
TORSDOF 7
ENDMDL
