MODEL 1
REMARK VINA RESULT:    -4.220      0.000      0.000
REMARK INTER + INTRA:          -5.894
REMARK INTER:                  -5.947
REMARK INTRA:                   0.053
REMARK UNBOUND:                 0.053
REMARK SMILES CC1=CCC(=C(C)C)C(=O)CC(C)=CCC1
REMARK SMILES IDX 12 1 14 2 13 3 15 4 16 5 2 6 1 7 3 8 11 10 9 11 10 12 5 13
REMARK SMILES IDX 6 14 7 15 8 16 4 17
REMARK H PARENT
REMARK Flexibility Score: 60.00
ROOT
ATOM      1  C   UNL     1     179.676 181.380 178.009  1.00  0.00    -0.070 C 
ATOM      2  C   UNL     1     178.398 181.555 177.581  1.00  0.00    -0.027 C 
ATOM      3  C   UNL     1     179.910 181.393 179.499  1.00  0.00     0.039 C 
ENDROOT
BRANCH   2   4
ATOM      4  C   UNL     1     177.941 181.724 176.151  1.00  0.00     0.032 C 
BRANCH   4   5
ATOM      5  C   UNL     1     177.701 180.395 175.423  1.00  0.00     0.034 C 
BRANCH   5   6
ATOM      6  C   UNL     1     178.509 180.270 174.145  1.00  0.00    -0.077 C 
ATOM      7  C   UNL     1     178.156 181.163 172.981  1.00  0.00     0.039 C 
ATOM      8  C   UNL     1     179.472 179.333 173.946  1.00  0.00    -0.023 CG0
ATOM      9  G   UNL     1     180.090 178.405 174.976  1.00  0.00     0.000 G0
ENDBRANCH   5   6
ENDBRANCH   4   5
ENDBRANCH   2   4
BRANCH   1  10
ATOM     10  C   UNL     1     180.858 181.048 177.104  1.00  0.00     0.111 C 
BRANCH  10  11
ATOM     11  C   UNL     1     181.152 179.576 176.978  1.00  0.00     0.163 C 
ATOM     12  O   UNL     1     181.258 178.887 178.029  1.00  0.00    -0.294 OA
BRANCH  11  13
ATOM     13  C   UNL     1     181.350 178.919 175.655  1.00  0.00    -0.002 C 
ATOM     14  C   UNL     1     182.565 178.894 175.036  1.00  0.00    -0.069 C 
ATOM     15  C   UNL     1     182.752 178.201 173.706  1.00  0.00     0.039 C 
ATOM     16  C   UNL     1     183.764 179.615 175.613  1.00  0.00     0.039 C 
BRANCH  13  17
ATOM     17  C   UNL     1     180.099 178.397 174.965  1.00  0.00     0.066 CG0
ATOM     18  G   UNL     1     179.473 179.332 173.947  1.00  0.00     0.000 G0
ENDBRANCH  13  17
ENDBRANCH  11  13
ENDBRANCH  10  11
ENDBRANCH   1  10
TORSDOF 0
ENDMDL
MODEL 2
REMARK VINA RESULT:    -4.191      2.032      4.228
REMARK INTER + INTRA:          -5.854
REMARK INTER:                  -5.926
REMARK INTRA:                   0.072
REMARK UNBOUND:                 0.053
REMARK SMILES CC1=CCC(=C(C)C)C(=O)CC(C)=CCC1
REMARK SMILES IDX 12 1 14 2 13 3 15 4 16 5 2 6 1 7 3 8 11 10 9 11 10 12 5 13
REMARK SMILES IDX 6 14 7 15 8 16 4 17
REMARK H PARENT
REMARK Flexibility Score: 60.00
ROOT
ATOM      1  C   UNL     1     181.129 179.451 178.077  1.00  0.00    -0.070 C 
ATOM      2  C   UNL     1     182.350 179.109 177.585  1.00  0.00    -0.027 C 
ATOM      3  C   UNL     1     180.978 179.482 179.579  1.00  0.00     0.039 C 
ENDROOT
BRANCH   2   4
ATOM      4  C   UNL     1     182.701 178.869 176.136  1.00  0.00     0.032 C 
BRANCH   4   5
ATOM      5  C   UNL     1     183.125 180.142 175.389  1.00  0.00     0.034 C 
BRANCH   5   6
ATOM      6  C   UNL     1     182.377 180.332 174.082  1.00  0.00    -0.077 C 
ATOM      7  C   UNL     1     182.672 179.390 172.941  1.00  0.00     0.039 C 
ATOM      8  C   UNL     1     181.526 181.363 173.840  1.00  0.00    -0.023 CG0
ATOM      9  G   UNL     1     180.976 182.365 174.839  1.00  0.00     0.000 G0
ENDBRANCH   5   6
ENDBRANCH   4   5
ENDBRANCH   2   4
BRANCH   1  10
ATOM     10  C   UNL     1     179.951 179.922 177.232  1.00  0.00     0.111 C 
BRANCH  10  11
ATOM     11  C   UNL     1     179.932 181.403 176.962  1.00  0.00     0.163 C 
ATOM     12  O   UNL     1     180.075 182.199 177.930  1.00  0.00    -0.294 OA
BRANCH  11  13
ATOM     13  C   UNL     1     179.719 181.955 175.593  1.00  0.00    -0.002 C 
ATOM     14  C   UNL     1     178.491 181.961 175.000  1.00  0.00    -0.069 C 
ATOM     15  C   UNL     1     178.291 182.549 173.622  1.00  0.00     0.039 C 
ATOM     16  C   UNL     1     177.289 181.322 175.659  1.00  0.00     0.039 C 
BRANCH  13  17
ATOM     17  C   UNL     1     180.966 182.386 174.837  1.00  0.00     0.066 CG0
ATOM     18  G   UNL     1     181.527 181.367 173.862  1.00  0.00     0.000 G0
ENDBRANCH  13  17
ENDBRANCH  11  13
ENDBRANCH  10  11
ENDBRANCH   1  10
TORSDOF 0
ENDMDL
MODEL 3
REMARK VINA RESULT:    -3.849      1.705      3.332
REMARK INTER + INTRA:          -5.371
REMARK INTER:                  -5.373
REMARK INTRA:                   0.002
REMARK UNBOUND:                 0.053
REMARK SMILES CC1=CCC(=C(C)C)C(=O)CC(C)=CCC1
REMARK SMILES IDX 12 1 14 2 13 3 15 4 16 5 2 6 1 7 3 8 11 10 9 11 10 12 5 13
REMARK SMILES IDX 6 14 7 15 8 16 4 17
REMARK H PARENT
REMARK Flexibility Score: 60.00
ROOT
ATOM      1  C   UNL     1     178.515 181.555 175.577  1.00  0.00    -0.070 C 
ATOM      2  C   UNL     1     178.128 180.606 174.683  1.00  0.00    -0.027 C 
ATOM      3  C   UNL     1     177.558 181.871 176.701  1.00  0.00     0.039 C 
ENDROOT
BRANCH   2   4
ATOM      4  C   UNL     1     178.841 180.227 173.407  1.00  0.00     0.032 C 
BRANCH   4   5
ATOM      5  C   UNL     1     179.914 179.147 173.603  1.00  0.00     0.034 C 
BRANCH   5   6
ATOM      6  C   UNL     1     179.504 178.085 174.606  1.00  0.00    -0.077 C 
ATOM      7  C   UNL     1     178.410 177.119 174.224  1.00  0.00     0.039 C 
ATOM      8  C   UNL     1     179.993 178.009 175.871  1.00  0.00    -0.023 CG0
ATOM      9  G   UNL     1     181.165 178.773 176.459  1.00  0.00     0.000 G0
ENDBRANCH   5   6
ENDBRANCH   4   5
ENDBRANCH   2   4
BRANCH   1  10
ATOM     10  C   UNL     1     179.885 182.223 175.598  1.00  0.00     0.111 C 
BRANCH  10  11
ATOM     11  C   UNL     1     181.020 181.304 175.965  1.00  0.00     0.163 C 
ATOM     12  O   UNL     1     182.136 181.461 175.398  1.00  0.00    -0.294 OA
BRANCH  11  13
ATOM     13  C   UNL     1     180.856 180.198 176.952  1.00  0.00    -0.002 C 
ATOM     14  C   UNL     1     180.563 180.437 178.262  1.00  0.00    -0.069 C 
ATOM     15  C   UNL     1     180.374 179.302 179.241  1.00  0.00     0.039 C 
ATOM     16  C   UNL     1     180.480 181.844 178.812  1.00  0.00     0.039 C 
BRANCH  13  17
ATOM     17  C   UNL     1     181.167 178.796 176.453  1.00  0.00     0.066 CG0
ATOM     18  G   UNL     1     179.989 178.024 175.888  1.00  0.00     0.000 G0
ENDBRANCH  13  17
ENDBRANCH  11  13
ENDBRANCH  10  11
ENDBRANCH   1  10
TORSDOF 0
ENDMDL
MODEL 4
REMARK VINA RESULT:    -3.820      2.442      3.171
REMARK INTER + INTRA:          -5.330
REMARK INTER:                  -5.342
REMARK INTRA:                   0.012
REMARK UNBOUND:                 0.053
REMARK SMILES CC1=CCC(=C(C)C)C(=O)CC(C)=CCC1
REMARK SMILES IDX 12 1 14 2 13 3 15 4 16 5 2 6 1 7 3 8 11 10 9 11 10 12 5 13
REMARK SMILES IDX 6 14 7 15 8 16 4 17
REMARK H PARENT
REMARK Flexibility Score: 60.00
ROOT
ATOM      1  C   UNL     1     181.066 179.882 177.220  1.00  0.00    -0.070 C 
ATOM      2  C   UNL     1     180.382 181.053 177.307  1.00  0.00    -0.027 C 
ATOM      3  C   UNL     1     181.518 179.252 178.514  1.00  0.00     0.039 C 
ENDROOT
BRANCH   2   4
ATOM      4  C   UNL     1     179.958 181.937 176.159  1.00  0.00     0.032 C 
BRANCH   4   5
ATOM      5  C   UNL     1     181.066 182.879 175.669  1.00  0.00     0.034 C 
BRANCH   5   6
ATOM      6  C   UNL     1     181.183 182.913 174.156  1.00  0.00    -0.077 C 
ATOM      7  C   UNL     1     180.218 183.774 173.379  1.00  0.00     0.039 C 
ATOM      8  C   UNL     1     182.044 182.137 173.446  1.00  0.00    -0.023 CG0
ATOM      9  G   UNL     1     183.181 181.286 173.979  1.00  0.00     0.000 G0
ENDBRANCH   5   6
ENDBRANCH   4   5
ENDBRANCH   2   4
BRANCH   1  10
ATOM     10  C   UNL     1     181.296 179.103 175.929  1.00  0.00     0.111 C 
BRANCH  10  11
ATOM     11  C   UNL     1     182.690 179.220 175.372  1.00  0.00     0.163 C 
ATOM     12  O   UNL     1     183.661 178.838 176.080  1.00  0.00    -0.294 OA
BRANCH  11  13
ATOM     13  C   UNL     1     182.958 179.801 174.025  1.00  0.00    -0.002 C 
ATOM     14  C   UNL     1     183.105 179.018 172.917  1.00  0.00    -0.069 C 
ATOM     15  C   UNL     1     183.351 179.627 171.556  1.00  0.00     0.039 C 
ATOM     16  C   UNL     1     183.099 177.508 173.007  1.00  0.00     0.039 C 
BRANCH  13  17
ATOM     17  C   UNL     1     183.196 181.301 173.972  1.00  0.00     0.066 CG0
ATOM     18  G   UNL     1     182.038 182.131 173.448  1.00  0.00     0.000 G0
ENDBRANCH  13  17
ENDBRANCH  11  13
ENDBRANCH  10  11
ENDBRANCH   1  10
TORSDOF 0
ENDMDL
MODEL 5
REMARK VINA RESULT:    -3.818      1.967      4.304
REMARK INTER + INTRA:          -5.327
REMARK INTER:                  -5.750
REMARK INTRA:                   0.423
REMARK UNBOUND:                 0.053
REMARK SMILES CC1=CCC(=C(C)C)C(=O)CC(C)=CCC1
REMARK SMILES IDX 12 1 14 2 13 3 15 4 16 5 2 6 1 7 3 8 11 10 9 11 10 12 5 13
REMARK SMILES IDX 6 14 7 15 8 16 4 17
REMARK H PARENT
REMARK Flexibility Score: 60.00
ROOT
ATOM      1  C   UNL     1     180.634 182.327 174.503  1.00  0.00    -0.070 C 
ATOM      2  C   UNL     1     181.729 181.783 173.909  1.00  0.00    -0.027 C 
ATOM      3  C   UNL     1     179.551 182.858 173.596  1.00  0.00     0.039 C 
ENDROOT
BRANCH   2   4
ATOM      4  C   UNL     1     182.992 181.323 174.595  1.00  0.00     0.032 C 
BRANCH   4   5
ATOM      5  C   UNL     1     183.435 179.912 174.185  1.00  0.00     0.034 C 
BRANCH   5   6
ATOM      6  C   UNL     1     182.364 178.865 174.432  1.00  0.00    -0.077 C 
ATOM      7  C   UNL     1     181.974 177.953 173.296  1.00  0.00     0.039 C 
ATOM      8  C   UNL     1     181.660 178.761 175.590  1.00  0.00    -0.023 CG0
ATOM      9  G   UNL     1     181.930 179.466 176.906  1.00  0.00     0.000 G0
ENDBRANCH   5   6
ENDBRANCH   4   5
ENDBRANCH   2   4
BRANCH   1  10
ATOM     10  C   UNL     1     180.369 182.325 176.005  1.00  0.00     0.111 C 
BRANCH  10  11
ATOM     11  C   UNL     1     179.915 180.998 176.555  1.00  0.00     0.163 C 
ATOM     12  O   UNL     1     178.783 180.557 176.217  1.00  0.00    -0.294 OA
BRANCH  11  13
ATOM     13  C   UNL     1     180.748 180.209 177.507  1.00  0.00    -0.002 C 
ATOM     14  C   UNL     1     180.543 180.255 178.854  1.00  0.00    -0.069 C 
ATOM     15  C   UNL     1     181.381 179.428 179.801  1.00  0.00     0.039 C 
ATOM     16  C   UNL     1     179.518 181.182 179.470  1.00  0.00     0.039 C 
BRANCH  13  17
ATOM     17  C   UNL     1     181.927 179.458 176.910  1.00  0.00     0.066 CG0
ATOM     18  G   UNL     1     181.658 178.756 175.591  1.00  0.00     0.000 G0
ENDBRANCH  13  17
ENDBRANCH  11  13
ENDBRANCH  10  11
ENDBRANCH   1  10
TORSDOF 0
ENDMDL
MODEL 6
REMARK VINA RESULT:    -3.809      1.611      3.785
REMARK INTER + INTRA:          -5.315
REMARK INTER:                  -5.224
REMARK INTRA:                  -0.091
REMARK UNBOUND:                 0.053
REMARK SMILES CC1=CCC(=C(C)C)C(=O)CC(C)=CCC1
REMARK SMILES IDX 12 1 14 2 13 3 15 4 16 5 2 6 1 7 3 8 11 10 9 11 10 12 5 13
REMARK SMILES IDX 6 14 7 15 8 16 4 17
REMARK H PARENT
REMARK Flexibility Score: 60.00
ROOT
ATOM      1  C   UNL     1     180.311 180.918 177.695  1.00  0.00    -0.070 C 
ATOM      2  C   UNL     1     181.196 179.887 177.720  1.00  0.00    -0.027 C 
ATOM      3  C   UNL     1     179.623 181.265 178.993  1.00  0.00     0.039 C 
ENDROOT
BRANCH   2   4
ATOM      4  C   UNL     1     181.891 179.267 176.531  1.00  0.00     0.032 C 
BRANCH   4   5
ATOM      5  C   UNL     1     180.966 178.402 175.664  1.00  0.00     0.034 C 
BRANCH   5   6
ATOM      6  C   UNL     1     181.187 178.613 174.177  1.00  0.00    -0.077 C 
ATOM      7  C   UNL     1     182.466 178.103 173.561  1.00  0.00     0.039 C 
ATOM      8  C   UNL     1     180.346 179.322 173.380  1.00  0.00    -0.023 CG0
ATOM      9  G   UNL     1     178.958 179.833 173.719  1.00  0.00     0.000 G0
ENDBRANCH   5   6
ENDBRANCH   4   5
ENDBRANCH   2   4
BRANCH   1  10
ATOM     10  C   UNL     1     180.060 181.821 176.492  1.00  0.00     0.111 C 
BRANCH  10  11
ATOM     11  C   UNL     1     178.829 181.471 175.697  1.00  0.00     0.163 C 
ATOM     12  O   UNL     1     177.737 181.314 176.308  1.00  0.00    -0.294 OA
BRANCH  11  13
ATOM     13  C   UNL     1     178.870 181.275 174.220  1.00  0.00    -0.002 C 
ATOM     14  C   UNL     1     178.720 182.314 173.349  1.00  0.00    -0.069 C 
ATOM     15  C   UNL     1     178.791 182.099 171.855  1.00  0.00     0.039 C 
ATOM     16  C   UNL     1     178.409 183.714 173.831  1.00  0.00     0.039 C 
BRANCH  13  17
ATOM     17  C   UNL     1     178.950 179.837 173.731  1.00  0.00     0.066 CG0
ATOM     18  G   UNL     1     180.340 179.341 173.379  1.00  0.00     0.000 G0
ENDBRANCH  13  17
ENDBRANCH  11  13
ENDBRANCH  10  11
ENDBRANCH   1  10
TORSDOF 0
ENDMDL
MODEL 7
REMARK VINA RESULT:    -3.785      1.928      5.062
REMARK INTER + INTRA:          -5.282
REMARK INTER:                  -5.175
REMARK INTRA:                  -0.107
REMARK UNBOUND:                 0.053
REMARK SMILES CC1=CCC(=C(C)C)C(=O)CC(C)=CCC1
REMARK SMILES IDX 12 1 14 2 13 3 15 4 16 5 2 6 1 7 3 8 11 10 9 11 10 12 5 13
REMARK SMILES IDX 6 14 7 15 8 16 4 17
REMARK H PARENT
REMARK Flexibility Score: 60.00
ROOT
ATOM      1  C   UNL     1     181.655 178.485 174.639  1.00  0.00    -0.070 C 
ATOM      2  C   UNL     1     182.357 178.742 175.775  1.00  0.00    -0.027 C 
ATOM      3  C   UNL     1     182.449 178.148 173.401  1.00  0.00     0.039 C 
ENDROOT
BRANCH   2   4
ATOM      4  C   UNL     1     181.799 179.239 177.087  1.00  0.00     0.032 C 
BRANCH   4   5
ATOM      5  C   UNL     1     181.327 180.698 177.039  1.00  0.00     0.034 C 
BRANCH   5   6
ATOM      6  C   UNL     1     180.023 180.919 177.784  1.00  0.00    -0.077 C 
ATOM      7  C   UNL     1     180.020 180.779 179.286  1.00  0.00     0.039 C 
ATOM      8  C   UNL     1     178.830 181.140 177.173  1.00  0.00    -0.023 CG0
ATOM      9  G   UNL     1     178.581 181.436 175.705  1.00  0.00     0.000 G0
ENDBRANCH   5   6
ENDBRANCH   4   5
ENDBRANCH   2   4
BRANCH   1  10
ATOM     10  C   UNL     1     180.135 178.389 174.560  1.00  0.00     0.111 C 
BRANCH  10  11
ATOM     11  C   UNL     1     179.456 179.646 174.083  1.00  0.00     0.163 C 
ATOM     12  O   UNL     1     179.908 180.229 173.060  1.00  0.00    -0.294 OA
BRANCH  11  13
ATOM     13  C   UNL     1     178.290 180.237 174.800  1.00  0.00    -0.002 C 
ATOM     14  C   UNL     1     177.015 179.806 174.582  1.00  0.00    -0.069 C 
ATOM     15  C   UNL     1     175.848 180.399 175.337  1.00  0.00     0.039 C 
ATOM     16  C   UNL     1     176.698 178.767 173.529  1.00  0.00     0.039 C 
BRANCH  13  17
ATOM     17  C   UNL     1     178.579 181.438 175.686  1.00  0.00     0.066 CG0
ATOM     18  G   UNL     1     178.826 181.128 177.151  1.00  0.00     0.000 G0
ENDBRANCH  13  17
ENDBRANCH  11  13
ENDBRANCH  10  11
ENDBRANCH   1  10
TORSDOF 0
ENDMDL
MODEL 8
REMARK VINA RESULT:    -3.779      2.359      4.511
REMARK INTER + INTRA:          -5.273
REMARK INTER:                  -5.385
REMARK INTRA:                   0.111
REMARK UNBOUND:                 0.053
REMARK SMILES CC1=CCC(=C(C)C)C(=O)CC(C)=CCC1
REMARK SMILES IDX 12 1 14 2 13 3 15 4 16 5 2 6 1 7 3 8 11 10 9 11 10 12 5 13
REMARK SMILES IDX 6 14 7 15 8 16 4 17
REMARK H PARENT
REMARK Flexibility Score: 60.00
ROOT
ATOM      1  C   UNL     1     182.055 178.845 174.109  1.00  0.00    -0.070 C 
ATOM      2  C   UNL     1     182.151 179.644 173.013  1.00  0.00    -0.027 C 
ATOM      3  C   UNL     1     181.933 177.360 173.868  1.00  0.00     0.039 C 
ENDROOT
BRANCH   2   4
ATOM      4  C   UNL     1     182.135 181.154 172.995  1.00  0.00     0.032 C 
BRANCH   4   5
ATOM      5  C   UNL     1     180.851 181.761 173.578  1.00  0.00     0.034 C 
BRANCH   5   6
ATOM      6  C   UNL     1     181.127 182.824 174.625  1.00  0.00    -0.077 C 
ATOM      7  C   UNL     1     181.946 184.027 174.230  1.00  0.00     0.039 C 
ATOM      8  C   UNL     1     180.764 182.714 175.930  1.00  0.00    -0.023 CG0
ATOM      9  G   UNL     1     179.847 181.678 176.553  1.00  0.00     0.000 G0
ENDBRANCH   5   6
ENDBRANCH   4   5
ENDBRANCH   2   4
BRANCH   1  10
ATOM     10  C   UNL     1     182.188 179.325 175.550  1.00  0.00     0.111 C 
BRANCH  10  11
ATOM     11  C   UNL     1     180.892 179.363 176.316  1.00  0.00     0.163 C 
ATOM     12  O   UNL     1     180.071 178.417 176.167  1.00  0.00    -0.294 OA
BRANCH  11  13
ATOM     13  C   UNL     1     180.539 180.496 177.218  1.00  0.00    -0.002 C 
ATOM     14  C   UNL     1     180.714 180.426 178.569  1.00  0.00    -0.069 C 
ATOM     15  C   UNL     1     180.374 181.596 179.463  1.00  0.00     0.039 C 
ATOM     16  C   UNL     1     181.191 179.158 179.241  1.00  0.00     0.039 C 
BRANCH  13  17
ATOM     17  C   UNL     1     179.843 181.683 176.570  1.00  0.00     0.066 CG0
ATOM     18  G   UNL     1     180.758 182.703 175.918  1.00  0.00     0.000 G0
ENDBRANCH  13  17
ENDBRANCH  11  13
ENDBRANCH  10  11
ENDBRANCH   1  10
TORSDOF 0
ENDMDL
MODEL 9
REMARK VINA RESULT:    -3.656      2.387      3.477
REMARK INTER + INTRA:          -5.100
REMARK INTER:                  -5.048
REMARK INTRA:                  -0.052
REMARK UNBOUND:                 0.053
REMARK SMILES CC1=CCC(=C(C)C)C(=O)CC(C)=CCC1
REMARK SMILES IDX 12 1 14 2 13 3 15 4 16 5 2 6 1 7 3 8 11 10 9 11 10 12 5 13
REMARK SMILES IDX 6 14 7 15 8 16 4 17
REMARK H PARENT
REMARK Flexibility Score: 60.00
ROOT
ATOM      1  C   UNL     1     181.030 179.499 176.815  1.00  0.00    -0.070 C 
ATOM      2  C   UNL     1     180.223 178.538 176.292  1.00  0.00    -0.027 C 
ATOM      3  C   UNL     1     181.481 179.316 178.243  1.00  0.00     0.039 C 
ENDROOT
BRANCH   2   4
ATOM      4  C   UNL     1     179.533 178.573 174.950  1.00  0.00     0.032 C 
BRANCH   4   5
ATOM      5  C   UNL     1     178.303 179.491 174.917  1.00  0.00     0.034 C 
BRANCH   5   6
ATOM      6  C   UNL     1     178.156 180.230 173.600  1.00  0.00    -0.077 C 
ATOM      7  C   UNL     1     177.704 179.456 172.387  1.00  0.00     0.039 C 
ATOM      8  C   UNL     1     178.500 181.532 173.420  1.00  0.00    -0.023 CG0
ATOM      9  G   UNL     1     178.864 182.551 174.485  1.00  0.00     0.000 G0
ENDBRANCH   5   6
ENDBRANCH   4   5
ENDBRANCH   2   4
BRANCH   1  10
ATOM     10  C   UNL     1     181.609 180.671 176.029  1.00  0.00     0.111 C 
BRANCH  10  11
ATOM     11  C   UNL     1     180.775 181.924 176.076  1.00  0.00     0.163 C 
ATOM     12  O   UNL     1     180.406 182.366 177.198  1.00  0.00    -0.294 OA
BRANCH  11  13
ATOM     13  C   UNL     1     180.347 182.637 174.838  1.00  0.00    -0.002 C 
ATOM     14  C   UNL     1     181.205 183.419 174.123  1.00  0.00    -0.069 C 
ATOM     15  C   UNL     1     180.760 184.113 172.856  1.00  0.00     0.039 C 
ATOM     16  C   UNL     1     182.617 183.686 174.596  1.00  0.00     0.039 C 
BRANCH  13  17
ATOM     17  C   UNL     1     178.869 182.558 174.489  1.00  0.00     0.066 CG0
ATOM     18  G   UNL     1     178.499 181.534 173.432  1.00  0.00     0.000 G0
ENDBRANCH  13  17
ENDBRANCH  11  13
ENDBRANCH  10  11
ENDBRANCH   1  10
TORSDOF 0
ENDMDL
