MODEL 1
REMARK VINA RESULT:    57.070      0.000      0.000
REMARK INTER + INTRA:          95.328
REMARK INTER:                  83.760
REMARK INTRA:                  11.569
REMARK UNBOUND:                11.569
REMARK SMILES Cc1cc2c(C(C)C)c(O)c(O)c(C=O)c2c(O)c1-c1c(C)cc2c(C(C)C)c(O)c(O)c(C=O)c2c1O
REMARK SMILES IDX 1 1 2 2 3 3 4 4 16 5 13 6 11 7 9 8 5 9 17 10 19 11 20 12
REMARK SMILES IDX 37 13 21 14 36 15 23 16 22 17 24 18 33 19 25 20 31 21 29 22
REMARK SMILES IDX 38 23 34 25 35 26 26 27 27 28 28 29 32 30 30 32 18 34 6 36
REMARK SMILES IDX 7 37 8 38 14 39 15 40 10 41 12 43
REMARK H PARENT 38 24 32 31 30 33 18 35 10 42 12 44
REMARK Flexibility Score: inf
ROOT
ATOM      1  C   UNL     1      12.714 -13.479  11.878  1.00  0.00     0.045 C 
ATOM      2  C   UNL     1      11.408 -12.868  12.331  1.00  0.00    -0.039 A 
ATOM      3  C   UNL     1      10.245 -13.635  12.289  1.00  0.00     0.013 A 
ATOM      4  C   UNL     1       8.988 -13.109  12.665  1.00  0.00    -0.006 A 
ATOM      5  C   UNL     1       8.927 -11.773  13.166  1.00  0.00     0.039 A 
ATOM      6  C   UNL     1       7.665 -11.244  13.566  1.00  0.00     0.072 A 
ATOM      7  C   UNL     1       6.544 -12.090  13.641  1.00  0.00     0.169 A 
ATOM      8  C   UNL     1       6.636 -13.433  13.236  1.00  0.00     0.162 A 
ATOM      9  C   UNL     1       7.802 -13.902  12.592  1.00  0.00     0.008 A 
ATOM     10  C   UNL     1      10.136 -11.025  13.293  1.00  0.00     0.132 A 
ATOM     11  C   UNL     1      11.361 -11.563  12.846  1.00  0.00     0.031 A 
ENDROOT
BRANCH  11  12
ATOM     12  C   UNL     1      12.612 -10.767  12.949  1.00  0.00     0.031 A 
ATOM     13  C   UNL     1      13.861 -11.420  13.047  1.00  0.00     0.132 A 
ATOM     14  C   UNL     1      12.551  -9.364  12.937  1.00  0.00    -0.039 A 
ATOM     15  C   UNL     1      15.067 -10.662  13.129  1.00  0.00     0.039 A 
ATOM     16  C   UNL     1      13.723  -8.624  13.097  1.00  0.00     0.013 A 
ATOM     17  C   UNL     1      11.240  -8.643  12.735  1.00  0.00     0.045 C 
ATOM     18  C   UNL     1      14.978  -9.244  13.273  1.00  0.00    -0.006 A 
ATOM     19  C   UNL     1      16.358 -11.269  13.085  1.00  0.00     0.072 A 
ATOM     20  C   UNL     1      16.146  -8.477  13.563  1.00  0.00     0.008 A 
ATOM     21  C   UNL     1      17.514 -10.467  13.183  1.00  0.00     0.169 A 
ATOM     22  C   UNL     1      17.408  -9.094  13.426  1.00  0.00     0.162 A 
BRANCH  13  23
ATOM     23  O   UNL     1      13.898 -12.819  13.089  1.00  0.00    -0.507 OA
ATOM     24  H   UNL     1      14.474 -13.387  12.483  1.00  0.00     0.293 HD
ENDBRANCH  13  23
BRANCH  19  25
ATOM     25  C   UNL     1      16.532 -12.716  12.845  1.00  0.00     0.264 C 
ATOM     26  O   UNL     1      16.119 -13.559  13.685  1.00  0.00    -0.298 OA
ENDBRANCH  19  25
BRANCH  20  27
ATOM     27  C   UNL     1      16.057  -7.008  14.008  1.00  0.00     0.017 C 
ATOM     28  C   UNL     1      14.993  -6.254  13.205  1.00  0.00     0.012 C 
ATOM     29  C   UNL     1      17.409  -6.270  13.977  1.00  0.00     0.012 C 
ENDBRANCH  20  27
BRANCH  21  30
ATOM     30  O   UNL     1      18.797 -11.006  13.021  1.00  0.00    -0.504 OA
ATOM     31  H   UNL     1      19.061 -11.937  13.313  1.00  0.00     0.293 HD
ENDBRANCH  21  30
BRANCH  22  32
ATOM     32  O   UNL     1      18.571  -8.323  13.509  1.00  0.00    -0.504 OA
ATOM     33  H   UNL     1      18.984  -8.038  14.388  1.00  0.00     0.293 HD
ENDBRANCH  22  32
ENDBRANCH  11  12
BRANCH  10  34
ATOM     34  O   UNL     1      10.128  -9.766  13.905  1.00  0.00    -0.507 OA
ATOM     35  H   UNL     1      10.947  -9.323  14.301  1.00  0.00     0.293 HD
ENDBRANCH  10  34
BRANCH   9  36
ATOM     36  C   UNL     1       7.781 -15.265  11.876  1.00  0.00     0.017 C 
ATOM     37  C   UNL     1       8.959 -16.137  12.324  1.00  0.00     0.012 C 
ATOM     38  C   UNL     1       6.445 -16.021  12.013  1.00  0.00     0.012 C 
ENDBRANCH   9  36
BRANCH   6  39
ATOM     39  C   UNL     1       7.461  -9.799  13.828  1.00  0.00     0.264 C 
ATOM     40  O   UNL     1       6.318  -9.338  14.085  1.00  0.00    -0.298 OA
ENDBRANCH   6  39
BRANCH   8  41
ATOM     41  O   UNL     1       5.585 -14.323  13.475  1.00  0.00    -0.504 OA
ATOM     42  H   UNL     1       5.418 -15.160  12.935  1.00  0.00     0.293 HD
ENDBRANCH   8  41
BRANCH   7  43
ATOM     43  O   UNL     1       5.324 -11.556  14.076  1.00  0.00    -0.504 OA
ATOM     44  H   UNL     1       4.966 -10.655  13.791  1.00  0.00     0.293 HD
ENDBRANCH   7  43
TORSDOF 11
ENDMDL
MODEL 2
REMARK VINA RESULT:    58.631      2.336      4.222
REMARK INTER + INTRA:          97.620
REMARK INTER:                  85.031
REMARK INTRA:                  12.589
REMARK UNBOUND:                11.569
REMARK SMILES Cc1cc2c(C(C)C)c(O)c(O)c(C=O)c2c(O)c1-c1c(C)cc2c(C(C)C)c(O)c(O)c(C=O)c2c1O
REMARK SMILES IDX 1 1 2 2 3 3 4 4 16 5 13 6 11 7 9 8 5 9 17 10 19 11 20 12
REMARK SMILES IDX 37 13 21 14 36 15 23 16 22 17 24 18 33 19 25 20 31 21 29 22
REMARK SMILES IDX 38 23 34 25 35 26 26 27 27 28 28 29 32 30 30 32 18 34 6 36
REMARK SMILES IDX 7 37 8 38 14 39 15 40 10 41 12 43
REMARK H PARENT 38 24 32 31 30 33 18 35 10 42 12 44
REMARK Flexibility Score: inf
ROOT
ATOM      1  C   UNL     1      12.134  -8.223  14.101  1.00  0.00     0.045 C 
ATOM      2  C   UNL     1      12.321  -9.658  13.668  1.00  0.00    -0.039 A 
ATOM      3  C   UNL     1      11.217 -10.508  13.626  1.00  0.00     0.013 A 
ATOM      4  C   UNL     1      11.335 -11.869  13.264  1.00  0.00    -0.006 A 
ATOM      5  C   UNL     1      12.613 -12.364  12.864  1.00  0.00     0.039 A 
ATOM      6  C   UNL     1      12.732 -13.731  12.477  1.00  0.00     0.072 A 
ATOM      7  C   UNL     1      11.577 -14.516  12.314  1.00  0.00     0.169 A 
ATOM      8  C   UNL     1      10.309 -13.989  12.619  1.00  0.00     0.162 A 
ATOM      9  C   UNL     1      10.195 -12.731  13.251  1.00  0.00     0.008 A 
ATOM     10  C   UNL     1      13.721 -11.465  12.820  1.00  0.00     0.132 A 
ATOM     11  C   UNL     1      13.577 -10.130  13.252  1.00  0.00     0.031 A 
ENDROOT
BRANCH  11  12
ATOM     12  C   UNL     1      14.742  -9.206  13.237  1.00  0.00     0.031 A 
ATOM     13  C   UNL     1      16.046  -9.714  13.049  1.00  0.00     0.132 A 
ATOM     14  C   UNL     1      14.540  -7.826  13.397  1.00  0.00    -0.039 A 
ATOM     15  C   UNL     1      17.166  -8.830  13.016  1.00  0.00     0.039 A 
ATOM     16  C   UNL     1      15.642  -6.971  13.444  1.00  0.00     0.013 A 
ATOM     17  C   UNL     1      13.149  -7.248  13.501  1.00  0.00     0.045 C 
ATOM     18  C   UNL     1      16.964  -7.454  13.335  1.00  0.00    -0.006 A 
ATOM     19  C   UNL     1      18.482  -9.274  12.687  1.00  0.00     0.072 A 
ATOM     20  C   UNL     1      18.083  -6.586  13.513  1.00  0.00     0.008 A 
ATOM     21  C   UNL     1      19.552  -8.355  12.683  1.00  0.00     0.169 A 
ATOM     22  C   UNL     1      19.356  -7.034  13.097  1.00  0.00     0.162 A 
BRANCH  13  23
ATOM     23  O   UNL     1      16.228 -11.096  12.922  1.00  0.00    -0.507 OA
ATOM     24  H   UNL     1      16.828 -11.645  13.525  1.00  0.00     0.293 HD
ENDBRANCH  13  23
BRANCH  19  25
ATOM     25  C   UNL     1      18.753 -10.661  12.256  1.00  0.00     0.264 C 
ATOM     26  O   UNL     1      17.810 -11.486  12.122  1.00  0.00    -0.298 OA
ENDBRANCH  19  25
BRANCH  20  27
ATOM     27  C   UNL     1      17.930  -5.187  14.134  1.00  0.00     0.017 C 
ATOM     28  C   UNL     1      18.477  -4.107  13.196  1.00  0.00     0.012 C 
ATOM     29  C   UNL     1      18.539  -5.068  15.543  1.00  0.00     0.012 C 
ENDBRANCH  20  27
BRANCH  21  30
ATOM     30  O   UNL     1      20.832  -8.721  12.247  1.00  0.00    -0.504 OA
ATOM     31  H   UNL     1      21.040  -9.052  11.315  1.00  0.00     0.293 HD
ENDBRANCH  21  30
BRANCH  22  32
ATOM     32  O   UNL     1      20.432  -6.143  13.073  1.00  0.00    -0.504 OA
ATOM     33  H   UNL     1      21.293  -6.330  12.574  1.00  0.00     0.293 HD
ENDBRANCH  22  32
ENDBRANCH  11  12
BRANCH  10  34
ATOM     34  O   UNL     1      14.953 -11.885  12.306  1.00  0.00    -0.507 OA
ATOM     35  H   UNL     1      15.768 -11.291  12.230  1.00  0.00     0.293 HD
ENDBRANCH  10  34
BRANCH   9  36
ATOM     36  C   UNL     1       8.848 -12.305  13.860  1.00  0.00     0.017 C 
ATOM     37  C   UNL     1       7.710 -12.483  12.850  1.00  0.00     0.012 C 
ATOM     38  C   UNL     1       8.520 -12.998  15.197  1.00  0.00     0.012 C 
ENDBRANCH   9  36
BRANCH   6  39
ATOM     39  C   UNL     1      14.049 -14.395  12.321  1.00  0.00     0.264 C 
ATOM     40  O   UNL     1      14.134 -15.590  11.931  1.00  0.00    -0.298 OA
ENDBRANCH   6  39
BRANCH   8  41
ATOM     41  O   UNL     1       9.148 -14.694  12.290  1.00  0.00    -0.504 OA
ATOM     42  H   UNL     1       9.138 -15.656  11.981  1.00  0.00     0.293 HD
ENDBRANCH   8  41
BRANCH   7  43
ATOM     43  O   UNL     1      11.718 -15.845  11.895  1.00  0.00    -0.504 OA
ATOM     44  H   UNL     1      11.475 -16.178  10.973  1.00  0.00     0.293 HD
ENDBRANCH   7  43
TORSDOF 11
ENDMDL
