MODEL 1
REMARK VINA RESULT:    -6.342      0.000      0.000
REMARK INTER + INTRA:          -6.342
REMARK INTER:                  -6.342
REMARK INTRA:                   0.000
REMARK UNBOUND:                 0.000
REMARK SMILES CC(C)=C1CC[C@H](C)CC1=O
REMARK SMILES IDX 8 1 7 2 6 3 5 4 4 5 2 6 1 7 3 8 10 9 11 10 9 11
REMARK H PARENT
REMARK Flexibility Score: inf
ROOT
ATOM      1  C   UNL     1     -14.899  16.611   0.771  1.00  0.00     0.008 C 
ATOM      2  C   UNL     1     -14.954  15.136   1.183  1.00  0.00    -0.006 C 
ATOM      3  C   UNL     1     -14.119  14.274   0.223  1.00  0.00     0.008 C 
ATOM      4  C   UNL     1     -14.245  12.783   0.560  1.00  0.00     0.039 C 
ATOM      5  C   UNL     1     -13.944  12.487   2.023  1.00  0.00    -0.006 C 
ATOM      6  C   UNL     1     -13.381  11.304   2.407  1.00  0.00    -0.070 C 
ATOM      7  C   UNL     1     -13.025  11.022   3.848  1.00  0.00     0.039 C 
ATOM      8  C   UNL     1     -13.048  10.230   1.396  1.00  0.00     0.039 C 
ATOM      9  C   UNL     1     -14.407  13.510   3.007  1.00  0.00     0.159 C 
ATOM     10  O   UNL     1     -14.776  13.183   4.167  1.00  0.00    -0.295 OA
ATOM     11  C   UNL     1     -14.447  14.961   2.622  1.00  0.00     0.084 C 
ENDROOT
TORSDOF 0
ENDMDL
MODEL 2
REMARK VINA RESULT:    -6.080      1.528      4.466
REMARK INTER + INTRA:          -6.080
REMARK INTER:                  -6.080
REMARK INTRA:                   0.000
REMARK UNBOUND:                 0.000
REMARK SMILES CC(C)=C1CC[C@H](C)CC1=O
REMARK SMILES IDX 8 1 7 2 6 3 5 4 4 5 2 6 1 7 3 8 10 9 11 10 9 11
REMARK H PARENT
REMARK Flexibility Score: inf
ROOT
ATOM      1  C   UNL     1     -12.909  10.966   5.423  1.00  0.00     0.008 C 
ATOM      2  C   UNL     1     -13.687  11.723   4.341  1.00  0.00    -0.006 C 
ATOM      3  C   UNL     1     -13.520  13.240   4.516  1.00  0.00     0.008 C 
ATOM      4  C   UNL     1     -14.374  14.015   3.504  1.00  0.00     0.039 C 
ATOM      5  C   UNL     1     -14.135  13.562   2.070  1.00  0.00    -0.006 C 
ATOM      6  C   UNL     1     -14.239  14.433   1.024  1.00  0.00    -0.070 C 
ATOM      7  C   UNL     1     -13.949  14.008  -0.397  1.00  0.00     0.039 C 
ATOM      8  C   UNL     1     -14.613  15.881   1.243  1.00  0.00     0.039 C 
ATOM      9  C   UNL     1     -13.900  12.100   1.876  1.00  0.00     0.159 C 
ATOM     10  O   UNL     1     -14.273  11.511   0.826  1.00  0.00    -0.295 OA
ATOM     11  C   UNL     1     -13.213  11.300   2.944  1.00  0.00     0.084 C 
ENDROOT
TORSDOF 0
ENDMDL
MODEL 3
REMARK VINA RESULT:    -5.919      1.619      2.465
REMARK INTER + INTRA:          -5.919
REMARK INTER:                  -5.919
REMARK INTRA:                   0.000
REMARK UNBOUND:                 0.000
REMARK SMILES CC(C)=C1CC[C@H](C)CC1=O
REMARK SMILES IDX 8 1 7 2 6 3 5 4 4 5 2 6 1 7 3 8 10 9 11 10 9 11
REMARK H PARENT
REMARK Flexibility Score: inf
ROOT
ATOM      1  C   UNL     1     -16.287  16.680   0.992  1.00  0.00     0.008 C 
ATOM      2  C   UNL     1     -15.196  15.623   1.192  1.00  0.00    -0.006 C 
ATOM      3  C   UNL     1     -15.135  15.179   2.662  1.00  0.00     0.008 C 
ATOM      4  C   UNL     1     -13.981  14.196   2.901  1.00  0.00     0.039 C 
ATOM      5  C   UNL     1     -14.008  13.019   1.936  1.00  0.00    -0.006 C 
ATOM      6  C   UNL     1     -13.556  11.786   2.308  1.00  0.00    -0.070 C 
ATOM      7  C   UNL     1     -13.630  10.597   1.379  1.00  0.00     0.039 C 
ATOM      8  C   UNL     1     -12.993  11.541   3.690  1.00  0.00     0.039 C 
ATOM      9  C   UNL     1     -14.444  13.325   0.541  1.00  0.00     0.159 C 
ATOM     10  O   UNL     1     -13.977  12.693  -0.444  1.00  0.00    -0.295 OA
ATOM     11  C   UNL     1     -15.452  14.409   0.288  1.00  0.00     0.084 C 
ENDROOT
TORSDOF 0
ENDMDL
MODEL 4
REMARK VINA RESULT:    -5.918      1.483      2.456
REMARK INTER + INTRA:          -5.918
REMARK INTER:                  -5.918
REMARK INTRA:                   0.000
REMARK UNBOUND:                 0.000
REMARK SMILES CC(C)=C1CC[C@H](C)CC1=O
REMARK SMILES IDX 8 1 7 2 6 3 5 4 4 5 2 6 1 7 3 8 10 9 11 10 9 11
REMARK H PARENT
REMARK Flexibility Score: inf
ROOT
ATOM      1  C   UNL     1     -14.458  13.255  -0.700  1.00  0.00     0.008 C 
ATOM      2  C   UNL     1     -14.491  12.830   0.772  1.00  0.00    -0.006 C 
ATOM      3  C   UNL     1     -13.737  11.506   0.971  1.00  0.00     0.008 C 
ATOM      4  C   UNL     1     -13.847  11.014   2.420  1.00  0.00     0.039 C 
ATOM      5  C   UNL     1     -13.437  12.077   3.430  1.00  0.00    -0.006 C 
ATOM      6  C   UNL     1     -12.853  11.741   4.618  1.00  0.00    -0.070 C 
ATOM      7  C   UNL     1     -12.391  12.789   5.603  1.00  0.00     0.039 C 
ATOM      8  C   UNL     1     -12.606  10.295   4.988  1.00  0.00     0.039 C 
ATOM      9  C   UNL     1     -13.817  13.481   3.094  1.00  0.00     0.159 C 
ATOM     10  O   UNL     1     -14.098  14.317   3.994  1.00  0.00    -0.295 OA
ATOM     11  C   UNL     1     -13.877  13.922   1.660  1.00  0.00     0.084 C 
ENDROOT
TORSDOF 0
ENDMDL
MODEL 5
REMARK VINA RESULT:    -5.865      1.647      3.652
REMARK INTER + INTRA:          -5.865
REMARK INTER:                  -5.865
REMARK INTRA:                   0.000
REMARK UNBOUND:                 0.000
REMARK SMILES CC(C)=C1CC[C@H](C)CC1=O
REMARK SMILES IDX 8 1 7 2 6 3 5 4 4 5 2 6 1 7 3 8 10 9 11 10 9 11
REMARK H PARENT
REMARK Flexibility Score: inf
ROOT
ATOM      1  C   UNL     1     -13.150  12.869   5.996  1.00  0.00     0.008 C 
ATOM      2  C   UNL     1     -13.084  12.951   4.467  1.00  0.00    -0.006 C 
ATOM      3  C   UNL     1     -13.458  11.600   3.836  1.00  0.00     0.008 C 
ATOM      4  C   UNL     1     -13.299  11.635   2.310  1.00  0.00     0.039 C 
ATOM      5  C   UNL     1     -14.039  12.803   1.673  1.00  0.00    -0.006 C 
ATOM      6  C   UNL     1     -14.573  12.706   0.420  1.00  0.00    -0.070 C 
ATOM      7  C   UNL     1     -15.359  13.838  -0.201  1.00  0.00     0.039 C 
ATOM      8  C   UNL     1     -14.438  11.439  -0.394  1.00  0.00     0.039 C 
ATOM      9  C   UNL     1     -14.039  14.080   2.447  1.00  0.00     0.159 C 
ATOM     10  O   UNL     1     -14.047  15.198   1.865  1.00  0.00    -0.295 OA
ATOM     11  C   UNL     1     -14.021  14.050   3.948  1.00  0.00     0.084 C 
ENDROOT
TORSDOF 0
ENDMDL
MODEL 6
REMARK VINA RESULT:    -5.842      1.967      3.156
REMARK INTER + INTRA:          -5.842
REMARK INTER:                  -5.842
REMARK INTRA:                   0.000
REMARK UNBOUND:                 0.000
REMARK SMILES CC(C)=C1CC[C@H](C)CC1=O
REMARK SMILES IDX 8 1 7 2 6 3 5 4 4 5 2 6 1 7 3 8 10 9 11 10 9 11
REMARK H PARENT
REMARK Flexibility Score: inf
ROOT
ATOM      1  C   UNL     1     -14.922  13.254  -0.378  1.00  0.00     0.008 C 
ATOM      2  C   UNL     1     -13.999  12.865   0.783  1.00  0.00    -0.006 C 
ATOM      3  C   UNL     1     -14.375  13.640   2.056  1.00  0.00     0.008 C 
ATOM      4  C   UNL     1     -13.397  13.339   3.200  1.00  0.00     0.039 C 
ATOM      5  C   UNL     1     -13.234  11.846   3.451  1.00  0.00    -0.006 C 
ATOM      6  C   UNL     1     -12.982  11.361   4.702  1.00  0.00    -0.070 C 
ATOM      7  C   UNL     1     -12.874   9.878   4.973  1.00  0.00     0.039 C 
ATOM      8  C   UNL     1     -12.838  12.287   5.888  1.00  0.00     0.039 C 
ATOM      9  C   UNL     1     -13.247  10.973   2.240  1.00  0.00     0.159 C 
ATOM     10  O   UNL     1     -12.569   9.912   2.190  1.00  0.00    -0.295 OA
ATOM     11  C   UNL     1     -14.074  11.355   1.046  1.00  0.00     0.084 C 
ENDROOT
TORSDOF 0
ENDMDL
MODEL 7
REMARK VINA RESULT:    -5.731      1.153      4.049
REMARK INTER + INTRA:          -5.731
REMARK INTER:                  -5.731
REMARK INTRA:                   0.000
REMARK UNBOUND:                 0.000
REMARK SMILES CC(C)=C1CC[C@H](C)CC1=O
REMARK SMILES IDX 8 1 7 2 6 3 5 4 4 5 2 6 1 7 3 8 10 9 11 10 9 11
REMARK H PARENT
REMARK Flexibility Score: inf
ROOT
ATOM      1  C   UNL     1     -13.628  10.254   5.427  1.00  0.00     0.008 C 
ATOM      2  C   UNL     1     -13.422  11.251   4.282  1.00  0.00    -0.006 C 
ATOM      3  C   UNL     1     -13.805  10.616   2.936  1.00  0.00     0.008 C 
ATOM      4  C   UNL     1     -13.508  11.566   1.767  1.00  0.00     0.039 C 
ATOM      5  C   UNL     1     -14.129  12.943   1.962  1.00  0.00    -0.006 C 
ATOM      6  C   UNL     1     -14.553  13.686   0.899  1.00  0.00    -0.070 C 
ATOM      7  C   UNL     1     -15.222  15.029   1.082  1.00  0.00     0.039 C 
ATOM      8  C   UNL     1     -14.408  13.181  -0.519  1.00  0.00     0.039 C 
ATOM      9  C   UNL     1     -14.134  13.467   3.360  1.00  0.00     0.159 C 
ATOM     10  O   UNL     1     -14.035  14.701   3.596  1.00  0.00    -0.295 OA
ATOM     11  C   UNL     1     -14.253  12.520   4.519  1.00  0.00     0.084 C 
ENDROOT
TORSDOF 0
ENDMDL
MODEL 8
REMARK VINA RESULT:    -5.002      1.931      4.783
REMARK INTER + INTRA:          -5.002
REMARK INTER:                  -5.002
REMARK INTRA:                   0.000
REMARK UNBOUND:                 0.000
REMARK SMILES CC(C)=C1CC[C@H](C)CC1=O
REMARK SMILES IDX 8 1 7 2 6 3 5 4 4 5 2 6 1 7 3 8 10 9 11 10 9 11
REMARK H PARENT
REMARK Flexibility Score: inf
ROOT
ATOM      1  C   UNL     1     -13.854  11.983   4.074  1.00  0.00     0.008 C 
ATOM      2  C   UNL     1     -14.389  12.926   2.991  1.00  0.00    -0.006 C 
ATOM      3  C   UNL     1     -14.749  14.293   3.593  1.00  0.00     0.008 C 
ATOM      4  C   UNL     1     -15.381  15.215   2.542  1.00  0.00     0.039 C 
ATOM      5  C   UNL     1     -14.531  15.336   1.284  1.00  0.00    -0.006 C 
ATOM      6  C   UNL     1     -14.513  16.485   0.547  1.00  0.00    -0.070 C 
ATOM      7  C   UNL     1     -13.632  16.636  -0.671  1.00  0.00     0.039 C 
ATOM      8  C   UNL     1     -15.351  17.681   0.940  1.00  0.00     0.039 C 
ATOM      9  C   UNL     1     -13.823  14.095   0.850  1.00  0.00     0.159 C 
ATOM     10  O   UNL     1     -13.613  13.853  -0.369  1.00  0.00    -0.295 OA
ATOM     11  C   UNL     1     -13.352  13.101   1.872  1.00  0.00     0.084 C 
ENDROOT
TORSDOF 0
ENDMDL
MODEL 9
REMARK VINA RESULT:    -4.538      2.335      5.118
REMARK INTER + INTRA:          -4.538
REMARK INTER:                  -4.538
REMARK INTRA:                   0.000
REMARK UNBOUND:                 0.000
REMARK SMILES CC(C)=C1CC[C@H](C)CC1=O
REMARK SMILES IDX 8 1 7 2 6 3 5 4 4 5 2 6 1 7 3 8 10 9 11 10 9 11
REMARK H PARENT
REMARK Flexibility Score: inf
ROOT
ATOM      1  C   UNL     1     -12.852  10.958   8.540  1.00  0.00     0.008 C 
ATOM      2  C   UNL     1     -12.493  11.116   7.058  1.00  0.00    -0.006 C 
ATOM      3  C   UNL     1     -12.925   9.875   6.261  1.00  0.00     0.008 C 
ATOM      4  C   UNL     1     -12.482   9.972   4.795  1.00  0.00     0.039 C 
ATOM      5  C   UNL     1     -12.923  11.273   4.137  1.00  0.00    -0.006 C 
ATOM      6  C   UNL     1     -13.224  11.328   2.806  1.00  0.00    -0.070 C 
ATOM      7  C   UNL     1     -13.716  12.599   2.154  1.00  0.00     0.039 C 
ATOM      8  C   UNL     1     -13.115  10.104   1.926  1.00  0.00     0.039 C 
ATOM      9  C   UNL     1     -12.890  12.489   5.003  1.00  0.00     0.159 C 
ATOM     10  O   UNL     1     -12.636  13.626   4.524  1.00  0.00    -0.295 OA
ATOM     11  C   UNL     1     -13.156  12.372   6.475  1.00  0.00     0.084 C 
ENDROOT
TORSDOF 0
ENDMDL
