MODEL 1
REMARK VINA RESULT:     3.444      0.000      0.000
REMARK INTER + INTRA:           4.013
REMARK INTER:                   4.048
REMARK INTRA:                  -0.035
REMARK UNBOUND:                -0.035
REMARK SMILES O=C([O-])CCC(=O)[O-]
REMARK SMILES IDX 4 1 2 2 1 3 3 4 5 5 6 6 7 7 8 8
REMARK H PARENT
REMARK Flexibility Score: inf
ROOT
ATOM      1  C   UNL     1      -9.003  -1.375 -17.132  1.00  0.00     0.059 C 
ENDROOT
BRANCH   1   2
ATOM      2  C   UNL     1      -7.642  -0.999 -16.637  1.00  0.00     0.042 C 
ATOM      3  O   UNL     1      -6.875  -0.306 -17.357  1.00  0.00    -0.550 OA
ATOM      4  O   UNL     1      -7.238  -1.371 -15.362  1.00  0.00    -0.550 OA
ENDBRANCH   1   2
BRANCH   1   5
ATOM      5  C   UNL     1      -9.928  -0.158 -17.131  1.00  0.00     0.059 C 
BRANCH   5   6
ATOM      6  C   UNL     1     -11.310  -0.550 -17.550  1.00  0.00     0.042 C 
ATOM      7  O   UNL     1     -11.557  -1.737 -17.889  1.00  0.00    -0.550 OA
ATOM      8  O   UNL     1     -12.337   0.385 -17.518  1.00  0.00    -0.550 OA
ENDBRANCH   5   6
ENDBRANCH   1   5
TORSDOF 3
ENDMDL
MODEL 2
REMARK VINA RESULT:     3.447      0.056      4.325
REMARK INTER + INTRA:           4.017
REMARK INTER:                   4.052
REMARK INTRA:                  -0.034
REMARK UNBOUND:                -0.035
REMARK SMILES O=C([O-])CCC(=O)[O-]
REMARK SMILES IDX 4 1 2 2 1 3 3 4 5 5 6 6 7 7 8 8
REMARK H PARENT
REMARK Flexibility Score: inf
ROOT
ATOM      1  C   UNL     1      -9.939  -0.127 -17.139  1.00  0.00     0.059 C 
ENDROOT
BRANCH   1   2
ATOM      2  C   UNL     1     -11.313  -0.510 -17.591  1.00  0.00     0.042 C 
ATOM      3  O   UNL     1     -11.555  -1.692 -17.952  1.00  0.00    -0.550 OA
ATOM      4  O   UNL     1     -12.338   0.426 -17.568  1.00  0.00    -0.550 OA
ENDBRANCH   1   2
BRANCH   1   5
ATOM      5  C   UNL     1      -9.008  -1.340 -17.171  1.00  0.00     0.059 C 
BRANCH   5   6
ATOM      6  C   UNL     1      -7.660  -0.980 -16.632  1.00  0.00     0.042 C 
ATOM      7  O   UNL     1      -6.876  -0.266 -17.311  1.00  0.00    -0.550 OA
ATOM      8  O   UNL     1      -7.288  -1.391 -15.358  1.00  0.00    -0.550 OA
ENDBRANCH   5   6
ENDBRANCH   1   5
TORSDOF 3
ENDMDL
MODEL 3
REMARK VINA RESULT:     3.477      3.336      4.540
REMARK INTER + INTRA:           4.052
REMARK INTER:                   4.094
REMARK INTRA:                  -0.042
REMARK UNBOUND:                -0.035
REMARK SMILES O=C([O-])CCC(=O)[O-]
REMARK SMILES IDX 4 1 2 2 1 3 3 4 5 5 6 6 7 7 8 8
REMARK H PARENT
REMARK Flexibility Score: inf
ROOT
ATOM      1  C   UNL     1     -12.809   0.645 -17.495  1.00  0.00     0.059 C 
ENDROOT
BRANCH   1   2
ATOM      2  C   UNL     1     -12.253  -0.736 -17.646  1.00  0.00     0.042 C 
ATOM      3  O   UNL     1     -12.857  -1.720 -17.144  1.00  0.00    -0.550 OA
ATOM      4  O   UNL     1     -11.093  -0.942 -18.381  1.00  0.00    -0.550 OA
ENDBRANCH   1   2
BRANCH   1   5
ATOM      5  C   UNL     1     -11.706   1.624 -17.091  1.00  0.00     0.059 C 
BRANCH   5   6
ATOM      6  C   UNL     1     -12.112   3.029 -17.408  1.00  0.00     0.042 C 
ATOM      7  O   UNL     1     -12.948   3.258 -18.320  1.00  0.00    -0.550 OA
ATOM      8  O   UNL     1     -11.604   4.085 -16.660  1.00  0.00    -0.550 OA
ENDBRANCH   5   6
ENDBRANCH   1   5
TORSDOF 3
ENDMDL
MODEL 4
REMARK VINA RESULT:     3.483      3.342      4.609
REMARK INTER + INTRA:           4.059
REMARK INTER:                   4.102
REMARK INTRA:                  -0.043
REMARK UNBOUND:                -0.035
REMARK SMILES O=C([O-])CCC(=O)[O-]
REMARK SMILES IDX 4 1 2 2 1 3 3 4 5 5 6 6 7 7 8 8
REMARK H PARENT
REMARK Flexibility Score: inf
ROOT
ATOM      1  C   UNL     1     -11.694   1.617 -17.101  1.00  0.00     0.059 C 
ENDROOT
BRANCH   1   2
ATOM      2  C   UNL     1     -12.108   3.021 -17.410  1.00  0.00     0.042 C 
ATOM      3  O   UNL     1     -12.943   3.249 -18.325  1.00  0.00    -0.550 OA
ATOM      4  O   UNL     1     -11.608   4.075 -16.656  1.00  0.00    -0.550 OA
ENDBRANCH   1   2
BRANCH   1   5
ATOM      5  C   UNL     1     -12.805   0.637 -17.480  1.00  0.00     0.059 C 
BRANCH   5   6
ATOM      6  C   UNL     1     -12.249  -0.741 -17.659  1.00  0.00     0.042 C 
ATOM      7  O   UNL     1     -12.849  -1.735 -17.171  1.00  0.00    -0.550 OA
ATOM      8  O   UNL     1     -11.095  -0.933 -18.408  1.00  0.00    -0.550 OA
ENDBRANCH   5   6
ENDBRANCH   1   5
TORSDOF 3
ENDMDL
