MODEL 1
REMARK VINA RESULT:    -4.540      0.000      0.000
REMARK INTER + INTRA:          -9.197
REMARK INTER:                  -6.928
REMARK INTRA:                  -2.269
REMARK UNBOUND:                -2.269
REMARK SMILES CC(=O)CCC=C(C)CCC=C(C)CCC=C(C)C
REMARK SMILES IDX 10 1 11 2 12 3 13 4 14 5 15 6 16 7 18 8 17 9 19 10 9 11 7 12
REMARK SMILES IDX 6 13 8 14 5 15 4 16 2 17 3 18 1 19
REMARK H PARENT
REMARK Flexibility Score: inf
ROOT
ATOM      1  C   UNL     1      -6.016 -41.758 215.346  1.00  0.00     0.032 C 
ENDROOT
BRANCH   1   2
ATOM      2  C   UNL     1      -5.214 -41.877 216.620  1.00  0.00    -0.028 C 
ATOM      3  C   UNL     1      -5.647 -41.406 217.810  1.00  0.00    -0.077 C 
ATOM      4  C   UNL     1      -6.979 -40.707 217.943  1.00  0.00     0.039 C 
BRANCH   3   5
ATOM      5  C   UNL     1      -4.769 -41.572 219.031  1.00  0.00     0.034 C 
BRANCH   5   6
ATOM      6  C   UNL     1      -3.820 -40.378 219.188  1.00  0.00     0.032 C 
BRANCH   6   7
ATOM      7  C   UNL     1      -4.058 -39.674 220.500  1.00  0.00    -0.028 C 
ATOM      8  C   UNL     1      -4.998 -37.995 222.028  1.00  0.00     0.039 C 
ATOM      9  C   UNL     1      -4.820 -38.567 220.646  1.00  0.00    -0.080 C 
ATOM     10  C   UNL     1      -5.475 -37.887 219.467  1.00  0.00     0.039 C 
ENDBRANCH   6   7
ENDBRANCH   5   6
ENDBRANCH   3   5
ENDBRANCH   1   2
BRANCH   1  11
ATOM     11  C   UNL     1      -5.388 -40.739 214.388  1.00  0.00     0.034 C 
BRANCH  11  12
ATOM     12  C   UNL     1      -6.034 -39.378 214.556  1.00  0.00    -0.077 C 
ATOM     13  C   UNL     1      -5.515 -38.410 215.346  1.00  0.00    -0.028 C 
ATOM     14  C   UNL     1      -7.346 -39.111 213.866  1.00  0.00     0.039 C 
BRANCH  13  15
ATOM     15  C   UNL     1      -4.208 -38.515 216.092  1.00  0.00     0.035 C 
BRANCH  15  16
ATOM     16  C   UNL     1      -3.052 -37.976 215.242  1.00  0.00     0.079 C 
BRANCH  16  17
ATOM     17  C   UNL     1      -2.199 -39.105 214.728  1.00  0.00     0.130 C 
ATOM     18  O   UNL     1      -2.181 -39.349 213.531  1.00  0.00    -0.300 OA
ATOM     19  C   UNL     1      -1.357 -39.933 215.654  1.00  0.00     0.087 C 
ENDBRANCH  16  17
ENDBRANCH  15  16
ENDBRANCH  13  15
ENDBRANCH  11  12
ENDBRANCH   1  11
TORSDOF 9
ENDMDL
MODEL 2
REMARK VINA RESULT:    -4.422      1.874      3.886
REMARK INTER + INTRA:          -9.017
REMARK INTER:                  -6.808
REMARK INTRA:                  -2.208
REMARK UNBOUND:                -2.269
REMARK SMILES CC(=O)CCC=C(C)CCC=C(C)CCC=C(C)C
REMARK SMILES IDX 10 1 11 2 12 3 13 4 14 5 15 6 16 7 18 8 17 9 19 10 9 11 7 12
REMARK SMILES IDX 6 13 8 14 5 15 4 16 2 17 3 18 1 19
REMARK H PARENT
REMARK Flexibility Score: inf
ROOT
ATOM      1  C   UNL     1      -2.167 -40.370 215.863  1.00  0.00     0.032 C 
ENDROOT
BRANCH   1   2
ATOM      2  C   UNL     1      -3.278 -39.887 216.763  1.00  0.00    -0.028 C 
ATOM      3  C   UNL     1      -3.996 -38.770 216.513  1.00  0.00    -0.077 C 
ATOM      4  C   UNL     1      -3.721 -37.912 215.301  1.00  0.00     0.039 C 
BRANCH   3   5
ATOM      5  C   UNL     1      -5.091 -38.366 217.477  1.00  0.00     0.034 C 
BRANCH   5   6
ATOM      6  C   UNL     1      -5.293 -39.438 218.554  1.00  0.00     0.032 C 
BRANCH   6   7
ATOM      7  C   UNL     1      -5.441 -38.807 219.915  1.00  0.00    -0.028 C 
ATOM      8  C   UNL     1      -4.766 -38.127 222.178  1.00  0.00     0.039 C 
ATOM      9  C   UNL     1      -4.492 -38.835 220.877  1.00  0.00    -0.080 C 
ATOM     10  C   UNL     1      -3.184 -39.567 220.689  1.00  0.00     0.039 C 
ENDBRANCH   6   7
ENDBRANCH   5   6
ENDBRANCH   3   5
ENDBRANCH   1   2
BRANCH   1  11
ATOM     11  C   UNL     1      -2.655 -41.478 214.924  1.00  0.00     0.034 C 
BRANCH  11  12
ATOM     12  C   UNL     1      -2.801 -40.955 213.509  1.00  0.00    -0.077 C 
ATOM     13  C   UNL     1      -3.971 -40.990 212.828  1.00  0.00    -0.028 C 
ATOM     14  C   UNL     1      -1.578 -40.431 212.802  1.00  0.00     0.039 C 
BRANCH  13  15
ATOM     15  C   UNL     1      -5.283 -41.469 213.394  1.00  0.00     0.035 C 
BRANCH  15  16
ATOM     16  C   UNL     1      -6.405 -40.471 213.092  1.00  0.00     0.079 C 
BRANCH  16  17
ATOM     17  C   UNL     1      -6.914 -39.841 214.361  1.00  0.00     0.130 C 
ATOM     18  O   UNL     1      -7.115 -38.637 214.397  1.00  0.00    -0.300 OA
ATOM     19  C   UNL     1      -7.192 -40.664 215.585  1.00  0.00     0.087 C 
ENDBRANCH  16  17
ENDBRANCH  15  16
ENDBRANCH  13  15
ENDBRANCH  11  12
ENDBRANCH   1  11
TORSDOF 9
ENDMDL
MODEL 3
REMARK VINA RESULT:    -4.223      2.209      5.674
REMARK INTER + INTRA:          -8.713
REMARK INTER:                  -6.410
REMARK INTRA:                  -2.303
REMARK UNBOUND:                -2.269
REMARK SMILES CC(=O)CCC=C(C)CCC=C(C)CCC=C(C)C
REMARK SMILES IDX 10 1 11 2 12 3 13 4 14 5 15 6 16 7 18 8 17 9 19 10 9 11 7 12
REMARK SMILES IDX 6 13 8 14 5 15 4 16 2 17 3 18 1 19
REMARK H PARENT
REMARK Flexibility Score: inf
ROOT
ATOM      1  C   UNL     1      -6.605 -40.532 216.652  1.00  0.00     0.032 C 
ENDROOT
BRANCH   1   2
ATOM      2  C   UNL     1      -6.430 -41.143 215.282  1.00  0.00    -0.028 C 
ATOM      3  C   UNL     1      -6.637 -40.457 214.137  1.00  0.00    -0.077 C 
ATOM      4  C   UNL     1      -7.077 -39.013 214.153  1.00  0.00     0.039 C 
BRANCH   3   5
ATOM      5  C   UNL     1      -6.437 -41.158 212.811  1.00  0.00     0.034 C 
BRANCH   5   6
ATOM      6  C   UNL     1      -5.106 -41.919 212.791  1.00  0.00     0.032 C 
BRANCH   6   7
ATOM      7  C   UNL     1      -3.945 -40.964 212.678  1.00  0.00    -0.028 C 
ATOM      8  C   UNL     1      -1.813 -39.913 213.298  1.00  0.00     0.039 C 
ATOM      9  C   UNL     1      -2.926 -40.892 213.563  1.00  0.00    -0.080 C 
ATOM     10  C   UNL     1      -2.887 -41.747 214.808  1.00  0.00     0.039 C 
ENDBRANCH   6   7
ENDBRANCH   5   6
ENDBRANCH   3   5
ENDBRANCH   1   2
BRANCH   1  11
ATOM     11  C   UNL     1      -5.259 -40.381 217.369  1.00  0.00     0.034 C 
BRANCH  11  12
ATOM     12  C   UNL     1      -4.815 -38.932 217.374  1.00  0.00    -0.077 C 
ATOM     13  C   UNL     1      -5.102 -38.078 218.385  1.00  0.00    -0.028 C 
ATOM     14  C   UNL     1      -4.078 -38.397 216.174  1.00  0.00     0.039 C 
BRANCH  13  15
ATOM     15  C   UNL     1      -5.818 -38.458 219.656  1.00  0.00     0.035 C 
BRANCH  15  16
ATOM     16  C   UNL     1      -4.864 -38.410 220.854  1.00  0.00     0.079 C 
BRANCH  16  17
ATOM     17  C   UNL     1      -3.984 -39.631 220.883  1.00  0.00     0.130 C 
ATOM     18  O   UNL     1      -2.771 -39.501 220.814  1.00  0.00    -0.300 OA
ATOM     19  C   UNL     1      -4.563 -41.009 221.007  1.00  0.00     0.087 C 
ENDBRANCH  16  17
ENDBRANCH  15  16
ENDBRANCH  13  15
ENDBRANCH  11  12
ENDBRANCH   1  11
TORSDOF 9
ENDMDL
MODEL 4
REMARK VINA RESULT:    -4.196      1.480      2.836
REMARK INTER + INTRA:          -8.672
REMARK INTER:                  -7.010
REMARK INTRA:                  -1.662
REMARK UNBOUND:                -2.269
REMARK SMILES CC(=O)CCC=C(C)CCC=C(C)CCC=C(C)C
REMARK SMILES IDX 10 1 11 2 12 3 13 4 14 5 15 6 16 7 18 8 17 9 19 10 9 11 7 12
REMARK SMILES IDX 6 13 8 14 5 15 4 16 2 17 3 18 1 19
REMARK H PARENT
REMARK Flexibility Score: inf
ROOT
ATOM      1  C   UNL     1      -6.243 -38.340 214.857  1.00  0.00     0.032 C 
ENDROOT
BRANCH   1   2
ATOM      2  C   UNL     1      -5.456 -39.119 215.883  1.00  0.00    -0.028 C 
ATOM      3  C   UNL     1      -4.136 -38.928 216.099  1.00  0.00    -0.077 C 
ATOM      4  C   UNL     1      -3.347 -37.914 215.306  1.00  0.00     0.039 C 
BRANCH   3   5
ATOM      5  C   UNL     1      -3.433 -39.760 217.150  1.00  0.00     0.034 C 
BRANCH   5   6
ATOM      6  C   UNL     1      -4.444 -40.385 218.118  1.00  0.00     0.032 C 
BRANCH   6   7
ATOM      7  C   UNL     1      -4.122 -40.011 219.542  1.00  0.00    -0.028 C 
ATOM      8  C   UNL     1      -4.234 -38.695 221.615  1.00  0.00     0.039 C 
ATOM      9  C   UNL     1      -4.612 -38.921 220.175  1.00  0.00    -0.080 C 
ATOM     10  C   UNL     1      -5.506 -37.925 219.474  1.00  0.00     0.039 C 
ENDBRANCH   6   7
ENDBRANCH   5   6
ENDBRANCH   3   5
ENDBRANCH   1   2
BRANCH   1  11
ATOM     11  C   UNL     1      -7.002 -39.277 213.911  1.00  0.00     0.034 C 
BRANCH  11  12
ATOM     12  C   UNL     1      -6.947 -40.706 214.415  1.00  0.00    -0.077 C 
ATOM     13  C   UNL     1      -6.075 -41.623 213.934  1.00  0.00    -0.028 C 
ATOM     14  C   UNL     1      -7.948 -41.146 215.451  1.00  0.00     0.039 C 
BRANCH  13  15
ATOM     15  C   UNL     1      -5.006 -41.340 212.909  1.00  0.00     0.035 C 
BRANCH  15  16
ATOM     16  C   UNL     1      -3.612 -41.419 213.540  1.00  0.00     0.079 C 
BRANCH  16  17
ATOM     17  C   UNL     1      -2.590 -40.751 212.658  1.00  0.00     0.130 C 
ATOM     18  O   UNL     1      -2.811 -40.635 211.462  1.00  0.00    -0.300 OA
ATOM     19  C   UNL     1      -1.308 -40.210 213.218  1.00  0.00     0.087 C 
ENDBRANCH  16  17
ENDBRANCH  15  16
ENDBRANCH  13  15
ENDBRANCH  11  12
ENDBRANCH   1  11
TORSDOF 9
ENDMDL
MODEL 5
REMARK VINA RESULT:    -4.041      1.716      3.534
REMARK INTER + INTRA:          -8.437
REMARK INTER:                  -6.423
REMARK INTRA:                  -2.013
REMARK UNBOUND:                -2.269
REMARK SMILES CC(=O)CCC=C(C)CCC=C(C)CCC=C(C)C
REMARK SMILES IDX 10 1 11 2 12 3 13 4 14 5 15 6 16 7 18 8 17 9 19 10 9 11 7 12
REMARK SMILES IDX 6 13 8 14 5 15 4 16 2 17 3 18 1 19
REMARK H PARENT
REMARK Flexibility Score: inf
ROOT
ATOM      1  C   UNL     1      -3.426 -39.842 217.814  1.00  0.00     0.032 C 
ENDROOT
BRANCH   1   2
ATOM      2  C   UNL     1      -4.530 -39.973 218.835  1.00  0.00    -0.028 C 
ATOM      3  C   UNL     1      -5.319 -38.939 219.203  1.00  0.00    -0.077 C 
ATOM      4  C   UNL     1      -5.137 -37.561 218.614  1.00  0.00     0.039 C 
BRANCH   3   5
ATOM      5  C   UNL     1      -6.400 -39.168 220.237  1.00  0.00     0.034 C 
BRANCH   5   6
ATOM      6  C   UNL     1      -5.790 -39.562 221.587  1.00  0.00     0.032 C 
BRANCH   6   7
ATOM      7  C   UNL     1      -5.374 -38.338 222.363  1.00  0.00    -0.028 C 
ATOM      8  C   UNL     1      -3.826 -36.722 223.377  1.00  0.00     0.039 C 
ATOM      9  C   UNL     1      -4.091 -37.996 222.620  1.00  0.00    -0.080 C 
ATOM     10  C   UNL     1      -2.931 -38.862 222.187  1.00  0.00     0.039 C 
ENDBRANCH   6   7
ENDBRANCH   5   6
ENDBRANCH   3   5
ENDBRANCH   1   2
BRANCH   1  11
ATOM     11  C   UNL     1      -3.928 -40.184 216.407  1.00  0.00     0.034 C 
BRANCH  11  12
ATOM     12  C   UNL     1      -3.892 -38.960 215.514  1.00  0.00    -0.077 C 
ATOM     13  C   UNL     1      -5.001 -38.428 214.949  1.00  0.00    -0.028 C 
ATOM     14  C   UNL     1      -2.557 -38.343 215.186  1.00  0.00     0.039 C 
BRANCH  13  15
ATOM     15  C   UNL     1      -6.408 -38.918 215.185  1.00  0.00     0.035 C 
BRANCH  15  16
ATOM     16  C   UNL     1      -7.038 -39.416 213.881  1.00  0.00     0.079 C 
BRANCH  16  17
ATOM     17  C   UNL     1      -6.538 -40.794 213.540  1.00  0.00     0.130 C 
ATOM     18  O   UNL     1      -6.037 -41.000 212.445  1.00  0.00    -0.300 OA
ATOM     19  C   UNL     1      -6.630 -41.924 214.523  1.00  0.00     0.087 C 
ENDBRANCH  16  17
ENDBRANCH  15  16
ENDBRANCH  13  15
ENDBRANCH  11  12
ENDBRANCH   1  11
TORSDOF 9
ENDMDL
MODEL 6
REMARK VINA RESULT:    -4.040      3.734      8.046
REMARK INTER + INTRA:          -8.435
REMARK INTER:                  -7.222
REMARK INTRA:                  -1.213
REMARK UNBOUND:                -2.269
REMARK SMILES CC(=O)CCC=C(C)CCC=C(C)CCC=C(C)C
REMARK SMILES IDX 10 1 11 2 12 3 13 4 14 5 15 6 16 7 18 8 17 9 19 10 9 11 7 12
REMARK SMILES IDX 6 13 8 14 5 15 4 16 2 17 3 18 1 19
REMARK H PARENT
REMARK Flexibility Score: inf
ROOT
ATOM      1  C   UNL     1      -4.786 -38.575 221.937  1.00  0.00     0.032 C 
ENDROOT
BRANCH   1   2
ATOM      2  C   UNL     1      -5.349 -39.548 220.930  1.00  0.00    -0.028 C 
ATOM      3  C   UNL     1      -5.655 -39.201 219.661  1.00  0.00    -0.077 C 
ATOM      4  C   UNL     1      -5.461 -37.789 219.162  1.00  0.00     0.039 C 
BRANCH   3   5
ATOM      5  C   UNL     1      -6.217 -40.249 218.724  1.00  0.00     0.034 C 
BRANCH   5   6
ATOM      6  C   UNL     1      -5.419 -40.296 217.416  1.00  0.00     0.032 C 
BRANCH   6   7
ATOM      7  C   UNL     1      -6.293 -39.935 216.242  1.00  0.00    -0.028 C 
ATOM      8  C   UNL     1      -6.909 -38.825 214.138  1.00  0.00     0.039 C 
ATOM      9  C   UNL     1      -5.947 -39.058 215.274  1.00  0.00    -0.080 C 
ATOM     10  C   UNL     1      -4.640 -38.301 215.311  1.00  0.00     0.039 C 
ENDBRANCH   6   7
ENDBRANCH   5   6
ENDBRANCH   3   5
ENDBRANCH   1   2
BRANCH   1  11
ATOM     11  C   UNL     1      -5.892 -37.996 222.827  1.00  0.00     0.034 C 
BRANCH  11  12
ATOM     12  C   UNL     1      -5.530 -38.141 224.292  1.00  0.00    -0.077 C 
ATOM     13  C   UNL     1      -5.867 -37.223 225.228  1.00  0.00    -0.028 C 
ATOM     14  C   UNL     1      -4.702 -39.325 224.718  1.00  0.00     0.039 C 
BRANCH  13  15
ATOM     15  C   UNL     1      -6.700 -35.994 224.968  1.00  0.00     0.035 C 
BRANCH  15  16
ATOM     16  C   UNL     1      -5.905 -34.721 225.278  1.00  0.00     0.079 C 
BRANCH  16  17
ATOM     17  C   UNL     1      -5.440 -34.062 224.007  1.00  0.00     0.130 C 
ATOM     18  O   UNL     1      -6.052 -33.099 223.569  1.00  0.00    -0.300 OA
ATOM     19  C   UNL     1      -4.230 -34.554 223.269  1.00  0.00     0.087 C 
ENDBRANCH  16  17
ENDBRANCH  15  16
ENDBRANCH  13  15
ENDBRANCH  11  12
ENDBRANCH   1  11
TORSDOF 9
ENDMDL
MODEL 7
REMARK VINA RESULT:    -4.026      1.402      2.259
REMARK INTER + INTRA:          -8.412
REMARK INTER:                  -6.232
REMARK INTRA:                  -2.180
REMARK UNBOUND:                -2.269
REMARK SMILES CC(=O)CCC=C(C)CCC=C(C)CCC=C(C)C
REMARK SMILES IDX 10 1 11 2 12 3 13 4 14 5 15 6 16 7 18 8 17 9 19 10 9 11 7 12
REMARK SMILES IDX 6 13 8 14 5 15 4 16 2 17 3 18 1 19
REMARK H PARENT
REMARK Flexibility Score: inf
ROOT
ATOM      1  C   UNL     1      -4.725 -38.347 216.771  1.00  0.00     0.032 C 
ENDROOT
BRANCH   1   2
ATOM      2  C   UNL     1      -4.205 -39.586 217.459  1.00  0.00    -0.028 C 
ATOM      3  C   UNL     1      -5.011 -40.484 218.067  1.00  0.00    -0.077 C 
ATOM      4  C   UNL     1      -6.509 -40.299 218.107  1.00  0.00     0.039 C 
BRANCH   3   5
ATOM      5  C   UNL     1      -4.394 -41.696 218.733  1.00  0.00     0.034 C 
BRANCH   5   6
ATOM      6  C   UNL     1      -4.520 -41.604 220.257  1.00  0.00     0.032 C 
BRANCH   6   7
ATOM      7  C   UNL     1      -3.317 -40.919 220.854  1.00  0.00    -0.028 C 
ATOM      8  C   UNL     1      -2.046 -39.110 221.927  1.00  0.00     0.039 C 
ATOM      9  C   UNL     1      -3.315 -39.650 221.321  1.00  0.00    -0.080 C 
ATOM     10  C   UNL     1      -4.536 -38.764 221.235  1.00  0.00     0.039 C 
ENDBRANCH   6   7
ENDBRANCH   5   6
ENDBRANCH   3   5
ENDBRANCH   1   2
BRANCH   1  11
ATOM     11  C   UNL     1      -4.529 -38.432 215.253  1.00  0.00     0.034 C 
BRANCH  11  12
ATOM     12  C   UNL     1      -5.599 -39.300 214.623  1.00  0.00    -0.077 C 
ATOM     13  C   UNL     1      -5.345 -40.526 214.108  1.00  0.00    -0.028 C 
ATOM     14  C   UNL     1      -6.997 -38.751 214.503  1.00  0.00     0.039 C 
BRANCH  13  15
ATOM     15  C   UNL     1      -4.007 -41.220 214.158  1.00  0.00     0.035 C 
BRANCH  15  16
ATOM     16  C   UNL     1      -3.250 -41.042 212.838  1.00  0.00     0.079 C 
BRANCH  16  17
ATOM     17  C   UNL     1      -1.971 -40.279 213.057  1.00  0.00     0.130 C 
ATOM     18  O   UNL     1      -1.376 -39.812 212.097  1.00  0.00    -0.300 OA
ATOM     19  C   UNL     1      -1.413 -40.067 214.433  1.00  0.00     0.087 C 
ENDBRANCH  16  17
ENDBRANCH  15  16
ENDBRANCH  13  15
ENDBRANCH  11  12
ENDBRANCH   1  11
TORSDOF 9
ENDMDL
MODEL 8
REMARK VINA RESULT:    -4.012     12.058     14.828
REMARK INTER + INTRA:          -8.391
REMARK INTER:                  -6.264
REMARK INTRA:                  -2.127
REMARK UNBOUND:                -2.269
REMARK SMILES CC(=O)CCC=C(C)CCC=C(C)CCC=C(C)C
REMARK SMILES IDX 10 1 11 2 12 3 13 4 14 5 15 6 16 7 18 8 17 9 19 10 9 11 7 12
REMARK SMILES IDX 6 13 8 14 5 15 4 16 2 17 3 18 1 19
REMARK H PARENT
REMARK Flexibility Score: inf
ROOT
ATOM      1  C   UNL     1     -15.576 -37.923 210.657  1.00  0.00     0.032 C 
ENDROOT
BRANCH   1   2
ATOM      2  C   UNL     1     -15.527 -38.431 209.236  1.00  0.00    -0.028 C 
ATOM      3  C   UNL     1     -15.176 -39.696 208.918  1.00  0.00    -0.077 C 
ATOM      4  C   UNL     1     -14.793 -40.699 209.981  1.00  0.00     0.039 C 
BRANCH   3   5
ATOM      5  C   UNL     1     -15.154 -40.112 207.463  1.00  0.00     0.034 C 
BRANCH   5   6
ATOM      6  C   UNL     1     -13.835 -40.811 207.115  1.00  0.00     0.032 C 
BRANCH   6   7
ATOM      7  C   UNL     1     -12.669 -39.872 207.289  1.00  0.00    -0.028 C 
ATOM      8  C   UNL     1     -10.318 -39.157 207.264  1.00  0.00     0.039 C 
ATOM      9  C   UNL     1     -11.376 -40.214 207.088  1.00  0.00    -0.080 C 
ATOM     10  C   UNL     1     -10.970 -41.620 206.714  1.00  0.00     0.039 C 
ENDBRANCH   6   7
ENDBRANCH   5   6
ENDBRANCH   3   5
ENDBRANCH   1   2
BRANCH   1  11
ATOM     11  C   UNL     1     -17.021 -37.820 211.159  1.00  0.00     0.034 C 
BRANCH  11  12
ATOM     12  C   UNL     1     -17.463 -39.125 211.789  1.00  0.00    -0.077 C 
ATOM     13  C   UNL     1     -18.549 -39.816 211.368  1.00  0.00    -0.028 C 
ATOM     14  C   UNL     1     -16.702 -39.648 212.980  1.00  0.00     0.039 C 
BRANCH  13  15
ATOM     15  C   UNL     1     -19.406 -39.435 210.188  1.00  0.00     0.035 C 
BRANCH  15  16
ATOM     16  C   UNL     1     -18.876 -40.075 208.900  1.00  0.00     0.079 C 
BRANCH  16  17
ATOM     17  C   UNL     1     -18.888 -39.082 207.769  1.00  0.00     0.130 C 
ATOM     18  O   UNL     1     -18.859 -39.484 206.615  1.00  0.00    -0.300 OA
ATOM     19  C   UNL     1     -18.946 -37.605 208.025  1.00  0.00     0.087 C 
ENDBRANCH  16  17
ENDBRANCH  15  16
ENDBRANCH  13  15
ENDBRANCH  11  12
ENDBRANCH   1  11
TORSDOF 9
ENDMDL
