MODEL 1
REMARK VINA RESULT:    -3.505      0.000      0.000
REMARK INTER + INTRA:          -4.065
REMARK INTER:                  -4.018
REMARK INTRA:                  -0.047
REMARK UNBOUND:                -0.047
REMARK SMILES CC(C)[C@H]([NH3+])C(=O)[O-]
REMARK SMILES IDX 4 1 5 2 6 6 7 7 8 8 2 9 1 10 3 11
REMARK H PARENT 5 3 5 4 5 5
REMARK Flexibility Score: inf
ROOT
ATOM      1  C   UNL     1      -5.056  12.342  17.013  1.00  0.00     0.230 C 
ENDROOT
BRANCH   1   2
ATOM      2  N   UNL     1      -4.853  12.660  15.592  1.00  0.00    -0.350 N 
ATOM      3  H   UNL     1      -5.779  12.835  15.138  1.00  0.00     0.345 HD
ATOM      4  H   UNL     1      -4.401  11.852  15.105  1.00  0.00     0.345 HD
ATOM      5  H   UNL     1      -4.258  13.511  15.472  1.00  0.00     0.345 HD
ENDBRANCH   1   2
BRANCH   1   6
ATOM      6  C   UNL     1      -3.839  11.659  17.591  1.00  0.00     0.099 C 
ATOM      7  O   UNL     1      -3.661  10.421  17.437  1.00  0.00    -0.544 OA
ATOM      8  O   UNL     1      -2.919  12.395  18.328  1.00  0.00    -0.544 OA
ENDBRANCH   1   6
BRANCH   1   9
ATOM      9  C   UNL     1      -6.368  11.534  17.244  1.00  0.00     0.047 C 
ATOM     10  C   UNL     1      -7.486  12.350  17.915  1.00  0.00     0.014 C 
ATOM     11  C   UNL     1      -6.882  10.918  15.934  1.00  0.00     0.014 C 
ENDBRANCH   1   9
TORSDOF 3
ENDMDL
MODEL 2
REMARK VINA RESULT:    -3.451      1.496      2.154
REMARK INTER + INTRA:          -4.003
REMARK INTER:                  -3.944
REMARK INTRA:                  -0.059
REMARK UNBOUND:                -0.047
REMARK SMILES CC(C)[C@H]([NH3+])C(=O)[O-]
REMARK SMILES IDX 4 1 5 2 6 6 7 7 8 8 2 9 1 10 3 11
REMARK H PARENT 5 3 5 4 5 5
REMARK Flexibility Score: inf
ROOT
ATOM      1  C   UNL     1      -4.790  11.401  16.762  1.00  0.00     0.230 C 
ENDROOT
BRANCH   1   2
ATOM      2  N   UNL     1      -5.621  10.246  17.135  1.00  0.00    -0.350 N 
ATOM      3  H   UNL     1      -5.011   9.487  17.519  1.00  0.00     0.345 HD
ATOM      4  H   UNL     1      -6.114   9.871  16.292  1.00  0.00     0.345 HD
ATOM      5  H   UNL     1      -6.328  10.502  17.861  1.00  0.00     0.345 HD
ENDBRANCH   1   2
BRANCH   1   6
ATOM      6  C   UNL     1      -3.503  11.415  17.552  1.00  0.00     0.099 C 
ATOM      7  O   UNL     1      -3.240  12.363  18.339  1.00  0.00    -0.544 OA
ATOM      8  O   UNL     1      -2.581  10.388  17.388  1.00  0.00    -0.544 OA
ENDBRANCH   1   6
BRANCH   1   9
ATOM      9  C   UNL     1      -5.580  12.740  16.870  1.00  0.00     0.047 C 
ATOM     10  C   UNL     1      -5.827  13.422  15.514  1.00  0.00     0.014 C 
ATOM     11  C   UNL     1      -6.911  12.545  17.610  1.00  0.00     0.014 C 
ENDBRANCH   1   9
TORSDOF 3
ENDMDL
MODEL 3
REMARK VINA RESULT:    -3.410      1.571      2.102
REMARK INTER + INTRA:          -3.955
REMARK INTER:                  -3.902
REMARK INTRA:                  -0.053
REMARK UNBOUND:                -0.047
REMARK SMILES CC(C)[C@H]([NH3+])C(=O)[O-]
REMARK SMILES IDX 4 1 5 2 6 6 7 7 8 8 2 9 1 10 3 11
REMARK H PARENT 5 3 5 4 5 5
REMARK Flexibility Score: inf
ROOT
ATOM      1  C   UNL     1      -4.755  11.517  17.427  1.00  0.00     0.230 C 
ENDROOT
BRANCH   1   2
ATOM      2  N   UNL     1      -3.550  11.824  16.641  1.00  0.00    -0.350 N 
ATOM      3  H   UNL     1      -3.507  12.852  16.456  1.00  0.00     0.345 HD
ATOM      4  H   UNL     1      -3.586  11.329  15.720  1.00  0.00     0.345 HD
ATOM      5  H   UNL     1      -2.681  11.541  17.149  1.00  0.00     0.345 HD
ENDBRANCH   1   2
BRANCH   1   6
ATOM      6  C   UNL     1      -4.778  10.062  17.830  1.00  0.00     0.099 C 
ATOM      7  O   UNL     1      -3.830   9.561  18.492  1.00  0.00    -0.544 OA
ATOM      8  O   UNL     1      -5.840   9.255  17.441  1.00  0.00    -0.544 OA
ENDBRANCH   1   6
BRANCH   1   9
ATOM      9  C   UNL     1      -6.054  11.961  16.690  1.00  0.00     0.047 C 
ATOM     10  C   UNL     1      -7.108  12.587  17.619  1.00  0.00     0.014 C 
ATOM     11  C   UNL     1      -5.739  12.919  15.531  1.00  0.00     0.014 C 
ENDBRANCH   1   9
TORSDOF 3
ENDMDL
MODEL 4
REMARK VINA RESULT:    -3.394      2.490      2.934
REMARK INTER + INTRA:          -3.938
REMARK INTER:                  -3.882
REMARK INTRA:                  -0.056
REMARK UNBOUND:                -0.047
REMARK SMILES CC(C)[C@H]([NH3+])C(=O)[O-]
REMARK SMILES IDX 4 1 5 2 6 6 7 7 8 8 2 9 1 10 3 11
REMARK H PARENT 5 3 5 4 5 5
REMARK Flexibility Score: inf
ROOT
ATOM      1  C   UNL     1      -5.266  11.787  16.348  1.00  0.00     0.230 C 
ENDROOT
BRANCH   1   2
ATOM      2  N   UNL     1      -3.842  11.953  16.675  1.00  0.00    -0.350 N 
ATOM      3  H   UNL     1      -3.584  12.964  16.605  1.00  0.00     0.345 HD
ATOM      4  H   UNL     1      -3.253  11.420  15.995  1.00  0.00     0.345 HD
ATOM      5  H   UNL     1      -3.631  11.623  17.644  1.00  0.00     0.345 HD
ENDBRANCH   1   2
BRANCH   1   6
ATOM      6  C   UNL     1      -5.974  13.121  16.331  1.00  0.00     0.099 C 
ATOM      7  O   UNL     1      -6.631  13.515  17.332  1.00  0.00    -0.544 OA
ATOM      8  O   UNL     1      -5.928  13.913  15.190  1.00  0.00    -0.544 OA
ENDBRANCH   1   6
BRANCH   1   9
ATOM      9  C   UNL     1      -5.956  10.748  17.283  1.00  0.00     0.047 C 
ATOM     10  C   UNL     1      -7.068   9.940  16.593  1.00  0.00     0.014 C 
ATOM     11  C   UNL     1      -4.930   9.796  17.915  1.00  0.00     0.014 C 
ENDBRANCH   1   9
TORSDOF 3
ENDMDL
MODEL 5
REMARK VINA RESULT:    -3.349      2.212      2.417
REMARK INTER + INTRA:          -3.885
REMARK INTER:                  -3.839
REMARK INTRA:                  -0.046
REMARK UNBOUND:                -0.047
REMARK SMILES CC(C)[C@H]([NH3+])C(=O)[O-]
REMARK SMILES IDX 4 1 5 2 6 6 7 7 8 8 2 9 1 10 3 11
REMARK H PARENT 5 3 5 4 5 5
REMARK Flexibility Score: inf
ROOT
ATOM      1  C   UNL     1      -3.118  11.380  17.450  1.00  0.00     0.230 C 
ENDROOT
BRANCH   1   2
ATOM      2  N   UNL     1      -2.748  10.017  17.038  1.00  0.00    -0.350 N 
ATOM      3  H   UNL     1      -2.313   9.515  17.846  1.00  0.00     0.345 HD
ATOM      4  H   UNL     1      -2.047  10.054  16.263  1.00  0.00     0.345 HD
ATOM      5  H   UNL     1      -3.583   9.474  16.721  1.00  0.00     0.345 HD
ENDBRANCH   1   2
BRANCH   1   6
ATOM      6  C   UNL     1      -2.464  11.742  18.762  1.00  0.00     0.099 C 
ATOM      7  O   UNL     1      -2.421  10.913  19.710  1.00  0.00    -0.544 OA
ATOM      8  O   UNL     1      -1.931  13.012  18.941  1.00  0.00    -0.544 OA
ENDBRANCH   1   6
BRANCH   1   9
ATOM      9  C   UNL     1      -4.663  11.579  17.469  1.00  0.00     0.047 C 
ATOM     10  C   UNL     1      -5.201  12.356  16.255  1.00  0.00     0.014 C 
ATOM     11  C   UNL     1      -5.398  10.237  17.602  1.00  0.00     0.014 C 
ENDBRANCH   1   9
TORSDOF 3
ENDMDL
MODEL 6
REMARK VINA RESULT:    -3.301      2.237      3.351
REMARK INTER + INTRA:          -3.831
REMARK INTER:                  -3.784
REMARK INTRA:                  -0.047
REMARK UNBOUND:                -0.047
REMARK SMILES CC(C)[C@H]([NH3+])C(=O)[O-]
REMARK SMILES IDX 4 1 5 2 6 6 7 7 8 8 2 9 1 10 3 11
REMARK H PARENT 5 3 5 4 5 5
REMARK Flexibility Score: inf
ROOT
ATOM      1  C   UNL     1      -5.275  11.587  16.720  1.00  0.00     0.230 C 
ENDROOT
BRANCH   1   2
ATOM      2  N   UNL     1      -4.573  12.479  15.785  1.00  0.00    -0.350 N 
ATOM      3  H   UNL     1      -5.210  12.724  14.993  1.00  0.00     0.345 HD
ATOM      4  H   UNL     1      -3.734  11.995  15.389  1.00  0.00     0.345 HD
ATOM      5  H   UNL     1      -4.270  13.362  16.254  1.00  0.00     0.345 HD
ENDBRANCH   1   2
BRANCH   1   6
ATOM      6  C   UNL     1      -6.485  12.271  17.311  1.00  0.00     0.099 C 
ATOM      7  O   UNL     1      -6.558  13.528  17.353  1.00  0.00    -0.544 OA
ATOM      8  O   UNL     1      -7.518  11.509  17.843  1.00  0.00    -0.544 OA
ENDBRANCH   1   6
BRANCH   1   9
ATOM      9  C   UNL     1      -4.314  11.016  17.806  1.00  0.00     0.047 C 
ATOM     10  C   UNL     1      -4.428   9.493  17.993  1.00  0.00     0.014 C 
ATOM     11  C   UNL     1      -2.855  11.402  17.520  1.00  0.00     0.014 C 
ENDBRANCH   1   9
TORSDOF 3
ENDMDL
MODEL 7
REMARK VINA RESULT:    -3.284      2.388      3.457
REMARK INTER + INTRA:          -3.811
REMARK INTER:                  -3.760
REMARK INTRA:                  -0.051
REMARK UNBOUND:                -0.047
REMARK SMILES CC(C)[C@H]([NH3+])C(=O)[O-]
REMARK SMILES IDX 4 1 5 2 6 6 7 7 8 8 2 9 1 10 3 11
REMARK H PARENT 5 3 5 4 5 5
REMARK Flexibility Score: inf
ROOT
ATOM      1  C   UNL     1      -4.767  11.316  17.595  1.00  0.00     0.230 C 
ENDROOT
BRANCH   1   2
ATOM      2  N   UNL     1      -5.278   9.999  17.184  1.00  0.00    -0.350 N 
ATOM      3  H   UNL     1      -4.773   9.682  16.325  1.00  0.00     0.345 HD
ATOM      4  H   UNL     1      -6.297  10.066  16.956  1.00  0.00     0.345 HD
ATOM      5  H   UNL     1      -5.140   9.284  17.934  1.00  0.00     0.345 HD
ENDBRANCH   1   2
BRANCH   1   6
ATOM      6  C   UNL     1      -5.466  12.423  16.844  1.00  0.00     0.099 C 
ATOM      7  O   UNL     1      -5.189  12.658  15.637  1.00  0.00    -0.544 OA
ATOM      8  O   UNL     1      -6.403  13.215  17.495  1.00  0.00    -0.544 OA
ENDBRANCH   1   6
BRANCH   1   9
ATOM      9  C   UNL     1      -3.214  11.394  17.481  1.00  0.00     0.047 C 
ATOM     10  C   UNL     1      -2.560  12.276  18.559  1.00  0.00     0.014 C 
ATOM     11  C   UNL     1      -2.582   9.995  17.492  1.00  0.00     0.014 C 
ENDBRANCH   1   9
TORSDOF 3
ENDMDL
MODEL 8
REMARK VINA RESULT:    -3.091      2.398      4.022
REMARK INTER + INTRA:          -3.590
REMARK INTER:                  -3.543
REMARK INTRA:                  -0.047
REMARK UNBOUND:                -0.047
REMARK SMILES CC(C)[C@H]([NH3+])C(=O)[O-]
REMARK SMILES IDX 4 1 5 2 6 6 7 7 8 8 2 9 1 10 3 11
REMARK H PARENT 5 3 5 4 5 5
REMARK Flexibility Score: inf
ROOT
ATOM      1  C   UNL     1      -3.175  11.601  17.764  1.00  0.00     0.230 C 
ENDROOT
BRANCH   1   2
ATOM      2  N   UNL     1      -2.723  12.719  18.605  1.00  0.00    -0.350 N 
ATOM      3  H   UNL     1      -3.459  12.941  19.315  1.00  0.00     0.345 HD
ATOM      4  H   UNL     1      -2.571  13.572  18.018  1.00  0.00     0.345 HD
ATOM      5  H   UNL     1      -1.837  12.486  19.107  1.00  0.00     0.345 HD
ENDBRANCH   1   2
BRANCH   1   6
ATOM      6  C   UNL     1      -4.630  11.762  17.392  1.00  0.00     0.099 C 
ATOM      7  O   UNL     1      -5.144  12.906  17.277  1.00  0.00    -0.544 OA
ATOM      8  O   UNL     1      -5.423  10.636  17.203  1.00  0.00    -0.544 OA
ENDBRANCH   1   6
BRANCH   1   9
ATOM      9  C   UNL     1      -2.868  10.222  18.421  1.00  0.00     0.047 C 
ATOM     10  C   UNL     1      -2.182   9.225  17.472  1.00  0.00     0.014 C 
ATOM     11  C   UNL     1      -2.036  10.386  19.701  1.00  0.00     0.014 C 
ENDBRANCH   1   9
TORSDOF 3
ENDMDL
MODEL 9
REMARK VINA RESULT:    -3.089      2.854      3.931
REMARK INTER + INTRA:          -3.587
REMARK INTER:                  -3.564
REMARK INTRA:                  -0.023
REMARK UNBOUND:                -0.047
REMARK SMILES CC(C)[C@H]([NH3+])C(=O)[O-]
REMARK SMILES IDX 4 1 5 2 6 6 7 7 8 8 2 9 1 10 3 11
REMARK H PARENT 5 3 5 4 5 5
REMARK Flexibility Score: inf
ROOT
ATOM      1  C   UNL     1      -2.385   9.966  17.973  1.00  0.00     0.230 C 
ENDROOT
BRANCH   1   2
ATOM      2  N   UNL     1      -2.019   9.259  16.736  1.00  0.00    -0.350 N 
ATOM      3  H   UNL     1      -1.588   9.934  16.063  1.00  0.00     0.345 HD
ATOM      4  H   UNL     1      -2.873   8.855  16.288  1.00  0.00     0.345 HD
ATOM      5  H   UNL     1      -1.333   8.493  16.923  1.00  0.00     0.345 HD
ENDBRANCH   1   2
BRANCH   1   6
ATOM      6  C   UNL     1      -3.456   9.214  18.726  1.00  0.00     0.099 C 
ATOM      7  O   UNL     1      -3.536   9.289  19.981  1.00  0.00    -0.544 OA
ATOM      8  O   UNL     1      -4.347   8.403  18.033  1.00  0.00    -0.544 OA
ENDBRANCH   1   6
BRANCH   1   9
ATOM      9  C   UNL     1      -2.770  11.451  17.697  1.00  0.00     0.047 C 
ATOM     10  C   UNL     1      -4.275  11.665  17.462  1.00  0.00     0.014 C 
ATOM     11  C   UNL     1      -2.278  12.374  18.822  1.00  0.00     0.014 C 
ENDBRANCH   1   9
TORSDOF 3
ENDMDL
