MODEL 1
REMARK VINA RESULT:    -3.018      0.000      0.000
REMARK INTER + INTRA:          -4.362
REMARK INTER:                  -4.076
REMARK INTRA:                  -0.286
REMARK UNBOUND:                -0.286
REMARK SMILES CCCCCCC=CC(=O)[O-]
REMARK SMILES IDX 5 1 6 2 7 3 8 4 9 5 10 6 11 7 4 8 3 9 2 10 1 11
REMARK H PARENT
REMARK Flexibility Score: inf
ROOT
ATOM      1  C   UNL     1     -14.135  59.073  -9.417  1.00  0.00     0.004 C 
ENDROOT
BRANCH   1   2
ATOM      2  C   UNL     1     -14.445  60.490  -9.929  1.00  0.00     0.027 C 
BRANCH   2   3
ATOM      3  C   UNL     1     -13.201  61.318 -10.115  1.00  0.00    -0.025 C 
ATOM      4  C   UNL     1     -13.069  62.622  -9.823  1.00  0.00     0.020 C 
BRANCH   4   5
ATOM      5  C   UNL     1     -14.094  63.498  -9.218  1.00  0.00     0.064 C 
ATOM      6  O   UNL     1     -13.933  63.895  -8.034  1.00  0.00    -0.545 OA
ATOM      7  O   UNL     1     -15.243  63.877  -9.900  1.00  0.00    -0.545 OA
ENDBRANCH   4   5
ENDBRANCH   2   3
ENDBRANCH   1   2
BRANCH   1   8
ATOM      8  C   UNL     1     -12.659  58.697  -9.629  1.00  0.00     0.000 C 
BRANCH   8   9
ATOM      9  C   UNL     1     -12.483  57.252 -10.125  1.00  0.00    -0.000 C 
BRANCH   9  10
ATOM     10  C   UNL     1     -11.890  56.326  -9.052  1.00  0.00    -0.003 C 
ATOM     11  C   UNL     1     -12.130  54.860  -9.399  1.00  0.00     0.004 C 
ENDBRANCH   9  10
ENDBRANCH   8   9
ENDBRANCH   1   8
TORSDOF 6
ENDMDL
MODEL 2
REMARK VINA RESULT:    -0.910      1.422      2.530
REMARK INTER + INTRA:          -1.515
REMARK INTER:                  -1.844
REMARK INTRA:                   0.329
REMARK UNBOUND:                -0.286
REMARK SMILES CCCCCCC=CC(=O)[O-]
REMARK SMILES IDX 5 1 6 2 7 3 8 4 9 5 10 6 11 7 4 8 3 9 2 10 1 11
REMARK H PARENT
REMARK Flexibility Score: inf
ROOT
ATOM      1  C   UNL     1     -11.943  61.782  -8.379  1.00  0.00     0.004 C 
ENDROOT
BRANCH   1   2
ATOM      2  C   UNL     1     -12.091  63.247  -8.821  1.00  0.00     0.027 C 
BRANCH   2   3
ATOM      3  C   UNL     1     -12.918  63.389 -10.072  1.00  0.00    -0.025 C 
ATOM      4  C   UNL     1     -14.249  63.561 -10.125  1.00  0.00     0.020 C 
BRANCH   4   5
ATOM      5  C   UNL     1     -15.166  63.697  -8.974  1.00  0.00     0.064 C 
ATOM      6  O   UNL     1     -14.753  63.382  -7.827  1.00  0.00    -0.545 OA
ATOM      7  O   UNL     1     -16.476  64.132  -9.117  1.00  0.00    -0.545 OA
ENDBRANCH   4   5
ENDBRANCH   2   3
ENDBRANCH   1   2
BRANCH   1   8
ATOM      8  C   UNL     1     -12.086  60.808  -9.561  1.00  0.00     0.000 C 
BRANCH   8   9
ATOM      9  C   UNL     1     -13.452  60.102  -9.583  1.00  0.00    -0.000 C 
BRANCH   9  10
ATOM     10  C   UNL     1     -13.367  58.666 -10.123  1.00  0.00    -0.003 C 
ATOM     11  C   UNL     1     -12.596  57.764  -9.164  1.00  0.00     0.004 C 
ENDBRANCH   9  10
ENDBRANCH   8   9
ENDBRANCH   1   8
TORSDOF 6
ENDMDL
