MODEL 1
REMARK VINA RESULT:    -4.190      0.000      0.000
REMARK INTER + INTRA:          -9.532
REMARK INTER:                  -7.864
REMARK INTRA:                  -1.668
REMARK UNBOUND:                -1.668
REMARK SMILES O=C([O-])CCCCCCCCCCCCCCC(=O)[O-]
REMARK SMILES IDX 10 1 9 2 8 3 7 4 6 5 5 6 4 7 2 8 1 9 3 10 11 11 12 12 13 13
REMARK SMILES IDX 14 14 15 15 16 16 17 17 18 18 19 19 20 20
REMARK H PARENT
REMARK Flexibility Score: inf
ROOT
ATOM      1  C   UNL     1      13.350 -12.619  12.999  1.00  0.00     0.000 C 
ENDROOT
BRANCH   1   2
ATOM      2  C   UNL     1      14.491 -13.292  12.218  1.00  0.00     0.000 C 
BRANCH   2   3
ATOM      3  C   UNL     1      15.881 -12.810  12.662  1.00  0.00     0.000 C 
BRANCH   3   4
ATOM      4  C   UNL     1      16.250 -11.492  11.966  1.00  0.00     0.000 C 
BRANCH   4   5
ATOM      5  C   UNL     1      17.274 -10.660  12.759  1.00  0.00     0.000 C 
BRANCH   5   6
ATOM      6  C   UNL     1      16.904  -9.177  12.946  1.00  0.00     0.006 C 
BRANCH   6   7
ATOM      7  C   UNL     1      18.078  -8.229  12.670  1.00  0.00     0.053 C 
BRANCH   7   8
ATOM      8  C   UNL     1      17.987  -7.018  13.544  1.00  0.00     0.041 C 
ATOM      9  O   UNL     1      17.559  -7.118  14.723  1.00  0.00    -0.550 OA
ATOM     10  O   UNL     1      18.422  -5.786  13.071  1.00  0.00    -0.550 OA
ENDBRANCH   7   8
ENDBRANCH   6   7
ENDBRANCH   5   6
ENDBRANCH   4   5
ENDBRANCH   3   4
ENDBRANCH   2   3
ENDBRANCH   1   2
BRANCH   1  11
ATOM     11  C   UNL     1      12.201 -12.158  12.085  1.00  0.00     0.000 C 
BRANCH  11  12
ATOM     12  C   UNL     1      12.104 -10.625  11.975  1.00  0.00     0.000 C 
BRANCH  12  13
ATOM     13  C   UNL     1      13.182  -9.845  12.751  1.00  0.00     0.000 C 
BRANCH  13  14
ATOM     14  C   UNL     1      13.596  -8.501  12.120  1.00  0.00     0.000 C 
BRANCH  14  15
ATOM     15  C   UNL     1      13.764  -7.359  13.145  1.00  0.00     0.000 C 
BRANCH  15  16
ATOM     16  C   UNL     1      14.538  -6.161  12.569  1.00  0.00     0.006 C 
BRANCH  16  17
ATOM     17  C   UNL     1      14.794  -5.076  13.622  1.00  0.00     0.053 C 
BRANCH  17  18
ATOM     18  C   UNL     1      13.515  -4.566  14.213  1.00  0.00     0.041 C 
ATOM     19  O   UNL     1      13.324  -4.620  15.456  1.00  0.00    -0.550 OA
ATOM     20  O   UNL     1      12.547  -4.003  13.390  1.00  0.00    -0.550 OA
ENDBRANCH  17  18
ENDBRANCH  16  17
ENDBRANCH  15  16
ENDBRANCH  14  15
ENDBRANCH  13  14
ENDBRANCH  12  13
ENDBRANCH  11  12
ENDBRANCH   1  11
TORSDOF 15
ENDMDL
MODEL 2
REMARK VINA RESULT:    -4.118      0.865      4.872
REMARK INTER + INTRA:          -9.397
REMARK INTER:                  -7.980
REMARK INTRA:                  -1.417
REMARK UNBOUND:                -1.668
REMARK SMILES O=C([O-])CCCCCCCCCCCCCCC(=O)[O-]
REMARK SMILES IDX 10 1 9 2 8 3 7 4 6 5 5 6 4 7 2 8 1 9 3 10 11 11 12 12 13 13
REMARK SMILES IDX 14 14 15 15 16 16 17 17 18 18 19 19 20 20
REMARK H PARENT
REMARK Flexibility Score: inf
ROOT
ATOM      1  C   UNL     1      11.799 -11.103  12.077  1.00  0.00     0.000 C 
ENDROOT
BRANCH   1   2
ATOM      2  C   UNL     1      12.341  -9.870  12.820  1.00  0.00     0.000 C 
BRANCH   2   3
ATOM      3  C   UNL     1      13.421  -9.122  12.022  1.00  0.00     0.000 C 
BRANCH   3   4
ATOM      4  C   UNL     1      14.114  -8.066  12.896  1.00  0.00     0.000 C 
BRANCH   4   5
ATOM      5  C   UNL     1      14.447  -6.775  12.127  1.00  0.00     0.000 C 
BRANCH   5   6
ATOM      6  C   UNL     1      15.112  -5.670  12.968  1.00  0.00     0.006 C 
BRANCH   6   7
ATOM      7  C   UNL     1      14.655  -5.677  14.432  1.00  0.00     0.053 C 
BRANCH   7   8
ATOM      8  C   UNL     1      13.578  -4.661  14.649  1.00  0.00     0.041 C 
ATOM      9  O   UNL     1      12.899  -4.241  13.676  1.00  0.00    -0.550 OA
ATOM     10  O   UNL     1      13.291  -4.216  15.933  1.00  0.00    -0.550 OA
ENDBRANCH   7   8
ENDBRANCH   6   7
ENDBRANCH   5   6
ENDBRANCH   4   5
ENDBRANCH   3   4
ENDBRANCH   2   3
ENDBRANCH   1   2
BRANCH   1  11
ATOM     11  C   UNL     1      12.368 -12.421  12.627  1.00  0.00     0.000 C 
BRANCH  11  12
ATOM     12  C   UNL     1      13.633 -12.884  11.880  1.00  0.00     0.000 C 
BRANCH  12  13
ATOM     13  C   UNL     1      14.736 -13.483  12.772  1.00  0.00     0.000 C 
BRANCH  13  14
ATOM     14  C   UNL     1      16.146 -12.904  12.548  1.00  0.00     0.000 C 
BRANCH  14  15
ATOM     15  C   UNL     1      16.151 -11.403  12.188  1.00  0.00     0.000 C 
BRANCH  15  16
ATOM     16  C   UNL     1      17.378 -10.667  12.754  1.00  0.00     0.006 C 
BRANCH  16  17
ATOM     17  C   UNL     1      17.317  -9.156  12.499  1.00  0.00     0.053 C 
BRANCH  17  18
ATOM     18  C   UNL     1      18.111  -8.392  13.513  1.00  0.00     0.041 C 
ATOM     19  O   UNL     1      18.395  -7.181  13.317  1.00  0.00    -0.550 OA
ATOM     20  O   UNL     1      18.512  -9.011  14.691  1.00  0.00    -0.550 OA
ENDBRANCH  17  18
ENDBRANCH  16  17
ENDBRANCH  15  16
ENDBRANCH  14  15
ENDBRANCH  13  14
ENDBRANCH  12  13
ENDBRANCH  11  12
ENDBRANCH   1  11
TORSDOF 15
ENDMDL
MODEL 3
REMARK VINA RESULT:    -3.996      2.672      6.624
REMARK INTER + INTRA:          -9.167
REMARK INTER:                  -7.014
REMARK INTRA:                  -2.154
REMARK UNBOUND:                -1.668
REMARK SMILES O=C([O-])CCCCCCCCCCCCCCC(=O)[O-]
REMARK SMILES IDX 10 1 9 2 8 3 7 4 6 5 5 6 4 7 2 8 1 9 3 10 11 11 12 12 13 13
REMARK SMILES IDX 14 14 15 15 16 16 17 17 18 18 19 19 20 20
REMARK H PARENT
REMARK Flexibility Score: inf
ROOT
ATOM      1  C   UNL     1      14.448  -5.722  15.960  1.00  0.00     0.000 C 
ENDROOT
BRANCH   1   2
ATOM      2  C   UNL     1      13.821  -4.451  15.365  1.00  0.00     0.000 C 
BRANCH   2   3
ATOM      3  C   UNL     1      13.218  -4.682  13.970  1.00  0.00     0.000 C 
BRANCH   3   4
ATOM      4  C   UNL     1      14.315  -4.687  12.894  1.00  0.00     0.000 C 
BRANCH   4   5
ATOM      5  C   UNL     1      14.336  -5.984  12.065  1.00  0.00     0.000 C 
BRANCH   5   6
ATOM      6  C   UNL     1      14.169  -7.280  12.879  1.00  0.00     0.006 C 
BRANCH   6   7
ATOM      7  C   UNL     1      14.169  -8.540  12.003  1.00  0.00     0.053 C 
BRANCH   7   8
ATOM      8  C   UNL     1      13.421  -9.645  12.679  1.00  0.00     0.041 C 
ATOM      9  O   UNL     1      12.298  -9.422  13.204  1.00  0.00    -0.550 OA
ATOM     10  O   UNL     1      13.941 -10.934  12.685  1.00  0.00    -0.550 OA
ENDBRANCH   7   8
ENDBRANCH   6   7
ENDBRANCH   5   6
ENDBRANCH   4   5
ENDBRANCH   3   4
ENDBRANCH   2   3
ENDBRANCH   1   2
BRANCH   1  11
ATOM     11  C   UNL     1      15.575  -5.413  16.960  1.00  0.00     0.000 C 
BRANCH  11  12
ATOM     12  C   UNL     1      16.920  -6.046  16.558  1.00  0.00     0.000 C 
BRANCH  12  13
ATOM     13  C   UNL     1      17.010  -6.515  15.093  1.00  0.00     0.000 C 
BRANCH  13  14
ATOM     14  C   UNL     1      17.727  -5.541  14.138  1.00  0.00     0.000 C 
BRANCH  14  15
ATOM     15  C   UNL     1      17.831  -6.056  12.687  1.00  0.00     0.000 C 
BRANCH  15  16
ATOM     16  C   UNL     1      18.580  -7.396  12.591  1.00  0.00     0.006 C 
BRANCH  16  17
ATOM     17  C   UNL     1      17.663  -8.542  12.146  1.00  0.00     0.053 C 
BRANCH  17  18
ATOM     18  C   UNL     1      17.725  -9.699  13.096  1.00  0.00     0.041 C 
ATOM     19  O   UNL     1      17.143 -10.780  12.819  1.00  0.00    -0.550 OA
ATOM     20  O   UNL     1      18.454  -9.592  14.275  1.00  0.00    -0.550 OA
ENDBRANCH  17  18
ENDBRANCH  16  17
ENDBRANCH  15  16
ENDBRANCH  14  15
ENDBRANCH  13  14
ENDBRANCH  12  13
ENDBRANCH  11  12
ENDBRANCH   1  11
TORSDOF 15
ENDMDL
MODEL 4
REMARK VINA RESULT:    -3.962      1.990      3.000
REMARK INTER + INTRA:          -9.105
REMARK INTER:                  -7.687
REMARK INTRA:                  -1.419
REMARK UNBOUND:                -1.668
REMARK SMILES O=C([O-])CCCCCCCCCCCCCCC(=O)[O-]
REMARK SMILES IDX 10 1 9 2 8 3 7 4 6 5 5 6 4 7 2 8 1 9 3 10 11 11 12 12 13 13
REMARK SMILES IDX 14 14 15 15 16 16 17 17 18 18 19 19 20 20
REMARK H PARENT
REMARK Flexibility Score: inf
ROOT
ATOM      1  C   UNL     1      15.659 -10.561  11.962  1.00  0.00     0.000 C 
ENDROOT
BRANCH   1   2
ATOM      2  C   UNL     1      16.902 -10.789  12.839  1.00  0.00     0.000 C 
BRANCH   2   3
ATOM      3  C   UNL     1      17.787  -9.539  12.953  1.00  0.00     0.000 C 
BRANCH   3   4
ATOM      4  C   UNL     1      16.969  -8.330  13.431  1.00  0.00     0.000 C 
BRANCH   4   5
ATOM      5  C   UNL     1      17.802  -7.324  14.245  1.00  0.00     0.000 C 
BRANCH   5   6
ATOM      6  C   UNL     1      17.450  -7.249  15.742  1.00  0.00     0.006 C 
BRANCH   6   7
ATOM      7  C   UNL     1      17.072  -5.833  16.197  1.00  0.00     0.053 C 
BRANCH   7   8
ATOM      8  C   UNL     1      16.739  -5.824  17.655  1.00  0.00     0.041 C 
ATOM      9  O   UNL     1      16.946  -4.793  18.347  1.00  0.00    -0.550 OA
ATOM     10  O   UNL     1      16.152  -6.940  18.240  1.00  0.00    -0.550 OA
ENDBRANCH   7   8
ENDBRANCH   6   7
ENDBRANCH   5   6
ENDBRANCH   4   5
ENDBRANCH   3   4
ENDBRANCH   2   3
ENDBRANCH   1   2
BRANCH   1  11
ATOM     11  C   UNL     1      14.456 -11.407  12.411  1.00  0.00     0.000 C 
BRANCH  11  12
ATOM     12  C   UNL     1      13.218 -10.555  12.744  1.00  0.00     0.000 C 
BRANCH  12  13
ATOM     13  C   UNL     1      13.134  -9.206  12.005  1.00  0.00     0.000 C 
BRANCH  13  14
ATOM     14  C   UNL     1      13.601  -7.984  12.819  1.00  0.00     0.000 C 
BRANCH  14  15
ATOM     15  C   UNL     1      14.195  -6.851  11.955  1.00  0.00     0.000 C 
BRANCH  15  16
ATOM     16  C   UNL     1      14.750  -5.695  12.804  1.00  0.00     0.006 C 
BRANCH  16  17
ATOM     17  C   UNL     1      14.203  -5.713  14.237  1.00  0.00     0.053 C 
BRANCH  17  18
ATOM     18  C   UNL     1      13.289  -4.554  14.493  1.00  0.00     0.041 C 
ATOM     19  O   UNL     1      13.063  -4.172  15.671  1.00  0.00    -0.550 OA
ATOM     20  O   UNL     1      12.710  -3.877  13.426  1.00  0.00    -0.550 OA
ENDBRANCH  17  18
ENDBRANCH  16  17
ENDBRANCH  15  16
ENDBRANCH  14  15
ENDBRANCH  13  14
ENDBRANCH  12  13
ENDBRANCH  11  12
ENDBRANCH   1  11
TORSDOF 15
ENDMDL
MODEL 5
REMARK VINA RESULT:    -3.950      2.215      5.147
REMARK INTER + INTRA:          -9.082
REMARK INTER:                  -7.864
REMARK INTRA:                  -1.218
REMARK UNBOUND:                -1.668
REMARK SMILES O=C([O-])CCCCCCCCCCCCCCC(=O)[O-]
REMARK SMILES IDX 10 1 9 2 8 3 7 4 6 5 5 6 4 7 2 8 1 9 3 10 11 11 12 12 13 13
REMARK SMILES IDX 14 14 15 15 16 16 17 17 18 18 19 19 20 20
REMARK H PARENT
REMARK Flexibility Score: inf
ROOT
ATOM      1  C   UNL     1      13.552  -9.126  11.876  1.00  0.00     0.000 C 
ENDROOT
BRANCH   1   2
ATOM      2  C   UNL     1      14.410  -8.269  12.821  1.00  0.00     0.000 C 
BRANCH   2   3
ATOM      3  C   UNL     1      13.703  -6.976  13.257  1.00  0.00     0.000 C 
BRANCH   3   4
ATOM      4  C   UNL     1      14.651  -5.772  13.149  1.00  0.00     0.000 C 
BRANCH   4   5
ATOM      5  C   UNL     1      15.912  -5.920  14.020  1.00  0.00     0.000 C 
BRANCH   5   6
ATOM      6  C   UNL     1      15.668  -5.834  15.538  1.00  0.00     0.006 C 
BRANCH   6   7
ATOM      7  C   UNL     1      16.937  -6.085  16.362  1.00  0.00     0.053 C 
BRANCH   7   8
ATOM      8  C   UNL     1      16.634  -6.004  17.825  1.00  0.00     0.041 C 
ATOM      9  O   UNL     1      15.906  -6.875  18.370  1.00  0.00    -0.550 OA
ATOM     10  O   UNL     1      17.196  -4.994  18.596  1.00  0.00    -0.550 OA
ENDBRANCH   7   8
ENDBRANCH   6   7
ENDBRANCH   5   6
ENDBRANCH   4   5
ENDBRANCH   3   4
ENDBRANCH   2   3
ENDBRANCH   1   2
BRANCH   1  11
ATOM     11  C   UNL     1      12.497  -9.956  12.626  1.00  0.00     0.000 C 
BRANCH  11  12
ATOM     12  C   UNL     1      12.424 -11.414  12.134  1.00  0.00     0.000 C 
BRANCH  12  13
ATOM     13  C   UNL     1      12.917 -12.469  13.143  1.00  0.00     0.000 C 
BRANCH  13  14
ATOM     14  C   UNL     1      14.205 -13.210  12.737  1.00  0.00     0.000 C 
BRANCH  14  15
ATOM     15  C   UNL     1      15.165 -12.363  11.875  1.00  0.00     0.000 C 
BRANCH  15  16
ATOM     16  C   UNL     1      16.233 -11.645  12.717  1.00  0.00     0.006 C 
BRANCH  16  17
ATOM     17  C   UNL     1      17.037 -10.632  11.892  1.00  0.00     0.053 C 
BRANCH  17  18
ATOM     18  C   UNL     1      17.651  -9.576  12.760  1.00  0.00     0.041 C 
ATOM     19  O   UNL     1      18.178  -9.886  13.861  1.00  0.00    -0.550 OA
ATOM     20  O   UNL     1      17.667  -8.252  12.337  1.00  0.00    -0.550 OA
ENDBRANCH  17  18
ENDBRANCH  16  17
ENDBRANCH  15  16
ENDBRANCH  14  15
ENDBRANCH  13  14
ENDBRANCH  12  13
ENDBRANCH  11  12
ENDBRANCH   1  11
TORSDOF 15
ENDMDL
MODEL 6
REMARK VINA RESULT:    -3.844      2.031      3.028
REMARK INTER + INTRA:          -8.884
REMARK INTER:                  -7.349
REMARK INTRA:                  -1.535
REMARK UNBOUND:                -1.668
REMARK SMILES O=C([O-])CCCCCCCCCCCCCCC(=O)[O-]
REMARK SMILES IDX 10 1 9 2 8 3 7 4 6 5 5 6 4 7 2 8 1 9 3 10 11 11 12 12 13 13
REMARK SMILES IDX 14 14 15 15 16 16 17 17 18 18 19 19 20 20
REMARK H PARENT
REMARK Flexibility Score: inf
ROOT
ATOM      1  C   UNL     1      12.149 -10.716  13.007  1.00  0.00     0.000 C 
ENDROOT
BRANCH   1   2
ATOM      2  C   UNL     1      12.568 -12.185  12.833  1.00  0.00     0.000 C 
BRANCH   2   3
ATOM      3  C   UNL     1      13.781 -12.351  11.903  1.00  0.00     0.000 C 
BRANCH   3   4
ATOM      4  C   UNL     1      14.816 -13.304  12.520  1.00  0.00     0.000 C 
BRANCH   4   5
ATOM      5  C   UNL     1      16.257 -12.769  12.424  1.00  0.00     0.000 C 
BRANCH   5   6
ATOM      6  C   UNL     1      16.378 -11.307  11.956  1.00  0.00     0.006 C 
BRANCH   6   7
ATOM      7  C   UNL     1      16.433 -10.310  13.121  1.00  0.00     0.053 C 
BRANCH   7   8
ATOM      8  C   UNL     1      17.692  -9.504  13.058  1.00  0.00     0.041 C 
ATOM      9  O   UNL     1      17.893  -8.715  12.098  1.00  0.00    -0.550 OA
ATOM     10  O   UNL     1      18.622  -9.588  14.087  1.00  0.00    -0.550 OA
ENDBRANCH   7   8
ENDBRANCH   6   7
ENDBRANCH   5   6
ENDBRANCH   4   5
ENDBRANCH   3   4
ENDBRANCH   2   3
ENDBRANCH   1   2
BRANCH   1  11
ATOM     11  C   UNL     1      12.925  -9.767  12.079  1.00  0.00     0.000 C 
BRANCH  11  12
ATOM     12  C   UNL     1      13.223  -8.404  12.732  1.00  0.00     0.000 C 
BRANCH  12  13
ATOM     13  C   UNL     1      14.484  -7.690  12.210  1.00  0.00     0.000 C 
BRANCH  13  14
ATOM     14  C   UNL     1      14.343  -6.167  12.024  1.00  0.00     0.000 C 
BRANCH  14  15
ATOM     15  C   UNL     1      15.343  -5.343  12.864  1.00  0.00     0.000 C 
BRANCH  15  16
ATOM     16  C   UNL     1      15.980  -6.168  13.995  1.00  0.00     0.006 C 
BRANCH  16  17
ATOM     17  C   UNL     1      15.472  -5.743  15.379  1.00  0.00     0.053 C 
BRANCH  17  18
ATOM     18  C   UNL     1      16.433  -6.127  16.462  1.00  0.00     0.041 C 
ATOM     19  O   UNL     1      16.200  -5.814  17.658  1.00  0.00    -0.550 OA
ATOM     20  O   UNL     1      17.572  -6.861  16.151  1.00  0.00    -0.550 OA
ENDBRANCH  17  18
ENDBRANCH  16  17
ENDBRANCH  15  16
ENDBRANCH  14  15
ENDBRANCH  13  14
ENDBRANCH  12  13
ENDBRANCH  11  12
ENDBRANCH   1  11
TORSDOF 15
ENDMDL
MODEL 7
REMARK VINA RESULT:    -3.760      2.803      5.951
REMARK INTER + INTRA:          -8.725
REMARK INTER:                  -7.040
REMARK INTRA:                  -1.685
REMARK UNBOUND:                -1.668
REMARK SMILES O=C([O-])CCCCCCCCCCCCCCC(=O)[O-]
REMARK SMILES IDX 10 1 9 2 8 3 7 4 6 5 5 6 4 7 2 8 1 9 3 10 11 11 12 12 13 13
REMARK SMILES IDX 14 14 15 15 16 16 17 17 18 18 19 19 20 20
REMARK H PARENT
REMARK Flexibility Score: inf
ROOT
ATOM      1  C   UNL     1      13.833  -5.709  14.725  1.00  0.00     0.000 C 
ENDROOT
BRANCH   1   2
ATOM      2  C   UNL     1      15.073  -5.129  15.426  1.00  0.00     0.000 C 
BRANCH   2   3
ATOM      3  C   UNL     1      15.911  -6.203  16.136  1.00  0.00     0.000 C 
BRANCH   3   4
ATOM      4  C   UNL     1      17.323  -6.281  15.535  1.00  0.00     0.000 C 
BRANCH   4   5
ATOM      5  C   UNL     1      17.353  -5.959  14.030  1.00  0.00     0.000 C 
BRANCH   5   6
ATOM      6  C   UNL     1      18.397  -6.747  13.217  1.00  0.00     0.006 C 
BRANCH   6   7
ATOM      7  C   UNL     1      17.773  -7.855  12.360  1.00  0.00     0.053 C 
BRANCH   7   8
ATOM      8  C   UNL     1      17.905  -9.180  13.043  1.00  0.00     0.041 C 
ATOM      9  O   UNL     1      17.466 -10.223  12.492  1.00  0.00    -0.550 OA
ATOM     10  O   UNL     1      18.558  -9.269  14.266  1.00  0.00    -0.550 OA
ENDBRANCH   7   8
ENDBRANCH   6   7
ENDBRANCH   5   6
ENDBRANCH   4   5
ENDBRANCH   3   4
ENDBRANCH   2   3
ENDBRANCH   1   2
BRANCH   1  11
ATOM     11  C   UNL     1      13.755  -5.312  13.241  1.00  0.00     0.000 C 
BRANCH  11  12
ATOM     12  C   UNL     1      14.262  -6.420  12.299  1.00  0.00     0.000 C 
BRANCH  12  13
ATOM     13  C   UNL     1      14.288  -7.834  12.908  1.00  0.00     0.000 C 
BRANCH  13  14
ATOM     14  C   UNL     1      13.610  -8.926  12.057  1.00  0.00     0.000 C 
BRANCH  14  15
ATOM     15  C   UNL     1      12.518  -9.714  12.811  1.00  0.00     0.000 C 
BRANCH  15  16
ATOM     16  C   UNL     1      12.271 -11.105  12.202  1.00  0.00     0.006 C 
BRANCH  16  17
ATOM     17  C   UNL     1      12.637 -12.235  13.173  1.00  0.00     0.053 C 
BRANCH  17  18
ATOM     18  C   UNL     1      13.881 -12.950  12.745  1.00  0.00     0.041 C 
ATOM     19  O   UNL     1      13.979 -14.197  12.890  1.00  0.00    -0.550 OA
ATOM     20  O   UNL     1      14.921 -12.242  12.156  1.00  0.00    -0.550 OA
ENDBRANCH  17  18
ENDBRANCH  16  17
ENDBRANCH  15  16
ENDBRANCH  14  15
ENDBRANCH  13  14
ENDBRANCH  12  13
ENDBRANCH  11  12
ENDBRANCH   1  11
TORSDOF 15
ENDMDL
MODEL 8
REMARK VINA RESULT:    -3.530      1.318      2.920
REMARK INTER + INTRA:          -8.294
REMARK INTER:                  -7.050
REMARK INTRA:                  -1.244
REMARK UNBOUND:                -1.668
REMARK SMILES O=C([O-])CCCCCCCCCCCCCCC(=O)[O-]
REMARK SMILES IDX 10 1 9 2 8 3 7 4 6 5 5 6 4 7 2 8 1 9 3 10 11 11 12 12 13 13
REMARK SMILES IDX 14 14 15 15 16 16 17 17 18 18 19 19 20 20
REMARK H PARENT
REMARK Flexibility Score: inf
ROOT
ATOM      1  C   UNL     1      16.294 -10.878  12.050  1.00  0.00     0.000 C 
ENDROOT
BRANCH   1   2
ATOM      2  C   UNL     1      17.120 -10.595  13.316  1.00  0.00     0.000 C 
BRANCH   2   3
ATOM      3  C   UNL     1      18.165  -9.488  13.109  1.00  0.00     0.000 C 
BRANCH   3   4
ATOM      4  C   UNL     1      17.533  -8.257  12.441  1.00  0.00     0.000 C 
BRANCH   4   5
ATOM      5  C   UNL     1      18.492  -7.056  12.365  1.00  0.00     0.000 C 
BRANCH   5   6
ATOM      6  C   UNL     1      18.193  -5.920  13.360  1.00  0.00     0.006 C 
BRANCH   6   7
ATOM      7  C   UNL     1      16.934  -6.176  14.198  1.00  0.00     0.053 C 
BRANCH   7   8
ATOM      8  C   UNL     1      17.306  -6.550  15.598  1.00  0.00     0.041 C 
ATOM      9  O   UNL     1      16.971  -5.811  16.562  1.00  0.00    -0.550 OA
ATOM     10  O   UNL     1      17.979  -7.740  15.844  1.00  0.00    -0.550 OA
ENDBRANCH   7   8
ENDBRANCH   6   7
ENDBRANCH   5   6
ENDBRANCH   4   5
ENDBRANCH   3   4
ENDBRANCH   2   3
ENDBRANCH   1   2
BRANCH   1  11
ATOM     11  C   UNL     1      15.762 -12.320  12.003  1.00  0.00     0.000 C 
BRANCH  11  12
ATOM     12  C   UNL     1      14.287 -12.426  12.435  1.00  0.00     0.000 C 
BRANCH  12  13
ATOM     13  C   UNL     1      13.362 -11.330  11.876  1.00  0.00     0.000 C 
BRANCH  13  14
ATOM     14  C   UNL     1      12.925 -10.260  12.896  1.00  0.00     0.000 C 
BRANCH  14  15
ATOM     15  C   UNL     1      12.790  -8.845  12.294  1.00  0.00     0.000 C 
BRANCH  15  16
ATOM     16  C   UNL     1      14.041  -7.983  12.534  1.00  0.00     0.006 C 
BRANCH  16  17
ATOM     17  C   UNL     1      13.810  -6.913  13.609  1.00  0.00     0.053 C 
BRANCH  17  18
ATOM     18  C   UNL     1      13.667  -5.549  13.008  1.00  0.00     0.041 C 
ATOM     19  O   UNL     1      14.201  -5.284  11.899  1.00  0.00    -0.550 OA
ATOM     20  O   UNL     1      12.916  -4.578  13.660  1.00  0.00    -0.550 OA
ENDBRANCH  17  18
ENDBRANCH  16  17
ENDBRANCH  15  16
ENDBRANCH  14  15
ENDBRANCH  13  14
ENDBRANCH  12  13
ENDBRANCH  11  12
ENDBRANCH   1  11
TORSDOF 15
ENDMDL
MODEL 9
REMARK VINA RESULT:    -3.411      2.316      4.630
REMARK INTER + INTRA:          -8.069
REMARK INTER:                  -6.962
REMARK INTRA:                  -1.108
REMARK UNBOUND:                -1.668
REMARK SMILES O=C([O-])CCCCCCCCCCCCCCC(=O)[O-]
REMARK SMILES IDX 10 1 9 2 8 3 7 4 6 5 5 6 4 7 2 8 1 9 3 10 11 11 12 12 13 13
REMARK SMILES IDX 14 14 15 15 16 16 17 17 18 18 19 19 20 20
REMARK H PARENT
REMARK Flexibility Score: inf
ROOT
ATOM      1  C   UNL     1      17.354 -10.821  12.468  1.00  0.00     0.000 C 
ENDROOT
BRANCH   1   2
ATOM      2  C   UNL     1      17.943  -9.591  13.179  1.00  0.00     0.000 C 
BRANCH   2   3
ATOM      3  C   UNL     1      18.043  -8.363  12.260  1.00  0.00     0.000 C 
BRANCH   3   4
ATOM      4  C   UNL     1      17.601  -7.090  12.997  1.00  0.00     0.000 C 
BRANCH   4   5
ATOM      5  C   UNL     1      17.469  -7.292  14.518  1.00  0.00     0.000 C 
BRANCH   5   6
ATOM      6  C   UNL     1      17.310  -5.997  15.335  1.00  0.00     0.006 C 
BRANCH   6   7
ATOM      7  C   UNL     1      16.052  -5.996  16.213  1.00  0.00     0.053 C 
BRANCH   7   8
ATOM      8  C   UNL     1      16.426  -5.955  17.661  1.00  0.00     0.041 C 
ATOM      9  O   UNL     1      17.111  -5.000  18.112  1.00  0.00    -0.550 OA
ATOM     10  O   UNL     1      15.976  -6.947  18.523  1.00  0.00    -0.550 OA
ENDBRANCH   7   8
ENDBRANCH   6   7
ENDBRANCH   5   6
ENDBRANCH   4   5
ENDBRANCH   3   4
ENDBRANCH   2   3
ENDBRANCH   1   2
BRANCH   1  11
ATOM     11  C   UNL     1      16.498 -11.689  13.404  1.00  0.00     0.000 C 
BRANCH  11  12
ATOM     12  C   UNL     1      15.847 -12.884  12.682  1.00  0.00     0.000 C 
BRANCH  12  13
ATOM     13  C   UNL     1      14.579 -12.547  11.875  1.00  0.00     0.000 C 
BRANCH  13  14
ATOM     14  C   UNL     1      13.262 -13.078  12.476  1.00  0.00     0.000 C 
BRANCH  14  15
ATOM     15  C   UNL     1      12.291 -11.966  12.926  1.00  0.00     0.000 C 
BRANCH  15  16
ATOM     16  C   UNL     1      12.471 -10.667  12.122  1.00  0.00     0.006 C 
BRANCH  16  17
ATOM     17  C   UNL     1      12.690  -9.450  13.029  1.00  0.00     0.053 C 
BRANCH  17  18
ATOM     18  C   UNL     1      13.823  -8.598  12.546  1.00  0.00     0.041 C 
ATOM     19  O   UNL     1      14.759  -9.106  11.875  1.00  0.00    -0.550 OA
ATOM     20  O   UNL     1      13.828  -7.233  12.811  1.00  0.00    -0.550 OA
ENDBRANCH  17  18
ENDBRANCH  16  17
ENDBRANCH  15  16
ENDBRANCH  14  15
ENDBRANCH  13  14
ENDBRANCH  12  13
ENDBRANCH  11  12
ENDBRANCH   1  11
TORSDOF 15
ENDMDL
