MODEL 1
REMARK VINA RESULT:    -3.430      0.000      0.000
REMARK INTER + INTRA:          -9.226
REMARK INTER:                  -6.639
REMARK INTRA:                  -2.588
REMARK UNBOUND:                -2.588
REMARK SMILES CCCCCCCCCCCCCCCCCC(=O)[O-]
REMARK SMILES IDX 10 1 11 2 12 3 13 4 14 5 15 6 16 7 17 8 18 9 19 10 20 11
REMARK SMILES IDX 9 12 8 13 7 14 6 15 5 16 4 17 3 18 2 19 1 20
REMARK H PARENT
REMARK Flexibility Score: inf
ROOT
ATOM      1  C   UNL     1      78.605 -54.775 194.805  1.00  0.00     0.000 C 
ENDROOT
BRANCH   1   2
ATOM      2  C   UNL     1      78.607 -53.801 193.612  1.00  0.00     0.000 C 
BRANCH   2   3
ATOM      3  C   UNL     1      77.237 -53.194 193.258  1.00  0.00     0.000 C 
BRANCH   3   4
ATOM      4  C   UNL     1      76.656 -52.329 194.389  1.00  0.00     0.000 C 
BRANCH   4   5
ATOM      5  C   UNL     1      75.282 -52.829 194.867  1.00  0.00     0.000 C 
BRANCH   5   6
ATOM      6  C   UNL     1      74.905 -54.188 194.251  1.00  0.00     0.000 C 
BRANCH   6   7
ATOM      7  C   UNL     1      74.674 -55.279 195.314  1.00  0.00     0.006 C 
BRANCH   7   8
ATOM      8  C   UNL     1      73.305 -55.207 196.009  1.00  0.00     0.053 C 
BRANCH   8   9
ATOM      9  C   UNL     1      72.182 -55.537 195.073  1.00  0.00     0.041 C 
ATOM     10  O   UNL     1      71.302 -54.676 194.812  1.00  0.00    -0.550 OA
ATOM     11  O   UNL     1      72.128 -56.785 194.466  1.00  0.00    -0.550 OA
ENDBRANCH   8   9
ENDBRANCH   7   8
ENDBRANCH   6   7
ENDBRANCH   5   6
ENDBRANCH   4   5
ENDBRANCH   3   4
ENDBRANCH   2   3
ENDBRANCH   1   2
BRANCH   1  12
ATOM     12  C   UNL     1      79.670 -54.430 195.861  1.00  0.00     0.000 C 
BRANCH  12  13
ATOM     13  C   UNL     1      79.056 -54.106 197.232  1.00  0.00    -0.000 C 
BRANCH  13  14
ATOM     14  C   UNL     1      77.596 -54.569 197.354  1.00  0.00    -0.000 C 
BRANCH  14  15
ATOM     15  C   UNL     1      76.749 -53.529 198.096  1.00  0.00    -0.000 C 
BRANCH  15  16
ATOM     16  C   UNL     1      75.626 -54.202 198.898  1.00  0.00    -0.000 C 
BRANCH  16  17
ATOM     17  C   UNL     1      75.696 -55.736 198.842  1.00  0.00    -0.000 C 
BRANCH  17  18
ATOM     18  C   UNL     1      74.404 -56.406 199.341  1.00  0.00    -0.000 C 
BRANCH  18  19
ATOM     19  C   UNL     1      74.636 -57.847 199.821  1.00  0.00    -0.003 C 
ATOM     20  C   UNL     1      75.653 -57.934 200.958  1.00  0.00     0.004 C 
ENDBRANCH  18  19
ENDBRANCH  17  18
ENDBRANCH  16  17
ENDBRANCH  15  16
ENDBRANCH  14  15
ENDBRANCH  13  14
ENDBRANCH  12  13
ENDBRANCH   1  12
TORSDOF 16
ENDMDL
MODEL 2
REMARK VINA RESULT:    -3.418      2.708      4.996
REMARK INTER + INTRA:          -9.203
REMARK INTER:                  -6.636
REMARK INTRA:                  -2.566
REMARK UNBOUND:                -2.588
REMARK SMILES CCCCCCCCCCCCCCCCCC(=O)[O-]
REMARK SMILES IDX 10 1 11 2 12 3 13 4 14 5 15 6 16 7 17 8 18 9 19 10 20 11
REMARK SMILES IDX 9 12 8 13 7 14 6 15 5 16 4 17 3 18 2 19 1 20
REMARK H PARENT
REMARK Flexibility Score: inf
ROOT
ATOM      1  C   UNL     1      79.589 -54.150 195.430  1.00  0.00     0.000 C 
ENDROOT
BRANCH   1   2
ATOM      2  C   UNL     1      79.138 -54.057 196.899  1.00  0.00     0.000 C 
BRANCH   2   3
ATOM      3  C   UNL     1      77.719 -54.582 197.185  1.00  0.00     0.000 C 
BRANCH   3   4
ATOM      4  C   UNL     1      76.799 -53.516 197.803  1.00  0.00     0.000 C 
BRANCH   4   5
ATOM      5  C   UNL     1      75.793 -54.114 198.800  1.00  0.00     0.000 C 
BRANCH   5   6
ATOM      6  C   UNL     1      75.817 -55.652 198.809  1.00  0.00     0.000 C 
BRANCH   6   7
ATOM      7  C   UNL     1      74.526 -56.264 199.386  1.00  0.00     0.006 C 
BRANCH   7   8
ATOM      8  C   UNL     1      74.671 -57.720 199.857  1.00  0.00     0.053 C 
BRANCH   8   9
ATOM      9  C   UNL     1      75.255 -57.809 201.234  1.00  0.00     0.041 C 
ATOM     10  O   UNL     1      74.570 -57.475 202.236  1.00  0.00    -0.550 OA
ATOM     11  O   UNL     1      76.546 -58.291 201.411  1.00  0.00    -0.550 OA
ENDBRANCH   8   9
ENDBRANCH   7   8
ENDBRANCH   6   7
ENDBRANCH   5   6
ENDBRANCH   4   5
ENDBRANCH   3   4
ENDBRANCH   2   3
ENDBRANCH   1   2
BRANCH   1  12
ATOM     12  C   UNL     1      78.459 -54.586 194.482  1.00  0.00     0.000 C 
BRANCH  12  13
ATOM     13  C   UNL     1      78.276 -53.621 193.300  1.00  0.00    -0.000 C 
BRANCH  13  14
ATOM     14  C   UNL     1      76.803 -53.266 193.045  1.00  0.00    -0.000 C 
BRANCH  14  15
ATOM     15  C   UNL     1      76.191 -52.558 194.259  1.00  0.00    -0.000 C 
BRANCH  15  16
ATOM     16  C   UNL     1      74.823 -53.160 194.616  1.00  0.00    -0.000 C 
BRANCH  16  17
ATOM     17  C   UNL     1      74.876 -54.684 194.799  1.00  0.00    -0.000 C 
BRANCH  17  18
ATOM     18  C   UNL     1      73.637 -55.236 195.525  1.00  0.00    -0.000 C 
BRANCH  18  19
ATOM     19  C   UNL     1      73.000 -54.205 196.469  1.00  0.00    -0.003 C 
ATOM     20  C   UNL     1      71.777 -54.753 197.202  1.00  0.00     0.004 C 
ENDBRANCH  18  19
ENDBRANCH  17  18
ENDBRANCH  16  17
ENDBRANCH  15  16
ENDBRANCH  14  15
ENDBRANCH  13  14
ENDBRANCH  12  13
ENDBRANCH   1  12
TORSDOF 16
ENDMDL
MODEL 3
REMARK VINA RESULT:    -3.386      6.210      9.617
REMARK INTER + INTRA:          -9.142
REMARK INTER:                  -6.471
REMARK INTRA:                  -2.671
REMARK UNBOUND:                -2.588
REMARK SMILES CCCCCCCCCCCCCCCCCC(=O)[O-]
REMARK SMILES IDX 10 1 11 2 12 3 13 4 14 5 15 6 16 7 17 8 18 9 19 10 20 11
REMARK SMILES IDX 9 12 8 13 7 14 6 15 5 16 4 17 3 18 2 19 1 20
REMARK H PARENT
REMARK Flexibility Score: inf
ROOT
ATOM      1  C   UNL     1      69.143 -58.800 202.236  1.00  0.00     0.000 C 
ENDROOT
BRANCH   1   2
ATOM      2  C   UNL     1      69.083 -57.321 201.811  1.00  0.00     0.000 C 
BRANCH   2   3
ATOM      3  C   UNL     1      70.296 -56.820 201.006  1.00  0.00     0.000 C 
BRANCH   3   4
ATOM      4  C   UNL     1      70.846 -55.480 201.524  1.00  0.00     0.000 C 
BRANCH   4   5
ATOM      5  C   UNL     1      71.678 -55.644 202.807  1.00  0.00     0.000 C 
BRANCH   5   6
ATOM      6  C   UNL     1      73.186 -55.752 202.520  1.00  0.00     0.000 C 
BRANCH   6   7
ATOM      7  C   UNL     1      73.734 -57.173 202.752  1.00  0.00     0.006 C 
BRANCH   7   8
ATOM      8  C   UNL     1      73.831 -58.030 201.479  1.00  0.00     0.053 C 
BRANCH   8   9
ATOM      9  C   UNL     1      75.162 -57.888 200.807  1.00  0.00     0.041 C 
ATOM     10  O   UNL     1      75.243 -57.362 199.666  1.00  0.00    -0.550 OA
ATOM     11  O   UNL     1      76.317 -58.309 201.456  1.00  0.00    -0.550 OA
ENDBRANCH   8   9
ENDBRANCH   7   8
ENDBRANCH   6   7
ENDBRANCH   5   6
ENDBRANCH   4   5
ENDBRANCH   3   4
ENDBRANCH   2   3
ENDBRANCH   1   2
BRANCH   1  12
ATOM     12  C   UNL     1      70.452 -59.491 201.818  1.00  0.00     0.000 C 
BRANCH  12  13
ATOM     13  C   UNL     1      70.338 -61.023 201.824  1.00  0.00    -0.000 C 
BRANCH  13  14
ATOM     14  C   UNL     1      70.125 -61.608 200.419  1.00  0.00    -0.000 C 
BRANCH  14  15
ATOM     15  C   UNL     1      68.714 -62.191 200.275  1.00  0.00    -0.000 C 
BRANCH  15  16
ATOM     16  C   UNL     1      67.993 -61.594 199.057  1.00  0.00    -0.000 C 
BRANCH  16  17
ATOM     17  C   UNL     1      67.229 -60.304 199.396  1.00  0.00    -0.000 C 
BRANCH  17  18
ATOM     18  C   UNL     1      67.876 -59.053 198.776  1.00  0.00    -0.000 C 
BRANCH  18  19
ATOM     19  C   UNL     1      68.892 -59.400 197.677  1.00  0.00    -0.003 C 
ATOM     20  C   UNL     1      70.274 -58.805 197.943  1.00  0.00     0.004 C 
ENDBRANCH  18  19
ENDBRANCH  17  18
ENDBRANCH  16  17
ENDBRANCH  15  16
ENDBRANCH  14  15
ENDBRANCH  13  14
ENDBRANCH  12  13
ENDBRANCH   1  12
TORSDOF 16
ENDMDL
MODEL 4
REMARK VINA RESULT:    -3.364      3.962      7.461
REMARK INTER + INTRA:          -9.099
REMARK INTER:                  -7.448
REMARK INTRA:                  -1.651
REMARK UNBOUND:                -2.588
REMARK SMILES CCCCCCCCCCCCCCCCCC(=O)[O-]
REMARK SMILES IDX 10 1 11 2 12 3 13 4 14 5 15 6 16 7 17 8 18 9 19 10 20 11
REMARK SMILES IDX 9 12 8 13 7 14 6 15 5 16 4 17 3 18 2 19 1 20
REMARK H PARENT
REMARK Flexibility Score: inf
ROOT
ATOM      1  C   UNL     1      74.963 -57.520 199.996  1.00  0.00     0.000 C 
ENDROOT
BRANCH   1   2
ATOM      2  C   UNL     1      74.345 -57.514 201.406  1.00  0.00     0.000 C 
BRANCH   2   3
ATOM      3  C   UNL     1      73.069 -58.361 201.567  1.00  0.00     0.000 C 
BRANCH   3   4
ATOM      4  C   UNL     1      71.791 -57.510 201.642  1.00  0.00     0.000 C 
BRANCH   4   5
ATOM      5  C   UNL     1      70.952 -57.595 200.355  1.00  0.00     0.000 C 
BRANCH   5   6
ATOM      6  C   UNL     1      71.256 -58.862 199.537  1.00  0.00     0.000 C 
BRANCH   6   7
ATOM      7  C   UNL     1      70.021 -59.765 199.359  1.00  0.00     0.006 C 
BRANCH   7   8
ATOM      8  C   UNL     1      69.322 -60.149 200.673  1.00  0.00     0.053 C 
BRANCH   8   9
ATOM      9  C   UNL     1      70.049 -61.240 201.398  1.00  0.00     0.041 C 
ATOM     10  O   UNL     1      70.049 -62.414 200.943  1.00  0.00    -0.550 OA
ATOM     11  O   UNL     1      70.755 -60.951 202.559  1.00  0.00    -0.550 OA
ENDBRANCH   8   9
ENDBRANCH   7   8
ENDBRANCH   6   7
ENDBRANCH   5   6
ENDBRANCH   4   5
ENDBRANCH   3   4
ENDBRANCH   2   3
ENDBRANCH   1   2
BRANCH   1  12
ATOM     12  C   UNL     1      74.365 -56.443 199.074  1.00  0.00     0.000 C 
BRANCH  12  13
ATOM     13  C   UNL     1      75.156 -55.126 199.116  1.00  0.00    -0.000 C 
BRANCH  13  14
ATOM     14  C   UNL     1      76.400 -55.152 198.215  1.00  0.00    -0.000 C 
BRANCH  14  15
ATOM     15  C   UNL     1      76.207 -54.259 196.984  1.00  0.00    -0.000 C 
BRANCH  15  16
ATOM     16  C   UNL     1      75.782 -55.088 195.763  1.00  0.00    -0.000 C 
BRANCH  16  17
ATOM     17  C   UNL     1      76.978 -55.698 195.016  1.00  0.00    -0.000 C 
BRANCH  17  18
ATOM     18  C   UNL     1      78.006 -54.639 194.579  1.00  0.00    -0.000 C 
BRANCH  18  19
ATOM     19  C   UNL     1      79.426 -54.960 195.070  1.00  0.00    -0.003 C 
ATOM     20  C   UNL     1      79.848 -54.099 196.259  1.00  0.00     0.004 C 
ENDBRANCH  18  19
ENDBRANCH  17  18
ENDBRANCH  16  17
ENDBRANCH  15  16
ENDBRANCH  14  15
ENDBRANCH  13  14
ENDBRANCH  12  13
ENDBRANCH   1  12
TORSDOF 16
ENDMDL
MODEL 5
REMARK VINA RESULT:    -3.346      3.694      7.312
REMARK INTER + INTRA:          -9.064
REMARK INTER:                  -7.814
REMARK INTRA:                  -1.250
REMARK UNBOUND:                -2.588
REMARK SMILES CCCCCCCCCCCCCCCCCC(=O)[O-]
REMARK SMILES IDX 10 1 11 2 12 3 13 4 14 5 15 6 16 7 17 8 18 9 19 10 20 11
REMARK SMILES IDX 9 12 8 13 7 14 6 15 5 16 4 17 3 18 2 19 1 20
REMARK H PARENT
REMARK Flexibility Score: inf
ROOT
ATOM      1  C   UNL     1      74.717 -56.112 199.351  1.00  0.00     0.000 C 
ENDROOT
BRANCH   1   2
ATOM      2  C   UNL     1      75.220 -57.500 199.790  1.00  0.00     0.000 C 
BRANCH   2   3
ATOM      3  C   UNL     1      74.878 -57.894 201.239  1.00  0.00     0.000 C 
BRANCH   3   4
ATOM      4  C   UNL     1      73.432 -57.544 201.629  1.00  0.00     0.000 C 
BRANCH   4   5
ATOM      5  C   UNL     1      72.510 -58.774 201.630  1.00  0.00     0.000 C 
BRANCH   5   6
ATOM      6  C   UNL     1      71.149 -58.489 200.972  1.00  0.00     0.000 C 
BRANCH   6   7
ATOM      7  C   UNL     1      69.994 -59.267 201.631  1.00  0.00     0.006 C 
BRANCH   7   8
ATOM      8  C   UNL     1      70.281 -60.762 201.849  1.00  0.00     0.053 C 
BRANCH   8   9
ATOM      9  C   UNL     1      69.688 -61.611 200.767  1.00  0.00     0.041 C 
ATOM     10  O   UNL     1      69.927 -62.846 200.729  1.00  0.00    -0.550 OA
ATOM     11  O   UNL     1      68.845 -61.042 199.820  1.00  0.00    -0.550 OA
ENDBRANCH   8   9
ENDBRANCH   7   8
ENDBRANCH   6   7
ENDBRANCH   5   6
ENDBRANCH   4   5
ENDBRANCH   3   4
ENDBRANCH   2   3
ENDBRANCH   1   2
BRANCH   1  12
ATOM     12  C   UNL     1      75.339 -55.642 198.024  1.00  0.00     0.000 C 
BRANCH  12  13
ATOM     13  C   UNL     1      76.147 -54.344 198.180  1.00  0.00    -0.000 C 
BRANCH  13  14
ATOM     14  C   UNL     1      77.663 -54.589 198.213  1.00  0.00    -0.000 C 
BRANCH  14  15
ATOM     15  C   UNL     1      78.392 -53.660 197.236  1.00  0.00    -0.000 C 
BRANCH  15  16
ATOM     16  C   UNL     1      79.489 -54.415 196.471  1.00  0.00    -0.000 C 
BRANCH  16  17
ATOM     17  C   UNL     1      79.160 -54.587 194.980  1.00  0.00    -0.000 C 
BRANCH  17  18
ATOM     18  C   UNL     1      77.855 -55.368 194.749  1.00  0.00    -0.000 C 
BRANCH  18  19
ATOM     19  C   UNL     1      76.918 -54.667 193.753  1.00  0.00    -0.003 C 
ATOM     20  C   UNL     1      75.726 -53.998 194.435  1.00  0.00     0.004 C 
ENDBRANCH  18  19
ENDBRANCH  17  18
ENDBRANCH  16  17
ENDBRANCH  15  16
ENDBRANCH  14  15
ENDBRANCH  13  14
ENDBRANCH  12  13
ENDBRANCH   1  12
TORSDOF 16
ENDMDL
MODEL 6
REMARK VINA RESULT:    -3.313      2.403      5.303
REMARK INTER + INTRA:          -8.999
REMARK INTER:                  -6.851
REMARK INTRA:                  -2.148
REMARK UNBOUND:                -2.588
REMARK SMILES CCCCCCCCCCCCCCCCCC(=O)[O-]
REMARK SMILES IDX 10 1 11 2 12 3 13 4 14 5 15 6 16 7 17 8 18 9 19 10 20 11
REMARK SMILES IDX 9 12 8 13 7 14 6 15 5 16 4 17 3 18 2 19 1 20
REMARK H PARENT
REMARK Flexibility Score: inf
ROOT
ATOM      1  C   UNL     1      79.106 -54.193 197.665  1.00  0.00     0.000 C 
ENDROOT
BRANCH   1   2
ATOM      2  C   UNL     1      77.608 -53.852 197.760  1.00  0.00     0.000 C 
BRANCH   2   3
ATOM      3  C   UNL     1      76.733 -54.922 198.439  1.00  0.00     0.000 C 
BRANCH   3   4
ATOM      4  C   UNL     1      75.394 -54.365 198.948  1.00  0.00     0.000 C 
BRANCH   4   5
ATOM      5  C   UNL     1      74.499 -55.454 199.565  1.00  0.00     0.000 C 
BRANCH   5   6
ATOM      6  C   UNL     1      75.041 -56.872 199.312  1.00  0.00     0.000 C 
BRANCH   6   7
ATOM      7  C   UNL     1      75.028 -57.748 200.579  1.00  0.00     0.006 C 
BRANCH   7   8
ATOM      8  C   UNL     1      73.850 -57.472 201.528  1.00  0.00     0.053 C 
BRANCH   8   9
ATOM      9  C   UNL     1      72.638 -58.274 201.166  1.00  0.00     0.041 C 
ATOM     10  O   UNL     1      72.275 -59.237 201.891  1.00  0.00    -0.550 OA
ATOM     11  O   UNL     1      71.892 -57.937 200.043  1.00  0.00    -0.550 OA
ENDBRANCH   8   9
ENDBRANCH   7   8
ENDBRANCH   6   7
ENDBRANCH   5   6
ENDBRANCH   4   5
ENDBRANCH   3   4
ENDBRANCH   2   3
ENDBRANCH   1   2
BRANCH   1  12
ATOM     12  C   UNL     1      79.739 -53.745 196.336  1.00  0.00     0.000 C 
BRANCH  12  13
ATOM     13  C   UNL     1      79.506 -54.755 195.201  1.00  0.00    -0.000 C 
BRANCH  13  14
ATOM     14  C   UNL     1      78.730 -54.153 194.020  1.00  0.00    -0.000 C 
BRANCH  14  15
ATOM     15  C   UNL     1      78.418 -52.672 194.265  1.00  0.00    -0.000 C 
BRANCH  15  16
ATOM     16  C   UNL     1      76.945 -52.362 193.962  1.00  0.00    -0.000 C 
BRANCH  16  17
ATOM     17  C   UNL     1      76.129 -53.622 193.636  1.00  0.00    -0.000 C 
BRANCH  17  18
ATOM     18  C   UNL     1      74.752 -53.629 194.322  1.00  0.00    -0.000 C 
BRANCH  18  19
ATOM     19  C   UNL     1      74.610 -54.767 195.344  1.00  0.00    -0.003 C 
ATOM     20  C   UNL     1      75.717 -55.812 195.221  1.00  0.00     0.004 C 
ENDBRANCH  18  19
ENDBRANCH  17  18
ENDBRANCH  16  17
ENDBRANCH  15  16
ENDBRANCH  14  15
ENDBRANCH  13  14
ENDBRANCH  12  13
ENDBRANCH   1  12
TORSDOF 16
ENDMDL
MODEL 7
REMARK VINA RESULT:    -3.312      4.843      8.479
REMARK INTER + INTRA:          -8.998
REMARK INTER:                  -6.223
REMARK INTRA:                  -2.775
REMARK UNBOUND:                -2.588
REMARK SMILES CCCCCCCCCCCCCCCCCC(=O)[O-]
REMARK SMILES IDX 10 1 11 2 12 3 13 4 14 5 15 6 16 7 17 8 18 9 19 10 20 11
REMARK SMILES IDX 9 12 8 13 7 14 6 15 5 16 4 17 3 18 2 19 1 20
REMARK H PARENT
REMARK Flexibility Score: inf
ROOT
ATOM      1  C   UNL     1      71.641 -54.904 201.512  1.00  0.00     0.000 C 
ENDROOT
BRANCH   1   2
ATOM      2  C   UNL     1      70.457 -55.151 202.465  1.00  0.00     0.000 C 
BRANCH   2   3
ATOM      3  C   UNL     1      69.623 -56.409 202.165  1.00  0.00     0.000 C 
BRANCH   3   4
ATOM      4  C   UNL     1      69.751 -56.878 200.706  1.00  0.00     0.000 C 
BRANCH   4   5
ATOM      5  C   UNL     1      69.380 -58.361 200.530  1.00  0.00     0.000 C 
BRANCH   5   6
ATOM      6  C   UNL     1      69.258 -59.100 201.874  1.00  0.00     0.000 C 
BRANCH   6   7
ATOM      7  C   UNL     1      70.038 -60.428 201.895  1.00  0.00     0.006 C 
BRANCH   7   8
ATOM      8  C   UNL     1      70.264 -61.052 200.508  1.00  0.00     0.053 C 
BRANCH   8   9
ATOM      9  C   UNL     1      69.351 -62.214 200.260  1.00  0.00     0.041 C 
ATOM     10  O   UNL     1      69.807 -63.387 200.248  1.00  0.00    -0.550 OA
ATOM     11  O   UNL     1      67.991 -62.001 200.074  1.00  0.00    -0.550 OA
ENDBRANCH   8   9
ENDBRANCH   7   8
ENDBRANCH   6   7
ENDBRANCH   5   6
ENDBRANCH   4   5
ENDBRANCH   3   4
ENDBRANCH   2   3
ENDBRANCH   1   2
BRANCH   1  12
ATOM     12  C   UNL     1      73.002 -54.921 202.231  1.00  0.00     0.000 C 
BRANCH  12  13
ATOM     13  C   UNL     1      73.177 -56.154 203.132  1.00  0.00    -0.000 C 
BRANCH  13  14
ATOM     14  C   UNL     1      73.969 -57.280 202.451  1.00  0.00    -0.000 C 
BRANCH  14  15
ATOM     15  C   UNL     1      73.031 -58.249 201.722  1.00  0.00    -0.000 C 
BRANCH  15  16
ATOM     16  C   UNL     1      73.147 -58.088 200.199  1.00  0.00    -0.000 C 
BRANCH  16  17
ATOM     17  C   UNL     1      74.436 -57.366 199.776  1.00  0.00    -0.000 C 
BRANCH  17  18
ATOM     18  C   UNL     1      74.165 -56.148 198.877  1.00  0.00    -0.000 C 
BRANCH  18  19
ATOM     19  C   UNL     1      75.349 -55.170 198.838  1.00  0.00    -0.003 C 
ATOM     20  C   UNL     1      74.969 -53.764 199.298  1.00  0.00     0.004 C 
ENDBRANCH  18  19
ENDBRANCH  17  18
ENDBRANCH  16  17
ENDBRANCH  15  16
ENDBRANCH  14  15
ENDBRANCH  13  14
ENDBRANCH  12  13
ENDBRANCH   1  12
TORSDOF 16
ENDMDL
MODEL 8
REMARK VINA RESULT:    -3.283      2.117      4.229
REMARK INTER + INTRA:          -8.941
REMARK INTER:                  -7.384
REMARK INTRA:                  -1.558
REMARK UNBOUND:                -2.588
REMARK SMILES CCCCCCCCCCCCCCCCCC(=O)[O-]
REMARK SMILES IDX 10 1 11 2 12 3 13 4 14 5 15 6 16 7 17 8 18 9 19 10 20 11
REMARK SMILES IDX 9 12 8 13 7 14 6 15 5 16 4 17 3 18 2 19 1 20
REMARK H PARENT
REMARK Flexibility Score: inf
ROOT
ATOM      1  C   UNL     1      76.415 -53.614 198.034  1.00  0.00     0.000 C 
ENDROOT
BRANCH   1   2
ATOM      2  C   UNL     1      77.641 -54.473 197.674  1.00  0.00     0.000 C 
BRANCH   2   3
ATOM      3  C   UNL     1      78.914 -53.683 197.317  1.00  0.00     0.000 C 
BRANCH   3   4
ATOM      4  C   UNL     1      79.734 -54.344 196.197  1.00  0.00     0.000 C 
BRANCH   4   5
ATOM      5  C   UNL     1      78.845 -54.991 195.120  1.00  0.00     0.000 C 
BRANCH   5   6
ATOM      6  C   UNL     1      78.427 -53.993 194.027  1.00  0.00     0.000 C 
BRANCH   6   7
ATOM      7  C   UNL     1      77.009 -54.262 193.487  1.00  0.00     0.006 C 
BRANCH   7   8
ATOM      8  C   UNL     1      75.880 -53.676 194.350  1.00  0.00     0.053 C 
BRANCH   8   9
ATOM      9  C   UNL     1      74.939 -54.734 194.839  1.00  0.00     0.041 C 
ATOM     10  O   UNL     1      75.385 -55.832 195.263  1.00  0.00    -0.550 OA
ATOM     11  O   UNL     1      73.571 -54.493 194.855  1.00  0.00    -0.550 OA
ENDBRANCH   8   9
ENDBRANCH   7   8
ENDBRANCH   6   7
ENDBRANCH   5   6
ENDBRANCH   4   5
ENDBRANCH   3   4
ENDBRANCH   2   3
ENDBRANCH   1   2
BRANCH   1  12
ATOM     12  C   UNL     1      75.278 -54.431 198.672  1.00  0.00     0.000 C 
BRANCH  12  13
ATOM     13  C   UNL     1      75.613 -55.927 198.774  1.00  0.00    -0.000 C 
BRANCH  13  14
ATOM     14  C   UNL     1      74.498 -56.741 199.448  1.00  0.00    -0.000 C 
BRANCH  14  15
ATOM     15  C   UNL     1      75.072 -57.684 200.511  1.00  0.00    -0.000 C 
BRANCH  15  16
ATOM     16  C   UNL     1      74.358 -57.495 201.859  1.00  0.00    -0.000 C 
BRANCH  16  17
ATOM     17  C   UNL     1      72.831 -57.606 201.740  1.00  0.00    -0.000 C 
BRANCH  17  18
ATOM     18  C   UNL     1      72.320 -59.036 201.990  1.00  0.00    -0.000 C 
BRANCH  18  19
ATOM     19  C   UNL     1      71.068 -59.366 201.163  1.00  0.00    -0.003 C 
ATOM     20  C   UNL     1      70.378 -60.649 201.623  1.00  0.00     0.004 C 
ENDBRANCH  18  19
ENDBRANCH  17  18
ENDBRANCH  16  17
ENDBRANCH  15  16
ENDBRANCH  14  15
ENDBRANCH  13  14
ENDBRANCH  12  13
ENDBRANCH   1  12
TORSDOF 16
ENDMDL
MODEL 9
REMARK VINA RESULT:    -3.279      4.362      8.112
REMARK INTER + INTRA:          -8.933
REMARK INTER:                  -6.333
REMARK INTRA:                  -2.600
REMARK UNBOUND:                -2.588
REMARK SMILES CCCCCCCCCCCCCCCCCC(=O)[O-]
REMARK SMILES IDX 10 1 11 2 12 3 13 4 14 5 15 6 16 7 17 8 18 9 19 10 20 11
REMARK SMILES IDX 9 12 8 13 7 14 6 15 5 16 4 17 3 18 2 19 1 20
REMARK H PARENT
REMARK Flexibility Score: inf
ROOT
ATOM      1  C   UNL     1      71.502 -55.484 200.250  1.00  0.00     0.000 C 
ENDROOT
BRANCH   1   2
ATOM      2  C   UNL     1      72.343 -55.117 201.486  1.00  0.00     0.000 C 
BRANCH   2   3
ATOM      3  C   UNL     1      72.368 -56.177 202.602  1.00  0.00     0.000 C 
BRANCH   3   4
ATOM      4  C   UNL     1      73.768 -56.772 202.831  1.00  0.00     0.000 C 
BRANCH   4   5
ATOM      5  C   UNL     1      74.020 -58.028 201.980  1.00  0.00     0.000 C 
BRANCH   5   6
ATOM      6  C   UNL     1      75.192 -57.849 201.000  1.00  0.00     0.000 C 
BRANCH   6   7
ATOM      7  C   UNL     1      74.734 -57.379 199.606  1.00  0.00     0.006 C 
BRANCH   7   8
ATOM      8  C   UNL     1      75.271 -55.998 199.196  1.00  0.00     0.053 C 
BRANCH   8   9
ATOM      9  C   UNL     1      74.906 -55.649 197.786  1.00  0.00     0.041 C 
ATOM     10  O   UNL     1      75.797 -55.579 196.899  1.00  0.00    -0.550 OA
ATOM     11  O   UNL     1      73.576 -55.434 197.445  1.00  0.00    -0.550 OA
ENDBRANCH   8   9
ENDBRANCH   7   8
ENDBRANCH   6   7
ENDBRANCH   5   6
ENDBRANCH   4   5
ENDBRANCH   3   4
ENDBRANCH   2   3
ENDBRANCH   1   2
BRANCH   1  12
ATOM     12  C   UNL     1      70.780 -56.835 200.397  1.00  0.00     0.000 C 
BRANCH  12  13
ATOM     13  C   UNL     1      71.112 -57.808 199.254  1.00  0.00    -0.000 C 
BRANCH  13  14
ATOM     14  C   UNL     1      71.182 -59.270 199.720  1.00  0.00    -0.000 C 
BRANCH  14  15
ATOM     15  C   UNL     1      70.879 -59.384 201.218  1.00  0.00    -0.000 C 
BRANCH  15  16
ATOM     16  C   UNL     1      69.715 -60.353 201.473  1.00  0.00    -0.000 C 
BRANCH  16  17
ATOM     17  C   UNL     1      70.081 -61.813 201.165  1.00  0.00    -0.000 C 
BRANCH  17  18
ATOM     18  C   UNL     1      69.066 -62.493 200.230  1.00  0.00    -0.000 C 
BRANCH  18  19
ATOM     19  C   UNL     1      67.979 -61.525 199.739  1.00  0.00    -0.003 C 
ATOM     20  C   UNL     1      68.161 -61.127 198.275  1.00  0.00     0.004 C 
ENDBRANCH  18  19
ENDBRANCH  17  18
ENDBRANCH  16  17
ENDBRANCH  15  16
ENDBRANCH  14  15
ENDBRANCH  13  14
ENDBRANCH  12  13
ENDBRANCH   1  12
TORSDOF 16
ENDMDL
