MODEL 1
REMARK VINA RESULT:    -3.534      0.000      0.000
REMARK INTER + INTRA:          -4.402
REMARK INTER:                  -4.773
REMARK INTRA:                   0.371
REMARK UNBOUND:                 0.371
REMARK SMILES O=c1c(-c2ccc(O)cc2)coc2c([C@@H]3O[C@@H](CO)[C@@H](O)[C@@H](O)[C@@H]3O)c(O)ccc12
REMARK SMILES IDX 3 1 11 2 12 3 13 4 30 5 2 6 1 7 29 8 28 9 26 10 14 11 4 12
REMARK SMILES IDX 5 13 6 14 7 15 10 16 9 17 8 18 15 20 24 21 16 22 22 23 17 24
REMARK SMILES IDX 20 25 25 26 23 28 18 30 19 31 21 33 27 35
REMARK H PARENT 8 19 25 27 23 29 19 32 21 34 27 36
REMARK Flexibility Score: inf
ROOT
ATOM      1  C   UNL     1      20.458  14.090   3.518  1.00  0.00     0.065 A 
ATOM      2  C   UNL     1      20.340  15.327   4.165  1.00  0.00     0.208 A 
ATOM      3  O   UNL     1      21.409  16.075   4.405  1.00  0.00    -0.463 OA
ATOM      4  C   UNL     1      22.643  15.718   4.058  1.00  0.00     0.147 A 
ATOM      5  C   UNL     1      22.853  14.483   3.399  1.00  0.00     0.066 A 
ATOM      6  C   UNL     1      21.742  13.661   3.137  1.00  0.00     0.200 A 
ATOM      7  O   UNL     1      21.898  12.538   2.580  1.00  0.00    -0.288 OA
ATOM      8  C   UNL     1      24.151  14.111   3.021  1.00  0.00     0.020 A 
ATOM      9  C   UNL     1      25.228  14.958   3.278  1.00  0.00     0.047 A 
ATOM     10  C   UNL     1      25.032  16.184   3.924  1.00  0.00     0.125 A 
ATOM     11  C   UNL     1      23.739  16.569   4.345  1.00  0.00     0.069 A 
ENDROOT
BRANCH   1  12
ATOM     12  C   UNL     1      19.245  13.272   3.256  1.00  0.00    -0.011 A 
ATOM     13  C   UNL     1      18.005  13.633   3.811  1.00  0.00     0.013 A 
ATOM     14  C   UNL     1      16.869  12.855   3.569  1.00  0.00     0.047 A 
ATOM     15  C   UNL     1      16.960  11.705   2.774  1.00  0.00     0.115 A 
ATOM     16  C   UNL     1      19.329  12.112   2.465  1.00  0.00     0.013 A 
ATOM     17  C   UNL     1      18.191  11.337   2.225  1.00  0.00     0.047 A 
BRANCH  15  18
ATOM     18  O   UNL     1      15.835  10.922   2.527  1.00  0.00    -0.508 OA
ATOM     19  H   UNL     1      15.180  11.153   1.788  1.00  0.00     0.293 HD
ENDBRANCH  15  18
ENDBRANCH   1  12
BRANCH  11  20
ATOM     20  C   UNL     1      23.539  17.918   5.029  1.00  0.00     0.188 C 
ATOM     21  C   UNL     1      23.183  18.996   3.982  1.00  0.00     0.179 C 
ATOM     22  O   UNL     1      22.539  17.811   6.032  1.00  0.00    -0.362 OA
ATOM     23  C   UNL     1      23.060  20.365   4.670  1.00  0.00     0.177 C 
ATOM     24  C   UNL     1      22.359  19.010   6.776  1.00  0.00     0.176 C 
ATOM     25  C   UNL     1      22.104  20.258   5.877  1.00  0.00     0.177 C 
BRANCH  21  26
ATOM     26  O   UNL     1      21.973  18.668   3.346  1.00  0.00    -0.387 OA
ATOM     27  H   UNL     1      22.140  18.719   2.368  1.00  0.00     0.211 HD
ENDBRANCH  21  26
BRANCH  23  28
ATOM     28  O   UNL     1      24.326  20.824   5.070  1.00  0.00    -0.387 OA
ATOM     29  H   UNL     1      24.911  20.025   5.148  1.00  0.00     0.211 HD
ENDBRANCH  23  28
BRANCH  24  30
ATOM     30  C   UNL     1      23.400  19.163   7.908  1.00  0.00     0.191 C 
BRANCH  30  31
ATOM     31  O   UNL     1      22.869  18.852   9.165  1.00  0.00    -0.394 OA
ATOM     32  H   UNL     1      23.105  17.904   9.339  1.00  0.00     0.210 HD
ENDBRANCH  30  31
ENDBRANCH  24  30
BRANCH  25  33
ATOM     33  O   UNL     1      22.051  21.451   6.622  1.00  0.00    -0.388 OA
ATOM     34  H   UNL     1      22.943  21.880   6.584  1.00  0.00     0.211 HD
ENDBRANCH  25  33
ENDBRANCH  11  20
BRANCH  10  35
ATOM     35  O   UNL     1      26.125  17.023   4.144  1.00  0.00    -0.507 OA
ATOM     36  H   UNL     1      26.985  16.928   3.617  1.00  0.00     0.293 HD
ENDBRANCH  10  35
TORSDOF 9
ENDMDL
MODEL 2
REMARK VINA RESULT:    -3.131      2.493      7.990
REMARK INTER + INTRA:          -3.858
REMARK INTER:                  -2.963
REMARK INTRA:                  -0.895
REMARK UNBOUND:                 0.371
REMARK SMILES O=c1c(-c2ccc(O)cc2)coc2c([C@@H]3O[C@@H](CO)[C@@H](O)[C@@H](O)[C@@H]3O)c(O)ccc12
REMARK SMILES IDX 3 1 11 2 12 3 13 4 30 5 2 6 1 7 29 8 28 9 26 10 14 11 4 12
REMARK SMILES IDX 5 13 6 14 7 15 10 16 9 17 8 18 15 20 24 21 16 22 22 23 17 24
REMARK SMILES IDX 20 25 25 26 23 28 18 30 19 31 21 33 27 35
REMARK H PARENT 8 19 25 27 23 29 19 32 21 34 27 36
REMARK Flexibility Score: inf
ROOT
ATOM      1  C   UNL     1      22.838  19.128   7.971  1.00  0.00     0.065 A 
ATOM      2  C   UNL     1      22.322  17.884   7.583  1.00  0.00     0.208 A 
ATOM      3  O   UNL     1      22.496  17.428   6.349  1.00  0.00    -0.463 OA
ATOM      4  C   UNL     1      23.158  18.099   5.409  1.00  0.00     0.147 A 
ATOM      5  C   UNL     1      23.713  19.365   5.716  1.00  0.00     0.066 A 
ATOM      6  C   UNL     1      23.539  19.882   7.012  1.00  0.00     0.200 A 
ATOM      7  O   UNL     1      23.992  21.022   7.309  1.00  0.00    -0.288 OA
ATOM      8  C   UNL     1      24.421  20.068   4.730  1.00  0.00     0.020 A 
ATOM      9  C   UNL     1      24.592  19.518   3.461  1.00  0.00     0.047 A 
ATOM     10  C   UNL     1      24.052  18.265   3.148  1.00  0.00     0.125 A 
ATOM     11  C   UNL     1      23.306  17.550   4.112  1.00  0.00     0.069 A 
ENDROOT
BRANCH   1  12
ATOM     12  C   UNL     1      22.634  19.614   9.359  1.00  0.00    -0.011 A 
ATOM     13  C   UNL     1      23.710  19.674  10.262  1.00  0.00     0.013 A 
ATOM     14  C   UNL     1      23.510  20.123  11.571  1.00  0.00     0.047 A 
ATOM     15  C   UNL     1      22.232  20.515  11.994  1.00  0.00     0.115 A 
ATOM     16  C   UNL     1      21.354  20.001   9.794  1.00  0.00     0.013 A 
ATOM     17  C   UNL     1      21.158  20.451  11.102  1.00  0.00     0.047 A 
BRANCH  15  18
ATOM     18  O   UNL     1      22.022  20.964  13.295  1.00  0.00    -0.508 OA
ATOM     19  H   UNL     1      21.927  20.318  14.070  1.00  0.00     0.293 HD
ENDBRANCH  15  18
ENDBRANCH   1  12
BRANCH  11  20
ATOM     20  C   UNL     1      22.743  16.176   3.762  1.00  0.00     0.188 C 
ATOM     21  C   UNL     1      21.284  16.309   3.273  1.00  0.00     0.179 C 
ATOM     22  O   UNL     1      23.567  15.545   2.793  1.00  0.00    -0.362 OA
ATOM     23  C   UNL     1      20.701  14.913   2.998  1.00  0.00     0.177 C 
ATOM     24  C   UNL     1      23.153  14.219   2.482  1.00  0.00     0.176 C 
ATOM     25  C   UNL     1      21.653  14.123   2.073  1.00  0.00     0.177 C 
BRANCH  21  26
ATOM     26  O   UNL     1      21.239  17.087   2.102  1.00  0.00    -0.387 OA
ATOM     27  H   UNL     1      21.831  16.644   1.440  1.00  0.00     0.211 HD
ENDBRANCH  21  26
BRANCH  23  28
ATOM     28  O   UNL     1      20.489  14.228   4.206  1.00  0.00    -0.387 OA
ATOM     29  H   UNL     1      20.595  14.893   4.936  1.00  0.00     0.211 HD
ENDBRANCH  23  28
BRANCH  24  30
ATOM     30  C   UNL     1      23.668  13.186   3.510  1.00  0.00     0.191 C 
BRANCH  30  31
ATOM     31  O   UNL     1      23.630  11.878   3.014  1.00  0.00    -0.394 OA
ATOM     32  H   UNL     1      23.739  11.280   3.799  1.00  0.00     0.210 HD
ENDBRANCH  30  31
ENDBRANCH  24  30
BRANCH  25  33
ATOM     33  O   UNL     1      21.233  12.793   1.890  1.00  0.00    -0.388 OA
ATOM     34  H   UNL     1      20.284  12.802   1.607  1.00  0.00     0.211 HD
ENDBRANCH  25  33
ENDBRANCH  11  20
BRANCH  10  35
ATOM     35  O   UNL     1      24.262  17.728   1.877  1.00  0.00    -0.507 OA
ATOM     36  H   UNL     1      24.373  18.319   1.061  1.00  0.00     0.293 HD
ENDBRANCH  10  35
TORSDOF 9
ENDMDL
MODEL 3
REMARK VINA RESULT:    -3.041      1.282      2.029
REMARK INTER + INTRA:          -3.737
REMARK INTER:                  -4.006
REMARK INTRA:                   0.270
REMARK UNBOUND:                 0.371
REMARK SMILES O=c1c(-c2ccc(O)cc2)coc2c([C@@H]3O[C@@H](CO)[C@@H](O)[C@@H](O)[C@@H]3O)c(O)ccc12
REMARK SMILES IDX 3 1 11 2 12 3 13 4 30 5 2 6 1 7 29 8 28 9 26 10 14 11 4 12
REMARK SMILES IDX 5 13 6 14 7 15 10 16 9 17 8 18 15 20 24 21 16 22 22 23 17 24
REMARK SMILES IDX 20 25 25 26 23 28 18 30 19 31 21 33 27 35
REMARK H PARENT 8 19 25 27 23 29 19 32 21 34 27 36
REMARK Flexibility Score: inf
ROOT
ATOM      1  C   UNL     1      20.990  13.867   2.979  1.00  0.00     0.065 A 
ATOM      2  C   UNL     1      20.722  15.049   3.681  1.00  0.00     0.208 A 
ATOM      3  O   UNL     1      21.667  15.961   3.869  1.00  0.00    -0.463 OA
ATOM      4  C   UNL     1      22.911  15.827   3.415  1.00  0.00     0.147 A 
ATOM      5  C   UNL     1      23.269  14.662   2.694  1.00  0.00     0.066 A 
ATOM      6  C   UNL     1      22.293  13.672   2.485  1.00  0.00     0.200 A 
ATOM      7  O   UNL     1      22.587  12.606   1.875  1.00  0.00    -0.288 OA
ATOM      8  C   UNL     1      24.576  14.525   2.205  1.00  0.00     0.020 A 
ATOM      9  C   UNL     1      25.514  15.534   2.412  1.00  0.00     0.047 A 
ATOM     10  C   UNL     1      25.170  16.692   3.119  1.00  0.00     0.125 A 
ATOM     11  C   UNL     1      23.870  16.842   3.652  1.00  0.00     0.069 A 
ENDROOT
BRANCH   1  12
ATOM     12  C   UNL     1      19.914  12.864   2.778  1.00  0.00    -0.011 A 
ATOM     13  C   UNL     1      20.054  11.555   3.272  1.00  0.00     0.013 A 
ATOM     14  C   UNL     1      19.041  10.612   3.071  1.00  0.00     0.047 A 
ATOM     15  C   UNL     1      17.878  10.965   2.373  1.00  0.00     0.115 A 
ATOM     16  C   UNL     1      18.747  13.208   2.072  1.00  0.00     0.013 A 
ATOM     17  C   UNL     1      17.736  12.263   1.875  1.00  0.00     0.047 A 
BRANCH  15  18
ATOM     18  O   UNL     1      16.863  10.034   2.168  1.00  0.00    -0.508 OA
ATOM     19  H   UNL     1      16.074   9.962   2.801  1.00  0.00     0.293 HD
ENDBRANCH  15  18
ENDBRANCH   1  12
BRANCH  11  20
ATOM     20  C   UNL     1      23.505  18.120   4.401  1.00  0.00     0.188 C 
ATOM     21  C   UNL     1      22.305  17.861   5.338  1.00  0.00     0.179 C 
ATOM     22  O   UNL     1      24.633  18.606   5.114  1.00  0.00    -0.362 OA
ATOM     23  C   UNL     1      21.896  19.172   6.029  1.00  0.00     0.177 C 
ATOM     24  C   UNL     1      24.393  19.846   5.768  1.00  0.00     0.176 C 
ATOM     25  C   UNL     1      23.132  19.825   6.683  1.00  0.00     0.177 C 
BRANCH  21  26
ATOM     26  O   UNL     1      22.648  16.897   6.303  1.00  0.00    -0.387 OA
ATOM     27  H   UNL     1      23.623  16.734   6.212  1.00  0.00     0.211 HD
ENDBRANCH  21  26
BRANCH  23  28
ATOM     28  O   UNL     1      21.296  20.042   5.104  1.00  0.00    -0.387 OA
ATOM     29  H   UNL     1      20.318  20.010   5.269  1.00  0.00     0.211 HD
ENDBRANCH  23  28
BRANCH  24  30
ATOM     30  C   UNL     1      24.547  21.053   4.814  1.00  0.00     0.191 C 
BRANCH  30  31
ATOM     31  O   UNL     1      24.539  22.275   5.497  1.00  0.00    -0.394 OA
ATOM     32  H   UNL     1      25.338  22.773   5.183  1.00  0.00     0.210 HD
ENDBRANCH  30  31
ENDBRANCH  24  30
BRANCH  25  33
ATOM     33  O   UNL     1      22.842  21.092   7.222  1.00  0.00    -0.388 OA
ATOM     34  H   UNL     1      22.427  20.964   8.112  1.00  0.00     0.211 HD
ENDBRANCH  25  33
ENDBRANCH  11  20
BRANCH  10  35
ATOM     35  O   UNL     1      26.123  17.698   3.289  1.00  0.00    -0.507 OA
ATOM     36  H   UNL     1      25.860  18.673   3.372  1.00  0.00     0.293 HD
ENDBRANCH  10  35
TORSDOF 9
ENDMDL
MODEL 4
REMARK VINA RESULT:    -1.115     14.554     18.014
REMARK INTER + INTRA:          -1.134
REMARK INTER:                  -1.297
REMARK INTRA:                   0.163
REMARK UNBOUND:                 0.371
REMARK SMILES O=c1c(-c2ccc(O)cc2)coc2c([C@@H]3O[C@@H](CO)[C@@H](O)[C@@H](O)[C@@H]3O)c(O)ccc12
REMARK SMILES IDX 3 1 11 2 12 3 13 4 30 5 2 6 1 7 29 8 28 9 26 10 14 11 4 12
REMARK SMILES IDX 5 13 6 14 7 15 10 16 9 17 8 18 15 20 24 21 16 22 22 23 17 24
REMARK SMILES IDX 20 25 25 26 23 28 18 30 19 31 21 33 27 35
REMARK H PARENT 8 19 25 27 23 29 19 32 21 34 27 36
REMARK Flexibility Score: inf
ROOT
ATOM      1  C   UNL     1      16.217  19.144  18.766  1.00  0.00     0.065 A 
ATOM      2  C   UNL     1      15.150  19.621  19.538  1.00  0.00     0.208 A 
ATOM      3  O   UNL     1      13.955  19.825  18.999  1.00  0.00    -0.463 OA
ATOM      4  C   UNL     1      13.685  19.597  17.715  1.00  0.00     0.147 A 
ATOM      5  C   UNL     1      14.706  19.113  16.863  1.00  0.00     0.066 A 
ATOM      6  C   UNL     1      15.987  18.895  17.401  1.00  0.00     0.200 A 
ATOM      7  O   UNL     1      16.929  18.496  16.661  1.00  0.00    -0.288 OA
ATOM      8  C   UNL     1      14.420  18.861  15.513  1.00  0.00     0.020 A 
ATOM      9  C   UNL     1      13.135  19.069  15.016  1.00  0.00     0.047 A 
ATOM     10  C   UNL     1      12.116  19.542  15.851  1.00  0.00     0.125 A 
ATOM     11  C   UNL     1      12.385  19.836  17.207  1.00  0.00     0.069 A 
ENDROOT
BRANCH   1  12
ATOM     12  C   UNL     1      17.544  18.920  19.395  1.00  0.00    -0.011 A 
ATOM     13  C   UNL     1      18.076  17.623  19.500  1.00  0.00     0.013 A 
ATOM     14  C   UNL     1      19.321  17.417  20.102  1.00  0.00     0.047 A 
ATOM     15  C   UNL     1      20.048  18.503  20.608  1.00  0.00     0.115 A 
ATOM     16  C   UNL     1      18.276  20.004  19.912  1.00  0.00     0.013 A 
ATOM     17  C   UNL     1      19.521  19.794  20.511  1.00  0.00     0.047 A 
BRANCH  15  18
ATOM     18  O   UNL     1      21.289  18.309  21.209  1.00  0.00    -0.508 OA
ATOM     19  H   UNL     1      21.770  17.419  21.156  1.00  0.00     0.293 HD
ENDBRANCH  15  18
ENDBRANCH   1  12
BRANCH  11  20
ATOM     20  C   UNL     1      11.258  20.330  18.109  1.00  0.00     0.188 C 
ATOM     21  C   UNL     1      11.832  21.203  19.246  1.00  0.00     0.179 C 
ATOM     22  O   UNL     1      10.293  21.035  17.341  1.00  0.00    -0.362 OA
ATOM     23  C   UNL     1      10.699  21.631  20.193  1.00  0.00     0.177 C 
ATOM     24  C   UNL     1       9.165  21.451  18.101  1.00  0.00     0.176 C 
ATOM     25  C   UNL     1       9.548  22.258  19.378  1.00  0.00     0.177 C 
BRANCH  21  26
ATOM     26  O   UNL     1      12.463  22.339  18.708  1.00  0.00    -0.387 OA
ATOM     27  H   UNL     1      13.436  22.144  18.685  1.00  0.00     0.211 HD
ENDBRANCH  21  26
BRANCH  23  28
ATOM     28  O   UNL     1      10.248  20.530  20.939  1.00  0.00    -0.387 OA
ATOM     29  H   UNL     1       9.373  20.787  21.333  1.00  0.00     0.211 HD
ENDBRANCH  23  28
BRANCH  24  30
ATOM     30  C   UNL     1       8.122  20.322  18.272  1.00  0.00     0.191 C 
BRANCH  30  31
ATOM     31  O   UNL     1       8.091  19.457  17.173  1.00  0.00    -0.394 OA
ATOM     32  H   UNL     1       7.328  19.751  16.610  1.00  0.00     0.210 HD
ENDBRANCH  30  31
ENDBRANCH  24  30
BRANCH  25  33
ATOM     33  O   UNL     1       8.429  22.553  20.179  1.00  0.00    -0.388 OA
ATOM     34  H   UNL     1       7.647  22.066  19.813  1.00  0.00     0.211 HD
ENDBRANCH  25  33
ENDBRANCH  11  20
BRANCH  10  35
ATOM     35  O   UNL     1      10.833  19.716  15.332  1.00  0.00    -0.507 OA
ATOM     36  H   UNL     1      10.433  19.063  14.667  1.00  0.00     0.293 HD
ENDBRANCH  10  35
TORSDOF 9
ENDMDL
MODEL 5
REMARK VINA RESULT:    -1.102     14.571     17.852
REMARK INTER + INTRA:          -1.117
REMARK INTER:                  -0.898
REMARK INTRA:                  -0.219
REMARK UNBOUND:                 0.371
REMARK SMILES O=c1c(-c2ccc(O)cc2)coc2c([C@@H]3O[C@@H](CO)[C@@H](O)[C@@H](O)[C@@H]3O)c(O)ccc12
REMARK SMILES IDX 3 1 11 2 12 3 13 4 30 5 2 6 1 7 29 8 28 9 26 10 14 11 4 12
REMARK SMILES IDX 5 13 6 14 7 15 10 16 9 17 8 18 15 20 24 21 16 22 22 23 17 24
REMARK SMILES IDX 20 25 25 26 23 28 18 30 19 31 21 33 27 35
REMARK H PARENT 8 19 25 27 23 29 19 32 21 34 27 36
REMARK Flexibility Score: inf
ROOT
ATOM      1  C   UNL     1      15.628  19.115  18.256  1.00  0.00     0.065 A 
ATOM      2  C   UNL     1      14.599  19.748  18.966  1.00  0.00     0.208 A 
ATOM      3  O   UNL     1      13.435  20.015  18.388  1.00  0.00    -0.463 OA
ATOM      4  C   UNL     1      13.162  19.709  17.121  1.00  0.00     0.147 A 
ATOM      5  C   UNL     1      14.146  19.068  16.331  1.00  0.00     0.066 A 
ATOM      6  C   UNL     1      15.394  18.779  16.911  1.00  0.00     0.200 A 
ATOM      7  O   UNL     1      16.305  18.237  16.225  1.00  0.00    -0.288 OA
ATOM      8  C   UNL     1      13.856  18.734  15.000  1.00  0.00     0.020 A 
ATOM      9  C   UNL     1      12.602  19.017  14.462  1.00  0.00     0.047 A 
ATOM     10  C   UNL     1      11.620  19.646  15.235  1.00  0.00     0.125 A 
ATOM     11  C   UNL     1      11.896  20.023  16.569  1.00  0.00     0.069 A 
ENDROOT
BRANCH   1  12
ATOM     12  C   UNL     1      16.920  18.823  18.928  1.00  0.00    -0.011 A 
ATOM     13  C   UNL     1      17.149  17.572  19.526  1.00  0.00     0.013 A 
ATOM     14  C   UNL     1      18.364  17.306  20.165  1.00  0.00     0.047 A 
ATOM     15  C   UNL     1      19.362  18.288  20.218  1.00  0.00     0.115 A 
ATOM     16  C   UNL     1      17.924  19.806  18.992  1.00  0.00     0.013 A 
ATOM     17  C   UNL     1      19.137  19.536  19.631  1.00  0.00     0.047 A 
BRANCH  15  18
ATOM     18  O   UNL     1      20.576  18.034  20.852  1.00  0.00    -0.508 OA
ATOM     19  H   UNL     1      20.968  17.100  20.890  1.00  0.00     0.293 HD
ENDBRANCH  15  18
ENDBRANCH   1  12
BRANCH  11  20
ATOM     20  C   UNL     1      10.808  20.688  17.406  1.00  0.00     0.188 C 
ATOM     21  C   UNL     1       9.802  19.629  17.907  1.00  0.00     0.179 C 
ATOM     22  O   UNL     1      11.393  21.408  18.482  1.00  0.00    -0.362 OA
ATOM     23  C   UNL     1       8.668  20.319  18.683  1.00  0.00     0.177 C 
ATOM     24  C   UNL     1      10.443  22.130  19.257  1.00  0.00     0.176 C 
ATOM     25  C   UNL     1       9.264  21.246  19.764  1.00  0.00     0.177 C 
BRANCH  21  26
ATOM     26  O   UNL     1      10.455  18.700  18.736  1.00  0.00    -0.387 OA
ATOM     27  H   UNL     1      11.413  18.707  18.476  1.00  0.00     0.211 HD
ENDBRANCH  21  26
BRANCH  23  28
ATOM     28  O   UNL     1       7.843  21.038  17.802  1.00  0.00    -0.387 OA
ATOM     29  H   UNL     1       8.441  21.591  17.234  1.00  0.00     0.211 HD
ENDBRANCH  23  28
BRANCH  24  30
ATOM     30  C   UNL     1      10.077  23.490  18.621  1.00  0.00     0.191 C 
BRANCH  30  31
ATOM     31  O   UNL     1       9.186  23.354  17.550  1.00  0.00    -0.394 OA
ATOM     32  H   UNL     1       8.281  23.525  17.919  1.00  0.00     0.210 HD
ENDBRANCH  30  31
ENDBRANCH  24  30
BRANCH  25  33
ATOM     33  O   UNL     1       8.276  22.001  20.422  1.00  0.00    -0.388 OA
ATOM     34  H   UNL     1       8.403  22.954  20.185  1.00  0.00     0.211 HD
ENDBRANCH  25  33
ENDBRANCH  11  20
BRANCH  10  35
ATOM     35  O   UNL     1      10.364  19.893  14.678  1.00  0.00    -0.507 OA
ATOM     36  H   UNL     1       9.874  19.191  14.135  1.00  0.00     0.293 HD
ENDBRANCH  10  35
TORSDOF 9
ENDMDL
MODEL 6
REMARK VINA RESULT:    -0.957      2.299      8.241
REMARK INTER + INTRA:          -0.922
REMARK INTER:                  -1.335
REMARK INTRA:                   0.414
REMARK UNBOUND:                 0.371
REMARK SMILES O=c1c(-c2ccc(O)cc2)coc2c([C@@H]3O[C@@H](CO)[C@@H](O)[C@@H](O)[C@@H]3O)c(O)ccc12
REMARK SMILES IDX 3 1 11 2 12 3 13 4 30 5 2 6 1 7 29 8 28 9 26 10 14 11 4 12
REMARK SMILES IDX 5 13 6 14 7 15 10 16 9 17 8 18 15 20 24 21 16 22 22 23 17 24
REMARK SMILES IDX 20 25 25 26 23 28 18 30 19 31 21 33 27 35
REMARK H PARENT 8 19 25 27 23 29 19 32 21 34 27 36
REMARK Flexibility Score: inf
ROOT
ATOM      1  C   UNL     1      23.730  19.106   7.705  1.00  0.00     0.065 A 
ATOM      2  C   UNL     1      22.700  18.158   7.674  1.00  0.00     0.208 A 
ATOM      3  O   UNL     1      22.401  17.511   6.555  1.00  0.00    -0.463 OA
ATOM      4  C   UNL     1      23.041  17.709   5.404  1.00  0.00     0.147 A 
ATOM      5  C   UNL     1      24.097  18.650   5.347  1.00  0.00     0.066 A 
ATOM      6  C   UNL     1      24.433  19.359   6.513  1.00  0.00     0.200 A 
ATOM      7  O   UNL     1      25.347  20.230   6.488  1.00  0.00    -0.288 OA
ATOM      8  C   UNL     1      24.780  18.851   4.138  1.00  0.00     0.020 A 
ATOM      9  C   UNL     1      24.435  18.117   3.005  1.00  0.00     0.047 A 
ATOM     10  C   UNL     1      23.397  17.180   3.052  1.00  0.00     0.125 A 
ATOM     11  C   UNL     1      22.669  16.982   4.247  1.00  0.00     0.069 A 
ENDROOT
BRANCH   1  12
ATOM     12  C   UNL     1      24.049  19.813   8.972  1.00  0.00    -0.011 A 
ATOM     13  C   UNL     1      23.306  19.562  10.138  1.00  0.00     0.013 A 
ATOM     14  C   UNL     1      23.603  20.237  11.326  1.00  0.00     0.047 A 
ATOM     15  C   UNL     1      24.645  21.174  11.361  1.00  0.00     0.115 A 
ATOM     16  C   UNL     1      25.087  20.761   9.014  1.00  0.00     0.013 A 
ATOM     17  C   UNL     1      25.382  21.433  10.203  1.00  0.00     0.047 A 
BRANCH  15  18
ATOM     18  O   UNL     1      24.950  21.853  12.538  1.00  0.00    -0.508 OA
ATOM     19  H   UNL     1      24.456  21.663  13.402  1.00  0.00     0.293 HD
ENDBRANCH  15  18
ENDBRANCH   1  12
BRANCH  11  20
ATOM     20  C   UNL     1      21.554  15.941   4.288  1.00  0.00     0.188 C 
ATOM     21  C   UNL     1      20.215  16.611   4.666  1.00  0.00     0.179 C 
ATOM     22  O   UNL     1      21.471  15.268   3.041  1.00  0.00    -0.362 OA
ATOM     23  C   UNL     1      19.116  15.543   4.781  1.00  0.00     0.177 C 
ATOM     24  C   UNL     1      20.510  14.218   3.031  1.00  0.00     0.176 C 
ATOM     25  C   UNL     1      19.097  14.674   3.505  1.00  0.00     0.177 C 
BRANCH  21  26
ATOM     26  O   UNL     1      19.862  17.561   3.691  1.00  0.00    -0.387 OA
ATOM     27  H   UNL     1      20.694  18.044   3.446  1.00  0.00     0.211 HD
ENDBRANCH  21  26
BRANCH  23  28
ATOM     28  O   UNL     1      19.322  14.754   5.924  1.00  0.00    -0.387 OA
ATOM     29  H   UNL     1      19.424  15.378   6.691  1.00  0.00     0.211 HD
ENDBRANCH  23  28
BRANCH  24  30
ATOM     30  C   UNL     1      21.064  12.908   3.637  1.00  0.00     0.191 C 
BRANCH  30  31
ATOM     31  O   UNL     1      20.417  11.774   3.134  1.00  0.00    -0.394 OA
ATOM     32  H   UNL     1      21.004  11.003   3.347  1.00  0.00     0.210 HD
ENDBRANCH  30  31
ENDBRANCH  24  30
BRANCH  25  33
ATOM     33  O   UNL     1      18.195  13.599   3.606  1.00  0.00    -0.388 OA
ATOM     34  H   UNL     1      17.798  13.611   4.513  1.00  0.00     0.211 HD
ENDBRANCH  25  33
ENDBRANCH  11  20
BRANCH  10  35
ATOM     35  O   UNL     1      23.090  16.441   1.909  1.00  0.00    -0.507 OA
ATOM     36  H   UNL     1      23.711  15.723   1.555  1.00  0.00     0.293 HD
ENDBRANCH  10  35
TORSDOF 9
ENDMDL
MODEL 7
REMARK VINA RESULT:    -0.918      5.232      8.531
REMARK INTER + INTRA:          -0.869
REMARK INTER:                  -2.123
REMARK INTRA:                   1.254
REMARK UNBOUND:                 0.371
REMARK SMILES O=c1c(-c2ccc(O)cc2)coc2c([C@@H]3O[C@@H](CO)[C@@H](O)[C@@H](O)[C@@H]3O)c(O)ccc12
REMARK SMILES IDX 3 1 11 2 12 3 13 4 30 5 2 6 1 7 29 8 28 9 26 10 14 11 4 12
REMARK SMILES IDX 5 13 6 14 7 15 10 16 9 17 8 18 15 20 24 21 16 22 22 23 17 24
REMARK SMILES IDX 20 25 25 26 23 28 18 30 19 31 21 33 27 35
REMARK H PARENT 8 19 25 27 23 29 19 32 21 34 27 36
REMARK Flexibility Score: inf
ROOT
ATOM      1  C   UNL     1      23.437  19.081   7.056  1.00  0.00     0.065 A 
ATOM      2  C   UNL     1      22.118  18.694   7.325  1.00  0.00     0.208 A 
ATOM      3  O   UNL     1      21.582  18.884   8.524  1.00  0.00    -0.463 OA
ATOM      4  C   UNL     1      22.241  19.442   9.538  1.00  0.00     0.147 A 
ATOM      5  C   UNL     1      23.580  19.862   9.353  1.00  0.00     0.066 A 
ATOM      6  C   UNL     1      24.181  19.668   8.096  1.00  0.00     0.200 A 
ATOM      7  O   UNL     1      25.384  20.000   7.907  1.00  0.00    -0.288 OA
ATOM      8  C   UNL     1      24.271  20.461  10.416  1.00  0.00     0.020 A 
ATOM      9  C   UNL     1      23.641  20.657  11.643  1.00  0.00     0.047 A 
ATOM     10  C   UNL     1      22.315  20.250  11.836  1.00  0.00     0.125 A 
ATOM     11  C   UNL     1      21.606  19.614  10.792  1.00  0.00     0.069 A 
ENDROOT
BRANCH   1  12
ATOM     12  C   UNL     1      24.012  18.862   5.704  1.00  0.00    -0.011 A 
ATOM     13  C   UNL     1      23.802  19.799   4.677  1.00  0.00     0.013 A 
ATOM     14  C   UNL     1      24.337  19.583   3.403  1.00  0.00     0.047 A 
ATOM     15  C   UNL     1      25.085  18.428   3.140  1.00  0.00     0.115 A 
ATOM     16  C   UNL     1      24.758  17.702   5.429  1.00  0.00     0.013 A 
ATOM     17  C   UNL     1      25.292  17.490   4.156  1.00  0.00     0.047 A 
BRANCH  15  18
ATOM     18  O   UNL     1      25.623  18.203   1.875  1.00  0.00    -0.508 OA
ATOM     19  H   UNL     1      25.080  18.356   1.034  1.00  0.00     0.293 HD
ENDBRANCH  15  18
ENDBRANCH   1  12
BRANCH  11  20
ATOM     20  C   UNL     1      20.155  19.196  11.011  1.00  0.00     0.188 C 
ATOM     21  C   UNL     1      20.034  18.351  12.298  1.00  0.00     0.179 C 
ATOM     22  O   UNL     1      19.320  20.344  11.057  1.00  0.00    -0.362 OA
ATOM     23  C   UNL     1      18.584  17.870  12.467  1.00  0.00     0.177 C 
ATOM     24  C   UNL     1      17.937  20.029  11.170  1.00  0.00     0.176 C 
ATOM     25  C   UNL     1      17.620  19.072  12.358  1.00  0.00     0.177 C 
BRANCH  21  26
ATOM     26  O   UNL     1      20.420  19.115  13.413  1.00  0.00    -0.387 OA
ATOM     27  H   UNL     1      19.588  19.346  13.904  1.00  0.00     0.211 HD
ENDBRANCH  21  26
BRANCH  23  28
ATOM     28  O   UNL     1      18.280  16.892  11.505  1.00  0.00    -0.387 OA
ATOM     29  H   UNL     1      17.509  16.373  11.855  1.00  0.00     0.211 HD
ENDBRANCH  23  28
BRANCH  24  30
ATOM     30  C   UNL     1      17.298  19.688   9.804  1.00  0.00     0.191 C 
BRANCH  30  31
ATOM     31  O   UNL     1      17.092  18.313   9.642  1.00  0.00    -0.394 OA
ATOM     32  H   UNL     1      17.403  18.093   8.725  1.00  0.00     0.210 HD
ENDBRANCH  30  31
ENDBRANCH  24  30
BRANCH  25  33
ATOM     33  O   UNL     1      16.270  18.674  12.378  1.00  0.00    -0.388 OA
ATOM     34  H   UNL     1      16.188  17.827  11.872  1.00  0.00     0.211 HD
ENDBRANCH  25  33
ENDBRANCH  11  20
BRANCH  10  35
ATOM     35  O   UNL     1      21.701  20.483  13.067  1.00  0.00    -0.507 OA
ATOM     36  H   UNL     1      21.491  21.420  13.390  1.00  0.00     0.293 HD
ENDBRANCH  10  35
TORSDOF 9
ENDMDL
MODEL 8
REMARK VINA RESULT:    -0.550      4.461      8.048
REMARK INTER + INTRA:          -0.372
REMARK INTER:                   0.022
REMARK INTRA:                  -0.394
REMARK UNBOUND:                 0.371
REMARK SMILES O=c1c(-c2ccc(O)cc2)coc2c([C@@H]3O[C@@H](CO)[C@@H](O)[C@@H](O)[C@@H]3O)c(O)ccc12
REMARK SMILES IDX 3 1 11 2 12 3 13 4 30 5 2 6 1 7 29 8 28 9 26 10 14 11 4 12
REMARK SMILES IDX 5 13 6 14 7 15 10 16 9 17 8 18 15 20 24 21 16 22 22 23 17 24
REMARK SMILES IDX 20 25 25 26 23 28 18 30 19 31 21 33 27 35
REMARK H PARENT 8 19 25 27 23 29 19 32 21 34 27 36
REMARK Flexibility Score: inf
ROOT
ATOM      1  C   UNL     1      20.450  19.575  10.588  1.00  0.00     0.065 A 
ATOM      2  C   UNL     1      20.391  19.159   9.252  1.00  0.00     0.208 A 
ATOM      3  O   UNL     1      21.463  19.214   8.472  1.00  0.00    -0.463 OA
ATOM      4  C   UNL     1      22.647  19.657   8.889  1.00  0.00     0.147 A 
ATOM      5  C   UNL     1      22.795  20.097  10.226  1.00  0.00     0.066 A 
ATOM      6  C   UNL     1      21.676  20.060  11.077  1.00  0.00     0.200 A 
ATOM      7  O   UNL     1      21.766  20.476  12.266  1.00  0.00    -0.288 OA
ATOM      8  C   UNL     1      24.045  20.553  10.671  1.00  0.00     0.020 A 
ATOM      9  C   UNL     1      25.139  20.558   9.808  1.00  0.00     0.047 A 
ATOM     10  C   UNL     1      25.005  20.120   8.485  1.00  0.00     0.125 A 
ATOM     11  C   UNL     1      23.750  19.688   8.001  1.00  0.00     0.069 A 
ENDROOT
BRANCH   1  12
ATOM     12  C   UNL     1      19.237  19.498  11.442  1.00  0.00    -0.011 A 
ATOM     13  C   UNL     1      19.349  19.301  12.829  1.00  0.00     0.013 A 
ATOM     14  C   UNL     1      18.203  19.220  13.627  1.00  0.00     0.047 A 
ATOM     15  C   UNL     1      16.932  19.332  13.047  1.00  0.00     0.115 A 
ATOM     16  C   UNL     1      17.957  19.602  10.867  1.00  0.00     0.013 A 
ATOM     17  C   UNL     1      16.815  19.521  11.667  1.00  0.00     0.047 A 
BRANCH  15  18
ATOM     18  O   UNL     1      15.785  19.253  13.832  1.00  0.00    -0.508 OA
ATOM     19  H   UNL     1      15.378  18.361  14.088  1.00  0.00     0.293 HD
ENDBRANCH  15  18
ENDBRANCH   1  12
BRANCH  11  20
ATOM     20  C   UNL     1      23.626  19.193   6.563  1.00  0.00     0.188 C 
ATOM     21  C   UNL     1      23.232  20.361   5.633  1.00  0.00     0.179 C 
ATOM     22  O   UNL     1      24.839  18.581   6.153  1.00  0.00    -0.362 OA
ATOM     23  C   UNL     1      23.033  19.837   4.201  1.00  0.00     0.177 C 
ATOM     24  C   UNL     1      24.770  18.015   4.849  1.00  0.00     0.176 C 
ATOM     25  C   UNL     1      24.269  19.019   3.769  1.00  0.00     0.177 C 
BRANCH  21  26
ATOM     26  O   UNL     1      24.234  21.347   5.648  1.00  0.00    -0.387 OA
ATOM     27  H   UNL     1      25.087  20.894   5.418  1.00  0.00     0.211 HD
ENDBRANCH  21  26
BRANCH  23  28
ATOM     28  O   UNL     1      21.864  19.063   4.125  1.00  0.00    -0.387 OA
ATOM     29  H   UNL     1      21.191  19.603   3.634  1.00  0.00     0.211 HD
ENDBRANCH  23  28
BRANCH  24  30
ATOM     30  C   UNL     1      24.127  16.608   4.852  1.00  0.00     0.191 C 
BRANCH  30  31
ATOM     31  O   UNL     1      24.761  15.732   3.964  1.00  0.00    -0.394 OA
ATOM     32  H   UNL     1      24.592  14.817   4.309  1.00  0.00     0.210 HD
ENDBRANCH  30  31
ENDBRANCH  24  30
BRANCH  25  33
ATOM     33  O   UNL     1      24.089  18.408   2.514  1.00  0.00    -0.388 OA
ATOM     34  H   UNL     1      24.879  17.839   2.329  1.00  0.00     0.211 HD
ENDBRANCH  25  33
ENDBRANCH  11  20
BRANCH  10  35
ATOM     35  O   UNL     1      26.124  20.113   7.651  1.00  0.00    -0.507 OA
ATOM     36  H   UNL     1      26.493  19.253   7.261  1.00  0.00     0.293 HD
ENDBRANCH  10  35
TORSDOF 9
ENDMDL
