MODEL 1
REMARK VINA RESULT:    -7.707      0.000      0.000
REMARK INTER + INTRA:          -9.789
REMARK INTER:                  -9.510
REMARK INTRA:                  -0.280
REMARK UNBOUND:                -0.280
REMARK SMILES O=c1c(O)c(-c2cc(O)c(O)c(O)c2)oc2cc(O)cc(O)c12
REMARK SMILES IDX 5 1 3 2 2 3 1 4 23 5 21 6 20 7 18 8 17 9 16 10 15 11 6 12
REMARK SMILES IDX 7 13 8 14 14 15 10 16 12 17 9 18 11 20 13 22 4 24 22 26
REMARK SMILES IDX 19 28
REMARK H PARENT 9 19 11 21 13 23 4 25 22 27 19 29
REMARK Flexibility Score: inf
ROOT
ATOM      1  C   UNL     1       9.903  27.538  40.243  1.00  0.00     0.180 A 
ATOM      2  C   UNL     1      10.691  28.303  41.120  1.00  0.00     0.208 A 
ATOM      3  C   UNL     1      12.070  28.050  41.193  1.00  0.00     0.238 A 
ATOM      4  O   UNL     1      12.761  28.702  42.019  1.00  0.00    -0.285 OA
ATOM      5  C   UNL     1      12.647  27.048  40.377  1.00  0.00     0.111 A 
ATOM      6  C   UNL     1      14.040  26.735  40.340  1.00  0.00     0.134 A 
ATOM      7  C   UNL     1      14.481  25.637  39.592  1.00  0.00     0.093 A 
ATOM      8  C   UNL     1      13.591  24.882  38.828  1.00  0.00     0.123 A 
ATOM      9  C   UNL     1      12.236  25.215  38.811  1.00  0.00     0.094 A 
ATOM     10  C   UNL     1      11.761  26.282  39.576  1.00  0.00     0.146 A 
ATOM     11  O   UNL     1      10.463  26.560  39.539  1.00  0.00    -0.452 OA
ENDROOT
BRANCH   1  12
ATOM     12  C   UNL     1       8.447  27.761  40.093  1.00  0.00     0.029 A 
ATOM     13  C   UNL     1       7.512  26.878  40.654  1.00  0.00     0.062 A 
ATOM     14  C   UNL     1       6.140  27.115  40.523  1.00  0.00     0.162 A 
ATOM     15  C   UNL     1       7.989  28.906  39.428  1.00  0.00     0.062 A 
ATOM     16  C   UNL     1       5.681  28.252  39.834  1.00  0.00     0.200 A 
ATOM     17  C   UNL     1       6.619  29.159  39.286  1.00  0.00     0.162 A 
BRANCH  14  18
ATOM     18  O   UNL     1       5.248  26.207  41.091  1.00  0.00    -0.504 OA
ATOM     19  H   UNL     1       4.928  25.381  40.598  1.00  0.00     0.293 HD
ENDBRANCH  14  18
BRANCH  16  20
ATOM     20  O   UNL     1       4.302  28.447  39.719  1.00  0.00    -0.502 OA
ATOM     21  H   UNL     1       3.663  28.462  40.501  1.00  0.00     0.293 HD
ENDBRANCH  16  20
BRANCH  17  22
ATOM     22  O   UNL     1       6.241  30.315  38.601  1.00  0.00    -0.504 OA
ATOM     23  H   UNL     1       6.125  30.368  37.600  1.00  0.00     0.293 HD
ENDBRANCH  17  22
ENDBRANCH   1  12
BRANCH   2  24
ATOM     24  O   UNL     1      10.097  29.272  41.933  1.00  0.00    -0.502 OA
ATOM     25  H   UNL     1      10.544  30.158  42.139  1.00  0.00     0.293 HD
ENDBRANCH   2  24
BRANCH   6  26
ATOM     26  O   UNL     1      15.025  27.483  40.992  1.00  0.00    -0.507 OA
ATOM     27  H   UNL     1      14.858  28.089  41.781  1.00  0.00     0.293 HD
ENDBRANCH   6  26
BRANCH   8  28
ATOM     28  O   UNL     1      14.068  23.804  38.084  1.00  0.00    -0.508 OA
ATOM     29  H   UNL     1      14.635  23.943  37.255  1.00  0.00     0.293 HD
ENDBRANCH   8  28
TORSDOF 7
ENDMDL
MODEL 2
REMARK VINA RESULT:    -7.698      0.109      1.769
REMARK INTER + INTRA:          -9.778
REMARK INTER:                  -9.477
REMARK INTRA:                  -0.300
REMARK UNBOUND:                -0.280
REMARK SMILES O=c1c(O)c(-c2cc(O)c(O)c(O)c2)oc2cc(O)cc(O)c12
REMARK SMILES IDX 5 1 3 2 2 3 1 4 23 5 21 6 20 7 18 8 17 9 16 10 15 11 6 12
REMARK SMILES IDX 7 13 8 14 14 15 10 16 12 17 9 18 11 20 13 22 4 24 22 26
REMARK SMILES IDX 19 28
REMARK H PARENT 9 19 11 21 13 23 4 25 22 27 19 29
REMARK Flexibility Score: inf
ROOT
ATOM      1  C   UNL     1       9.969  27.599  40.298  1.00  0.00     0.180 A 
ATOM      2  C   UNL     1      10.792  28.350  41.154  1.00  0.00     0.208 A 
ATOM      3  C   UNL     1      12.163  28.054  41.212  1.00  0.00     0.238 A 
ATOM      4  O   UNL     1      12.886  28.693  42.020  1.00  0.00    -0.285 OA
ATOM      5  C   UNL     1      12.696  27.022  40.403  1.00  0.00     0.111 A 
ATOM      6  C   UNL     1      14.078  26.663  40.352  1.00  0.00     0.134 A 
ATOM      7  C   UNL     1      14.473  25.542  39.613  1.00  0.00     0.093 A 
ATOM      8  C   UNL     1      13.549  24.806  38.872  1.00  0.00     0.123 A 
ATOM      9  C   UNL     1      12.206  25.182  38.868  1.00  0.00     0.094 A 
ATOM     10  C   UNL     1      11.775  26.275  39.623  1.00  0.00     0.146 A 
ATOM     11  O   UNL     1      10.487  26.595  39.600  1.00  0.00    -0.452 OA
ENDROOT
BRANCH   1  12
ATOM     12  C   UNL     1       8.519  27.868  40.163  1.00  0.00     0.029 A 
ATOM     13  C   UNL     1       8.046  28.997  39.476  1.00  0.00     0.062 A 
ATOM     14  C   UNL     1       6.674  29.224  39.338  1.00  0.00     0.162 A 
ATOM     15  C   UNL     1       7.595  26.949  40.680  1.00  0.00     0.062 A 
ATOM     16  C   UNL     1       5.747  28.314  39.878  1.00  0.00     0.200 A 
ATOM     17  C   UNL     1       6.217  27.162  40.552  1.00  0.00     0.162 A 
BRANCH  14  18
ATOM     18  O   UNL     1       6.250  30.363  38.653  1.00  0.00    -0.504 OA
ATOM     19  H   UNL     1       6.082  30.363  37.654  1.00  0.00     0.293 HD
ENDBRANCH  14  18
BRANCH  16  20
ATOM     20  O   UNL     1       4.385  28.584  39.725  1.00  0.00    -0.502 OA
ATOM     21  H   UNL     1       3.986  29.512  39.722  1.00  0.00     0.293 HD
ENDBRANCH  16  20
BRANCH  17  22
ATOM     22  O   UNL     1       5.361  26.207  41.103  1.00  0.00    -0.504 OA
ATOM     23  H   UNL     1       4.663  25.700  40.578  1.00  0.00     0.293 HD
ENDBRANCH  17  22
ENDBRANCH   1  12
BRANCH   2  24
ATOM     24  O   UNL     1      10.242  29.349  41.961  1.00  0.00    -0.502 OA
ATOM     25  H   UNL     1       9.248  29.411  42.150  1.00  0.00     0.293 HD
ENDBRANCH   2  24
BRANCH   6  26
ATOM     26  O   UNL     1      15.095  27.387  40.981  1.00  0.00    -0.507 OA
ATOM     27  H   UNL     1      15.354  28.334  40.751  1.00  0.00     0.293 HD
ENDBRANCH   6  26
BRANCH   8  28
ATOM     28  O   UNL     1      13.981  23.704  38.136  1.00  0.00    -0.508 OA
ATOM     29  H   UNL     1      14.515  23.814  37.281  1.00  0.00     0.293 HD
ENDBRANCH   8  28
TORSDOF 7
ENDMDL
MODEL 3
REMARK VINA RESULT:    -7.600      1.661      2.943
REMARK INTER + INTRA:          -9.657
REMARK INTER:                  -9.349
REMARK INTRA:                  -0.307
REMARK UNBOUND:                -0.280
REMARK SMILES O=c1c(O)c(-c2cc(O)c(O)c(O)c2)oc2cc(O)cc(O)c12
REMARK SMILES IDX 5 1 3 2 2 3 1 4 23 5 21 6 20 7 18 8 17 9 16 10 15 11 6 12
REMARK SMILES IDX 7 13 8 14 14 15 10 16 12 17 9 18 11 20 13 22 4 24 22 26
REMARK SMILES IDX 19 28
REMARK H PARENT 9 19 11 21 13 23 4 25 22 27 19 29
REMARK Flexibility Score: inf
ROOT
ATOM      1  C   UNL     1       9.942  27.382  38.672  1.00  0.00     0.180 A 
ATOM      2  C   UNL     1      10.282  26.960  37.375  1.00  0.00     0.208 A 
ATOM      3  C   UNL     1      11.624  26.664  37.087  1.00  0.00     0.238 A 
ATOM      4  O   UNL     1      11.931  26.339  35.910  1.00  0.00    -0.285 OA
ATOM      5  C   UNL     1      12.605  26.777  38.101  1.00  0.00     0.111 A 
ATOM      6  C   UNL     1      13.987  26.463  37.930  1.00  0.00     0.134 A 
ATOM      7  C   UNL     1      14.890  26.737  38.965  1.00  0.00     0.093 A 
ATOM      8  C   UNL     1      14.452  27.251  40.185  1.00  0.00     0.123 A 
ATOM      9  C   UNL     1      13.095  27.506  40.384  1.00  0.00     0.094 A 
ATOM     10  C   UNL     1      12.175  27.277  39.358  1.00  0.00     0.146 A 
ATOM     11  O   UNL     1      10.894  27.542  39.584  1.00  0.00    -0.452 OA
ENDROOT
BRANCH   1  12
ATOM     12  C   UNL     1       8.546  27.690  39.059  1.00  0.00     0.029 A 
ATOM     13  C   UNL     1       7.795  26.803  39.847  1.00  0.00     0.062 A 
ATOM     14  C   UNL     1       6.486  27.119  40.223  1.00  0.00     0.162 A 
ATOM     15  C   UNL     1       7.979  28.915  38.685  1.00  0.00     0.062 A 
ATOM     16  C   UNL     1       5.909  28.339  39.826  1.00  0.00     0.200 A 
ATOM     17  C   UNL     1       6.669  29.247  39.052  1.00  0.00     0.162 A 
BRANCH  14  18
ATOM     18  O   UNL     1       5.775  26.204  41.000  1.00  0.00    -0.504 OA
ATOM     19  H   UNL     1       5.558  25.270  40.673  1.00  0.00     0.293 HD
ENDBRANCH  14  18
BRANCH  16  20
ATOM     20  O   UNL     1       4.595  28.610  40.217  1.00  0.00    -0.502 OA
ATOM     21  H   UNL     1       4.266  29.519  40.509  1.00  0.00     0.293 HD
ENDBRANCH  16  20
BRANCH  17  22
ATOM     22  O   UNL     1       6.172  30.481  38.630  1.00  0.00    -0.504 OA
ATOM     23  H   UNL     1       6.122  31.303  39.215  1.00  0.00     0.293 HD
ENDBRANCH  17  22
ENDBRANCH   1  12
BRANCH   2  24
ATOM     24  O   UNL     1       9.302  26.877  36.383  1.00  0.00    -0.502 OA
ATOM     25  H   UNL     1       8.383  26.487  36.557  1.00  0.00     0.293 HD
ENDBRANCH   2  24
BRANCH   6  26
ATOM     26  O   UNL     1      14.515  25.862  36.784  1.00  0.00    -0.507 OA
ATOM     27  H   UNL     1      15.119  26.321  36.120  1.00  0.00     0.293 HD
ENDBRANCH   6  26
BRANCH   8  28
ATOM     28  O   UNL     1      15.377  27.496  41.198  1.00  0.00    -0.508 OA
ATOM     29  H   UNL     1      16.043  26.790  41.491  1.00  0.00     0.293 HD
ENDBRANCH   8  28
TORSDOF 7
ENDMDL
MODEL 4
REMARK VINA RESULT:    -7.574      2.889      3.862
REMARK INTER + INTRA:          -9.624
REMARK INTER:                  -9.304
REMARK INTRA:                  -0.320
REMARK UNBOUND:                -0.280
REMARK SMILES O=c1c(O)c(-c2cc(O)c(O)c(O)c2)oc2cc(O)cc(O)c12
REMARK SMILES IDX 5 1 3 2 2 3 1 4 23 5 21 6 20 7 18 8 17 9 16 10 15 11 6 12
REMARK SMILES IDX 7 13 8 14 14 15 10 16 12 17 9 18 11 20 13 22 4 24 22 26
REMARK SMILES IDX 19 28
REMARK H PARENT 9 19 11 21 13 23 4 25 22 27 19 29
REMARK Flexibility Score: inf
ROOT
ATOM      1  C   UNL     1       9.788  27.218  37.907  1.00  0.00     0.180 A 
ATOM      2  C   UNL     1      11.060  27.312  38.497  1.00  0.00     0.208 A 
ATOM      3  C   UNL     1      12.188  26.952  37.744  1.00  0.00     0.238 A 
ATOM      4  O   UNL     1      13.319  26.986  38.295  1.00  0.00    -0.285 OA
ATOM      5  C   UNL     1      12.032  26.518  36.405  1.00  0.00     0.111 A 
ATOM      6  C   UNL     1      13.110  26.167  35.537  1.00  0.00     0.134 A 
ATOM      7  C   UNL     1      12.832  25.627  34.275  1.00  0.00     0.093 A 
ATOM      8  C   UNL     1      11.519  25.487  33.826  1.00  0.00     0.123 A 
ATOM      9  C   UNL     1      10.460  25.882  34.643  1.00  0.00     0.094 A 
ATOM     10  C   UNL     1      10.705  26.390  35.921  1.00  0.00     0.146 A 
ATOM     11  O   UNL     1       9.669  26.746  36.671  1.00  0.00    -0.452 OA
ENDROOT
BRANCH   1  12
ATOM     12  C   UNL     1       8.553  27.603  38.629  1.00  0.00     0.029 A 
ATOM     13  C   UNL     1       7.909  28.824  38.374  1.00  0.00     0.062 A 
ATOM     14  C   UNL     1       6.732  29.162  39.047  1.00  0.00     0.162 A 
ATOM     15  C   UNL     1       7.981  26.709  39.544  1.00  0.00     0.062 A 
ATOM     16  C   UNL     1       6.171  28.274  39.984  1.00  0.00     0.200 A 
ATOM     17  C   UNL     1       6.803  27.032  40.228  1.00  0.00     0.162 A 
BRANCH  14  18
ATOM     18  O   UNL     1       6.130  30.388  38.767  1.00  0.00    -0.504 OA
ATOM     19  H   UNL     1       6.669  31.228  38.588  1.00  0.00     0.293 HD
ENDBRANCH  14  18
BRANCH  16  20
ATOM     20  O   UNL     1       4.998  28.656  40.641  1.00  0.00    -0.502 OA
ATOM     21  H   UNL     1       4.491  28.068  41.286  1.00  0.00     0.293 HD
ENDBRANCH  16  20
BRANCH  17  22
ATOM     22  O   UNL     1       6.301  26.094  41.132  1.00  0.00    -0.504 OA
ATOM     23  H   UNL     1       5.727  26.325  41.930  1.00  0.00     0.293 HD
ENDBRANCH  17  22
ENDBRANCH   1  12
BRANCH   2  24
ATOM     24  O   UNL     1      11.189  27.721  39.827  1.00  0.00    -0.502 OA
ATOM     25  H   UNL     1      12.085  27.768  40.298  1.00  0.00     0.293 HD
ENDBRANCH   2  24
BRANCH   6  26
ATOM     26  O   UNL     1      14.459  26.353  35.853  1.00  0.00    -0.507 OA
ATOM     27  H   UNL     1      15.223  26.233  35.205  1.00  0.00     0.293 HD
ENDBRANCH   6  26
BRANCH   8  28
ATOM     28  O   UNL     1      11.280  24.960  32.558  1.00  0.00    -0.508 OA
ATOM     29  H   UNL     1      10.833  25.508  31.832  1.00  0.00     0.293 HD
ENDBRANCH   8  28
TORSDOF 7
ENDMDL
MODEL 5
REMARK VINA RESULT:    -7.418      2.760      3.223
REMARK INTER + INTRA:          -9.432
REMARK INTER:                  -9.110
REMARK INTRA:                  -0.322
REMARK UNBOUND:                -0.280
REMARK SMILES O=c1c(O)c(-c2cc(O)c(O)c(O)c2)oc2cc(O)cc(O)c12
REMARK SMILES IDX 5 1 3 2 2 3 1 4 23 5 21 6 20 7 18 8 17 9 16 10 15 11 6 12
REMARK SMILES IDX 7 13 8 14 14 15 10 16 12 17 9 18 11 20 13 22 4 24 22 26
REMARK SMILES IDX 19 28
REMARK H PARENT 9 19 11 21 13 23 4 25 22 27 19 29
REMARK Flexibility Score: inf
ROOT
ATOM      1  C   UNL     1      10.041  27.277  38.018  1.00  0.00     0.180 A 
ATOM      2  C   UNL     1      11.282  27.520  38.632  1.00  0.00     0.208 A 
ATOM      3  C   UNL     1      12.460  27.231  37.924  1.00  0.00     0.238 A 
ATOM      4  O   UNL     1      13.567  27.400  38.498  1.00  0.00    -0.285 OA
ATOM      5  C   UNL     1      12.383  26.720  36.606  1.00  0.00     0.111 A 
ATOM      6  C   UNL     1      13.512  26.431  35.781  1.00  0.00     0.134 A 
ATOM      7  C   UNL     1      13.320  25.806  34.543  1.00  0.00     0.093 A 
ATOM      8  C   UNL     1      12.040  25.521  34.071  1.00  0.00     0.123 A 
ATOM      9  C   UNL     1      10.926  25.853  34.843  1.00  0.00     0.094 A 
ATOM     10  C   UNL     1      11.087  26.444  36.098  1.00  0.00     0.146 A 
ATOM     11  O   UNL     1      10.002  26.736  36.805  1.00  0.00    -0.452 OA
ENDROOT
BRANCH   1  12
ATOM     12  C   UNL     1       8.757  27.578  38.691  1.00  0.00     0.029 A 
ATOM     13  C   UNL     1       8.219  26.713  39.656  1.00  0.00     0.062 A 
ATOM     14  C   UNL     1       7.017  27.022  40.299  1.00  0.00     0.162 A 
ATOM     15  C   UNL     1       8.091  28.777  38.404  1.00  0.00     0.062 A 
ATOM     16  C   UNL     1       6.336  28.215  39.993  1.00  0.00     0.200 A 
ATOM     17  C   UNL     1       6.886  29.102  39.037  1.00  0.00     0.162 A 
BRANCH  14  18
ATOM     18  O   UNL     1       6.517  26.129  41.247  1.00  0.00    -0.504 OA
ATOM     19  H   UNL     1       5.682  25.578  41.084  1.00  0.00     0.293 HD
ENDBRANCH  14  18
BRANCH  16  20
ATOM     20  O   UNL     1       5.134  28.481  40.653  1.00  0.00    -0.502 OA
ATOM     21  H   UNL     1       5.026  29.172  41.381  1.00  0.00     0.293 HD
ENDBRANCH  16  20
BRANCH  17  22
ATOM     22  O   UNL     1       6.277  30.309  38.690  1.00  0.00    -0.504 OA
ATOM     23  H   UNL     1       5.291  30.413  38.498  1.00  0.00     0.293 HD
ENDBRANCH  17  22
ENDBRANCH   1  12
BRANCH   2  24
ATOM     24  O   UNL     1      11.336  28.004  39.941  1.00  0.00    -0.502 OA
ATOM     25  H   UNL     1      10.818  27.577  40.701  1.00  0.00     0.293 HD
ENDBRANCH   2  24
BRANCH   6  26
ATOM     26  O   UNL     1      14.829  26.759  36.118  1.00  0.00    -0.507 OA
ATOM     27  H   UNL     1      15.256  27.658  35.956  1.00  0.00     0.293 HD
ENDBRANCH   6  26
BRANCH   8  28
ATOM     28  O   UNL     1      11.886  24.912  32.826  1.00  0.00    -0.508 OA
ATOM     29  H   UNL     1      11.161  25.203  32.181  1.00  0.00     0.293 HD
ENDBRANCH   8  28
TORSDOF 7
ENDMDL
MODEL 6
REMARK VINA RESULT:    -7.222     11.061     13.240
REMARK INTER + INTRA:          -9.190
REMARK INTER:                  -9.009
REMARK INTRA:                  -0.181
REMARK UNBOUND:                -0.280
REMARK SMILES O=c1c(O)c(-c2cc(O)c(O)c(O)c2)oc2cc(O)cc(O)c12
REMARK SMILES IDX 5 1 3 2 2 3 1 4 23 5 21 6 20 7 18 8 17 9 16 10 15 11 6 12
REMARK SMILES IDX 7 13 8 14 14 15 10 16 12 17 9 18 11 20 13 22 4 24 22 26
REMARK SMILES IDX 19 28
REMARK H PARENT 9 19 11 21 13 23 4 25 22 27 19 29
REMARK Flexibility Score: inf
ROOT
ATOM      1  C   UNL     1      13.052  24.540  29.096  1.00  0.00     0.180 A 
ATOM      2  C   UNL     1      11.683  24.850  29.017  1.00  0.00     0.208 A 
ATOM      3  C   UNL     1      10.756  23.804  28.883  1.00  0.00     0.238 A 
ATOM      4  O   UNL     1       9.537  24.090  28.758  1.00  0.00    -0.285 OA
ATOM      5  C   UNL     1      11.207  22.463  28.848  1.00  0.00     0.111 A 
ATOM      6  C   UNL     1      10.352  21.322  28.756  1.00  0.00     0.134 A 
ATOM      7  C   UNL     1      10.914  20.050  28.596  1.00  0.00     0.093 A 
ATOM      8  C   UNL     1      12.296  19.868  28.592  1.00  0.00     0.123 A 
ATOM      9  C   UNL     1      13.140  20.969  28.740  1.00  0.00     0.094 A 
ATOM     10  C   UNL     1      12.610  22.255  28.865  1.00  0.00     0.146 A 
ATOM     11  O   UNL     1      13.448  23.277  28.994  1.00  0.00    -0.452 OA
ENDROOT
BRANCH   1  12
ATOM     12  C   UNL     1      14.088  25.586  29.262  1.00  0.00     0.029 A 
ATOM     13  C   UNL     1      14.300  26.565  28.279  1.00  0.00     0.062 A 
ATOM     14  C   UNL     1      15.266  27.559  28.461  1.00  0.00     0.162 A 
ATOM     15  C   UNL     1      14.833  25.639  30.448  1.00  0.00     0.062 A 
ATOM     16  C   UNL     1      16.031  27.596  29.641  1.00  0.00     0.200 A 
ATOM     17  C   UNL     1      15.805  26.626  30.646  1.00  0.00     0.162 A 
BRANCH  14  18
ATOM     18  O   UNL     1      15.448  28.506  27.454  1.00  0.00    -0.504 OA
ATOM     19  H   UNL     1      15.873  29.409  27.630  1.00  0.00     0.293 HD
ENDBRANCH  14  18
BRANCH  16  20
ATOM     20  O   UNL     1      16.992  28.602  29.778  1.00  0.00    -0.502 OA
ATOM     21  H   UNL     1      17.547  28.747  30.608  1.00  0.00     0.293 HD
ENDBRANCH  16  20
BRANCH  17  22
ATOM     22  O   UNL     1      16.514  26.605  31.849  1.00  0.00    -0.504 OA
ATOM     23  H   UNL     1      16.765  27.430  32.374  1.00  0.00     0.293 HD
ENDBRANCH  17  22
ENDBRANCH   1  12
BRANCH   2  24
ATOM     24  O   UNL     1      11.262  26.182  29.032  1.00  0.00    -0.502 OA
ATOM     25  H   UNL     1      11.901  26.957  28.903  1.00  0.00     0.293 HD
ENDBRANCH   2  24
BRANCH   6  26
ATOM     26  O   UNL     1       8.958  21.383  28.842  1.00  0.00    -0.507 OA
ATOM     27  H   UNL     1       8.394  20.807  29.448  1.00  0.00     0.293 HD
ENDBRANCH   6  26
BRANCH   8  28
ATOM     28  O   UNL     1      12.820  18.585  28.447  1.00  0.00    -0.508 OA
ATOM     29  H   UNL     1      12.777  17.907  29.199  1.00  0.00     0.293 HD
ENDBRANCH   8  28
TORSDOF 7
ENDMDL
MODEL 7
REMARK VINA RESULT:    -7.165      3.049      7.377
REMARK INTER + INTRA:          -9.120
REMARK INTER:                  -9.506
REMARK INTRA:                   0.386
REMARK UNBOUND:                -0.280
REMARK SMILES O=c1c(O)c(-c2cc(O)c(O)c(O)c2)oc2cc(O)cc(O)c12
REMARK SMILES IDX 5 1 3 2 2 3 1 4 23 5 21 6 20 7 18 8 17 9 16 10 15 11 6 12
REMARK SMILES IDX 7 13 8 14 14 15 10 16 12 17 9 18 11 20 13 22 4 24 22 26
REMARK SMILES IDX 19 28
REMARK H PARENT 9 19 11 21 13 23 4 25 22 27 19 29
REMARK Flexibility Score: inf
ROOT
ATOM      1  C   UNL     1       8.821  26.906  37.632  1.00  0.00     0.180 A 
ATOM      2  C   UNL     1       8.860  27.531  38.890  1.00  0.00     0.208 A 
ATOM      3  C   UNL     1       7.655  27.754  39.576  1.00  0.00     0.238 A 
ATOM      4  O   UNL     1       7.691  28.362  40.677  1.00  0.00    -0.285 OA
ATOM      5  C   UNL     1       6.430  27.334  39.005  1.00  0.00     0.111 A 
ATOM      6  C   UNL     1       5.154  27.472  39.630  1.00  0.00     0.134 A 
ATOM      7  C   UNL     1       3.996  27.140  38.917  1.00  0.00     0.093 A 
ATOM      8  C   UNL     1       4.070  26.614  37.628  1.00  0.00     0.123 A 
ATOM      9  C   UNL     1       5.315  26.420  37.029  1.00  0.00     0.094 A 
ATOM     10  C   UNL     1       6.487  26.775  37.702  1.00  0.00     0.146 A 
ATOM     11  O   UNL     1       7.651  26.583  37.093  1.00  0.00    -0.452 OA
ENDROOT
BRANCH   1  12
ATOM     12  C   UNL     1      10.050  26.615  36.858  1.00  0.00     0.029 A 
ATOM     13  C   UNL     1      11.320  26.688  37.451  1.00  0.00     0.062 A 
ATOM     14  C   UNL     1      12.469  26.389  36.713  1.00  0.00     0.162 A 
ATOM     15  C   UNL     1       9.945  26.202  35.523  1.00  0.00     0.062 A 
ATOM     16  C   UNL     1      12.364  25.998  35.366  1.00  0.00     0.200 A 
ATOM     17  C   UNL     1      11.084  25.900  34.770  1.00  0.00     0.162 A 
BRANCH  14  18
ATOM     18  O   UNL     1      13.710  26.482  37.342  1.00  0.00    -0.504 OA
ATOM     19  H   UNL     1      14.575  26.573  36.823  1.00  0.00     0.293 HD
ENDBRANCH  14  18
BRANCH  16  20
ATOM     20  O   UNL     1      13.538  25.716  34.663  1.00  0.00    -0.502 OA
ATOM     21  H   UNL     1      13.982  24.809  34.639  1.00  0.00     0.293 HD
ENDBRANCH  16  20
BRANCH  17  22
ATOM     22  O   UNL     1      10.898  25.506  33.443  1.00  0.00    -0.504 OA
ATOM     23  H   UNL     1      11.324  25.964  32.650  1.00  0.00     0.293 HD
ENDBRANCH  17  22
ENDBRANCH   1  12
BRANCH   2  24
ATOM     24  O   UNL     1      10.077  27.958  39.426  1.00  0.00    -0.502 OA
ATOM     25  H   UNL     1      10.670  27.352  39.982  1.00  0.00     0.293 HD
ENDBRANCH   2  24
BRANCH   6  26
ATOM     26  O   UNL     1       4.974  27.901  40.949  1.00  0.00    -0.507 OA
ATOM     27  H   UNL     1       4.417  27.421  41.639  1.00  0.00     0.293 HD
ENDBRANCH   6  26
BRANCH   8  28
ATOM     28  O   UNL     1       2.897  26.281  36.953  1.00  0.00    -0.508 OA
ATOM     29  H   UNL     1       2.146  25.778  37.413  1.00  0.00     0.293 HD
ENDBRANCH   8  28
TORSDOF 7
ENDMDL
MODEL 8
REMARK VINA RESULT:    -7.091      3.069      7.040
REMARK INTER + INTRA:          -9.029
REMARK INTER:                  -8.777
REMARK INTRA:                  -0.252
REMARK UNBOUND:                -0.280
REMARK SMILES O=c1c(O)c(-c2cc(O)c(O)c(O)c2)oc2cc(O)cc(O)c12
REMARK SMILES IDX 5 1 3 2 2 3 1 4 23 5 21 6 20 7 18 8 17 9 16 10 15 11 6 12
REMARK SMILES IDX 7 13 8 14 14 15 10 16 12 17 9 18 11 20 13 22 4 24 22 26
REMARK SMILES IDX 19 28
REMARK H PARENT 9 19 11 21 13 23 4 25 22 27 19 29
REMARK Flexibility Score: inf
ROOT
ATOM      1  C   UNL     1       9.755  26.526  37.335  1.00  0.00     0.180 A 
ATOM      2  C   UNL     1      10.359  27.332  38.315  1.00  0.00     0.208 A 
ATOM      3  C   UNL     1       9.546  27.987  39.253  1.00  0.00     0.238 A 
ATOM      4  O   UNL     1      10.088  28.751  40.094  1.00  0.00    -0.285 OA
ATOM      5  C   UNL     1       8.141  27.814  39.211  1.00  0.00     0.111 A 
ATOM      6  C   UNL     1       7.225  28.397  40.137  1.00  0.00     0.134 A 
ATOM      7  C   UNL     1       5.847  28.265  39.922  1.00  0.00     0.093 A 
ATOM      8  C   UNL     1       5.355  27.516  38.853  1.00  0.00     0.123 A 
ATOM      9  C   UNL     1       6.242  26.893  37.976  1.00  0.00     0.094 A 
ATOM     10  C   UNL     1       7.621  27.037  38.144  1.00  0.00     0.146 A 
ATOM     11  O   UNL     1       8.431  26.436  37.281  1.00  0.00    -0.452 OA
ENDROOT
BRANCH   1  12
ATOM     12  C   UNL     1      10.547  25.785  36.326  1.00  0.00     0.029 A 
ATOM     13  C   UNL     1      11.383  24.719  36.694  1.00  0.00     0.062 A 
ATOM     14  C   UNL     1      12.106  24.014  35.727  1.00  0.00     0.162 A 
ATOM     15  C   UNL     1      10.419  26.113  34.970  1.00  0.00     0.062 A 
ATOM     16  C   UNL     1      11.996  24.360  34.368  1.00  0.00     0.200 A 
ATOM     17  C   UNL     1      11.137  25.419  33.989  1.00  0.00     0.162 A 
BRANCH  14  18
ATOM     18  O   UNL     1      12.929  22.967  36.140  1.00  0.00    -0.504 OA
ATOM     19  H   UNL     1      12.572  22.162  36.642  1.00  0.00     0.293 HD
ENDBRANCH  14  18
BRANCH  16  20
ATOM     20  O   UNL     1      12.743  23.635  33.436  1.00  0.00    -0.502 OA
ATOM     21  H   UNL     1      13.150  22.729  33.615  1.00  0.00     0.293 HD
ENDBRANCH  16  20
BRANCH  17  22
ATOM     22  O   UNL     1      10.964  25.813  32.660  1.00  0.00    -0.504 OA
ATOM     23  H   UNL     1      11.711  25.863  31.982  1.00  0.00     0.293 HD
ENDBRANCH  17  22
ENDBRANCH   1  12
BRANCH   2  24
ATOM     24  O   UNL     1      11.746  27.507  38.325  1.00  0.00    -0.502 OA
ATOM     25  H   UNL     1      12.187  28.335  38.706  1.00  0.00     0.293 HD
ENDBRANCH   2  24
BRANCH   6  26
ATOM     26  O   UNL     1       7.613  29.087  41.290  1.00  0.00    -0.507 OA
ATOM     27  H   UNL     1       8.548  29.416  41.475  1.00  0.00     0.293 HD
ENDBRANCH   6  26
BRANCH   8  28
ATOM     28  O   UNL     1       3.978  27.393  38.679  1.00  0.00    -0.508 OA
ATOM     29  H   UNL     1       3.349  27.306  39.469  1.00  0.00     0.293 HD
ENDBRANCH   8  28
TORSDOF 7
ENDMDL
MODEL 9
REMARK VINA RESULT:    -7.075      2.372      2.625
REMARK INTER + INTRA:          -9.009
REMARK INTER:                  -9.394
REMARK INTRA:                   0.386
REMARK UNBOUND:                -0.280
REMARK SMILES O=c1c(O)c(-c2cc(O)c(O)c(O)c2)oc2cc(O)cc(O)c12
REMARK SMILES IDX 5 1 3 2 2 3 1 4 23 5 21 6 20 7 18 8 17 9 16 10 15 11 6 12
REMARK SMILES IDX 7 13 8 14 14 15 10 16 12 17 9 18 11 20 13 22 4 24 22 26
REMARK SMILES IDX 19 28
REMARK H PARENT 9 19 11 21 13 23 4 25 22 27 19 29
REMARK Flexibility Score: inf
ROOT
ATOM      1  C   UNL     1       9.012  27.217  38.581  1.00  0.00     0.180 A 
ATOM      2  C   UNL     1       9.788  27.529  39.710  1.00  0.00     0.208 A 
ATOM      3  C   UNL     1      11.187  27.537  39.593  1.00  0.00     0.238 A 
ATOM      4  O   UNL     1      11.879  27.763  40.620  1.00  0.00    -0.285 OA
ATOM      5  C   UNL     1      11.791  27.250  38.345  1.00  0.00     0.111 A 
ATOM      6  C   UNL     1      13.198  27.269  38.102  1.00  0.00     0.134 A 
ATOM      7  C   UNL     1      13.691  26.842  36.863  1.00  0.00     0.093 A 
ATOM      8  C   UNL     1      12.827  26.459  35.838  1.00  0.00     0.123 A 
ATOM      9  C   UNL     1      11.447  26.493  36.045  1.00  0.00     0.094 A 
ATOM     10  C   UNL     1      10.927  26.880  37.282  1.00  0.00     0.146 A 
ATOM     11  O   UNL     1       9.609  26.889  37.441  1.00  0.00    -0.452 OA
ENDROOT
BRANCH   1  12
ATOM     12  C   UNL     1       7.531  27.212  38.620  1.00  0.00     0.029 A 
ATOM     13  C   UNL     1       6.828  27.778  39.695  1.00  0.00     0.062 A 
ATOM     14  C   UNL     1       5.430  27.785  39.705  1.00  0.00     0.162 A 
ATOM     15  C   UNL     1       6.813  26.686  37.538  1.00  0.00     0.062 A 
ATOM     16  C   UNL     1       4.710  27.235  38.630  1.00  0.00     0.200 A 
ATOM     17  C   UNL     1       5.414  26.684  37.532  1.00  0.00     0.162 A 
BRANCH  14  18
ATOM     18  O   UNL     1       4.773  28.351  40.798  1.00  0.00    -0.504 OA
ATOM     19  H   UNL     1       4.206  29.187  40.716  1.00  0.00     0.293 HD
ENDBRANCH  14  18
BRANCH  16  20
ATOM     20  O   UNL     1       3.314  27.256  38.685  1.00  0.00    -0.502 OA
ATOM     21  H   UNL     1       2.747  28.054  38.438  1.00  0.00     0.293 HD
ENDBRANCH  16  20
BRANCH  17  22
ATOM     22  O   UNL     1       4.771  26.132  36.423  1.00  0.00    -0.504 OA
ATOM     23  H   UNL     1       4.392  26.673  35.659  1.00  0.00     0.293 HD
ENDBRANCH  17  22
ENDBRANCH   1  12
BRANCH   2  24
ATOM     24  O   UNL     1       9.172  27.787  40.938  1.00  0.00    -0.502 OA
ATOM     25  H   UNL     1       9.476  27.352  41.801  1.00  0.00     0.293 HD
ENDBRANCH   2  24
BRANCH   6  26
ATOM     26  O   UNL     1      14.144  27.722  39.028  1.00  0.00    -0.507 OA
ATOM     27  H   UNL     1      15.095  27.391  39.086  1.00  0.00     0.293 HD
ENDBRANCH   6  26
BRANCH   8  28
ATOM     28  O   UNL     1      13.352  26.054  34.612  1.00  0.00    -0.508 OA
ATOM     29  H   UNL     1      14.049  25.321  34.551  1.00  0.00     0.293 HD
ENDBRANCH   8  28
TORSDOF 7
ENDMDL
