MODEL 1
REMARK VINA RESULT:    -4.136      0.000      0.000
REMARK INTER + INTRA:          -8.781
REMARK INTER:                  -7.279
REMARK INTRA:                  -1.502
REMARK UNBOUND:                -1.502
REMARK SMILES CCCCCCCCCCCCCCC(=O)[O-]
REMARK SMILES IDX 9 1 10 2 11 3 12 4 13 5 14 6 15 7 16 8 17 9 8 10 7 11 6 12
REMARK SMILES IDX 5 13 4 14 3 15 2 16 1 17
REMARK H PARENT
REMARK Flexibility Score: inf
ROOT
ATOM      1  C   UNL     1      37.862  -7.349  10.408  1.00  0.00     0.000 C 
ENDROOT
BRANCH   1   2
ATOM      2  C   UNL     1      38.337  -6.594   9.153  1.00  0.00     0.000 C 
BRANCH   2   3
ATOM      3  C   UNL     1      39.869  -6.571   9.014  1.00  0.00     0.000 C 
BRANCH   3   4
ATOM      4  C   UNL     1      40.388  -7.626   8.024  1.00  0.00     0.000 C 
BRANCH   4   5
ATOM      5  C   UNL     1      41.442  -8.552   8.649  1.00  0.00     0.006 C 
BRANCH   5   6
ATOM      6  C   UNL     1      42.335  -9.173   7.570  1.00  0.00     0.053 C 
BRANCH   6   7
ATOM      7  C   UNL     1      43.681  -8.522   7.565  1.00  0.00     0.041 C 
ATOM      8  O   UNL     1      44.678  -9.122   8.046  1.00  0.00    -0.550 OA
ATOM      9  O   UNL     1      43.828  -7.230   7.074  1.00  0.00    -0.550 OA
ENDBRANCH   6   7
ENDBRANCH   5   6
ENDBRANCH   4   5
ENDBRANCH   3   4
ENDBRANCH   2   3
ENDBRANCH   1   2
BRANCH   1  10
ATOM     10  C   UNL     1      38.973  -7.678  11.421  1.00  0.00     0.000 C 
BRANCH  10  11
ATOM     11  C   UNL     1      39.095  -9.184  11.708  1.00  0.00    -0.000 C 
BRANCH  11  12
ATOM     12  C   UNL     1      37.728  -9.883  11.777  1.00  0.00    -0.000 C 
BRANCH  12  13
ATOM     13  C   UNL     1      37.083  -9.777  13.170  1.00  0.00    -0.000 C 
BRANCH  13  14
ATOM     14  C   UNL     1      35.570  -9.520  13.102  1.00  0.00    -0.000 C 
BRANCH  14  15
ATOM     15  C   UNL     1      35.143  -8.290  13.918  1.00  0.00    -0.000 C 
BRANCH  15  16
ATOM     16  C   UNL     1      35.374  -6.999  13.124  1.00  0.00    -0.003 C 
ATOM     17  C   UNL     1      36.471  -6.150  13.761  1.00  0.00     0.004 C 
ENDBRANCH  15  16
ENDBRANCH  14  15
ENDBRANCH  13  14
ENDBRANCH  12  13
ENDBRANCH  11  12
ENDBRANCH  10  11
ENDBRANCH   1  10
TORSDOF 13
ENDMDL
MODEL 2
REMARK VINA RESULT:    -4.101      5.083      7.849
REMARK INTER + INTRA:          -8.720
REMARK INTER:                  -7.128
REMARK INTRA:                  -1.592
REMARK UNBOUND:                -1.502
REMARK SMILES CCCCCCCCCCCCCCC(=O)[O-]
REMARK SMILES IDX 9 1 10 2 11 3 12 4 13 5 14 6 15 7 16 8 17 9 8 10 7 11 6 12
REMARK SMILES IDX 5 13 4 14 3 15 2 16 1 17
REMARK H PARENT
REMARK Flexibility Score: inf
ROOT
ATOM      1  C   UNL     1      36.583  -7.911  11.376  1.00  0.00     0.000 C 
ENDROOT
BRANCH   1   2
ATOM      2  C   UNL     1      37.710  -7.287  12.219  1.00  0.00     0.000 C 
BRANCH   2   3
ATOM      3  C   UNL     1      37.190  -6.589  13.488  1.00  0.00     0.000 C 
BRANCH   3   4
ATOM      4  C   UNL     1      35.654  -6.544  13.550  1.00  0.00     0.000 C 
BRANCH   4   5
ATOM      5  C   UNL     1      35.092  -7.275  14.778  1.00  0.00     0.006 C 
BRANCH   5   6
ATOM      6  C   UNL     1      34.382  -8.568  14.368  1.00  0.00     0.053 C 
BRANCH   6   7
ATOM      7  C   UNL     1      33.037  -8.655  15.015  1.00  0.00     0.041 C 
ATOM      8  O   UNL     1      32.479  -9.773  15.172  1.00  0.00    -0.550 OA
ATOM      9  O   UNL     1      32.373  -7.496  15.401  1.00  0.00    -0.550 OA
ENDBRANCH   6   7
ENDBRANCH   5   6
ENDBRANCH   4   5
ENDBRANCH   3   4
ENDBRANCH   2   3
ENDBRANCH   1   2
BRANCH   1  10
ATOM     10  C   UNL     1      36.547  -9.450  11.384  1.00  0.00     0.000 C 
BRANCH  10  11
ATOM     11  C   UNL     1      37.923 -10.081  11.112  1.00  0.00    -0.000 C 
BRANCH  11  12
ATOM     12  C   UNL     1      38.119 -10.451   9.633  1.00  0.00    -0.000 C 
BRANCH  12  13
ATOM     13  C   UNL     1      39.461  -9.948   9.073  1.00  0.00    -0.000 C 
BRANCH  13  14
ATOM     14  C   UNL     1      40.063  -8.812   9.914  1.00  0.00    -0.000 C 
BRANCH  14  15
ATOM     15  C   UNL     1      40.786  -7.761   9.057  1.00  0.00    -0.000 C 
BRANCH  15  16
ATOM     16  C   UNL     1      40.133  -6.383   9.213  1.00  0.00    -0.003 C 
ATOM     17  C   UNL     1      38.677  -6.408   8.756  1.00  0.00     0.004 C 
ENDBRANCH  15  16
ENDBRANCH  14  15
ENDBRANCH  13  14
ENDBRANCH  12  13
ENDBRANCH  11  12
ENDBRANCH  10  11
ENDBRANCH   1  10
TORSDOF 13
ENDMDL
MODEL 3
REMARK VINA RESULT:    -4.071      3.239      7.636
REMARK INTER + INTRA:          -8.668
REMARK INTER:                  -6.704
REMARK INTRA:                  -1.964
REMARK UNBOUND:                -1.502
REMARK SMILES CCCCCCCCCCCCCCC(=O)[O-]
REMARK SMILES IDX 9 1 10 2 11 3 12 4 13 5 14 6 15 7 16 8 17 9 8 10 7 11 6 12
REMARK SMILES IDX 5 13 4 14 3 15 2 16 1 17
REMARK H PARENT
REMARK Flexibility Score: inf
ROOT
ATOM      1  C   UNL     1      41.800  -8.173   8.191  1.00  0.00     0.000 C 
ENDROOT
BRANCH   1   2
ATOM      2  C   UNL     1      41.050  -7.429   7.071  1.00  0.00     0.000 C 
BRANCH   2   3
ATOM      3  C   UNL     1      39.773  -6.731   7.571  1.00  0.00     0.000 C 
BRANCH   3   4
ATOM      4  C   UNL     1      39.837  -6.380   9.066  1.00  0.00     0.000 C 
BRANCH   4   5
ATOM      5  C   UNL     1      38.632  -6.920   9.850  1.00  0.00     0.006 C 
BRANCH   5   6
ATOM      6  C   UNL     1      39.085  -7.834  10.991  1.00  0.00     0.053 C 
BRANCH   6   7
ATOM      7  C   UNL     1      39.042  -9.267  10.564  1.00  0.00     0.041 C 
ATOM      8  O   UNL     1      39.607 -10.153  11.257  1.00  0.00    -0.550 OA
ATOM      9  O   UNL     1      38.419  -9.619   9.372  1.00  0.00    -0.550 OA
ENDBRANCH   6   7
ENDBRANCH   5   6
ENDBRANCH   4   5
ENDBRANCH   3   4
ENDBRANCH   2   3
ENDBRANCH   1   2
BRANCH   1  10
ATOM     10  C   UNL     1      41.794  -9.707   8.063  1.00  0.00     0.000 C 
BRANCH  10  11
ATOM     11  C   UNL     1      43.176 -10.334   8.317  1.00  0.00    -0.000 C 
BRANCH  11  12
ATOM     12  C   UNL     1      44.329  -9.380   7.967  1.00  0.00    -0.000 C 
BRANCH  12  13
ATOM     13  C   UNL     1      45.350 -10.017   7.009  1.00  0.00    -0.000 C 
BRANCH  13  14
ATOM     14  C   UNL     1      44.769 -10.266   5.608  1.00  0.00    -0.000 C 
BRANCH  14  15
ATOM     15  C   UNL     1      44.513  -8.963   4.834  1.00  0.00    -0.000 C 
BRANCH  15  16
ATOM     16  C   UNL     1      43.070  -8.906   4.319  1.00  0.00    -0.003 C 
ATOM     17  C   UNL     1      42.378 -10.258   4.470  1.00  0.00     0.004 C 
ENDBRANCH  15  16
ENDBRANCH  14  15
ENDBRANCH  13  14
ENDBRANCH  12  13
ENDBRANCH  11  12
ENDBRANCH  10  11
ENDBRANCH   1  10
TORSDOF 13
ENDMDL
MODEL 4
REMARK VINA RESULT:    -3.989      2.883      3.435
REMARK INTER + INTRA:          -8.523
REMARK INTER:                  -7.510
REMARK INTRA:                  -1.012
REMARK UNBOUND:                -1.502
REMARK SMILES CCCCCCCCCCCCCCC(=O)[O-]
REMARK SMILES IDX 9 1 10 2 11 3 12 4 13 5 14 6 15 7 16 8 17 9 8 10 7 11 6 12
REMARK SMILES IDX 5 13 4 14 3 15 2 16 1 17
REMARK H PARENT
REMARK Flexibility Score: inf
ROOT
ATOM      1  C   UNL     1      38.904  -6.555   9.144  1.00  0.00     0.000 C 
ENDROOT
BRANCH   1   2
ATOM      2  C   UNL     1      39.492  -6.626   7.722  1.00  0.00     0.000 C 
BRANCH   2   3
ATOM      3  C   UNL     1      40.747  -7.512   7.638  1.00  0.00     0.000 C 
BRANCH   3   4
ATOM      4  C   UNL     1      41.419  -7.455   6.257  1.00  0.00     0.000 C 
BRANCH   4   5
ATOM      5  C   UNL     1      40.645  -6.580   5.261  1.00  0.00     0.006 C 
BRANCH   5   6
ATOM      6  C   UNL     1      40.939  -7.001   3.818  1.00  0.00     0.053 C 
BRANCH   6   7
ATOM      7  C   UNL     1      40.802  -5.834   2.893  1.00  0.00     0.041 C 
ATOM      8  O   UNL     1      40.615  -4.678   3.354  1.00  0.00    -0.550 OA
ATOM      9  O   UNL     1      40.832  -6.030   1.517  1.00  0.00    -0.550 OA
ENDBRANCH   6   7
ENDBRANCH   5   6
ENDBRANCH   4   5
ENDBRANCH   3   4
ENDBRANCH   2   3
ENDBRANCH   1   2
BRANCH   1  10
ATOM     10  C   UNL     1      39.852  -7.037  10.257  1.00  0.00     0.000 C 
BRANCH  10  11
ATOM     11  C   UNL     1      39.155  -7.950  11.281  1.00  0.00    -0.000 C 
BRANCH  11  12
ATOM     12  C   UNL     1      37.774  -8.425  10.803  1.00  0.00    -0.000 C 
BRANCH  12  13
ATOM     13  C   UNL     1      37.138  -9.446  11.762  1.00  0.00    -0.000 C 
BRANCH  13  14
ATOM     14  C   UNL     1      36.790  -8.835  13.129  1.00  0.00    -0.000 C 
BRANCH  14  15
ATOM     15  C   UNL     1      35.412  -8.156  13.138  1.00  0.00    -0.000 C 
BRANCH  15  16
ATOM     16  C   UNL     1      35.551  -6.639  13.321  1.00  0.00    -0.003 C 
ATOM     17  C   UNL     1      36.935  -6.272  13.847  1.00  0.00     0.004 C 
ENDBRANCH  15  16
ENDBRANCH  14  15
ENDBRANCH  13  14
ENDBRANCH  12  13
ENDBRANCH  11  12
ENDBRANCH  10  11
ENDBRANCH   1  10
TORSDOF 13
ENDMDL
MODEL 5
REMARK VINA RESULT:    -3.982      5.523      8.503
REMARK INTER + INTRA:          -8.511
REMARK INTER:                  -6.998
REMARK INTRA:                  -1.513
REMARK UNBOUND:                -1.502
REMARK SMILES CCCCCCCCCCCCCCC(=O)[O-]
REMARK SMILES IDX 9 1 10 2 11 3 12 4 13 5 14 6 15 7 16 8 17 9 8 10 7 11 6 12
REMARK SMILES IDX 5 13 4 14 3 15 2 16 1 17
REMARK H PARENT
REMARK Flexibility Score: inf
ROOT
ATOM      1  C   UNL     1      37.561  -7.084  12.210  1.00  0.00     0.000 C 
ENDROOT
BRANCH   1   2
ATOM      2  C   UNL     1      36.930  -6.504  13.489  1.00  0.00     0.000 C 
BRANCH   2   3
ATOM      3  C   UNL     1      35.404  -6.693  13.539  1.00  0.00     0.000 C 
BRANCH   3   4
ATOM      4  C   UNL     1      34.944  -7.451  14.795  1.00  0.00     0.000 C 
BRANCH   4   5
ATOM      5  C   UNL     1      33.850  -8.486  14.492  1.00  0.00     0.006 C 
BRANCH   5   6
ATOM      6  C   UNL     1      32.537  -8.115  15.187  1.00  0.00     0.053 C 
BRANCH   6   7
ATOM      7  C   UNL     1      32.337  -8.952  16.410  1.00  0.00     0.041 C 
ATOM      8  O   UNL     1      33.138  -9.886  16.677  1.00  0.00    -0.550 OA
ATOM      9  O   UNL     1      31.236  -8.734  17.230  1.00  0.00    -0.550 OA
ENDBRANCH   6   7
ENDBRANCH   5   6
ENDBRANCH   4   5
ENDBRANCH   3   4
ENDBRANCH   2   3
ENDBRANCH   1   2
BRANCH   1  10
ATOM     10  C   UNL     1      36.564  -7.745  11.240  1.00  0.00     0.000 C 
BRANCH  10  11
ATOM     11  C   UNL     1      36.825  -9.248  11.047  1.00  0.00    -0.000 C 
BRANCH  11  12
ATOM     12  C   UNL     1      38.046  -9.741  11.840  1.00  0.00    -0.000 C 
BRANCH  12  13
ATOM     13  C   UNL     1      39.210 -10.164  10.927  1.00  0.00    -0.000 C 
BRANCH  13  14
ATOM     14  C   UNL     1      38.913  -9.919   9.439  1.00  0.00    -0.000 C 
BRANCH  14  15
ATOM     15  C   UNL     1      39.942  -8.991   8.776  1.00  0.00    -0.000 C 
BRANCH  15  16
ATOM     16  C   UNL     1      39.478  -7.530   8.831  1.00  0.00    -0.003 C 
ATOM     17  C   UNL     1      40.349  -6.711   9.779  1.00  0.00     0.004 C 
ENDBRANCH  15  16
ENDBRANCH  14  15
ENDBRANCH  13  14
ENDBRANCH  12  13
ENDBRANCH  11  12
ENDBRANCH  10  11
ENDBRANCH   1  10
TORSDOF 13
ENDMDL
MODEL 6
REMARK VINA RESULT:    -3.951      2.215      3.246
REMARK INTER + INTRA:          -8.457
REMARK INTER:                  -7.043
REMARK INTRA:                  -1.414
REMARK UNBOUND:                -1.502
REMARK SMILES CCCCCCCCCCCCCCC(=O)[O-]
REMARK SMILES IDX 9 1 10 2 11 3 12 4 13 5 14 6 15 7 16 8 17 9 8 10 7 11 6 12
REMARK SMILES IDX 5 13 4 14 3 15 2 16 1 17
REMARK H PARENT
REMARK Flexibility Score: inf
ROOT
ATOM      1  C   UNL     1      38.485 -10.050   9.792  1.00  0.00     0.000 C 
ENDROOT
BRANCH   1   2
ATOM      2  C   UNL     1      39.486 -10.610   8.764  1.00  0.00     0.000 C 
BRANCH   2   3
ATOM      3  C   UNL     1      40.935 -10.173   9.044  1.00  0.00     0.000 C 
BRANCH   3   4
ATOM      4  C   UNL     1      41.588  -9.486   7.834  1.00  0.00     0.000 C 
BRANCH   4   5
ATOM      5  C   UNL     1      41.713  -7.966   8.016  1.00  0.00     0.006 C 
BRANCH   5   6
ATOM      6  C   UNL     1      40.405  -7.261   7.645  1.00  0.00     0.053 C 
BRANCH   6   7
ATOM      7  C   UNL     1      39.808  -6.600   8.846  1.00  0.00     0.041 C 
ATOM      8  O   UNL     1      40.495  -6.437   9.888  1.00  0.00    -0.550 OA
ATOM      9  O   UNL     1      38.474  -6.207   8.834  1.00  0.00    -0.550 OA
ENDBRANCH   6   7
ENDBRANCH   5   6
ENDBRANCH   4   5
ENDBRANCH   3   4
ENDBRANCH   2   3
ENDBRANCH   1   2
BRANCH   1  10
ATOM     10  C   UNL     1      39.105  -9.643  11.140  1.00  0.00     0.000 C 
BRANCH  10  11
ATOM     11  C   UNL     1      38.368  -8.469  11.807  1.00  0.00    -0.000 C 
BRANCH  11  12
ATOM     12  C   UNL     1      36.951  -8.269  11.246  1.00  0.00    -0.000 C 
BRANCH  12  13
ATOM     13  C   UNL     1      36.100  -7.330  12.118  1.00  0.00    -0.000 C 
BRANCH  13  14
ATOM     14  C   UNL     1      36.916  -6.658  13.233  1.00  0.00    -0.000 C 
BRANCH  14  15
ATOM     15  C   UNL     1      36.174  -6.640  14.579  1.00  0.00    -0.000 C 
BRANCH  15  16
ATOM     16  C   UNL     1      34.997  -7.623  14.569  1.00  0.00    -0.003 C 
ATOM     17  C   UNL     1      34.224  -7.570  15.883  1.00  0.00     0.004 C 
ENDBRANCH  15  16
ENDBRANCH  14  15
ENDBRANCH  13  14
ENDBRANCH  12  13
ENDBRANCH  11  12
ENDBRANCH  10  11
ENDBRANCH   1  10
TORSDOF 13
ENDMDL
MODEL 7
REMARK VINA RESULT:    -3.947      4.257      7.177
REMARK INTER + INTRA:          -8.448
REMARK INTER:                  -6.610
REMARK INTRA:                  -1.839
REMARK UNBOUND:                -1.502
REMARK SMILES CCCCCCCCCCCCCCC(=O)[O-]
REMARK SMILES IDX 9 1 10 2 11 3 12 4 13 5 14 6 15 7 16 8 17 9 8 10 7 11 6 12
REMARK SMILES IDX 5 13 4 14 3 15 2 16 1 17
REMARK H PARENT
REMARK Flexibility Score: inf
ROOT
ATOM      1  C   UNL     1      38.652 -10.308   9.812  1.00  0.00     0.000 C 
ENDROOT
BRANCH   1   2
ATOM      2  C   UNL     1      37.719  -9.454  10.690  1.00  0.00     0.000 C 
BRANCH   2   3
ATOM      3  C   UNL     1      38.479  -8.649  11.759  1.00  0.00     0.000 C 
BRANCH   3   4
ATOM      4  C   UNL     1      37.710  -7.398  12.213  1.00  0.00     0.000 C 
BRANCH   4   5
ATOM      5  C   UNL     1      36.226  -7.442  11.818  1.00  0.00     0.006 C 
BRANCH   5   6
ATOM      6  C   UNL     1      35.342  -6.904  12.947  1.00  0.00     0.053 C 
BRANCH   6   7
ATOM      7  C   UNL     1      34.662  -8.029  13.661  1.00  0.00     0.041 C 
ATOM      8  O   UNL     1      33.758  -7.789  14.505  1.00  0.00    -0.550 OA
ATOM      9  O   UNL     1      35.060  -9.341  13.433  1.00  0.00    -0.550 OA
ENDBRANCH   6   7
ENDBRANCH   5   6
ENDBRANCH   4   5
ENDBRANCH   3   4
ENDBRANCH   2   3
ENDBRANCH   1   2
BRANCH   1  10
ATOM     10  C   UNL     1      39.815 -10.978  10.567  1.00  0.00     0.000 C 
BRANCH  10  11
ATOM     11  C   UNL     1      41.131 -10.963   9.771  1.00  0.00    -0.000 C 
BRANCH  11  12
ATOM     12  C   UNL     1      40.937 -10.499   8.319  1.00  0.00    -0.000 C 
BRANCH  12  13
ATOM     13  C   UNL     1      42.031  -9.518   7.863  1.00  0.00    -0.000 C 
BRANCH  13  14
ATOM     14  C   UNL     1      41.782  -8.084   8.355  1.00  0.00    -0.000 C 
BRANCH  14  15
ATOM     15  C   UNL     1      40.401  -7.550   7.943  1.00  0.00    -0.000 C 
BRANCH  15  16
ATOM     16  C   UNL     1      39.852  -6.582   8.998  1.00  0.00    -0.003 C 
ATOM     17  C   UNL     1      38.371  -6.296   8.765  1.00  0.00     0.004 C 
ENDBRANCH  15  16
ENDBRANCH  14  15
ENDBRANCH  13  14
ENDBRANCH  12  13
ENDBRANCH  11  12
ENDBRANCH  10  11
ENDBRANCH   1  10
TORSDOF 13
ENDMDL
MODEL 8
REMARK VINA RESULT:    -3.901      2.003      3.841
REMARK INTER + INTRA:          -8.369
REMARK INTER:                  -6.293
REMARK INTRA:                  -2.076
REMARK UNBOUND:                -1.502
REMARK SMILES CCCCCCCCCCCCCCC(=O)[O-]
REMARK SMILES IDX 9 1 10 2 11 3 12 4 13 5 14 6 15 7 16 8 17 9 8 10 7 11 6 12
REMARK SMILES IDX 5 13 4 14 3 15 2 16 1 17
REMARK H PARENT
REMARK Flexibility Score: inf
ROOT
ATOM      1  C   UNL     1      37.410 -11.100  13.462  1.00  0.00     0.000 C 
ENDROOT
BRANCH   1   2
ATOM      2  C   UNL     1      38.760 -10.805  12.783  1.00  0.00     0.000 C 
BRANCH   2   3
ATOM      3  C   UNL     1      38.691 -10.901  11.249  1.00  0.00     0.000 C 
BRANCH   3   4
ATOM      4  C   UNL     1      39.963 -10.375  10.565  1.00  0.00     0.000 C 
BRANCH   4   5
ATOM      5  C   UNL     1      39.655  -9.481   9.355  1.00  0.00     0.006 C 
BRANCH   5   6
ATOM      6  C   UNL     1      40.343  -8.120   9.489  1.00  0.00     0.053 C 
BRANCH   6   7
ATOM      7  C   UNL     1      40.290  -7.375   8.193  1.00  0.00     0.041 C 
ATOM      8  O   UNL     1      41.014  -7.732   7.227  1.00  0.00    -0.550 OA
ATOM      9  O   UNL     1      39.477  -6.255   8.067  1.00  0.00    -0.550 OA
ENDBRANCH   6   7
ENDBRANCH   5   6
ENDBRANCH   4   5
ENDBRANCH   3   4
ENDBRANCH   2   3
ENDBRANCH   1   2
BRANCH   1  10
ATOM     10  C   UNL     1      36.176 -10.863  12.572  1.00  0.00     0.000 C 
BRANCH  10  11
ATOM     11  C   UNL     1      34.971 -10.316  13.355  1.00  0.00    -0.000 C 
BRANCH  11  12
ATOM     12  C   UNL     1      35.335  -9.102  14.224  1.00  0.00    -0.000 C 
BRANCH  12  13
ATOM     13  C   UNL     1      34.597  -7.824  13.789  1.00  0.00    -0.000 C 
BRANCH  13  14
ATOM     14  C   UNL     1      35.514  -6.832  13.056  1.00  0.00    -0.000 C 
BRANCH  14  15
ATOM     15  C   UNL     1      37.004  -7.099  13.321  1.00  0.00    -0.000 C 
BRANCH  15  16
ATOM     16  C   UNL     1      37.766  -7.305  12.006  1.00  0.00    -0.003 C 
ATOM     17  C   UNL     1      36.817  -7.688  10.874  1.00  0.00     0.004 C 
ENDBRANCH  15  16
ENDBRANCH  14  15
ENDBRANCH  13  14
ENDBRANCH  12  13
ENDBRANCH  11  12
ENDBRANCH  10  11
ENDBRANCH   1  10
TORSDOF 13
ENDMDL
MODEL 9
REMARK VINA RESULT:    -3.901      1.205      2.104
REMARK INTER + INTRA:          -8.368
REMARK INTER:                  -6.667
REMARK INTRA:                  -1.701
REMARK UNBOUND:                -1.502
REMARK SMILES CCCCCCCCCCCCCCC(=O)[O-]
REMARK SMILES IDX 9 1 10 2 11 3 12 4 13 5 14 6 15 7 16 8 17 9 8 10 7 11 6 12
REMARK SMILES IDX 5 13 4 14 3 15 2 16 1 17
REMARK H PARENT
REMARK Flexibility Score: inf
ROOT
ATOM      1  C   UNL     1      38.821  -9.267  11.350  1.00  0.00     0.000 C 
ENDROOT
BRANCH   1   2
ATOM      2  C   UNL     1      38.899  -7.729  11.332  1.00  0.00     0.000 C 
BRANCH   2   3
ATOM      3  C   UNL     1      38.249  -7.114  10.080  1.00  0.00     0.000 C 
BRANCH   3   4
ATOM      4  C   UNL     1      39.248  -6.314   9.228  1.00  0.00     0.000 C 
BRANCH   4   5
ATOM      5  C   UNL     1      40.624  -6.990   9.143  1.00  0.00     0.006 C 
BRANCH   5   6
ATOM      6  C   UNL     1      40.664  -8.010   8.002  1.00  0.00     0.053 C 
BRANCH   6   7
ATOM      7  C   UNL     1      41.833  -7.750   7.107  1.00  0.00     0.041 C 
ATOM      8  O   UNL     1      41.659  -7.564   5.874  1.00  0.00    -0.550 OA
ATOM      9  O   UNL     1      43.123  -7.763   7.625  1.00  0.00    -0.550 OA
ENDBRANCH   6   7
ENDBRANCH   5   6
ENDBRANCH   4   5
ENDBRANCH   3   4
ENDBRANCH   2   3
ENDBRANCH   1   2
BRANCH   1  10
ATOM     10  C   UNL     1      38.149  -9.894  10.115  1.00  0.00     0.000 C 
BRANCH  10  11
ATOM     11  C   UNL     1      36.822 -10.597  10.448  1.00  0.00    -0.000 C 
BRANCH  11  12
ATOM     12  C   UNL     1      36.695 -10.939  11.941  1.00  0.00    -0.000 C 
BRANCH  12  13
ATOM     13  C   UNL     1      35.249 -10.822  12.451  1.00  0.00    -0.000 C 
BRANCH  13  14
ATOM     14  C   UNL     1      35.132  -9.931  13.698  1.00  0.00    -0.000 C 
BRANCH  14  15
ATOM     15  C   UNL     1      36.141  -8.773  13.693  1.00  0.00    -0.000 C 
BRANCH  15  16
ATOM     16  C   UNL     1      35.535  -7.521  13.047  1.00  0.00    -0.003 C 
ATOM     17  C   UNL     1      36.151  -6.250  13.626  1.00  0.00     0.004 C 
ENDBRANCH  15  16
ENDBRANCH  14  15
ENDBRANCH  13  14
ENDBRANCH  12  13
ENDBRANCH  11  12
ENDBRANCH  10  11
ENDBRANCH   1  10
TORSDOF 13
ENDMDL
