MODEL 1
REMARK VINA RESULT:    -1.581      0.000      0.000
REMARK INTER + INTRA:          -1.581
REMARK INTER:                  -1.581
REMARK INTRA:                   0.000
REMARK UNBOUND:                 0.000
REMARK SMILES CC(=O)[O-]
REMARK SMILES IDX 1 1 2 2 3 3 4 4
REMARK H PARENT
REMARK Flexibility Score: inf
ROOT
ATOM      1  C   UNL     1     -95.371 -46.227 -11.966  1.00  0.00     0.063 C 
ATOM      2  C   UNL     1     -94.019 -46.280 -12.590  1.00  0.00     0.038 C 
ATOM      3  O   UNL     1     -93.694 -45.438 -13.468  1.00  0.00    -0.550 OA
ATOM      4  O   UNL     1     -93.131 -47.291 -12.246  1.00  0.00    -0.550 OA
ENDROOT
TORSDOF 0
ENDMDL
MODEL 2
REMARK VINA RESULT:    -1.560      0.322      1.636
REMARK INTER + INTRA:          -1.560
REMARK INTER:                  -1.560
REMARK INTRA:                   0.000
REMARK UNBOUND:                 0.000
REMARK SMILES CC(=O)[O-]
REMARK SMILES IDX 1 1 2 2 3 3 4 4
REMARK H PARENT
REMARK Flexibility Score: inf
ROOT
ATOM      1  C   UNL     1     -95.629 -45.999 -11.991  1.00  0.00     0.063 C 
ATOM      2  C   UNL     1     -94.256 -46.240 -12.518  1.00  0.00     0.038 C 
ATOM      3  O   UNL     1     -93.555 -47.177 -12.054  1.00  0.00    -0.550 OA
ATOM      4  O   UNL     1     -93.723 -45.397 -13.486  1.00  0.00    -0.550 OA
ENDROOT
TORSDOF 0
ENDMDL
MODEL 3
REMARK VINA RESULT:    -1.555     10.237     10.363
REMARK INTER + INTRA:          -1.555
REMARK INTER:                  -1.555
REMARK INTRA:                   0.000
REMARK UNBOUND:                 0.000
REMARK SMILES CC(=O)[O-]
REMARK SMILES IDX 1 1 2 2 3 3 4 4
REMARK H PARENT
REMARK Flexibility Score: inf
ROOT
ATOM      1  C   UNL     1     -96.592 -53.577 -17.962  1.00  0.00     0.063 C 
ATOM      2  C   UNL     1     -96.189 -53.691 -19.393  1.00  0.00     0.038 C 
ATOM      3  O   UNL     1     -95.003 -53.447 -19.738  1.00  0.00    -0.550 OA
ATOM      4  O   UNL     1     -97.134 -54.013 -20.359  1.00  0.00    -0.550 OA
ENDROOT
TORSDOF 0
ENDMDL
MODEL 4
REMARK VINA RESULT:    -1.463      3.143      3.549
REMARK INTER + INTRA:          -1.463
REMARK INTER:                  -1.463
REMARK INTRA:                   0.000
REMARK UNBOUND:                 0.000
REMARK SMILES CC(=O)[O-]
REMARK SMILES IDX 1 1 2 2 3 3 4 4
REMARK H PARENT
REMARK Flexibility Score: inf
ROOT
ATOM      1  C   UNL     1     -98.471 -45.490 -12.083  1.00  0.00     0.063 C 
ATOM      2  C   UNL     1     -97.140 -44.820 -12.030  1.00  0.00     0.038 C 
ATOM      3  O   UNL     1     -97.065 -43.563 -12.020  1.00  0.00    -0.550 OA
ATOM      4  O   UNL     1     -95.977 -45.579 -12.046  1.00  0.00    -0.550 OA
ENDROOT
TORSDOF 0
ENDMDL
MODEL 5
REMARK VINA RESULT:    -1.447     10.072     10.300
REMARK INTER + INTRA:          -1.447
REMARK INTER:                  -1.447
REMARK INTRA:                   0.000
REMARK UNBOUND:                 0.000
REMARK SMILES CC(=O)[O-]
REMARK SMILES IDX 1 1 2 2 3 3 4 4
REMARK H PARENT
REMARK Flexibility Score: inf
ROOT
ATOM      1  C   UNL     1     -95.371 -53.259 -19.884  1.00  0.00     0.063 C 
ATOM      2  C   UNL     1     -96.204 -53.930 -18.845  1.00  0.00     0.038 C 
ATOM      3  O   UNL     1     -96.537 -53.308 -17.803  1.00  0.00    -0.550 OA
ATOM      4  O   UNL     1     -96.568 -55.262 -18.999  1.00  0.00    -0.550 OA
ENDROOT
TORSDOF 0
ENDMDL
MODEL 6
REMARK VINA RESULT:    -1.446      3.484      3.958
REMARK INTER + INTRA:          -1.446
REMARK INTER:                  -1.446
REMARK INTRA:                   0.000
REMARK UNBOUND:                 0.000
REMARK SMILES CC(=O)[O-]
REMARK SMILES IDX 1 1 2 2 3 3 4 4
REMARK H PARENT
REMARK Flexibility Score: inf
ROOT
ATOM      1  C   UNL     1     -97.312 -43.642 -11.797  1.00  0.00     0.063 C 
ATOM      2  C   UNL     1     -97.303 -45.118 -12.009  1.00  0.00     0.038 C 
ATOM      3  O   UNL     1     -96.222 -45.760 -11.946  1.00  0.00    -0.550 OA
ATOM      4  O   UNL     1     -98.480 -45.782 -12.332  1.00  0.00    -0.550 OA
ENDROOT
TORSDOF 0
ENDMDL
MODEL 7
REMARK VINA RESULT:    -1.395     10.661     11.008
REMARK INTER + INTRA:          -1.395
REMARK INTER:                  -1.395
REMARK INTRA:                   0.000
REMARK UNBOUND:                 0.000
REMARK SMILES CC(=O)[O-]
REMARK SMILES IDX 1 1 2 2 3 3 4 4
REMARK H PARENT
REMARK Flexibility Score: inf
ROOT
ATOM      1  C   UNL     1    -101.478 -45.853 -19.603  1.00  0.00     0.063 C 
ATOM      2  C   UNL     1    -101.847 -47.161 -20.216  1.00  0.00     0.038 C 
ATOM      3  O   UNL     1    -103.057 -47.452 -20.404  1.00  0.00    -0.550 OA
ATOM      4  O   UNL     1    -100.859 -48.086 -20.530  1.00  0.00    -0.550 OA
ENDROOT
TORSDOF 0
ENDMDL
MODEL 8
REMARK VINA RESULT:    -1.386      3.083      3.471
REMARK INTER + INTRA:          -1.386
REMARK INTER:                  -1.386
REMARK INTRA:                   0.000
REMARK UNBOUND:                 0.000
REMARK SMILES CC(=O)[O-]
REMARK SMILES IDX 1 1 2 2 3 3 4 4
REMARK H PARENT
REMARK Flexibility Score: inf
ROOT
ATOM      1  C   UNL     1     -98.219 -45.302 -12.177  1.00  0.00     0.063 C 
ATOM      2  C   UNL     1     -96.851 -45.163 -11.601  1.00  0.00     0.038 C 
ATOM      3  O   UNL     1     -95.841 -45.463 -12.291  1.00  0.00    -0.550 OA
ATOM      4  O   UNL     1     -96.687 -44.754 -10.284  1.00  0.00    -0.550 OA
ENDROOT
TORSDOF 0
ENDMDL
MODEL 9
REMARK VINA RESULT:    -1.386     10.736     10.891
REMARK INTER + INTRA:          -1.386
REMARK INTER:                  -1.386
REMARK INTRA:                   0.000
REMARK UNBOUND:                 0.000
REMARK SMILES CC(=O)[O-]
REMARK SMILES IDX 1 1 2 2 3 3 4 4
REMARK H PARENT
REMARK Flexibility Score: inf
ROOT
ATOM      1  C   UNL     1     -93.039 -53.209 -20.702  1.00  0.00     0.063 C 
ATOM      2  C   UNL     1     -93.795 -52.209 -21.509  1.00  0.00     0.038 C 
ATOM      3  O   UNL     1     -95.020 -52.380 -21.742  1.00  0.00    -0.550 OA
ATOM      4  O   UNL     1     -93.138 -51.112 -22.052  1.00  0.00    -0.550 OA
ENDROOT
TORSDOF 0
ENDMDL
