MODEL 1
REMARK VINA RESULT:    -5.890      0.000      0.000
REMARK INTER + INTRA:          -8.053
REMARK INTER:                  -8.128
REMARK INTRA:                   0.075
REMARK UNBOUND:                 0.075
REMARK SMILES O=C([O-])[C@H]1O[C@@H](Oc2cc3oc(-c4ccccc4)cc(=O)c3c(O)c2O)[C@@H](O)[C@H](O)[C@@H]1O
REMARK SMILES IDX 7 1 6 2 4 3 31 4 5 5 29 6 27 7 2 8 1 9 3 10 32 11 30 13
REMARK SMILES IDX 28 15 8 17 25 18 9 19 23 20 10 21 22 22 11 23 20 24 12 25
REMARK SMILES IDX 19 26 21 27 26 28 24 30 13 32 14 33 18 34 15 35 17 36 16 37
REMARK H PARENT 32 12 30 14 28 16 26 29 24 31
REMARK Flexibility Score: inf
ROOT
ATOM      1  O   UNL     1     -28.244  21.388 -11.535  1.00  0.00    -0.458 OA
ENDROOT
BRANCH   1   2
ATOM      2  C   UNL     1     -27.662  22.577 -10.991  1.00  0.00     0.339 C 
ATOM      3  C   UNL     1     -25.403  22.035 -11.533  1.00  0.00     0.199 C 
ATOM      4  C   UNL     1     -25.050  21.767 -10.050  1.00  0.00     0.180 C 
ATOM      5  O   UNL     1     -26.481  22.952 -11.691  1.00  0.00    -0.328 OA
ATOM      6  C   UNL     1     -26.305  21.375  -9.247  1.00  0.00     0.181 C 
ATOM      7  C   UNL     1     -27.410  22.406  -9.482  1.00  0.00     0.214 C 
BRANCH   3   8
ATOM      8  C   UNL     1     -25.592  20.791 -12.368  1.00  0.00     0.073 C 
ATOM      9  O   UNL     1     -25.856  20.902 -13.594  1.00  0.00    -0.547 OA
ATOM     10  O   UNL     1     -25.478  19.522 -11.812  1.00  0.00    -0.547 OA
ENDBRANCH   3   8
BRANCH   4  11
ATOM     11  O   UNL     1     -24.476  22.932  -9.507  1.00  0.00    -0.387 OA
ATOM     12  H   UNL     1     -24.557  23.645 -10.193  1.00  0.00     0.211 HD
ENDBRANCH   4  11
BRANCH   6  13
ATOM     13  O   UNL     1     -26.011  21.309  -7.875  1.00  0.00    -0.387 OA
ATOM     14  H   UNL     1     -26.316  20.418  -7.560  1.00  0.00     0.211 HD
ENDBRANCH   6  13
BRANCH   7  15
ATOM     15  O   UNL     1     -28.585  21.985  -8.839  1.00  0.00    -0.384 OA
ATOM     16  H   UNL     1     -28.423  21.058  -8.523  1.00  0.00     0.211 HD
ENDBRANCH   7  15
ENDBRANCH   1   2
BRANCH   1  17
ATOM     17  C   UNL     1     -29.262  20.596 -10.969  1.00  0.00     0.172 A 
ATOM     18  C   UNL     1     -29.113  19.238 -10.604  1.00  0.00     0.201 A 
ATOM     19  C   UNL     1     -30.486  21.228 -10.751  1.00  0.00     0.098 A 
ATOM     20  C   UNL     1     -30.190  18.535 -10.023  1.00  0.00     0.176 A 
ATOM     21  C   UNL     1     -31.572  20.539 -10.218  1.00  0.00     0.146 A 
ATOM     22  C   UNL     1     -31.456  19.172  -9.871  1.00  0.00     0.111 A 
ATOM     23  O   UNL     1     -32.719  21.191 -10.051  1.00  0.00    -0.456 OA
ATOM     24  C   UNL     1     -32.634  18.523  -9.430  1.00  0.00     0.197 A 
ATOM     25  C   UNL     1     -33.822  20.623  -9.578  1.00  0.00     0.138 A 
ATOM     26  C   UNL     1     -33.811  19.256  -9.266  1.00  0.00     0.100 A 
ATOM     27  O   UNL     1     -32.672  17.284  -9.215  1.00  0.00    -0.289 OA
BRANCH  18  28
ATOM     28  O   UNL     1     -27.894  18.587 -10.797  1.00  0.00    -0.502 OA
ATOM     29  H   UNL     1     -27.364  18.172 -10.040  1.00  0.00     0.293 HD
ENDBRANCH  18  28
BRANCH  20  30
ATOM     30  O   UNL     1     -29.942  17.229  -9.586  1.00  0.00    -0.504 OA
ATOM     31  H   UNL     1     -30.650  16.519  -9.475  1.00  0.00     0.293 HD
ENDBRANCH  20  30
BRANCH  25  32
ATOM     32  C   UNL     1     -35.043  21.453  -9.421  1.00  0.00     0.017 A 
ATOM     33  C   UNL     1     -35.454  22.363 -10.417  1.00  0.00     0.012 A 
ATOM     34  C   UNL     1     -35.832  21.315  -8.265  1.00  0.00     0.012 A 
ATOM     35  C   UNL     1     -36.613  23.125 -10.246  1.00  0.00     0.001 A 
ATOM     36  C   UNL     1     -36.991  22.080  -8.099  1.00  0.00     0.001 A 
ATOM     37  C   UNL     1     -37.379  22.986  -9.086  1.00  0.00     0.000 A 
ENDBRANCH  25  32
ENDBRANCH   1  17
TORSDOF 9
ENDMDL
MODEL 2
REMARK VINA RESULT:    -5.870      1.290      2.087
REMARK INTER + INTRA:          -8.025
REMARK INTER:                  -7.143
REMARK INTRA:                  -0.883
REMARK UNBOUND:                 0.075
REMARK SMILES O=C([O-])[C@H]1O[C@@H](Oc2cc3oc(-c4ccccc4)cc(=O)c3c(O)c2O)[C@@H](O)[C@H](O)[C@@H]1O
REMARK SMILES IDX 7 1 6 2 4 3 31 4 5 5 29 6 27 7 2 8 1 9 3 10 32 11 30 13
REMARK SMILES IDX 28 15 8 17 25 18 9 19 23 20 10 21 22 22 11 23 20 24 12 25
REMARK SMILES IDX 19 26 21 27 26 28 24 30 13 32 14 33 18 34 15 35 17 36 16 37
REMARK H PARENT 32 12 30 14 28 16 26 29 24 31
REMARK Flexibility Score: inf
ROOT
ATOM      1  O   UNL     1     -27.446  20.755 -10.782  1.00  0.00    -0.458 OA
ENDROOT
BRANCH   1   2
ATOM      2  C   UNL     1     -27.386  21.951 -11.565  1.00  0.00     0.339 C 
ATOM      3  C   UNL     1     -27.034  20.873 -13.664  1.00  0.00     0.199 C 
ATOM      4  C   UNL     1     -25.560  21.340 -13.723  1.00  0.00     0.180 C 
ATOM      5  O   UNL     1     -27.861  21.737 -12.890  1.00  0.00    -0.328 OA
ATOM      6  C   UNL     1     -25.008  21.602 -12.308  1.00  0.00     0.181 C 
ATOM      7  C   UNL     1     -25.959  22.529 -11.549  1.00  0.00     0.214 C 
BRANCH   3   8
ATOM      8  C   UNL     1     -27.219  19.423 -13.283  1.00  0.00     0.073 C 
ATOM      9  O   UNL     1     -28.326  18.863 -13.497  1.00  0.00    -0.547 OA
ATOM     10  O   UNL     1     -26.190  18.690 -12.704  1.00  0.00    -0.547 OA
ENDBRANCH   3   8
BRANCH   4  11
ATOM     11  O   UNL     1     -25.490  22.516 -14.492  1.00  0.00    -0.387 OA
ATOM     12  H   UNL     1     -24.556  22.596 -14.820  1.00  0.00     0.211 HD
ENDBRANCH   4  11
BRANCH   6  13
ATOM     13  O   UNL     1     -23.736  22.194 -12.379  1.00  0.00    -0.387 OA
ATOM     14  H   UNL     1     -23.074  21.462 -12.266  1.00  0.00     0.211 HD
ENDBRANCH   6  13
BRANCH   7  15
ATOM     15  O   UNL     1     -25.510  22.674 -10.226  1.00  0.00    -0.384 OA
ATOM     16  H   UNL     1     -24.889  21.921 -10.049  1.00  0.00     0.211 HD
ENDBRANCH   7  15
ENDBRANCH   1   2
BRANCH   1  17
ATOM     17  C   UNL     1     -28.598  20.042 -10.395  1.00  0.00     0.172 A 
ATOM     18  C   UNL     1     -28.618  18.664 -10.074  1.00  0.00     0.201 A 
ATOM     19  C   UNL     1     -29.780  20.775 -10.316  1.00  0.00     0.098 A 
ATOM     20  C   UNL     1     -29.821  18.044  -9.676  1.00  0.00     0.176 A 
ATOM     21  C   UNL     1     -30.985  20.171  -9.965  1.00  0.00     0.146 A 
ATOM     22  C   UNL     1     -31.036  18.789  -9.667  1.00  0.00     0.111 A 
ATOM     23  O   UNL     1     -32.084  20.920  -9.926  1.00  0.00    -0.456 OA
ATOM     24  C   UNL     1     -32.316  18.236  -9.419  1.00  0.00     0.197 A 
ATOM     25  C   UNL     1     -33.287  20.440  -9.631  1.00  0.00     0.138 A 
ATOM     26  C   UNL     1     -33.436  19.068  -9.382  1.00  0.00     0.100 A 
ATOM     27  O   UNL     1     -32.490  17.000  -9.266  1.00  0.00    -0.289 OA
BRANCH  18  28
ATOM     28  O   UNL     1     -27.444  17.911 -10.130  1.00  0.00    -0.502 OA
ATOM     29  H   UNL     1     -27.381  16.961  -9.783  1.00  0.00     0.293 HD
ENDBRANCH  18  28
BRANCH  20  30
ATOM     30  O   UNL     1     -29.749  16.708  -9.268  1.00  0.00    -0.504 OA
ATOM     31  H   UNL     1     -30.416  15.995  -9.523  1.00  0.00     0.293 HD
ENDBRANCH  20  30
BRANCH  25  32
ATOM     32  C   UNL     1     -34.441  21.372  -9.603  1.00  0.00     0.017 A 
ATOM     33  C   UNL     1     -34.699  22.265 -10.665  1.00  0.00     0.012 A 
ATOM     34  C   UNL     1     -35.322  21.353  -8.507  1.00  0.00     0.012 A 
ATOM     35  C   UNL     1     -35.799  23.125 -10.615  1.00  0.00     0.001 A 
ATOM     36  C   UNL     1     -36.421  22.216  -8.463  1.00  0.00     0.001 A 
ATOM     37  C   UNL     1     -36.658  23.103  -9.514  1.00  0.00     0.000 A 
ENDBRANCH  25  32
ENDBRANCH   1  17
TORSDOF 9
ENDMDL
MODEL 3
REMARK VINA RESULT:    -4.909      2.102      7.938
REMARK INTER + INTRA:          -6.700
REMARK INTER:                  -7.656
REMARK INTRA:                   0.956
REMARK UNBOUND:                 0.075
REMARK SMILES O=C([O-])[C@H]1O[C@@H](Oc2cc3oc(-c4ccccc4)cc(=O)c3c(O)c2O)[C@@H](O)[C@H](O)[C@@H]1O
REMARK SMILES IDX 7 1 6 2 4 3 31 4 5 5 29 6 27 7 2 8 1 9 3 10 32 11 30 13
REMARK SMILES IDX 28 15 8 17 25 18 9 19 23 20 10 21 22 22 11 23 20 24 12 25
REMARK SMILES IDX 19 26 21 27 26 28 24 30 13 32 14 33 18 34 15 35 17 36 16 37
REMARK H PARENT 32 12 30 14 28 16 26 29 24 31
REMARK Flexibility Score: inf
ROOT
ATOM      1  O   UNL     1     -32.418  19.578 -10.465  1.00  0.00    -0.458 OA
ENDROOT
BRANCH   1   2
ATOM      2  C   UNL     1     -33.709  19.751 -11.056  1.00  0.00     0.339 C 
ATOM      3  C   UNL     1     -33.684  22.136 -11.049  1.00  0.00     0.199 C 
ATOM      4  C   UNL     1     -34.733  22.201  -9.912  1.00  0.00     0.180 C 
ATOM      5  O   UNL     1     -33.780  20.947 -11.826  1.00  0.00    -0.328 OA
ATOM      6  C   UNL     1     -34.706  20.917  -9.062  1.00  0.00     0.181 C 
ATOM      7  C   UNL     1     -34.804  19.694  -9.976  1.00  0.00     0.214 C 
BRANCH   3   8
ATOM      8  C   UNL     1     -32.266  22.413 -10.611  1.00  0.00     0.073 C 
ATOM      9  O   UNL     1     -31.996  22.469  -9.382  1.00  0.00    -0.547 OA
ATOM     10  O   UNL     1     -31.247  22.603 -11.537  1.00  0.00    -0.547 OA
ENDBRANCH   3   8
BRANCH   4  11
ATOM     11  O   UNL     1     -36.007  22.372 -10.485  1.00  0.00    -0.387 OA
ATOM     12  H   UNL     1     -36.622  22.643  -9.754  1.00  0.00     0.211 HD
ENDBRANCH   4  11
BRANCH   6  13
ATOM     13  O   UNL     1     -35.774  20.907  -8.151  1.00  0.00    -0.387 OA
ATOM     14  H   UNL     1     -35.642  21.686  -7.548  1.00  0.00     0.211 HD
ENDBRANCH   6  13
BRANCH   7  15
ATOM     15  O   UNL     1     -34.666  18.526  -9.207  1.00  0.00    -0.384 OA
ATOM     16  H   UNL     1     -33.693  18.394  -9.057  1.00  0.00     0.211 HD
ENDBRANCH   7  15
ENDBRANCH   1   2
BRANCH   1  17
ATOM     17  C   UNL     1     -31.173  19.537 -11.123  1.00  0.00     0.172 A 
ATOM     18  C   UNL     1     -30.937  18.881 -12.353  1.00  0.00     0.201 A 
ATOM     19  C   UNL     1     -30.124  20.211 -10.500  1.00  0.00     0.098 A 
ATOM     20  C   UNL     1     -29.656  18.915 -12.944  1.00  0.00     0.176 A 
ATOM     21  C   UNL     1     -28.842  20.219 -11.047  1.00  0.00     0.146 A 
ATOM     22  C   UNL     1     -28.576  19.547 -12.263  1.00  0.00     0.111 A 
ATOM     23  O   UNL     1     -27.879  20.864 -10.396  1.00  0.00    -0.456 OA
ATOM     24  C   UNL     1     -27.228  19.521 -12.695  1.00  0.00     0.197 A 
ATOM     25  C   UNL     1     -26.618  20.912 -10.814  1.00  0.00     0.138 A 
ATOM     26  C   UNL     1     -26.255  20.221 -11.979  1.00  0.00     0.100 A 
ATOM     27  O   UNL     1     -26.861  18.850 -13.694  1.00  0.00    -0.289 OA
BRANCH  18  28
ATOM     28  O   UNL     1     -31.975  18.212 -13.005  1.00  0.00    -0.502 OA
ATOM     29  H   UNL     1     -32.098  18.230 -14.010  1.00  0.00     0.293 HD
ENDBRANCH  18  28
BRANCH  20  30
ATOM     30  O   UNL     1     -29.519  18.340 -14.212  1.00  0.00    -0.504 OA
ATOM     31  H   UNL     1     -30.088  17.585 -14.563  1.00  0.00     0.293 HD
ENDBRANCH  20  30
BRANCH  25  32
ATOM     32  C   UNL     1     -25.628  21.674 -10.013  1.00  0.00     0.017 A 
ATOM     33  C   UNL     1     -25.650  21.665  -8.603  1.00  0.00     0.012 A 
ATOM     34  C   UNL     1     -24.621  22.405 -10.669  1.00  0.00     0.012 A 
ATOM     35  C   UNL     1     -24.699  22.385  -7.875  1.00  0.00     0.001 A 
ATOM     36  C   UNL     1     -23.673  23.125  -9.935  1.00  0.00     0.001 A 
ATOM     37  C   UNL     1     -23.713  23.117  -8.541  1.00  0.00     0.000 A 
ENDBRANCH  25  32
ENDBRANCH   1  17
TORSDOF 9
ENDMDL
MODEL 4
REMARK VINA RESULT:    -3.690      1.872      2.022
REMARK INTER + INTRA:          -5.017
REMARK INTER:                  -5.066
REMARK INTRA:                   0.049
REMARK UNBOUND:                 0.075
REMARK SMILES O=C([O-])[C@H]1O[C@@H](Oc2cc3oc(-c4ccccc4)cc(=O)c3c(O)c2O)[C@@H](O)[C@H](O)[C@@H]1O
REMARK SMILES IDX 7 1 6 2 4 3 31 4 5 5 29 6 27 7 2 8 1 9 3 10 32 11 30 13
REMARK SMILES IDX 28 15 8 17 25 18 9 19 23 20 10 21 22 22 11 23 20 24 12 25
REMARK SMILES IDX 19 26 21 27 26 28 24 30 13 32 14 33 18 34 15 35 17 36 16 37
REMARK H PARENT 32 12 30 14 28 16 26 29 24 31
REMARK Flexibility Score: inf
ROOT
ATOM      1  O   UNL     1     -27.935  20.416 -11.976  1.00  0.00    -0.458 OA
ENDROOT
BRANCH   1   2
ATOM      2  C   UNL     1     -27.476  21.758 -11.788  1.00  0.00     0.339 C 
ATOM      3  C   UNL     1     -25.156  21.287 -12.089  1.00  0.00     0.199 C 
ATOM      4  C   UNL     1     -24.860  21.491 -10.584  1.00  0.00     0.180 C 
ATOM      5  O   UNL     1     -26.293  22.020 -12.536  1.00  0.00    -0.328 OA
ATOM      6  C   UNL     1     -26.120  21.237  -9.734  1.00  0.00     0.181 C 
ATOM      7  C   UNL     1     -27.288  22.053 -10.289  1.00  0.00     0.214 C 
BRANCH   3   8
ATOM      8  C   UNL     1     -25.205  19.843 -12.529  1.00  0.00     0.073 C 
ATOM      9  O   UNL     1     -24.547  18.979 -11.894  1.00  0.00    -0.547 OA
ATOM     10  O   UNL     1     -25.968  19.446 -13.621  1.00  0.00    -0.547 OA
ENDBRANCH   3   8
BRANCH   4  11
ATOM     11  O   UNL     1     -24.407  22.809 -10.389  1.00  0.00    -0.387 OA
ATOM     12  H   UNL     1     -24.938  23.393 -10.992  1.00  0.00     0.211 HD
ENDBRANCH   4  11
BRANCH   6  13
ATOM     13  O   UNL     1     -25.892  21.596  -8.396  1.00  0.00    -0.387 OA
ATOM     14  H   UNL     1     -25.380  20.851  -7.984  1.00  0.00     0.211 HD
ENDBRANCH   6  13
BRANCH   7  15
ATOM     15  O   UNL     1     -28.458  21.732  -9.582  1.00  0.00    -0.384 OA
ATOM     16  H   UNL     1     -29.181  22.307  -9.947  1.00  0.00     0.211 HD
ENDBRANCH   7  15
ENDBRANCH   1   2
BRANCH   1  17
ATOM     17  C   UNL     1     -29.266  19.977 -12.115  1.00  0.00     0.172 A 
ATOM     18  C   UNL     1     -29.687  18.961 -13.005  1.00  0.00     0.201 A 
ATOM     19  C   UNL     1     -30.208  20.596 -11.295  1.00  0.00     0.098 A 
ATOM     20  C   UNL     1     -31.044  18.577 -13.055  1.00  0.00     0.176 A 
ATOM     21  C   UNL     1     -31.558  20.259 -11.361  1.00  0.00     0.146 A 
ATOM     22  C   UNL     1     -32.008  19.265 -12.262  1.00  0.00     0.111 A 
ATOM     23  O   UNL     1     -32.412  20.897 -10.566  1.00  0.00    -0.456 OA
ATOM     24  C   UNL     1     -33.406  19.056 -12.336  1.00  0.00     0.197 A 
ATOM     25  C   UNL     1     -33.721  20.674 -10.568  1.00  0.00     0.138 A 
ATOM     26  C   UNL     1     -34.258  19.748 -11.474  1.00  0.00     0.100 A 
ATOM     27  O   UNL     1     -33.921  18.288 -13.189  1.00  0.00    -0.289 OA
BRANCH  18  28
ATOM     28  O   UNL     1     -28.761  18.316 -13.826  1.00  0.00    -0.502 OA
ATOM     29  H   UNL     1     -28.316  17.441 -13.575  1.00  0.00     0.293 HD
ENDBRANCH  18  28
BRANCH  20  30
ATOM     30  O   UNL     1     -31.373  17.493 -13.876  1.00  0.00    -0.504 OA
ATOM     31  H   UNL     1     -32.126  16.846 -13.695  1.00  0.00     0.293 HD
ENDBRANCH  20  30
BRANCH  25  32
ATOM     32  C   UNL     1     -34.578  21.437  -9.626  1.00  0.00     0.017 A 
ATOM     33  C   UNL     1     -34.042  22.415  -8.763  1.00  0.00     0.012 A 
ATOM     34  C   UNL     1     -35.965  21.206  -9.607  1.00  0.00     0.012 A 
ATOM     35  C   UNL     1     -34.874  23.125  -7.893  1.00  0.00     0.001 A 
ATOM     36  C   UNL     1     -36.793  21.918  -8.734  1.00  0.00     0.001 A 
ATOM     37  C   UNL     1     -36.248  22.874  -7.876  1.00  0.00     0.000 A 
ENDBRANCH  25  32
ENDBRANCH   1  17
TORSDOF 9
ENDMDL
MODEL 5
REMARK VINA RESULT:    -3.153      2.253      4.476
REMARK INTER + INTRA:          -4.276
REMARK INTER:                  -6.000
REMARK INTRA:                   1.723
REMARK UNBOUND:                 0.075
REMARK SMILES O=C([O-])[C@H]1O[C@@H](Oc2cc3oc(-c4ccccc4)cc(=O)c3c(O)c2O)[C@@H](O)[C@H](O)[C@@H]1O
REMARK SMILES IDX 7 1 6 2 4 3 31 4 5 5 29 6 27 7 2 8 1 9 3 10 32 11 30 13
REMARK SMILES IDX 28 15 8 17 25 18 9 19 23 20 10 21 22 22 11 23 20 24 12 25
REMARK SMILES IDX 19 26 21 27 26 28 24 30 13 32 14 33 18 34 15 35 17 36 16 37
REMARK H PARENT 32 12 30 14 28 16 26 29 24 31
REMARK Flexibility Score: inf
ROOT
ATOM      1  O   UNL     1     -26.948  20.165 -13.370  1.00  0.00    -0.458 OA
ENDROOT
BRANCH   1   2
ATOM      2  C   UNL     1     -26.064  19.041 -13.413  1.00  0.00     0.339 C 
ATOM      3  C   UNL     1     -27.673  17.472 -14.213  1.00  0.00     0.199 C 
ATOM      4  C   UNL     1     -27.737  16.753 -12.844  1.00  0.00     0.180 C 
ATOM      5  O   UNL     1     -26.428  18.125 -14.440  1.00  0.00    -0.328 OA
ATOM      6  C   UNL     1     -27.332  17.703 -11.702  1.00  0.00     0.181 C 
ATOM      7  C   UNL     1     -25.993  18.364 -12.033  1.00  0.00     0.214 C 
BRANCH   3   8
ATOM      8  C   UNL     1     -28.847  18.378 -14.502  1.00  0.00     0.073 C 
ATOM      9  O   UNL     1     -28.905  18.984 -15.604  1.00  0.00    -0.547 OA
ATOM     10  O   UNL     1     -29.869  18.554 -13.577  1.00  0.00    -0.547 OA
ENDBRANCH   3   8
BRANCH   4  11
ATOM     11  O   UNL     1     -26.871  15.644 -12.878  1.00  0.00    -0.387 OA
ATOM     12  H   UNL     1     -26.198  15.778 -12.160  1.00  0.00     0.211 HD
ENDBRANCH   4  11
BRANCH   6  13
ATOM     13  O   UNL     1     -27.220  16.999 -10.492  1.00  0.00    -0.387 OA
ATOM     14  H   UNL     1     -28.097  16.561 -10.335  1.00  0.00     0.211 HD
ENDBRANCH   6  13
BRANCH   7  15
ATOM     15  O   UNL     1     -25.683  19.312 -11.044  1.00  0.00    -0.384 OA
ATOM     16  H   UNL     1     -25.225  20.065 -11.501  1.00  0.00     0.211 HD
ENDBRANCH   7  15
ENDBRANCH   1   2
BRANCH   1  17
ATOM     17  C   UNL     1     -27.435  20.829 -12.227  1.00  0.00     0.172 A 
ATOM     18  C   UNL     1     -26.642  21.611 -11.355  1.00  0.00     0.201 A 
ATOM     19  C   UNL     1     -28.799  20.700 -11.974  1.00  0.00     0.098 A 
ATOM     20  C   UNL     1     -27.229  22.255 -10.246  1.00  0.00     0.176 A 
ATOM     21  C   UNL     1     -29.388  21.295 -10.860  1.00  0.00     0.146 A 
ATOM     22  C   UNL     1     -28.611  22.058  -9.957  1.00  0.00     0.111 A 
ATOM     23  O   UNL     1     -30.691  21.120 -10.661  1.00  0.00    -0.456 OA
ATOM     24  C   UNL     1     -29.267  22.542  -8.800  1.00  0.00     0.197 A 
ATOM     25  C   UNL     1     -31.346  21.618  -9.618  1.00  0.00     0.138 A 
ATOM     26  C   UNL     1     -30.639  22.337  -8.644  1.00  0.00     0.100 A 
ATOM     27  O   UNL     1     -28.645  23.125  -7.875  1.00  0.00    -0.289 OA
BRANCH  18  28
ATOM     28  O   UNL     1     -25.276  21.769 -11.596  1.00  0.00    -0.502 OA
ATOM     29  H   UNL     1     -24.656  22.255 -10.959  1.00  0.00     0.293 HD
ENDBRANCH  18  28
BRANCH  20  30
ATOM     30  O   UNL     1     -26.410  23.100  -9.488  1.00  0.00    -0.504 OA
ATOM     31  H   UNL     1     -25.622  22.793  -8.939  1.00  0.00     0.293 HD
ENDBRANCH  20  30
BRANCH  25  32
ATOM     32  C   UNL     1     -32.805  21.370  -9.506  1.00  0.00     0.017 A 
ATOM     33  C   UNL     1     -33.739  22.427  -9.514  1.00  0.00     0.012 A 
ATOM     34  C   UNL     1     -33.280  20.049  -9.417  1.00  0.00     0.012 A 
ATOM     35  C   UNL     1     -35.108  22.163  -9.416  1.00  0.00     0.001 A 
ATOM     36  C   UNL     1     -34.651  19.791  -9.319  1.00  0.00     0.001 A 
ATOM     37  C   UNL     1     -35.563  20.846  -9.315  1.00  0.00     0.000 A 
ENDBRANCH  25  32
ENDBRANCH   1  17
TORSDOF 9
ENDMDL
