MODEL 1
REMARK VINA RESULT:     8.720      0.000      0.000
REMARK INTER + INTRA:          14.692
REMARK INTER:                  15.347
REMARK INTRA:                  -0.655
REMARK UNBOUND:                -0.655
REMARK SMILES CCCCCCCCCCCCCCC(=O)[O-]
REMARK SMILES IDX 9 1 10 2 11 3 12 4 13 5 14 6 15 7 16 8 17 9 8 10 7 11 6 12
REMARK SMILES IDX 5 13 4 14 3 15 2 16 1 17
REMARK H PARENT
REMARK Flexibility Score: inf
ROOT
ATOM      1  C   UNL     1       4.119  41.533  12.047  1.00  0.00     0.000 C 
ENDROOT
BRANCH   1   2
ATOM      2  C   UNL     1       5.005  42.206  10.979  1.00  0.00     0.000 C 
BRANCH   2   3
ATOM      3  C   UNL     1       4.262  42.703   9.726  1.00  0.00     0.000 C 
BRANCH   3   4
ATOM      4  C   UNL     1       5.186  43.417   8.726  1.00  0.00     0.000 C 
BRANCH   4   5
ATOM      5  C   UNL     1       6.404  42.564   8.326  1.00  0.00     0.006 C 
BRANCH   5   6
ATOM      6  C   UNL     1       6.861  42.752   6.871  1.00  0.00     0.053 C 
BRANCH   6   7
ATOM      7  C   UNL     1       8.251  42.239   6.649  1.00  0.00     0.041 C 
ATOM      8  O   UNL     1       8.434  41.080   6.192  1.00  0.00    -0.550 OA
ATOM      9  O   UNL     1       9.344  43.052   6.919  1.00  0.00    -0.550 OA
ENDBRANCH   6   7
ENDBRANCH   5   6
ENDBRANCH   4   5
ENDBRANCH   3   4
ENDBRANCH   2   3
ENDBRANCH   1   2
BRANCH   1  10
ATOM     10  C   UNL     1       4.844  41.147  13.347  1.00  0.00     0.000 C 
BRANCH  10  11
ATOM     11  C   UNL     1       3.938  40.387  14.331  1.00  0.00    -0.000 C 
BRANCH  11  12
ATOM     12  C   UNL     1       4.730  39.720  15.466  1.00  0.00    -0.000 C 
BRANCH  12  13
ATOM     13  C   UNL     1       5.205  38.303  15.100  1.00  0.00    -0.000 C 
BRANCH  13  14
ATOM     14  C   UNL     1       6.659  38.037  15.522  1.00  0.00    -0.000 C 
BRANCH  14  15
ATOM     15  C   UNL     1       7.417  39.328  15.875  1.00  0.00    -0.000 C 
BRANCH  15  16
ATOM     16  C   UNL     1       8.499  39.677  14.840  1.00  0.00    -0.003 C 
ATOM     17  C   UNL     1       9.748  38.806  14.972  1.00  0.00     0.004 C 
ENDBRANCH  15  16
ENDBRANCH  14  15
ENDBRANCH  13  14
ENDBRANCH  12  13
ENDBRANCH  11  12
ENDBRANCH  10  11
ENDBRANCH   1  10
TORSDOF 13
ENDMDL
MODEL 2
REMARK VINA RESULT:     9.929      3.004      7.479
REMARK INTER + INTRA:          16.821
REMARK INTER:                  17.166
REMARK INTRA:                  -0.345
REMARK UNBOUND:                -0.655
REMARK SMILES CCCCCCCCCCCCCCC(=O)[O-]
REMARK SMILES IDX 9 1 10 2 11 3 12 4 13 5 14 6 15 7 16 8 17 9 8 10 7 11 6 12
REMARK SMILES IDX 5 13 4 14 3 15 2 16 1 17
REMARK H PARENT
REMARK Flexibility Score: inf
ROOT
ATOM      1  C   UNL     1       4.882  40.865  13.345  1.00  0.00     0.000 C 
ENDROOT
BRANCH   1   2
ATOM      2  C   UNL     1       4.108  40.598  14.651  1.00  0.00     0.000 C 
BRANCH   2   3
ATOM      3  C   UNL     1       3.801  39.117  14.943  1.00  0.00     0.000 C 
BRANCH   3   4
ATOM      4  C   UNL     1       4.972  38.386  15.620  1.00  0.00     0.000 C 
BRANCH   4   5
ATOM      5  C   UNL     1       6.165  39.314  15.912  1.00  0.00     0.006 C 
BRANCH   5   6
ATOM      6  C   UNL     1       7.540  38.636  15.801  1.00  0.00     0.053 C 
BRANCH   6   7
ATOM      7  C   UNL     1       8.539  39.505  15.101  1.00  0.00     0.041 C 
ATOM      8  O   UNL     1       9.532  38.989  14.523  1.00  0.00    -0.550 OA
ATOM      9  O   UNL     1       8.356  40.880  15.059  1.00  0.00    -0.550 OA
ENDBRANCH   6   7
ENDBRANCH   5   6
ENDBRANCH   4   5
ENDBRANCH   3   4
ENDBRANCH   2   3
ENDBRANCH   1   2
BRANCH   1  10
ATOM     10  C   UNL     1       4.111  41.666  12.282  1.00  0.00     0.000 C 
BRANCH  10  11
ATOM     11  C   UNL     1       4.950  41.949  11.024  1.00  0.00    -0.000 C 
BRANCH  11  12
ATOM     12  C   UNL     1       4.150  42.678   9.934  1.00  0.00    -0.000 C 
BRANCH  12  13
ATOM     13  C   UNL     1       5.057  43.367   8.900  1.00  0.00    -0.000 C 
BRANCH  13  14
ATOM     14  C   UNL     1       6.341  42.572   8.612  1.00  0.00    -0.000 C 
BRANCH  14  15
ATOM     15  C   UNL     1       6.806  42.711   7.152  1.00  0.00    -0.000 C 
BRANCH  15  16
ATOM     16  C   UNL     1       8.100  41.931   6.871  1.00  0.00    -0.003 C 
ATOM     17  C   UNL     1       9.342  42.821   6.880  1.00  0.00     0.004 C 
ENDBRANCH  15  16
ENDBRANCH  14  15
ENDBRANCH  13  14
ENDBRANCH  12  13
ENDBRANCH  11  12
ENDBRANCH  10  11
ENDBRANCH   1  10
TORSDOF 13
ENDMDL
MODEL 3
REMARK VINA RESULT:    10.635      3.225      7.892
REMARK INTER + INTRA:          18.064
REMARK INTER:                  18.595
REMARK INTRA:                  -0.531
REMARK UNBOUND:                -0.655
REMARK SMILES CCCCCCCCCCCCCCC(=O)[O-]
REMARK SMILES IDX 9 1 10 2 11 3 12 4 13 5 14 6 15 7 16 8 17 9 8 10 7 11 6 12
REMARK SMILES IDX 5 13 4 14 3 15 2 16 1 17
REMARK H PARENT
REMARK Flexibility Score: inf
ROOT
ATOM      1  C   UNL     1       4.087  41.938  11.512  1.00  0.00     0.000 C 
ENDROOT
BRANCH   1   2
ATOM      2  C   UNL     1       4.667  41.198  12.733  1.00  0.00     0.000 C 
BRANCH   2   3
ATOM      3  C   UNL     1       3.720  41.077  13.941  1.00  0.00     0.000 C 
BRANCH   3   4
ATOM      4  C   UNL     1       3.818  39.714  14.645  1.00  0.00     0.000 C 
BRANCH   4   5
ATOM      5  C   UNL     1       4.819  39.718  15.815  1.00  0.00     0.006 C 
BRANCH   5   6
ATOM      6  C   UNL     1       6.271  39.416  15.410  1.00  0.00     0.053 C 
BRANCH   6   7
ATOM      7  C   UNL     1       7.116  40.653  15.387  1.00  0.00     0.041 C 
ATOM      8  O   UNL     1       6.692  41.719  15.908  1.00  0.00    -0.550 OA
ATOM      9  O   UNL     1       8.382  40.620  14.820  1.00  0.00    -0.550 OA
ENDBRANCH   6   7
ENDBRANCH   5   6
ENDBRANCH   4   5
ENDBRANCH   3   4
ENDBRANCH   2   3
ENDBRANCH   1   2
BRANCH   1  10
ATOM     10  C   UNL     1       5.117  42.341  10.443  1.00  0.00     0.000 C 
BRANCH  10  11
ATOM     11  C   UNL     1       4.583  43.411   9.475  1.00  0.00    -0.000 C 
BRANCH  11  12
ATOM     12  C   UNL     1       5.061  43.191   8.032  1.00  0.00    -0.000 C 
BRANCH  12  13
ATOM     13  C   UNL     1       6.493  42.633   7.965  1.00  0.00    -0.000 C 
BRANCH  13  14
ATOM     14  C   UNL     1       7.172  42.902   6.612  1.00  0.00    -0.000 C 
BRANCH  14  15
ATOM     15  C   UNL     1       8.566  42.258   6.513  1.00  0.00    -0.000 C 
BRANCH  15  16
ATOM     16  C   UNL     1       8.542  40.916   5.763  1.00  0.00    -0.003 C 
ATOM     17  C   UNL     1       9.121  41.015   4.353  1.00  0.00     0.004 C 
ENDBRANCH  15  16
ENDBRANCH  14  15
ENDBRANCH  13  14
ENDBRANCH  12  13
ENDBRANCH  11  12
ENDBRANCH  10  11
ENDBRANCH   1  10
TORSDOF 13
ENDMDL
MODEL 4
REMARK VINA RESULT:    10.635      1.621      3.492
REMARK INTER + INTRA:          18.064
REMARK INTER:                  18.645
REMARK INTRA:                  -0.581
REMARK UNBOUND:                -0.655
REMARK SMILES CCCCCCCCCCCCCCC(=O)[O-]
REMARK SMILES IDX 9 1 10 2 11 3 12 4 13 5 14 6 15 7 16 8 17 9 8 10 7 11 6 12
REMARK SMILES IDX 5 13 4 14 3 15 2 16 1 17
REMARK H PARENT
REMARK Flexibility Score: inf
ROOT
ATOM      1  C   UNL     1       7.534  40.481  12.991  1.00  0.00     0.000 C 
ENDROOT
BRANCH   1   2
ATOM      2  C   UNL     1       7.618  41.542  11.874  1.00  0.00     0.000 C 
BRANCH   2   3
ATOM      3  C   UNL     1       6.701  41.296  10.662  1.00  0.00     0.000 C 
BRANCH   3   4
ATOM      4  C   UNL     1       6.274  42.597   9.962  1.00  0.00     0.000 C 
BRANCH   4   5
ATOM      5  C   UNL     1       6.609  42.602   8.459  1.00  0.00     0.006 C 
BRANCH   5   6
ATOM      6  C   UNL     1       7.821  41.739   8.075  1.00  0.00     0.053 C 
BRANCH   6   7
ATOM      7  C   UNL     1       8.407  42.149   6.759  1.00  0.00     0.041 C 
ATOM      8  O   UNL     1       9.130  43.177   6.679  1.00  0.00    -0.550 OA
ATOM      9  O   UNL     1       8.180  41.378   5.626  1.00  0.00    -0.550 OA
ENDBRANCH   6   7
ENDBRANCH   5   6
ENDBRANCH   4   5
ENDBRANCH   3   4
ENDBRANCH   2   3
ENDBRANCH   1   2
BRANCH   1  10
ATOM     10  C   UNL     1       8.423  40.752  14.216  1.00  0.00     0.000 C 
BRANCH  10  11
ATOM     11  C   UNL     1       8.248  39.698  15.323  1.00  0.00    -0.000 C 
BRANCH  11  12
ATOM     12  C   UNL     1       6.835  39.705  15.925  1.00  0.00    -0.000 C 
BRANCH  12  13
ATOM     13  C   UNL     1       6.235  38.293  16.036  1.00  0.00    -0.000 C 
BRANCH  13  14
ATOM     14  C   UNL     1       4.985  38.108  15.160  1.00  0.00    -0.000 C 
BRANCH  14  15
ATOM     15  C   UNL     1       3.682  38.140  15.977  1.00  0.00    -0.000 C 
BRANCH  15  16
ATOM     16  C   UNL     1       2.527  38.811  15.216  1.00  0.00    -0.003 C 
ATOM     17  C   UNL     1       1.857  37.875  14.211  1.00  0.00     0.004 C 
ENDBRANCH  15  16
ENDBRANCH  14  15
ENDBRANCH  13  14
ENDBRANCH  12  13
ENDBRANCH  11  12
ENDBRANCH  10  11
ENDBRANCH   1  10
TORSDOF 13
ENDMDL
MODEL 5
REMARK VINA RESULT:    10.687      4.216      8.862
REMARK INTER + INTRA:          18.154
REMARK INTER:                  18.580
REMARK INTRA:                  -0.426
REMARK UNBOUND:                -0.655
REMARK SMILES CCCCCCCCCCCCCCC(=O)[O-]
REMARK SMILES IDX 9 1 10 2 11 3 12 4 13 5 14 6 15 7 16 8 17 9 8 10 7 11 6 12
REMARK SMILES IDX 5 13 4 14 3 15 2 16 1 17
REMARK H PARENT
REMARK Flexibility Score: inf
ROOT
ATOM      1  C   UNL     1       6.517  41.531  11.495  1.00  0.00     0.000 C 
ENDROOT
BRANCH   1   2
ATOM      2  C   UNL     1       7.528  41.060  12.561  1.00  0.00     0.000 C 
BRANCH   2   3
ATOM      3  C   UNL     1       6.939  40.809  13.961  1.00  0.00     0.000 C 
BRANCH   3   4
ATOM      4  C   UNL     1       7.398  39.474  14.571  1.00  0.00     0.000 C 
BRANCH   4   5
ATOM      5  C   UNL     1       6.649  39.125  15.870  1.00  0.00     0.006 C 
BRANCH   5   6
ATOM      6  C   UNL     1       5.542  38.072  15.703  1.00  0.00     0.053 C 
BRANCH   6   7
ATOM      7  C   UNL     1       4.176  38.687  15.719  1.00  0.00     0.041 C 
ATOM      8  O   UNL     1       4.043  39.938  15.653  1.00  0.00    -0.550 OA
ATOM      9  O   UNL     1       3.050  37.877  15.777  1.00  0.00    -0.550 OA
ENDBRANCH   6   7
ENDBRANCH   5   6
ENDBRANCH   4   5
ENDBRANCH   3   4
ENDBRANCH   2   3
ENDBRANCH   1   2
BRANCH   1  10
ATOM     10  C   UNL     1       7.101  41.737  10.088  1.00  0.00     0.000 C 
BRANCH  10  11
ATOM     11  C   UNL     1       6.135  42.476   9.145  1.00  0.00    -0.000 C 
BRANCH  11  12
ATOM     12  C   UNL     1       6.760  42.767   7.772  1.00  0.00    -0.000 C 
BRANCH  12  13
ATOM     13  C   UNL     1       7.705  41.645   7.306  1.00  0.00    -0.000 C 
BRANCH  13  14
ATOM     14  C   UNL     1       8.607  42.076   6.138  1.00  0.00    -0.000 C 
BRANCH  14  15
ATOM     15  C   UNL     1       8.563  41.085   4.962  1.00  0.00    -0.000 C 
BRANCH  15  16
ATOM     16  C   UNL     1       9.941  40.888   4.308  1.00  0.00    -0.003 C 
ATOM     17  C   UNL     1       9.845  40.443   2.849  1.00  0.00     0.004 C 
ENDBRANCH  15  16
ENDBRANCH  14  15
ENDBRANCH  13  14
ENDBRANCH  12  13
ENDBRANCH  11  12
ENDBRANCH  10  11
ENDBRANCH   1  10
TORSDOF 13
ENDMDL
MODEL 6
REMARK VINA RESULT:    10.929      1.259      2.190
REMARK INTER + INTRA:          18.581
REMARK INTER:                  19.027
REMARK INTRA:                  -0.446
REMARK UNBOUND:                -0.655
REMARK SMILES CCCCCCCCCCCCCCC(=O)[O-]
REMARK SMILES IDX 9 1 10 2 11 3 12 4 13 5 14 6 15 7 16 8 17 9 8 10 7 11 6 12
REMARK SMILES IDX 5 13 4 14 3 15 2 16 1 17
REMARK H PARENT
REMARK Flexibility Score: inf
ROOT
ATOM      1  C   UNL     1       4.409  42.710  10.337  1.00  0.00     0.000 C 
ENDROOT
BRANCH   1   2
ATOM      2  C   UNL     1       5.098  43.119   9.020  1.00  0.00     0.000 C 
BRANCH   2   3
ATOM      3  C   UNL     1       6.417  42.386   8.712  1.00  0.00     0.000 C 
BRANCH   3   4
ATOM      4  C   UNL     1       6.960  42.695   7.307  1.00  0.00     0.000 C 
BRANCH   4   5
ATOM      5  C   UNL     1       8.337  42.059   7.047  1.00  0.00     0.006 C 
BRANCH   5   6
ATOM      6  C   UNL     1       8.854  42.228   5.609  1.00  0.00     0.053 C 
BRANCH   6   7
ATOM      7  C   UNL     1       9.095  40.909   4.941  1.00  0.00     0.041 C 
ATOM      8  O   UNL     1       8.830  39.836   5.543  1.00  0.00    -0.550 OA
ATOM      9  O   UNL     1       9.582  40.867   3.641  1.00  0.00    -0.550 OA
ENDBRANCH   6   7
ENDBRANCH   5   6
ENDBRANCH   4   5
ENDBRANCH   3   4
ENDBRANCH   2   3
ENDBRANCH   1   2
BRANCH   1  10
ATOM     10  C   UNL     1       5.170  41.670  11.176  1.00  0.00     0.000 C 
BRANCH  10  11
ATOM     11  C   UNL     1       4.512  41.410  12.542  1.00  0.00    -0.000 C 
BRANCH  11  12
ATOM     12  C   UNL     1       5.541  41.110  13.643  1.00  0.00    -0.000 C 
BRANCH  12  13
ATOM     13  C   UNL     1       5.093  39.966  14.570  1.00  0.00    -0.000 C 
BRANCH  13  14
ATOM     14  C   UNL     1       5.942  39.872  15.849  1.00  0.00    -0.000 C 
BRANCH  14  15
ATOM     15  C   UNL     1       7.442  39.703  15.551  1.00  0.00    -0.000 C 
BRANCH  15  16
ATOM     16  C   UNL     1       7.829  38.238  15.293  1.00  0.00    -0.003 C 
ATOM     17  C   UNL     1       9.341  38.021  15.264  1.00  0.00     0.004 C 
ENDBRANCH  15  16
ENDBRANCH  14  15
ENDBRANCH  13  14
ENDBRANCH  12  13
ENDBRANCH  11  12
ENDBRANCH  10  11
ENDBRANCH   1  10
TORSDOF 13
ENDMDL
MODEL 7
REMARK VINA RESULT:    11.279      4.112      8.404
REMARK INTER + INTRA:          19.196
REMARK INTER:                  19.858
REMARK INTRA:                  -0.661
REMARK UNBOUND:                -0.655
REMARK SMILES CCCCCCCCCCCCCCC(=O)[O-]
REMARK SMILES IDX 9 1 10 2 11 3 12 4 13 5 14 6 15 7 16 8 17 9 8 10 7 11 6 12
REMARK SMILES IDX 5 13 4 14 3 15 2 16 1 17
REMARK H PARENT
REMARK Flexibility Score: inf
ROOT
ATOM      1  C   UNL     1       8.173  40.169  13.682  1.00  0.00     0.000 C 
ENDROOT
BRANCH   1   2
ATOM      2  C   UNL     1       8.184  40.365  15.211  1.00  0.00     0.000 C 
BRANCH   2   3
ATOM      3  C   UNL     1       8.463  39.094  16.035  1.00  0.00     0.000 C 
BRANCH   3   4
ATOM      4  C   UNL     1       7.665  37.875  15.542  1.00  0.00     0.000 C 
BRANCH   4   5
ATOM      5  C   UNL     1       6.208  37.876  16.039  1.00  0.00     0.006 C 
BRANCH   5   6
ATOM      6  C   UNL     1       5.173  38.266  14.971  1.00  0.00     0.053 C 
BRANCH   6   7
ATOM      7  C   UNL     1       3.911  38.797  15.581  1.00  0.00     0.041 C 
ATOM      8  O   UNL     1       3.898  39.935  16.119  1.00  0.00    -0.550 OA
ATOM      9  O   UNL     1       2.744  38.047  15.526  1.00  0.00    -0.550 OA
ENDBRANCH   6   7
ENDBRANCH   5   6
ENDBRANCH   4   5
ENDBRANCH   3   4
ENDBRANCH   2   3
ENDBRANCH   1   2
BRANCH   1  10
ATOM     10  C   UNL     1       7.622  41.358  12.877  1.00  0.00     0.000 C 
BRANCH  10  11
ATOM     11  C   UNL     1       7.279  40.985  11.424  1.00  0.00    -0.000 C 
BRANCH  11  12
ATOM     12  C   UNL     1       7.405  42.177  10.464  1.00  0.00    -0.000 C 
BRANCH  12  13
ATOM     13  C   UNL     1       6.266  42.224   9.430  1.00  0.00    -0.000 C 
BRANCH  13  14
ATOM     14  C   UNL     1       6.755  42.613   8.026  1.00  0.00    -0.000 C 
BRANCH  14  15
ATOM     15  C   UNL     1       7.843  41.663   7.496  1.00  0.00    -0.000 C 
BRANCH  15  16
ATOM     16  C   UNL     1       8.204  41.944   6.027  1.00  0.00    -0.003 C 
ATOM     17  C   UNL     1       9.326  42.971   5.879  1.00  0.00     0.004 C 
ENDBRANCH  15  16
ENDBRANCH  14  15
ENDBRANCH  13  14
ENDBRANCH  12  13
ENDBRANCH  11  12
ENDBRANCH  10  11
ENDBRANCH   1  10
TORSDOF 13
ENDMDL
MODEL 8
REMARK VINA RESULT:    11.598      3.720      8.280
REMARK INTER + INTRA:          19.758
REMARK INTER:                  20.145
REMARK INTRA:                  -0.387
REMARK UNBOUND:                -0.655
REMARK SMILES CCCCCCCCCCCCCCC(=O)[O-]
REMARK SMILES IDX 9 1 10 2 11 3 12 4 13 5 14 6 15 7 16 8 17 9 8 10 7 11 6 12
REMARK SMILES IDX 5 13 4 14 3 15 2 16 1 17
REMARK H PARENT
REMARK Flexibility Score: inf
ROOT
ATOM      1  C   UNL     1       6.519  41.691  10.722  1.00  0.00     0.000 C 
ENDROOT
BRANCH   1   2
ATOM      2  C   UNL     1       6.116  41.225  12.137  1.00  0.00     0.000 C 
BRANCH   2   3
ATOM      3  C   UNL     1       7.274  40.725  13.019  1.00  0.00     0.000 C 
BRANCH   3   4
ATOM      4  C   UNL     1       6.802  40.199  14.384  1.00  0.00     0.000 C 
BRANCH   4   5
ATOM      5  C   UNL     1       7.697  40.668  15.546  1.00  0.00     0.006 C 
BRANCH   5   6
ATOM      6  C   UNL     1       9.118  40.082  15.530  1.00  0.00     0.053 C 
BRANCH   6   7
ATOM      7  C   UNL     1       9.107  38.585  15.474  1.00  0.00     0.041 C 
ATOM      8  O   UNL     1      10.050  37.965  14.915  1.00  0.00    -0.550 OA
ATOM      9  O   UNL     1       8.072  37.875  16.066  1.00  0.00    -0.550 OA
ENDBRANCH   6   7
ENDBRANCH   5   6
ENDBRANCH   4   5
ENDBRANCH   3   4
ENDBRANCH   2   3
ENDBRANCH   1   2
BRANCH   1  10
ATOM     10  C   UNL     1       5.588  42.740  10.092  1.00  0.00     0.000 C 
BRANCH  10  11
ATOM     11  C   UNL     1       5.564  42.668   8.555  1.00  0.00    -0.000 C 
BRANCH  11  12
ATOM     12  C   UNL     1       6.961  42.452   7.954  1.00  0.00    -0.000 C 
BRANCH  12  13
ATOM     13  C   UNL     1       7.071  42.985   6.515  1.00  0.00    -0.000 C 
BRANCH  13  14
ATOM     14  C   UNL     1       8.510  42.947   5.976  1.00  0.00    -0.000 C 
BRANCH  14  15
ATOM     15  C   UNL     1       9.297  41.725   6.479  1.00  0.00    -0.000 C 
BRANCH  15  16
ATOM     16  C   UNL     1       9.135  40.503   5.560  1.00  0.00    -0.003 C 
ATOM     17  C   UNL     1       9.479  40.809   4.102  1.00  0.00     0.004 C 
ENDBRANCH  15  16
ENDBRANCH  14  15
ENDBRANCH  13  14
ENDBRANCH  12  13
ENDBRANCH  11  12
ENDBRANCH  10  11
ENDBRANCH   1  10
TORSDOF 13
ENDMDL
