MODEL 1
REMARK VINA RESULT:    -1.509      0.000      0.000
REMARK INTER + INTRA:          -1.509
REMARK INTER:                  -1.509
REMARK INTRA:                   0.000
REMARK UNBOUND:                 0.000
REMARK SMILES CC(=O)[O-]
REMARK SMILES IDX 1 1 2 2 3 3 4 4
REMARK H PARENT
REMARK Flexibility Score: inf
ROOT
ATOM      1  C   UNL     1       4.717  11.040   6.927  1.00  0.00     0.063 C 
ATOM      2  C   UNL     1       3.789  11.986   6.243  1.00  0.00     0.038 C 
ATOM      3  O   UNL     1       3.041  11.577   5.317  1.00  0.00    -0.550 OA
ATOM      4  O   UNL     1       3.712  13.309   6.660  1.00  0.00    -0.550 OA
ENDROOT
TORSDOF 0
ENDMDL
MODEL 2
REMARK VINA RESULT:    -1.505      7.913      8.241
REMARK INTER + INTRA:          -1.505
REMARK INTER:                  -1.505
REMARK INTRA:                   0.000
REMARK UNBOUND:                 0.000
REMARK SMILES CC(=O)[O-]
REMARK SMILES IDX 1 1 2 2 3 3 4 4
REMARK H PARENT
REMARK Flexibility Score: inf
ROOT
ATOM      1  C   UNL     1      -3.643  14.386  11.198  1.00  0.00     0.063 C 
ATOM      2  C   UNL     1      -3.015  13.776   9.991  1.00  0.00     0.038 C 
ATOM      3  O   UNL     1      -2.591  14.510   9.060  1.00  0.00    -0.550 OA
ATOM      4  O   UNL     1      -2.849  12.399   9.914  1.00  0.00    -0.550 OA
ENDROOT
TORSDOF 0
ENDMDL
MODEL 3
REMARK VINA RESULT:    -1.504      0.186      1.630
REMARK INTER + INTRA:          -1.504
REMARK INTER:                  -1.504
REMARK INTRA:                   0.000
REMARK UNBOUND:                 0.000
REMARK SMILES CC(=O)[O-]
REMARK SMILES IDX 1 1 2 2 3 3 4 4
REMARK H PARENT
REMARK Flexibility Score: inf
ROOT
ATOM      1  C   UNL     1       4.593  11.117   7.205  1.00  0.00     0.063 C 
ATOM      2  C   UNL     1       3.773  12.071   6.404  1.00  0.00     0.038 C 
ATOM      3  O   UNL     1       3.762  13.295   6.696  1.00  0.00    -0.550 OA
ATOM      4  O   UNL     1       3.062  11.619   5.299  1.00  0.00    -0.550 OA
ENDROOT
TORSDOF 0
ENDMDL
MODEL 4
REMARK VINA RESULT:    -1.406      7.856      8.111
REMARK INTER + INTRA:          -1.406
REMARK INTER:                  -1.406
REMARK INTRA:                   0.000
REMARK UNBOUND:                 0.000
REMARK SMILES CC(=O)[O-]
REMARK SMILES IDX 1 1 2 2 3 3 4 4
REMARK H PARENT
REMARK Flexibility Score: inf
ROOT
ATOM      1  C   UNL     1      -3.141  14.483   9.252  1.00  0.00     0.063 C 
ATOM      2  C   UNL     1      -3.581  13.085   8.974  1.00  0.00     0.038 C 
ATOM      3  O   UNL     1      -4.630  12.873   8.310  1.00  0.00    -0.550 OA
ATOM      4  O   UNL     1      -2.807  12.014   9.402  1.00  0.00    -0.550 OA
ENDROOT
TORSDOF 0
ENDMDL
MODEL 5
REMARK VINA RESULT:    -1.326      1.786      1.884
REMARK INTER + INTRA:          -1.326
REMARK INTER:                  -1.326
REMARK INTRA:                   0.000
REMARK UNBOUND:                 0.000
REMARK SMILES CC(=O)[O-]
REMARK SMILES IDX 1 1 2 2 3 3 4 4
REMARK H PARENT
REMARK Flexibility Score: inf
ROOT
ATOM      1  C   UNL     1       5.732  13.503   6.722  1.00  0.00     0.063 C 
ATOM      2  C   UNL     1       4.248  13.597   6.602  1.00  0.00     0.038 C 
ATOM      3  O   UNL     1       3.616  12.760   5.906  1.00  0.00    -0.550 OA
ATOM      4  O   UNL     1       3.555  14.577   7.301  1.00  0.00    -0.550 OA
ENDROOT
TORSDOF 0
ENDMDL
MODEL 6
REMARK VINA RESULT:    -1.317      8.225      8.611
REMARK INTER + INTRA:          -1.317
REMARK INTER:                  -1.317
REMARK INTRA:                   0.000
REMARK UNBOUND:                 0.000
REMARK SMILES CC(=O)[O-]
REMARK SMILES IDX 1 1 2 2 3 3 4 4
REMARK H PARENT
REMARK Flexibility Score: inf
ROOT
ATOM      1  C   UNL     1      -4.537  15.564   9.907  1.00  0.00     0.063 C 
ATOM      2  C   UNL     1      -3.501  15.107   8.935  1.00  0.00     0.038 C 
ATOM      3  O   UNL     1      -3.459  15.601   7.778  1.00  0.00    -0.550 OA
ATOM      4  O   UNL     1      -2.548  14.174   9.323  1.00  0.00    -0.550 OA
ENDROOT
TORSDOF 0
ENDMDL
MODEL 7
REMARK VINA RESULT:    -1.304      2.317      2.799
REMARK INTER + INTRA:          -1.304
REMARK INTER:                  -1.304
REMARK INTRA:                   0.000
REMARK UNBOUND:                 0.000
REMARK SMILES CC(=O)[O-]
REMARK SMILES IDX 1 1 2 2 3 3 4 4
REMARK H PARENT
REMARK Flexibility Score: inf
ROOT
ATOM      1  C   UNL     1       3.934  15.162   7.618  1.00  0.00     0.063 C 
ATOM      2  C   UNL     1       4.434  13.976   6.865  1.00  0.00     0.038 C 
ATOM      3  O   UNL     1       3.625  13.227   6.257  1.00  0.00    -0.550 OA
ATOM      4  O   UNL     1       5.798  13.726   6.788  1.00  0.00    -0.550 OA
ENDROOT
TORSDOF 0
ENDMDL
MODEL 8
REMARK VINA RESULT:    -1.302      2.278      3.022
REMARK INTER + INTRA:          -1.302
REMARK INTER:                  -1.302
REMARK INTRA:                   0.000
REMARK UNBOUND:                 0.000
REMARK SMILES CC(=O)[O-]
REMARK SMILES IDX 1 1 2 2 3 3 4 4
REMARK H PARENT
REMARK Flexibility Score: inf
ROOT
ATOM      1  C   UNL     1       3.957  15.123   7.625  1.00  0.00     0.063 C 
ATOM      2  C   UNL     1       4.468  13.914   6.916  1.00  0.00     0.038 C 
ATOM      3  O   UNL     1       5.680  13.590   7.013  1.00  0.00    -0.550 OA
ATOM      4  O   UNL     1       3.596  13.114   6.188  1.00  0.00    -0.550 OA
ENDROOT
TORSDOF 0
ENDMDL
MODEL 9
REMARK VINA RESULT:    -1.282      7.638      7.873
REMARK INTER + INTRA:          -1.282
REMARK INTER:                  -1.282
REMARK INTRA:                   0.000
REMARK UNBOUND:                 0.000
REMARK SMILES CC(=O)[O-]
REMARK SMILES IDX 1 1 2 2 3 3 4 4
REMARK H PARENT
REMARK Flexibility Score: inf
ROOT
ATOM      1  C   UNL     1      -3.579  10.171   8.714  1.00  0.00     0.063 C 
ATOM      2  C   UNL     1      -3.490  11.659   8.700  1.00  0.00     0.038 C 
ATOM      3  O   UNL     1      -2.765  12.257   9.538  1.00  0.00    -0.550 OA
ATOM      4  O   UNL     1      -4.166  12.387   7.729  1.00  0.00    -0.550 OA
ENDROOT
TORSDOF 0
ENDMDL
