MODEL 1
REMARK VINA RESULT:    -4.774      0.000      0.000
REMARK INTER + INTRA:          -9.467
REMARK INTER:                  -7.286
REMARK INTRA:                  -2.181
REMARK UNBOUND:                -2.181
REMARK SMILES CC(=O)CCC=C(C)CCC=C(C)CCC=C(C)C
REMARK SMILES IDX 10 1 11 2 12 3 13 4 14 5 15 6 16 7 18 8 17 9 19 10 9 11 7 12
REMARK SMILES IDX 6 13 8 14 5 15 4 16 2 17 3 18 1 19
REMARK H PARENT
REMARK Flexibility Score: inf
ROOT
ATOM      1  C   UNL     1      -1.733  26.810  51.006  1.00  0.00     0.032 C 
ENDROOT
BRANCH   1   2
ATOM      2  C   UNL     1      -2.640  27.983  50.720  1.00  0.00    -0.028 C 
ATOM      3  C   UNL     1      -2.235  29.179  50.234  1.00  0.00    -0.077 C 
ATOM      4  C   UNL     1      -0.779  29.488  49.982  1.00  0.00     0.039 C 
BRANCH   3   5
ATOM      5  C   UNL     1      -3.275  30.234  49.926  1.00  0.00     0.034 C 
BRANCH   5   6
ATOM      6  C   UNL     1      -3.034  31.500  50.755  1.00  0.00     0.032 C 
BRANCH   6   7
ATOM      7  C   UNL     1      -3.293  31.252  52.222  1.00  0.00    -0.028 C 
ATOM      8  C   UNL     1      -2.724  31.166  54.613  1.00  0.00     0.039 C 
ATOM      9  C   UNL     1      -2.359  31.444  53.177  1.00  0.00    -0.080 C 
ATOM     10  C   UNL     1      -0.969  31.928  52.838  1.00  0.00     0.039 C 
ENDBRANCH   6   7
ENDBRANCH   5   6
ENDBRANCH   3   5
ENDBRANCH   1   2
BRANCH   1  11
ATOM     11  C   UNL     1      -1.956  26.262  52.422  1.00  0.00     0.034 C 
BRANCH  11  12
ATOM     12  C   UNL     1      -1.992  27.371  53.459  1.00  0.00    -0.077 C 
ATOM     13  C   UNL     1      -0.895  28.055  53.858  1.00  0.00    -0.028 C 
ATOM     14  C   UNL     1      -3.324  27.755  54.052  1.00  0.00     0.039 C 
BRANCH  13  15
ATOM     15  C   UNL     1       0.522  27.761  53.427  1.00  0.00     0.035 C 
BRANCH  15  16
ATOM     16  C   UNL     1       0.971  26.364  53.875  1.00  0.00     0.079 C 
BRANCH  16  17
ATOM     17  C   UNL     1       1.187  26.304  55.367  1.00  0.00     0.130 C 
ATOM     18  O   UNL     1       2.042  27.008  55.881  1.00  0.00    -0.300 OA
ATOM     19  C   UNL     1       0.371  25.392  56.235  1.00  0.00     0.087 C 
ENDBRANCH  16  17
ENDBRANCH  15  16
ENDBRANCH  13  15
ENDBRANCH  11  12
ENDBRANCH   1  11
TORSDOF 9
ENDMDL
MODEL 2
REMARK VINA RESULT:    -4.743      1.671      4.353
REMARK INTER + INTRA:          -9.419
REMARK INTER:                  -6.834
REMARK INTRA:                  -2.585
REMARK UNBOUND:                -2.181
REMARK SMILES CC(=O)CCC=C(C)CCC=C(C)CCC=C(C)C
REMARK SMILES IDX 10 1 11 2 12 3 13 4 14 5 15 6 16 7 18 8 17 9 19 10 9 11 7 12
REMARK SMILES IDX 6 13 8 14 5 15 4 16 2 17 3 18 1 19
REMARK H PARENT
REMARK Flexibility Score: inf
ROOT
ATOM      1  C   UNL     1      -3.166  30.803  50.941  1.00  0.00     0.032 C 
ENDROOT
BRANCH   1   2
ATOM      2  C   UNL     1      -2.966  29.316  51.104  1.00  0.00    -0.028 C 
ATOM      3  C   UNL     1      -1.927  28.611  50.598  1.00  0.00    -0.077 C 
ATOM      4  C   UNL     1      -0.867  29.255  49.739  1.00  0.00     0.039 C 
BRANCH   3   5
ATOM      5  C   UNL     1      -1.824  27.134  50.911  1.00  0.00     0.034 C 
BRANCH   5   6
ATOM      6  C   UNL     1      -1.910  26.887  52.421  1.00  0.00     0.032 C 
BRANCH   6   7
ATOM      7  C   UNL     1      -0.654  26.229  52.941  1.00  0.00    -0.028 C 
ATOM      8  C   UNL     1       1.594  26.167  53.936  1.00  0.00     0.039 C 
ATOM      9  C   UNL     1       0.388  26.925  53.443  1.00  0.00    -0.080 C 
ATOM     10  C   UNL     1       0.368  28.433  53.519  1.00  0.00     0.039 C 
ENDBRANCH   6   7
ENDBRANCH   5   6
ENDBRANCH   3   5
ENDBRANCH   1   2
BRANCH   1  11
ATOM     11  C   UNL     1      -3.413  31.486  52.293  1.00  0.00     0.034 C 
BRANCH  11  12
ATOM     12  C   UNL     1      -2.214  31.366  53.216  1.00  0.00    -0.077 C 
ATOM     13  C   UNL     1      -2.246  30.712  54.400  1.00  0.00    -0.028 C 
ATOM     14  C   UNL     1      -0.907  31.977  52.776  1.00  0.00     0.039 C 
BRANCH  13  15
ATOM     15  C   UNL     1      -3.477  30.105  55.029  1.00  0.00     0.035 C 
BRANCH  15  16
ATOM     16  C   UNL     1      -3.286  28.610  55.320  1.00  0.00     0.079 C 
BRANCH  16  17
ATOM     17  C   UNL     1      -2.395  28.389  56.517  1.00  0.00     0.130 C 
ATOM     18  O   UNL     1      -2.475  29.141  57.475  1.00  0.00    -0.300 OA
ATOM     19  C   UNL     1      -1.407  27.261  56.553  1.00  0.00     0.087 C 
ENDBRANCH  16  17
ENDBRANCH  15  16
ENDBRANCH  13  15
ENDBRANCH  11  12
ENDBRANCH   1  11
TORSDOF 9
ENDMDL
MODEL 3
REMARK VINA RESULT:    -4.654      1.916      3.516
REMARK INTER + INTRA:          -9.284
REMARK INTER:                  -6.833
REMARK INTRA:                  -2.451
REMARK UNBOUND:                -2.181
REMARK SMILES CC(=O)CCC=C(C)CCC=C(C)CCC=C(C)C
REMARK SMILES IDX 10 1 11 2 12 3 13 4 14 5 15 6 16 7 18 8 17 9 19 10 9 11 7 12
REMARK SMILES IDX 6 13 8 14 5 15 4 16 2 17 3 18 1 19
REMARK H PARENT
REMARK Flexibility Score: inf
ROOT
ATOM      1  C   UNL     1      -1.186  26.044  52.501  1.00  0.00     0.032 C 
ENDROOT
BRANCH   1   2
ATOM      2  C   UNL     1      -1.770  26.991  51.481  1.00  0.00    -0.028 C 
ATOM      3  C   UNL     1      -3.025  27.496  51.518  1.00  0.00    -0.077 C 
ATOM      4  C   UNL     1      -4.016  27.096  52.584  1.00  0.00     0.039 C 
BRANCH   3   5
ATOM      5  C   UNL     1      -3.443  28.497  50.463  1.00  0.00     0.034 C 
BRANCH   5   6
ATOM      6  C   UNL     1      -2.308  29.482  50.162  1.00  0.00     0.032 C 
BRANCH   6   7
ATOM      7  C   UNL     1      -2.248  30.581  51.196  1.00  0.00    -0.028 C 
ATOM      8  C   UNL     1      -1.193  31.970  52.929  1.00  0.00     0.039 C 
ATOM      9  C   UNL     1      -1.143  30.849  51.923  1.00  0.00    -0.080 C 
ATOM     10  C   UNL     1       0.129  30.054  51.750  1.00  0.00     0.039 C 
ENDBRANCH   6   7
ENDBRANCH   5   6
ENDBRANCH   3   5
ENDBRANCH   1   2
BRANCH   1  11
ATOM     11  C   UNL     1       0.002  26.678  53.238  1.00  0.00     0.034 C 
BRANCH  11  12
ATOM     12  C   UNL     1      -0.188  26.653  54.744  1.00  0.00    -0.077 C 
ATOM     13  C   UNL     1      -0.936  27.558  55.417  1.00  0.00    -0.028 C 
ATOM     14  C   UNL     1       0.461  25.542  55.530  1.00  0.00     0.039 C 
BRANCH  13  15
ATOM     15  C   UNL     1      -1.597  28.771  54.807  1.00  0.00     0.035 C 
BRANCH  15  16
ATOM     16  C   UNL     1      -2.896  29.135  55.537  1.00  0.00     0.079 C 
BRANCH  16  17
ATOM     17  C   UNL     1      -2.638  30.061  56.699  1.00  0.00     0.130 C 
ATOM     18  O   UNL     1      -2.707  29.630  57.839  1.00  0.00    -0.300 OA
ATOM     19  C   UNL     1      -2.300  31.507  56.482  1.00  0.00     0.087 C 
ENDBRANCH  16  17
ENDBRANCH  15  16
ENDBRANCH  13  15
ENDBRANCH  11  12
ENDBRANCH   1  11
TORSDOF 9
ENDMDL
MODEL 4
REMARK VINA RESULT:    -4.604      1.326      2.926
REMARK INTER + INTRA:          -9.208
REMARK INTER:                  -6.513
REMARK INTRA:                  -2.695
REMARK UNBOUND:                -2.181
REMARK SMILES CC(=O)CCC=C(C)CCC=C(C)CCC=C(C)C
REMARK SMILES IDX 10 1 11 2 12 3 13 4 14 5 15 6 16 7 18 8 17 9 19 10 9 11 7 12
REMARK SMILES IDX 6 13 8 14 5 15 4 16 2 17 3 18 1 19
REMARK H PARENT
REMARK Flexibility Score: inf
ROOT
ATOM      1  C   UNL     1      -1.935  29.090  50.199  1.00  0.00     0.032 C 
ENDROOT
BRANCH   1   2
ATOM      2  C   UNL     1      -1.506  29.967  51.351  1.00  0.00    -0.028 C 
ATOM      3  C   UNL     1      -2.321  30.801  52.039  1.00  0.00    -0.077 C 
ATOM      4  C   UNL     1      -3.771  30.988  51.666  1.00  0.00     0.039 C 
BRANCH   3   5
ATOM      5  C   UNL     1      -1.760  31.560  53.221  1.00  0.00     0.034 C 
BRANCH   5   6
ATOM      6  C   UNL     1      -2.601  31.313  54.479  1.00  0.00     0.032 C 
BRANCH   6   7
ATOM      7  C   UNL     1      -2.085  30.127  55.259  1.00  0.00    -0.028 C 
ATOM      8  C   UNL     1      -2.217  27.902  56.298  1.00  0.00     0.039 C 
ATOM      9  C   UNL     1      -2.831  29.031  55.510  1.00  0.00    -0.080 C 
ATOM     10  C   UNL     1      -4.256  28.915  55.021  1.00  0.00     0.039 C 
ENDBRANCH   6   7
ENDBRANCH   5   6
ENDBRANCH   3   5
ENDBRANCH   1   2
BRANCH   1  11
ATOM     11  C   UNL     1      -1.676  27.607  50.497  1.00  0.00     0.034 C 
BRANCH  11  12
ATOM     12  C   UNL     1      -2.452  27.131  51.713  1.00  0.00    -0.077 C 
ATOM     13  C   UNL     1      -1.864  26.637  52.827  1.00  0.00    -0.028 C 
ATOM     14  C   UNL     1      -3.955  27.246  51.693  1.00  0.00     0.039 C 
BRANCH  13  15
ATOM     15  C   UNL     1      -0.385  26.385  52.994  1.00  0.00     0.035 C 
BRANCH  15  16
ATOM     16  C   UNL     1       0.302  27.531  53.748  1.00  0.00     0.079 C 
BRANCH  16  17
ATOM     17  C   UNL     1       1.576  27.072  54.413  1.00  0.00     0.130 C 
ATOM     18  O   UNL     1       1.616  26.964  55.629  1.00  0.00    -0.300 OA
ATOM     19  C   UNL     1       2.800  26.745  53.609  1.00  0.00     0.087 C 
ENDBRANCH  16  17
ENDBRANCH  15  16
ENDBRANCH  13  15
ENDBRANCH  11  12
ENDBRANCH   1  11
TORSDOF 9
ENDMDL
MODEL 5
REMARK VINA RESULT:    -4.570      1.540      4.782
REMARK INTER + INTRA:          -9.155
REMARK INTER:                  -6.902
REMARK INTRA:                  -2.253
REMARK UNBOUND:                -2.181
REMARK SMILES CC(=O)CCC=C(C)CCC=C(C)CCC=C(C)C
REMARK SMILES IDX 10 1 11 2 12 3 13 4 14 5 15 6 16 7 18 8 17 9 19 10 9 11 7 12
REMARK SMILES IDX 6 13 8 14 5 15 4 16 2 17 3 18 1 19
REMARK H PARENT
REMARK Flexibility Score: inf
ROOT
ATOM      1  C   UNL     1      -4.385  28.683  50.826  1.00  0.00     0.032 C 
ENDROOT
BRANCH   1   2
ATOM      2  C   UNL     1      -3.513  27.616  51.444  1.00  0.00    -0.028 C 
ATOM      3  C   UNL     1      -2.186  27.471  51.220  1.00  0.00    -0.077 C 
ATOM      4  C   UNL     1      -1.438  28.351  50.248  1.00  0.00     0.039 C 
BRANCH   3   5
ATOM      5  C   UNL     1      -1.431  26.398  51.973  1.00  0.00     0.034 C 
BRANCH   5   6
ATOM      6  C   UNL     1      -0.473  27.018  52.997  1.00  0.00     0.032 C 
BRANCH   6   7
ATOM      7  C   UNL     1      -0.397  26.182  54.253  1.00  0.00    -0.028 C 
ATOM      8  C   UNL     1       0.667  25.266  56.271  1.00  0.00     0.039 C 
ATOM      9  C   UNL     1       0.699  26.134  55.039  1.00  0.00    -0.080 C 
ATOM     10  C   UNL     1       1.943  26.926  54.712  1.00  0.00     0.039 C 
ENDBRANCH   6   7
ENDBRANCH   5   6
ENDBRANCH   3   5
ENDBRANCH   1   2
BRANCH   1  11
ATOM     11  C   UNL     1      -4.690  29.805  51.826  1.00  0.00     0.034 C 
BRANCH  11  12
ATOM     12  C   UNL     1      -3.652  30.912  51.770  1.00  0.00    -0.077 C 
ATOM     13  C   UNL     1      -2.969  31.350  52.853  1.00  0.00    -0.028 C 
ATOM     14  C   UNL     1      -3.337  31.532  50.432  1.00  0.00     0.039 C 
BRANCH  13  15
ATOM     15  C   UNL     1      -3.203  30.897  54.274  1.00  0.00     0.035 C 
BRANCH  15  16
ATOM     16  C   UNL     1      -2.109  29.931  54.747  1.00  0.00     0.079 C 
BRANCH  16  17
ATOM     17  C   UNL     1      -2.691  28.755  55.490  1.00  0.00     0.130 C 
ATOM     18  O   UNL     1      -2.110  28.313  56.468  1.00  0.00    -0.300 OA
ATOM     19  C   UNL     1      -3.974  28.114  55.049  1.00  0.00     0.087 C 
ENDBRANCH  16  17
ENDBRANCH  15  16
ENDBRANCH  13  15
ENDBRANCH  11  12
ENDBRANCH   1  11
TORSDOF 9
ENDMDL
MODEL 6
REMARK VINA RESULT:    -4.515      1.435      3.137
REMARK INTER + INTRA:          -9.071
REMARK INTER:                  -6.647
REMARK INTRA:                  -2.424
REMARK UNBOUND:                -2.181
REMARK SMILES CC(=O)CCC=C(C)CCC=C(C)CCC=C(C)C
REMARK SMILES IDX 10 1 11 2 12 3 13 4 14 5 15 6 16 7 18 8 17 9 19 10 9 11 7 12
REMARK SMILES IDX 6 13 8 14 5 15 4 16 2 17 3 18 1 19
REMARK H PARENT
REMARK Flexibility Score: inf
ROOT
ATOM      1  C   UNL     1      -1.409  28.506  50.191  1.00  0.00     0.032 C 
ENDROOT
BRANCH   1   2
ATOM      2  C   UNL     1      -2.680  28.199  50.947  1.00  0.00    -0.028 C 
ATOM      3  C   UNL     1      -2.905  27.075  51.666  1.00  0.00    -0.077 C 
ATOM      4  C   UNL     1      -1.897  25.954  51.733  1.00  0.00     0.039 C 
BRANCH   3   5
ATOM      5  C   UNL     1      -4.203  26.945  52.433  1.00  0.00     0.034 C 
BRANCH   5   6
ATOM      6  C   UNL     1      -4.429  28.160  53.339  1.00  0.00     0.032 C 
BRANCH   6   7
ATOM      7  C   UNL     1      -3.604  28.063  54.601  1.00  0.00    -0.028 C 
ATOM      8  C   UNL     1      -2.604  28.887  56.690  1.00  0.00     0.039 C 
ATOM      9  C   UNL     1      -3.449  29.093  55.459  1.00  0.00    -0.080 C 
ATOM     10  C   UNL     1      -4.098  30.434  55.212  1.00  0.00     0.039 C 
ENDBRANCH   6   7
ENDBRANCH   5   6
ENDBRANCH   3   5
ENDBRANCH   1   2
BRANCH   1  11
ATOM     11  C   UNL     1      -0.838  29.873  50.589  1.00  0.00     0.034 C 
BRANCH  11  12
ATOM     12  C   UNL     1      -1.265  30.280  51.988  1.00  0.00    -0.077 C 
ATOM     13  C   UNL     1      -0.704  29.782  53.114  1.00  0.00    -0.028 C 
ATOM     14  C   UNL     1      -2.347  31.320  52.133  1.00  0.00     0.039 C 
BRANCH  13  15
ATOM     15  C   UNL     1       0.336  28.688  53.161  1.00  0.00     0.035 C 
BRANCH  15  16
ATOM     16  C   UNL     1       0.110  27.743  54.349  1.00  0.00     0.079 C 
BRANCH  16  17
ATOM     17  C   UNL     1       1.377  27.019  54.729  1.00  0.00     0.130 C 
ATOM     18  O   UNL     1       1.600  26.771  55.904  1.00  0.00    -0.300 OA
ATOM     19  C   UNL     1       2.373  26.596  53.691  1.00  0.00     0.087 C 
ENDBRANCH  16  17
ENDBRANCH  15  16
ENDBRANCH  13  15
ENDBRANCH  11  12
ENDBRANCH   1  11
TORSDOF 9
ENDMDL
MODEL 7
REMARK VINA RESULT:    -4.467      1.306      3.787
REMARK INTER + INTRA:          -8.999
REMARK INTER:                  -6.169
REMARK INTRA:                  -2.830
REMARK UNBOUND:                -2.181
REMARK SMILES CC(=O)CCC=C(C)CCC=C(C)CCC=C(C)C
REMARK SMILES IDX 10 1 11 2 12 3 13 4 14 5 15 6 16 7 18 8 17 9 19 10 9 11 7 12
REMARK SMILES IDX 6 13 8 14 5 15 4 16 2 17 3 18 1 19
REMARK H PARENT
REMARK Flexibility Score: inf
ROOT
ATOM      1  C   UNL     1      -4.094  31.435  53.373  1.00  0.00     0.032 C 
ENDROOT
BRANCH   1   2
ATOM      2  C   UNL     1      -3.402  30.944  52.124  1.00  0.00    -0.028 C 
ATOM      3  C   UNL     1      -2.091  31.122  51.841  1.00  0.00    -0.077 C 
ATOM      4  C   UNL     1      -1.177  31.909  52.748  1.00  0.00     0.039 C 
BRANCH   3   5
ATOM      5  C   UNL     1      -1.525  30.504  50.581  1.00  0.00     0.034 C 
BRANCH   5   6
ATOM      6  C   UNL     1      -2.363  29.301  50.135  1.00  0.00     0.032 C 
BRANCH   6   7
ATOM      7  C   UNL     1      -1.720  28.000  50.553  1.00  0.00    -0.028 C 
ATOM      8  C   UNL     1      -1.617  25.808  51.662  1.00  0.00     0.039 C 
ATOM      9  C   UNL     1      -2.353  27.073  51.302  1.00  0.00    -0.080 C 
ATOM     10  C   UNL     1      -3.770  27.277  51.782  1.00  0.00     0.039 C 
ENDBRANCH   6   7
ENDBRANCH   5   6
ENDBRANCH   3   5
ENDBRANCH   1   2
BRANCH   1  11
ATOM     11  C   UNL     1      -4.222  30.317  54.417  1.00  0.00     0.034 C 
BRANCH  11  12
ATOM     12  C   UNL     1      -3.181  30.446  55.515  1.00  0.00    -0.077 C 
ATOM     13  C   UNL     1      -2.110  29.627  55.628  1.00  0.00    -0.028 C 
ATOM     14  C   UNL     1      -3.326  31.567  56.512  1.00  0.00     0.039 C 
BRANCH  13  15
ATOM     15  C   UNL     1      -1.843  28.416  54.766  1.00  0.00     0.035 C 
BRANCH  15  16
ATOM     16  C   UNL     1      -0.497  28.525  54.038  1.00  0.00     0.079 C 
BRANCH  16  17
ATOM     17  C   UNL     1       0.455  27.436  54.466  1.00  0.00     0.130 C 
ATOM     18  O   UNL     1       1.529  27.317  53.897  1.00  0.00    -0.300 OA
ATOM     19  C   UNL     1       0.108  26.493  55.580  1.00  0.00     0.087 C 
ENDBRANCH  16  17
ENDBRANCH  15  16
ENDBRANCH  13  15
ENDBRANCH  11  12
ENDBRANCH   1  11
TORSDOF 9
ENDMDL
MODEL 8
REMARK VINA RESULT:    -4.413      1.479      2.711
REMARK INTER + INTRA:          -8.915
REMARK INTER:                  -6.925
REMARK INTRA:                  -1.990
REMARK UNBOUND:                -2.181
REMARK SMILES CC(=O)CCC=C(C)CCC=C(C)CCC=C(C)C
REMARK SMILES IDX 10 1 11 2 12 3 13 4 14 5 15 6 16 7 18 8 17 9 19 10 9 11 7 12
REMARK SMILES IDX 6 13 8 14 5 15 4 16 2 17 3 18 1 19
REMARK H PARENT
REMARK Flexibility Score: inf
ROOT
ATOM      1  C   UNL     1      -3.955  27.397  53.008  1.00  0.00     0.032 C 
ENDROOT
BRANCH   1   2
ATOM      2  C   UNL     1      -4.207  28.595  52.125  1.00  0.00    -0.028 C 
ATOM      3  C   UNL     1      -4.482  29.844  52.569  1.00  0.00    -0.077 C 
ATOM      4  C   UNL     1      -4.631  30.155  54.038  1.00  0.00     0.039 C 
BRANCH   3   5
ATOM      5  C   UNL     1      -4.635  30.961  51.560  1.00  0.00     0.034 C 
BRANCH   5   6
ATOM      6  C   UNL     1      -3.450  30.990  50.589  1.00  0.00     0.032 C 
BRANCH   6   7
ATOM      7  C   UNL     1      -2.134  30.950  51.329  1.00  0.00    -0.028 C 
ATOM      8  C   UNL     1       0.128  30.127  51.833  1.00  0.00     0.039 C 
ATOM      9  C   UNL     1      -1.147  30.080  51.029  1.00  0.00    -0.080 C 
ATOM     10  C   UNL     1      -1.293  29.071  49.916  1.00  0.00     0.039 C 
ENDBRANCH   6   7
ENDBRANCH   5   6
ENDBRANCH   3   5
ENDBRANCH   1   2
BRANCH   1  11
ATOM     11  C   UNL     1      -2.549  27.440  53.623  1.00  0.00     0.034 C 
BRANCH  11  12
ATOM     12  C   UNL     1      -1.549  26.641  52.806  1.00  0.00    -0.077 C 
ATOM     13  C   UNL     1      -0.230  26.576  53.098  1.00  0.00    -0.028 C 
ATOM     14  C   UNL     1      -2.056  25.851  51.627  1.00  0.00     0.039 C 
BRANCH  13  15
ATOM     15  C   UNL     1       0.462  27.354  54.192  1.00  0.00     0.035 C 
BRANCH  15  16
ATOM     16  C   UNL     1       1.306  26.439  55.090  1.00  0.00     0.079 C 
BRANCH  16  17
ATOM     17  C   UNL     1       0.458  25.745  56.126  1.00  0.00     0.130 C 
ATOM     18  O   UNL     1       0.564  24.538  56.279  1.00  0.00    -0.300 OA
ATOM     19  C   UNL     1      -0.515  26.508  56.974  1.00  0.00     0.087 C 
ENDBRANCH  16  17
ENDBRANCH  15  16
ENDBRANCH  13  15
ENDBRANCH  11  12
ENDBRANCH   1  11
TORSDOF 9
ENDMDL
MODEL 9
REMARK VINA RESULT:    -4.408      1.581      2.427
REMARK INTER + INTRA:          -8.908
REMARK INTER:                  -6.571
REMARK INTRA:                  -2.337
REMARK UNBOUND:                -2.181
REMARK SMILES CC(=O)CCC=C(C)CCC=C(C)CCC=C(C)C
REMARK SMILES IDX 10 1 11 2 12 3 13 4 14 5 15 6 16 7 18 8 17 9 19 10 9 11 7 12
REMARK SMILES IDX 6 13 8 14 5 15 4 16 2 17 3 18 1 19
REMARK H PARENT
REMARK Flexibility Score: inf
ROOT
ATOM      1  C   UNL     1      -2.046  28.438  50.426  1.00  0.00     0.032 C 
ENDROOT
BRANCH   1   2
ATOM      2  C   UNL     1      -2.992  29.517  50.896  1.00  0.00    -0.028 C 
ATOM      3  C   UNL     1      -4.320  29.354  51.097  1.00  0.00    -0.077 C 
ATOM      4  C   UNL     1      -5.019  28.050  50.798  1.00  0.00     0.039 C 
BRANCH   3   5
ATOM      5  C   UNL     1      -5.125  30.513  51.644  1.00  0.00     0.034 C 
BRANCH   5   6
ATOM      6  C   UNL     1      -4.628  30.915  53.037  1.00  0.00     0.032 C 
BRANCH   6   7
ATOM      7  C   UNL     1      -4.524  29.716  53.950  1.00  0.00    -0.028 C 
ATOM      8  C   UNL     1      -3.388  28.150  55.467  1.00  0.00     0.039 C 
ATOM      9  C   UNL     1      -3.382  29.367  54.578  1.00  0.00    -0.080 C 
ATOM     10  C   UNL     1      -2.110  30.164  54.408  1.00  0.00     0.039 C 
ENDBRANCH   6   7
ENDBRANCH   5   6
ENDBRANCH   3   5
ENDBRANCH   1   2
BRANCH   1  11
ATOM     11  C   UNL     1      -0.950  28.163  51.465  1.00  0.00     0.034 C 
BRANCH  11  12
ATOM     12  C   UNL     1      -1.196  26.867  52.218  1.00  0.00    -0.077 C 
ATOM     13  C   UNL     1      -0.613  26.570  53.402  1.00  0.00    -0.028 C 
ATOM     14  C   UNL     1      -2.168  25.873  51.634  1.00  0.00     0.039 C 
BRANCH  13  15
ATOM     15  C   UNL     1       0.433  27.410  54.095  1.00  0.00     0.035 C 
BRANCH  15  16
ATOM     16  C   UNL     1       1.337  26.558  54.996  1.00  0.00     0.079 C 
BRANCH  16  17
ATOM     17  C   UNL     1       0.541  25.837  56.055  1.00  0.00     0.130 C 
ATOM     18  O   UNL     1       0.631  24.622  56.153  1.00  0.00    -0.300 OA
ATOM     19  C   UNL     1      -0.363  26.581  56.993  1.00  0.00     0.087 C 
ENDBRANCH  16  17
ENDBRANCH  15  16
ENDBRANCH  13  15
ENDBRANCH  11  12
ENDBRANCH   1  11
TORSDOF 9
ENDMDL
