MODEL 1
REMARK VINA RESULT:    -6.417      0.000      0.000
REMARK INTER + INTRA:          -7.553
REMARK INTER:                  -7.730
REMARK INTRA:                   0.177
REMARK UNBOUND:                 0.177
REMARK SMILES O=c1c(O)c(-c2ccc(O)c(O)c2)oc2cc(O)cc(O)c12
REMARK SMILES IDX 5 1 3 2 2 3 1 4 22 5 20 6 19 7 17 8 16 9 15 10 14 11 6 12
REMARK SMILES IDX 7 13 8 14 9 15 13 16 11 17 10 18 12 20 4 22 21 24 18 26
REMARK H PARENT 10 19 12 21 4 23 21 25 18 27
REMARK Flexibility Score: inf
ROOT
ATOM      1  C   UNL     1      35.369  50.186  16.892  1.00  0.00     0.180 A 
ATOM      2  C   UNL     1      36.038  48.948  16.935  1.00  0.00     0.208 A 
ATOM      3  C   UNL     1      37.272  48.866  17.599  1.00  0.00     0.238 A 
ATOM      4  O   UNL     1      37.885  47.765  17.634  1.00  0.00    -0.285 OA
ATOM      5  C   UNL     1      37.804  50.011  18.224  1.00  0.00     0.111 A 
ATOM      6  C   UNL     1      39.038  50.013  18.918  1.00  0.00     0.134 A 
ATOM      7  C   UNL     1      39.496  51.193  19.522  1.00  0.00     0.093 A 
ATOM      8  C   UNL     1      38.745  52.369  19.448  1.00  0.00     0.123 A 
ATOM      9  C   UNL     1      37.526  52.374  18.764  1.00  0.00     0.094 A 
ATOM     10  C   UNL     1      37.053  51.209  18.154  1.00  0.00     0.146 A 
ATOM     11  O   UNL     1      35.894  51.242  17.506  1.00  0.00    -0.452 OA
ENDROOT
BRANCH   1  12
ATOM     12  C   UNL     1      34.074  50.357  16.195  1.00  0.00     0.025 A 
ATOM     13  C   UNL     1      33.855  49.698  14.975  1.00  0.00     0.016 A 
ATOM     14  C   UNL     1      32.632  49.829  14.310  1.00  0.00     0.051 A 
ATOM     15  C   UNL     1      31.607  50.608  14.862  1.00  0.00     0.157 A 
ATOM     16  C   UNL     1      33.035  51.121  16.756  1.00  0.00     0.062 A 
ATOM     17  C   UNL     1      31.808  51.252  16.090  1.00  0.00     0.158 A 
BRANCH  15  18
ATOM     18  O   UNL     1      30.388  50.742  14.202  1.00  0.00    -0.504 OA
ATOM     19  H   UNL     1      30.247  51.450  13.489  1.00  0.00     0.293 HD
ENDBRANCH  15  18
BRANCH  17  20
ATOM     20  O   UNL     1      30.781  52.015  16.645  1.00  0.00    -0.504 OA
ATOM     21  H   UNL     1      30.522  51.926  17.620  1.00  0.00     0.293 HD
ENDBRANCH  17  20
ENDBRANCH   1  12
BRANCH   2  22
ATOM     22  O   UNL     1      35.465  47.815  16.349  1.00  0.00    -0.502 OA
ATOM     23  H   UNL     1      35.154  47.802  15.385  1.00  0.00     0.293 HD
ENDBRANCH   2  22
BRANCH   6  24
ATOM     24  O   UNL     1      39.812  48.854  19.011  1.00  0.00    -0.507 OA
ATOM     25  H   UNL     1      39.541  47.994  18.551  1.00  0.00     0.293 HD
ENDBRANCH   6  24
BRANCH   8  26
ATOM     26  O   UNL     1      39.222  53.527  20.058  1.00  0.00    -0.508 OA
ATOM     27  H   UNL     1      40.178  53.596  20.388  1.00  0.00     0.293 HD
ENDBRANCH   8  26
TORSDOF 6
ENDMDL
MODEL 2
REMARK VINA RESULT:    -6.153      4.443      8.291
REMARK INTER + INTRA:          -7.234
REMARK INTER:                  -6.918
REMARK INTRA:                  -0.317
REMARK UNBOUND:                 0.177
REMARK SMILES O=c1c(O)c(-c2ccc(O)c(O)c2)oc2cc(O)cc(O)c12
REMARK SMILES IDX 5 1 3 2 2 3 1 4 22 5 20 6 19 7 17 8 16 9 15 10 14 11 6 12
REMARK SMILES IDX 7 13 8 14 9 15 13 16 11 17 10 18 12 20 4 22 21 24 18 26
REMARK H PARENT 10 19 12 21 4 23 21 25 18 27
REMARK Flexibility Score: inf
ROOT
ATOM      1  C   UNL     1      29.605  49.629  12.170  1.00  0.00     0.180 A 
ATOM      2  C   UNL     1      28.873  50.711  12.694  1.00  0.00     0.208 A 
ATOM      3  C   UNL     1      29.426  51.459  13.745  1.00  0.00     0.238 A 
ATOM      4  O   UNL     1      28.775  52.423  14.230  1.00  0.00    -0.285 OA
ATOM      5  C   UNL     1      30.705  51.128  14.238  1.00  0.00     0.111 A 
ATOM      6  C   UNL     1      31.336  51.833  15.291  1.00  0.00     0.134 A 
ATOM      7  C   UNL     1      32.615  51.447  15.719  1.00  0.00     0.093 A 
ATOM      8  C   UNL     1      33.274  50.374  15.116  1.00  0.00     0.123 A 
ATOM      9  C   UNL     1      32.657  49.673  14.075  1.00  0.00     0.094 A 
ATOM     10  C   UNL     1      31.382  50.041  13.635  1.00  0.00     0.146 A 
ATOM     11  O   UNL     1      30.815  49.355  12.649  1.00  0.00    -0.452 OA
ENDROOT
BRANCH   1  12
ATOM     12  C   UNL     1      29.081  48.781  11.075  1.00  0.00     0.025 A 
ATOM     13  C   UNL     1      28.376  47.608  11.387  1.00  0.00     0.016 A 
ATOM     14  C   UNL     1      27.855  46.803  10.370  1.00  0.00     0.051 A 
ATOM     15  C   UNL     1      28.017  47.169   9.027  1.00  0.00     0.157 A 
ATOM     16  C   UNL     1      29.224  49.155   9.726  1.00  0.00     0.062 A 
ATOM     17  C   UNL     1      28.700  48.349   8.705  1.00  0.00     0.158 A 
BRANCH  15  18
ATOM     18  O   UNL     1      27.501  46.369   8.010  1.00  0.00    -0.504 OA
ATOM     19  H   UNL     1      28.081  46.046   7.244  1.00  0.00     0.293 HD
ENDBRANCH  15  18
BRANCH  17  20
ATOM     20  O   UNL     1      28.848  48.717   7.368  1.00  0.00    -0.504 OA
ATOM     21  H   UNL     1      28.049  48.818   6.755  1.00  0.00     0.293 HD
ENDBRANCH  17  20
ENDBRANCH   1  12
BRANCH   2  22
ATOM     22  O   UNL     1      27.628  51.049  12.155  1.00  0.00    -0.502 OA
ATOM     23  H   UNL     1      26.975  50.351  11.821  1.00  0.00     0.293 HD
ENDBRANCH   2  22
BRANCH   6  24
ATOM     24  O   UNL     1      30.704  52.911  15.914  1.00  0.00    -0.507 OA
ATOM     25  H   UNL     1      29.892  52.784  16.505  1.00  0.00     0.293 HD
ENDBRANCH   6  24
BRANCH   8  26
ATOM     26  O   UNL     1      34.544  50.012  15.559  1.00  0.00    -0.508 OA
ATOM     27  H   UNL     1      34.794  50.053  16.540  1.00  0.00     0.293 HD
ENDBRANCH   8  26
TORSDOF 6
ENDMDL
MODEL 3
REMARK VINA RESULT:    -6.038      2.504      8.336
REMARK INTER + INTRA:          -7.097
REMARK INTER:                  -7.196
REMARK INTRA:                   0.099
REMARK UNBOUND:                 0.177
REMARK SMILES O=c1c(O)c(-c2ccc(O)c(O)c2)oc2cc(O)cc(O)c12
REMARK SMILES IDX 5 1 3 2 2 3 1 4 22 5 20 6 19 7 17 8 16 9 15 10 14 11 6 12
REMARK SMILES IDX 7 13 8 14 9 15 13 16 11 17 10 18 12 20 4 22 21 24 18 26
REMARK H PARENT 10 19 12 21 4 23 21 25 18 27
REMARK Flexibility Score: inf
ROOT
ATOM      1  C   UNL     1      32.452  50.418  15.232  1.00  0.00     0.180 A 
ATOM      2  C   UNL     1      31.582  51.235  15.978  1.00  0.00     0.208 A 
ATOM      3  C   UNL     1      30.378  51.655  15.393  1.00  0.00     0.238 A 
ATOM      4  O   UNL     1      29.595  52.396  16.048  1.00  0.00    -0.285 OA
ATOM      5  C   UNL     1      30.055  51.238  14.086  1.00  0.00     0.111 A 
ATOM      6  C   UNL     1      28.860  51.613  13.425  1.00  0.00     0.134 A 
ATOM      7  C   UNL     1      28.608  51.149  12.126  1.00  0.00     0.093 A 
ATOM      8  C   UNL     1      29.523  50.318  11.476  1.00  0.00     0.123 A 
ATOM      9  C   UNL     1      30.705  49.944  12.122  1.00  0.00     0.094 A 
ATOM     10  C   UNL     1      30.976  50.397  13.417  1.00  0.00     0.146 A 
ATOM     11  O   UNL     1      32.108  50.032  14.007  1.00  0.00    -0.452 OA
ENDROOT
BRANCH   1  12
ATOM     12  C   UNL     1      33.749  49.950  15.772  1.00  0.00     0.025 A 
ATOM     13  C   UNL     1      34.578  50.852  16.457  1.00  0.00     0.016 A 
ATOM     14  C   UNL     1      35.797  50.427  16.993  1.00  0.00     0.051 A 
ATOM     15  C   UNL     1      36.196  49.090  16.865  1.00  0.00     0.157 A 
ATOM     16  C   UNL     1      34.144  48.604  15.664  1.00  0.00     0.062 A 
ATOM     17  C   UNL     1      35.367  48.176  16.203  1.00  0.00     0.158 A 
BRANCH  15  18
ATOM     18  O   UNL     1      37.411  48.662  17.396  1.00  0.00    -0.504 OA
ATOM     19  H   UNL     1      37.477  47.819  17.954  1.00  0.00     0.293 HD
ENDBRANCH  15  18
BRANCH  17  20
ATOM     20  O   UNL     1      35.760  46.844  16.089  1.00  0.00    -0.504 OA
ATOM     21  H   UNL     1      36.622  46.509  16.504  1.00  0.00     0.293 HD
ENDBRANCH  17  20
ENDBRANCH   1  12
BRANCH   2  22
ATOM     22  O   UNL     1      31.902  51.594  17.290  1.00  0.00    -0.502 OA
ATOM     23  H   UNL     1      32.778  52.043  17.531  1.00  0.00     0.293 HD
ENDBRANCH   2  22
BRANCH   6  24
ATOM     24  O   UNL     1      27.925  52.442  14.048  1.00  0.00    -0.507 OA
ATOM     25  H   UNL     1      26.970  52.510  13.718  1.00  0.00     0.293 HD
ENDBRANCH   6  24
BRANCH   8  26
ATOM     26  O   UNL     1      29.247  49.869  10.186  1.00  0.00    -0.508 OA
ATOM     27  H   UNL     1      28.460  49.259   9.995  1.00  0.00     0.293 HD
ENDBRANCH   8  26
TORSDOF 6
ENDMDL
MODEL 4
REMARK VINA RESULT:    -5.831      3.837      9.468
REMARK INTER + INTRA:          -6.847
REMARK INTER:                  -6.814
REMARK INTRA:                  -0.033
REMARK UNBOUND:                 0.177
REMARK SMILES O=c1c(O)c(-c2ccc(O)c(O)c2)oc2cc(O)cc(O)c12
REMARK SMILES IDX 5 1 3 2 2 3 1 4 22 5 20 6 19 7 17 8 16 9 15 10 14 11 6 12
REMARK SMILES IDX 7 13 8 14 9 15 13 16 11 17 10 18 12 20 4 22 21 24 18 26
REMARK H PARENT 10 19 12 21 4 23 21 25 18 27
REMARK Flexibility Score: inf
ROOT
ATOM      1  C   UNL     1      30.186  51.707  14.867  1.00  0.00     0.180 A 
ATOM      2  C   UNL     1      29.556  52.280  15.989  1.00  0.00     0.208 A 
ATOM      3  C   UNL     1      28.351  52.974  15.809  1.00  0.00     0.238 A 
ATOM      4  O   UNL     1      27.783  53.501  16.804  1.00  0.00    -0.285 OA
ATOM      5  C   UNL     1      27.786  53.067  14.521  1.00  0.00     0.111 A 
ATOM      6  C   UNL     1      26.572  53.745  14.254  1.00  0.00     0.134 A 
ATOM      7  C   UNL     1      26.070  53.785  12.945  1.00  0.00     0.093 A 
ATOM      8  C   UNL     1      26.755  53.162  11.900  1.00  0.00     0.123 A 
ATOM      9  C   UNL     1      27.955  52.492  12.156  1.00  0.00     0.094 A 
ATOM     10  C   UNL     1      28.473  52.441  13.454  1.00  0.00     0.146 A 
ATOM     11  O   UNL     1      29.617  51.802  13.670  1.00  0.00    -0.452 OA
ENDROOT
BRANCH   1  12
ATOM     12  C   UNL     1      31.470  50.976  14.973  1.00  0.00     0.025 A 
ATOM     13  C   UNL     1      31.601  49.719  14.361  1.00  0.00     0.016 A 
ATOM     14  C   UNL     1      32.809  49.021  14.431  1.00  0.00     0.051 A 
ATOM     15  C   UNL     1      33.908  49.576  15.099  1.00  0.00     0.157 A 
ATOM     16  C   UNL     1      32.582  51.539  15.625  1.00  0.00     0.062 A 
ATOM     17  C   UNL     1      33.795  50.839  15.694  1.00  0.00     0.158 A 
BRANCH  15  18
ATOM     18  O   UNL     1      35.114  48.882  15.172  1.00  0.00    -0.504 OA
ATOM     19  H   UNL     1      35.995  49.326  14.939  1.00  0.00     0.293 HD
ENDBRANCH  15  18
BRANCH  17  20
ATOM     20  O   UNL     1      34.895  51.395  16.347  1.00  0.00    -0.504 OA
ATOM     21  H   UNL     1      35.318  50.944  17.150  1.00  0.00     0.293 HD
ENDBRANCH  17  20
ENDBRANCH   1  12
BRANCH   2  22
ATOM     22  O   UNL     1      30.112  52.131  17.263  1.00  0.00    -0.502 OA
ATOM     23  H   UNL     1      31.089  51.906  17.406  1.00  0.00     0.293 HD
ENDBRANCH   2  22
BRANCH   6  24
ATOM     24  O   UNL     1      25.862  54.377  15.277  1.00  0.00    -0.507 OA
ATOM     25  H   UNL     1      25.733  53.945  16.183  1.00  0.00     0.293 HD
ENDBRANCH   6  24
BRANCH   8  26
ATOM     26  O   UNL     1      26.234  53.216  10.609  1.00  0.00    -0.508 OA
ATOM     27  H   UNL     1      25.273  52.960  10.415  1.00  0.00     0.293 HD
ENDBRANCH   8  26
TORSDOF 6
ENDMDL
MODEL 5
REMARK VINA RESULT:    -5.810      3.872      9.630
REMARK INTER + INTRA:          -6.821
REMARK INTER:                  -6.521
REMARK INTRA:                  -0.300
REMARK UNBOUND:                 0.177
REMARK SMILES O=c1c(O)c(-c2ccc(O)c(O)c2)oc2cc(O)cc(O)c12
REMARK SMILES IDX 5 1 3 2 2 3 1 4 22 5 20 6 19 7 17 8 16 9 15 10 14 11 6 12
REMARK SMILES IDX 7 13 8 14 9 15 13 16 11 17 10 18 12 20 4 22 21 24 18 26
REMARK H PARENT 10 19 12 21 4 23 21 25 18 27
REMARK Flexibility Score: inf
ROOT
ATOM      1  C   UNL     1      30.372  49.456  13.903  1.00  0.00     0.180 A 
ATOM      2  C   UNL     1      30.132  49.578  12.521  1.00  0.00     0.208 A 
ATOM      3  C   UNL     1      28.932  49.077  11.994  1.00  0.00     0.238 A 
ATOM      4  O   UNL     1      28.711  49.171  10.756  1.00  0.00    -0.285 OA
ATOM      5  C   UNL     1      27.986  48.485  12.855  1.00  0.00     0.111 A 
ATOM      6  C   UNL     1      26.750  47.960  12.405  1.00  0.00     0.134 A 
ATOM      7  C   UNL     1      25.858  47.393  13.328  1.00  0.00     0.093 A 
ATOM      8  C   UNL     1      26.175  47.343  14.687  1.00  0.00     0.123 A 
ATOM      9  C   UNL     1      27.394  47.859  15.137  1.00  0.00     0.094 A 
ATOM     10  C   UNL     1      28.297  48.426  14.234  1.00  0.00     0.146 A 
ATOM     11  O   UNL     1      29.451  48.905  14.687  1.00  0.00    -0.452 OA
ENDROOT
BRANCH   1  12
ATOM     12  C   UNL     1      31.622  49.942  14.530  1.00  0.00     0.025 A 
ATOM     13  C   UNL     1      31.604  51.135  15.270  1.00  0.00     0.016 A 
ATOM     14  C   UNL     1      32.768  51.602  15.888  1.00  0.00     0.051 A 
ATOM     15  C   UNL     1      33.961  50.874  15.789  1.00  0.00     0.157 A 
ATOM     16  C   UNL     1      32.816  49.204  14.451  1.00  0.00     0.062 A 
ATOM     17  C   UNL     1      33.984  49.671  15.073  1.00  0.00     0.158 A 
BRANCH  15  18
ATOM     18  O   UNL     1      35.123  51.336  16.403  1.00  0.00    -0.504 OA
ATOM     19  H   UNL     1      35.092  51.860  17.269  1.00  0.00     0.293 HD
ENDBRANCH  15  18
BRANCH  17  20
ATOM     20  O   UNL     1      35.169  48.941  14.987  1.00  0.00    -0.504 OA
ATOM     21  H   UNL     1      35.165  47.933  14.883  1.00  0.00     0.293 HD
ENDBRANCH  17  20
ENDBRANCH   1  12
BRANCH   2  22
ATOM     22  O   UNL     1      31.064  50.214  11.696  1.00  0.00    -0.502 OA
ATOM     23  H   UNL     1      30.970  50.236  10.688  1.00  0.00     0.293 HD
ENDBRANCH   2  22
BRANCH   6  24
ATOM     24  O   UNL     1      26.403  47.996  11.054  1.00  0.00    -0.507 OA
ATOM     25  H   UNL     1      26.864  48.618  10.401  1.00  0.00     0.293 HD
ENDBRANCH   6  24
BRANCH   8  26
ATOM     26  O   UNL     1      25.270  46.776  15.582  1.00  0.00    -0.508 OA
ATOM     27  H   UNL     1      24.275  46.956  15.514  1.00  0.00     0.293 HD
ENDBRANCH   8  26
TORSDOF 6
ENDMDL
MODEL 6
REMARK VINA RESULT:    -5.729      2.694      4.555
REMARK INTER + INTRA:          -6.724
REMARK INTER:                  -6.443
REMARK INTRA:                  -0.281
REMARK UNBOUND:                 0.177
REMARK SMILES O=c1c(O)c(-c2ccc(O)c(O)c2)oc2cc(O)cc(O)c12
REMARK SMILES IDX 5 1 3 2 2 3 1 4 22 5 20 6 19 7 17 8 16 9 15 10 14 11 6 12
REMARK SMILES IDX 7 13 8 14 9 15 13 16 11 17 10 18 12 20 4 22 21 24 18 26
REMARK H PARENT 10 19 12 21 4 23 21 25 18 27
REMARK Flexibility Score: inf
ROOT
ATOM      1  C   UNL     1      35.898  51.412  19.130  1.00  0.00     0.180 A 
ATOM      2  C   UNL     1      34.998  51.664  20.183  1.00  0.00     0.208 A 
ATOM      3  C   UNL     1      35.283  52.698  21.087  1.00  0.00     0.238 A 
ATOM      4  O   UNL     1      34.489  52.925  22.041  1.00  0.00    -0.285 OA
ATOM      5  C   UNL     1      36.446  53.475  20.913  1.00  0.00     0.111 A 
ATOM      6  C   UNL     1      36.804  54.539  21.776  1.00  0.00     0.134 A 
ATOM      7  C   UNL     1      37.975  55.271  21.530  1.00  0.00     0.093 A 
ATOM      8  C   UNL     1      38.792  54.963  20.440  1.00  0.00     0.123 A 
ATOM      9  C   UNL     1      38.444  53.913  19.584  1.00  0.00     0.094 A 
ATOM     10  C   UNL     1      37.282  53.170  19.813  1.00  0.00     0.146 A 
ATOM     11  O   UNL     1      36.977  52.175  18.988  1.00  0.00    -0.452 OA
ENDROOT
BRANCH   1  12
ATOM     12  C   UNL     1      35.677  50.327  18.148  1.00  0.00     0.025 A 
ATOM     13  C   UNL     1      35.943  48.998  18.516  1.00  0.00     0.016 A 
ATOM     14  C   UNL     1      35.722  47.955  17.612  1.00  0.00     0.051 A 
ATOM     15  C   UNL     1      35.218  48.225  16.333  1.00  0.00     0.157 A 
ATOM     16  C   UNL     1      35.151  50.590  16.870  1.00  0.00     0.062 A 
ATOM     17  C   UNL     1      34.928  49.544  15.963  1.00  0.00     0.158 A 
BRANCH  15  18
ATOM     18  O   UNL     1      34.998  47.188  15.428  1.00  0.00    -0.504 OA
ATOM     19  H   UNL     1      35.248  46.231  15.648  1.00  0.00     0.293 HD
ENDBRANCH  15  18
BRANCH  17  20
ATOM     20  O   UNL     1      34.413  49.808  14.694  1.00  0.00    -0.504 OA
ATOM     21  H   UNL     1      34.829  50.506  14.089  1.00  0.00     0.293 HD
ENDBRANCH  17  20
ENDBRANCH   1  12
BRANCH   2  22
ATOM     22  O   UNL     1      33.826  50.911  20.305  1.00  0.00    -0.502 OA
ATOM     23  H   UNL     1      33.736  49.981  19.915  1.00  0.00     0.293 HD
ENDBRANCH   2  22
BRANCH   6  24
ATOM     24  O   UNL     1      36.008  54.873  22.873  1.00  0.00    -0.507 OA
ATOM     25  H   UNL     1      36.334  54.752  23.825  1.00  0.00     0.293 HD
ENDBRANCH   6  24
BRANCH   8  26
ATOM     26  O   UNL     1      39.949  55.707  20.217  1.00  0.00    -0.508 OA
ATOM     27  H   UNL     1      40.192  56.496  20.805  1.00  0.00     0.293 HD
ENDBRANCH   8  26
TORSDOF 6
ENDMDL
MODEL 7
REMARK VINA RESULT:    -5.628      2.199      2.570
REMARK INTER + INTRA:          -6.602
REMARK INTER:                  -6.905
REMARK INTRA:                   0.303
REMARK UNBOUND:                 0.177
REMARK SMILES O=c1c(O)c(-c2ccc(O)c(O)c2)oc2cc(O)cc(O)c12
REMARK SMILES IDX 5 1 3 2 2 3 1 4 22 5 20 6 19 7 17 8 16 9 15 10 14 11 6 12
REMARK SMILES IDX 7 13 8 14 9 15 13 16 11 17 10 18 12 20 4 22 21 24 18 26
REMARK H PARENT 10 19 12 21 4 23 21 25 18 27
REMARK Flexibility Score: inf
ROOT
ATOM      1  C   UNL     1      33.808  50.367  16.571  1.00  0.00     0.180 A 
ATOM      2  C   UNL     1      35.069  49.816  16.273  1.00  0.00     0.208 A 
ATOM      3  C   UNL     1      36.026  49.720  17.294  1.00  0.00     0.238 A 
ATOM      4  O   UNL     1      37.163  49.238  17.035  1.00  0.00    -0.285 OA
ATOM      5  C   UNL     1      35.703  50.153  18.595  1.00  0.00     0.111 A 
ATOM      6  C   UNL     1      36.608  50.087  19.682  1.00  0.00     0.134 A 
ATOM      7  C   UNL     1      36.207  50.531  20.950  1.00  0.00     0.093 A 
ATOM      8  C   UNL     1      34.921  51.038  21.154  1.00  0.00     0.123 A 
ATOM      9  C   UNL     1      34.023  51.107  20.086  1.00  0.00     0.094 A 
ATOM     10  C   UNL     1      34.404  50.671  18.813  1.00  0.00     0.146 A 
ATOM     11  O   UNL     1      33.533  50.752  17.814  1.00  0.00    -0.452 OA
ENDROOT
BRANCH   1  12
ATOM     12  C   UNL     1      32.753  50.520  15.544  1.00  0.00     0.025 A 
ATOM     13  C   UNL     1      32.666  49.587  14.498  1.00  0.00     0.016 A 
ATOM     14  C   UNL     1      31.665  49.700  13.530  1.00  0.00     0.051 A 
ATOM     15  C   UNL     1      30.728  50.739  13.601  1.00  0.00     0.157 A 
ATOM     16  C   UNL     1      31.797  51.549  15.623  1.00  0.00     0.062 A 
ATOM     17  C   UNL     1      30.791  51.662  14.652  1.00  0.00     0.158 A 
BRANCH  15  18
ATOM     18  O   UNL     1      29.729  50.857  12.636  1.00  0.00    -0.504 OA
ATOM     19  H   UNL     1      29.896  50.605  11.669  1.00  0.00     0.293 HD
ENDBRANCH  15  18
BRANCH  17  20
ATOM     20  O   UNL     1      29.849  52.687  14.728  1.00  0.00    -0.504 OA
ATOM     21  H   UNL     1      30.028  53.603  14.334  1.00  0.00     0.293 HD
ENDBRANCH  17  20
ENDBRANCH   1  12
BRANCH   2  22
ATOM     22  O   UNL     1      35.348  49.348  14.985  1.00  0.00    -0.502 OA
ATOM     23  H   UNL     1      35.880  48.502  14.819  1.00  0.00     0.293 HD
ENDBRANCH   2  22
BRANCH   6  24
ATOM     24  O   UNL     1      37.900  49.584  19.511  1.00  0.00    -0.507 OA
ATOM     25  H   UNL     1      38.502  49.904  18.763  1.00  0.00     0.293 HD
ENDBRANCH   6  24
BRANCH   8  26
ATOM     26  O   UNL     1      34.548  51.471  22.425  1.00  0.00    -0.508 OA
ATOM     27  H   UNL     1      33.674  51.959  22.582  1.00  0.00     0.293 HD
ENDBRANCH   8  26
TORSDOF 6
ENDMDL
MODEL 8
REMARK VINA RESULT:    -5.611      4.398      9.094
REMARK INTER + INTRA:          -6.582
REMARK INTER:                  -6.275
REMARK INTRA:                  -0.307
REMARK UNBOUND:                 0.177
REMARK SMILES O=c1c(O)c(-c2ccc(O)c(O)c2)oc2cc(O)cc(O)c12
REMARK SMILES IDX 5 1 3 2 2 3 1 4 22 5 20 6 19 7 17 8 16 9 15 10 14 11 6 12
REMARK SMILES IDX 7 13 8 14 9 15 13 16 11 17 10 18 12 20 4 22 21 24 18 26
REMARK H PARENT 10 19 12 21 4 23 21 25 18 27
REMARK Flexibility Score: inf
ROOT
ATOM      1  C   UNL     1      29.445  51.499  16.493  1.00  0.00     0.180 A 
ATOM      2  C   UNL     1      28.653  52.490  15.881  1.00  0.00     0.208 A 
ATOM      3  C   UNL     1      27.449  52.869  16.494  1.00  0.00     0.238 A 
ATOM      4  O   UNL     1      26.726  53.748  15.949  1.00  0.00    -0.285 OA
ATOM      5  C   UNL     1      27.067  52.271  17.711  1.00  0.00     0.111 A 
ATOM      6  C   UNL     1      25.872  52.600  18.395  1.00  0.00     0.134 A 
ATOM      7  C   UNL     1      25.567  51.965  19.608  1.00  0.00     0.093 A 
ATOM      8  C   UNL     1      26.432  51.011  20.151  1.00  0.00     0.123 A 
ATOM      9  C   UNL     1      27.614  50.682  19.480  1.00  0.00     0.094 A 
ATOM     10  C   UNL     1      27.935  51.302  18.269  1.00  0.00     0.146 A 
ATOM     11  O   UNL     1      29.061  50.967  17.649  1.00  0.00    -0.452 OA
ENDROOT
BRANCH   1  12
ATOM     12  C   UNL     1      30.718  51.032  15.899  1.00  0.00     0.025 A 
ATOM     13  C   UNL     1      30.691  50.077  14.870  1.00  0.00     0.016 A 
ATOM     14  C   UNL     1      31.879  49.637  14.281  1.00  0.00     0.051 A 
ATOM     15  C   UNL     1      33.110  50.156  14.701  1.00  0.00     0.157 A 
ATOM     16  C   UNL     1      31.955  51.565  16.304  1.00  0.00     0.062 A 
ATOM     17  C   UNL     1      33.148  51.125  15.712  1.00  0.00     0.158 A 
BRANCH  15  18
ATOM     18  O   UNL     1      34.298  49.718  14.118  1.00  0.00    -0.504 OA
ATOM     19  H   UNL     1      34.490  48.732  13.984  1.00  0.00     0.293 HD
ENDBRANCH  15  18
BRANCH  17  20
ATOM     20  O   UNL     1      34.374  51.650  16.119  1.00  0.00    -0.504 OA
ATOM     21  H   UNL     1      34.524  52.649  16.194  1.00  0.00     0.293 HD
ENDBRANCH  17  20
ENDBRANCH   1  12
BRANCH   2  22
ATOM     22  O   UNL     1      29.078  53.104  14.699  1.00  0.00    -0.502 OA
ATOM     23  H   UNL     1      29.344  52.573  13.879  1.00  0.00     0.293 HD
ENDBRANCH   2  22
BRANCH   6  24
ATOM     24  O   UNL     1      24.987  53.549  17.880  1.00  0.00    -0.507 OA
ATOM     25  H   UNL     1      25.130  53.975  16.973  1.00  0.00     0.293 HD
ENDBRANCH   6  24
BRANCH   8  26
ATOM     26  O   UNL     1      26.106  50.397  21.357  1.00  0.00    -0.508 OA
ATOM     27  H   UNL     1      26.580  50.638  22.220  1.00  0.00     0.293 HD
ENDBRANCH   8  26
TORSDOF 6
ENDMDL
MODEL 9
REMARK VINA RESULT:    -5.485      1.892      7.140
REMARK INTER + INTRA:          -6.429
REMARK INTER:                  -6.193
REMARK INTRA:                  -0.236
REMARK UNBOUND:                 0.177
REMARK SMILES O=c1c(O)c(-c2ccc(O)c(O)c2)oc2cc(O)cc(O)c12
REMARK SMILES IDX 5 1 3 2 2 3 1 4 22 5 20 6 19 7 17 8 16 9 15 10 14 11 6 12
REMARK SMILES IDX 7 13 8 14 9 15 13 16 11 17 10 18 12 20 4 22 21 24 18 26
REMARK H PARENT 10 19 12 21 4 23 21 25 18 27
REMARK Flexibility Score: inf
ROOT
ATOM      1  C   UNL     1      33.672  50.434  16.775  1.00  0.00     0.180 A 
ATOM      2  C   UNL     1      33.217  50.428  15.443  1.00  0.00     0.208 A 
ATOM      3  C   UNL     1      31.896  50.817  15.176  1.00  0.00     0.238 A 
ATOM      4  O   UNL     1      31.474  50.805  13.987  1.00  0.00    -0.285 OA
ATOM      5  C   UNL     1      31.061  51.223  16.236  1.00  0.00     0.111 A 
ATOM      6  C   UNL     1      29.719  51.635  16.052  1.00  0.00     0.134 A 
ATOM      7  C   UNL     1      28.955  52.034  17.158  1.00  0.00     0.093 A 
ATOM      8  C   UNL     1      29.505  52.032  18.442  1.00  0.00     0.123 A 
ATOM      9  C   UNL     1      30.830  51.626  18.631  1.00  0.00     0.094 A 
ATOM     10  C   UNL     1      31.607  51.223  17.541  1.00  0.00     0.146 A 
ATOM     11  O   UNL     1      32.862  50.838  17.748  1.00  0.00    -0.452 OA
ENDROOT
BRANCH   1  12
ATOM     12  C   UNL     1      35.046  50.019  17.140  1.00  0.00     0.025 A 
ATOM     13  C   UNL     1      35.941  50.970  17.654  1.00  0.00     0.016 A 
ATOM     14  C   UNL     1      37.236  50.597  18.025  1.00  0.00     0.051 A 
ATOM     15  C   UNL     1      37.649  49.264  17.900  1.00  0.00     0.157 A 
ATOM     16  C   UNL     1      35.458  48.678  17.035  1.00  0.00     0.062 A 
ATOM     17  C   UNL     1      36.757  48.302  17.408  1.00  0.00     0.158 A 
BRANCH  15  18
ATOM     18  O   UNL     1      38.940  48.887  18.266  1.00  0.00    -0.504 OA
ATOM     19  H   UNL     1      39.677  48.785  17.577  1.00  0.00     0.293 HD
ENDBRANCH  15  18
BRANCH  17  20
ATOM     20  O   UNL     1      37.167  46.974  17.298  1.00  0.00    -0.504 OA
ATOM     21  H   UNL     1      37.234  46.371  18.109  1.00  0.00     0.293 HD
ENDBRANCH  17  20
ENDBRANCH   1  12
BRANCH   2  22
ATOM     22  O   UNL     1      34.080  50.067  14.404  1.00  0.00    -0.502 OA
ATOM     23  H   UNL     1      33.845  50.211  13.429  1.00  0.00     0.293 HD
ENDBRANCH   2  22
BRANCH   6  24
ATOM     24  O   UNL     1      29.140  51.649  14.781  1.00  0.00    -0.507 OA
ATOM     25  H   UNL     1      28.355  52.249  14.560  1.00  0.00     0.293 HD
ENDBRANCH   6  24
BRANCH   8  26
ATOM     26  O   UNL     1      28.725  52.434  19.524  1.00  0.00    -0.508 OA
ATOM     27  H   UNL     1      27.875  52.971  19.392  1.00  0.00     0.293 HD
ENDBRANCH   8  26
TORSDOF 6
ENDMDL
