MODEL 1
REMARK VINA RESULT:    -4.356      0.000      0.000
REMARK INTER + INTRA:         -10.050
REMARK INTER:                  -7.921
REMARK INTRA:                  -2.129
REMARK UNBOUND:                -2.129
REMARK SMILES CCCCCCCCCCCCCCCC(=O)[O-]
REMARK SMILES IDX 9 1 10 2 11 3 12 4 13 5 14 6 15 7 16 8 17 9 18 10 8 11 7 12
REMARK SMILES IDX 6 13 5 14 4 15 3 16 2 17 1 18
REMARK H PARENT
REMARK Flexibility Score: inf
ROOT
ATOM      1  C   UNL     1      11.022 -16.239  11.581  1.00  0.00     0.000 C 
ENDROOT
BRANCH   1   2
ATOM      2  C   UNL     1      10.834 -15.330  12.811  1.00  0.00     0.000 C 
BRANCH   2   3
ATOM      3  C   UNL     1      11.406 -15.942  14.100  1.00  0.00     0.000 C 
BRANCH   3   4
ATOM      4  C   UNL     1      10.973 -15.173  15.360  1.00  0.00     0.000 C 
BRANCH   4   5
ATOM      5  C   UNL     1      12.026 -14.148  15.821  1.00  0.00     0.000 C 
BRANCH   5   6
ATOM      6  C   UNL     1      11.612 -12.699  15.519  1.00  0.00     0.006 C 
BRANCH   6   7
ATOM      7  C   UNL     1      12.798 -11.824  15.095  1.00  0.00     0.053 C 
BRANCH   7   8
ATOM      8  C   UNL     1      12.414 -10.378  15.113  1.00  0.00     0.041 C 
ATOM      9  O   UNL     1      13.298  -9.486  15.000  1.00  0.00    -0.550 OA
ATOM     10  O   UNL     1      11.088 -10.013  15.313  1.00  0.00    -0.550 OA
ENDBRANCH   7   8
ENDBRANCH   6   7
ENDBRANCH   5   6
ENDBRANCH   4   5
ENDBRANCH   3   4
ENDBRANCH   2   3
ENDBRANCH   1   2
BRANCH   1  11
ATOM     11  C   UNL     1      12.398 -16.920  11.469  1.00  0.00     0.000 C 
BRANCH  11  12
ATOM     12  C   UNL     1      13.513 -15.948  11.044  1.00  0.00    -0.000 C 
BRANCH  12  13
ATOM     13  C   UNL     1      14.688 -15.906  12.039  1.00  0.00    -0.000 C 
BRANCH  13  14
ATOM     14  C   UNL     1      14.767 -14.636  12.906  1.00  0.00    -0.000 C 
BRANCH  14  15
ATOM     15  C   UNL     1      15.238 -14.919  14.343  1.00  0.00    -0.000 C 
BRANCH  15  16
ATOM     16  C   UNL     1      15.519 -16.409  14.591  1.00  0.00    -0.000 C 
BRANCH  16  17
ATOM     17  C   UNL     1      14.580 -17.019  15.643  1.00  0.00    -0.003 C 
ATOM     18  C   UNL     1      13.726 -18.130  15.042  1.00  0.00     0.004 C 
ENDBRANCH  16  17
ENDBRANCH  15  16
ENDBRANCH  14  15
ENDBRANCH  13  14
ENDBRANCH  12  13
ENDBRANCH  11  12
ENDBRANCH   1  11
TORSDOF 14
ENDMDL
MODEL 2
REMARK VINA RESULT:    -4.321      3.154      5.858
REMARK INTER + INTRA:          -9.987
REMARK INTER:                  -8.375
REMARK INTRA:                  -1.612
REMARK UNBOUND:                -2.129
REMARK SMILES CCCCCCCCCCCCCCCC(=O)[O-]
REMARK SMILES IDX 9 1 10 2 11 3 12 4 13 5 14 6 15 7 16 8 17 9 18 10 8 11 7 12
REMARK SMILES IDX 6 13 5 14 4 15 3 16 2 17 1 18
REMARK H PARENT
REMARK Flexibility Score: inf
ROOT
ATOM      1  C   UNL     1      11.086 -15.226  15.045  1.00  0.00     0.000 C 
ENDROOT
BRANCH   1   2
ATOM      2  C   UNL     1      12.056 -16.215  14.371  1.00  0.00     0.000 C 
BRANCH   2   3
ATOM      3  C   UNL     1      13.363 -16.404  15.158  1.00  0.00     0.000 C 
BRANCH   3   4
ATOM      4  C   UNL     1      13.932 -17.826  15.022  1.00  0.00     0.000 C 
BRANCH   4   5
ATOM      5  C   UNL     1      15.376 -17.839  14.490  1.00  0.00     0.000 C 
BRANCH   5   6
ATOM      6  C   UNL     1      15.646 -16.708  13.485  1.00  0.00     0.006 C 
BRANCH   6   7
ATOM      7  C   UNL     1      15.566 -17.182  12.029  1.00  0.00     0.053 C 
BRANCH   7   8
ATOM      8  C   UNL     1      14.246 -16.811  11.429  1.00  0.00     0.041 C 
ATOM      9  O   UNL     1      13.319 -17.662  11.363  1.00  0.00    -0.550 OA
ATOM     10  O   UNL     1      14.059 -15.544  10.890  1.00  0.00    -0.550 OA
ENDBRANCH   7   8
ENDBRANCH   6   7
ENDBRANCH   5   6
ENDBRANCH   4   5
ENDBRANCH   3   4
ENDBRANCH   2   3
ENDBRANCH   1   2
BRANCH   1  11
ATOM     11  C   UNL     1      11.410 -14.882  16.511  1.00  0.00     0.000 C 
BRANCH  11  12
ATOM     12  C   UNL     1      11.656 -13.380  16.734  1.00  0.00    -0.000 C 
BRANCH  12  13
ATOM     13  C   UNL     1      11.495 -12.546  15.449  1.00  0.00    -0.000 C 
BRANCH  13  14
ATOM     14  C   UNL     1      12.749 -11.766  15.012  1.00  0.00    -0.000 C 
BRANCH  14  15
ATOM     15  C   UNL     1      13.937 -12.683  14.672  1.00  0.00    -0.000 C 
BRANCH  15  16
ATOM     16  C   UNL     1      15.152 -11.904  14.143  1.00  0.00    -0.000 C 
BRANCH  16  17
ATOM     17  C   UNL     1      14.812 -10.447  13.796  1.00  0.00    -0.003 C 
ATOM     18  C   UNL     1      15.538  -9.998  12.532  1.00  0.00     0.004 C 
ENDBRANCH  16  17
ENDBRANCH  15  16
ENDBRANCH  14  15
ENDBRANCH  13  14
ENDBRANCH  12  13
ENDBRANCH  11  12
ENDBRANCH   1  11
TORSDOF 14
ENDMDL
MODEL 3
REMARK VINA RESULT:    -4.314      1.351      3.826
REMARK INTER + INTRA:          -9.974
REMARK INTER:                  -7.694
REMARK INTRA:                  -2.280
REMARK UNBOUND:                -2.129
REMARK SMILES CCCCCCCCCCCCCCCC(=O)[O-]
REMARK SMILES IDX 9 1 10 2 11 3 12 4 13 5 14 6 15 7 16 8 17 9 18 10 8 11 7 12
REMARK SMILES IDX 6 13 5 14 4 15 3 16 2 17 1 18
REMARK H PARENT
REMARK Flexibility Score: inf
ROOT
ATOM      1  C   UNL     1      15.811 -16.997  12.819  1.00  0.00     0.000 C 
ENDROOT
BRANCH   1   2
ATOM      2  C   UNL     1      14.715 -16.022  12.349  1.00  0.00     0.000 C 
BRANCH   2   3
ATOM      3  C   UNL     1      15.101 -14.547  12.544  1.00  0.00     0.000 C 
BRANCH   3   4
ATOM      4  C   UNL     1      16.138 -14.352  13.663  1.00  0.00     0.000 C 
BRANCH   4   5
ATOM      5  C   UNL     1      15.922 -13.048  14.452  1.00  0.00     0.000 C 
BRANCH   5   6
ATOM      6  C   UNL     1      14.541 -12.425  14.196  1.00  0.00     0.006 C 
BRANCH   6   7
ATOM      7  C   UNL     1      14.589 -10.893  14.128  1.00  0.00     0.053 C 
BRANCH   7   8
ATOM      8  C   UNL     1      13.453 -10.299  14.901  1.00  0.00     0.041 C 
ATOM      9  O   UNL     1      12.473 -11.016  15.239  1.00  0.00    -0.550 OA
ATOM     10  O   UNL     1      13.448  -8.941  15.198  1.00  0.00    -0.550 OA
ENDBRANCH   7   8
ENDBRANCH   6   7
ENDBRANCH   5   6
ENDBRANCH   4   5
ENDBRANCH   3   4
ENDBRANCH   2   3
ENDBRANCH   1   2
BRANCH   1  11
ATOM     11  C   UNL     1      15.490 -17.774  14.110  1.00  0.00     0.000 C 
BRANCH  11  12
ATOM     12  C   UNL     1      13.994 -17.753  14.465  1.00  0.00    -0.000 C 
BRANCH  12  13
ATOM     13  C   UNL     1      13.714 -17.175  15.865  1.00  0.00    -0.000 C 
BRANCH  13  14
ATOM     14  C   UNL     1      13.558 -15.644  15.923  1.00  0.00    -0.000 C 
BRANCH  14  15
ATOM     15  C   UNL     1      12.095 -15.184  15.798  1.00  0.00    -0.000 C 
BRANCH  15  16
ATOM     16  C   UNL     1      11.727 -14.769  14.365  1.00  0.00    -0.000 C 
BRANCH  16  17
ATOM     17  C   UNL     1      10.769 -15.762  13.692  1.00  0.00    -0.003 C 
ATOM     18  C   UNL     1      11.122 -15.957  12.221  1.00  0.00     0.004 C 
ENDBRANCH  16  17
ENDBRANCH  15  16
ENDBRANCH  14  15
ENDBRANCH  13  14
ENDBRANCH  12  13
ENDBRANCH  11  12
ENDBRANCH   1  11
TORSDOF 14
ENDMDL
MODEL 4
REMARK VINA RESULT:    -4.294      3.341      5.402
REMARK INTER + INTRA:          -9.938
REMARK INTER:                  -7.542
REMARK INTRA:                  -2.396
REMARK UNBOUND:                -2.129
REMARK SMILES CCCCCCCCCCCCCCCC(=O)[O-]
REMARK SMILES IDX 9 1 10 2 11 3 12 4 13 5 14 6 15 7 16 8 17 9 18 10 8 11 7 12
REMARK SMILES IDX 6 13 5 14 4 15 3 16 2 17 1 18
REMARK H PARENT
REMARK Flexibility Score: inf
ROOT
ATOM      1  C   UNL     1      12.841 -15.146  15.902  1.00  0.00     0.000 C 
ENDROOT
BRANCH   1   2
ATOM      2  C   UNL     1      11.556 -15.611  15.193  1.00  0.00     0.000 C 
BRANCH   2   3
ATOM      3  C   UNL     1      11.401 -15.020  13.783  1.00  0.00     0.000 C 
BRANCH   3   4
ATOM      4  C   UNL     1      10.620 -15.948  12.836  1.00  0.00     0.000 C 
BRANCH   4   5
ATOM      5  C   UNL     1      10.630 -15.453  11.379  1.00  0.00     0.000 C 
BRANCH   5   6
ATOM      6  C   UNL     1      11.484 -16.340  10.460  1.00  0.00     0.006 C 
BRANCH   6   7
ATOM      7  C   UNL     1      10.993 -16.329   9.007  1.00  0.00     0.053 C 
BRANCH   7   8
ATOM      8  C   UNL     1      11.864 -15.448   8.167  1.00  0.00     0.041 C 
ATOM      9  O   UNL     1      11.631 -15.315   6.935  1.00  0.00    -0.550 OA
ATOM     10  O   UNL     1      12.968 -14.819   8.731  1.00  0.00    -0.550 OA
ENDBRANCH   7   8
ENDBRANCH   6   7
ENDBRANCH   5   6
ENDBRANCH   4   5
ENDBRANCH   3   4
ENDBRANCH   2   3
ENDBRANCH   1   2
BRANCH   1  11
ATOM     11  C   UNL     1      13.851 -16.260  16.233  1.00  0.00     0.000 C 
BRANCH  11  12
ATOM     12  C   UNL     1      13.573 -17.566  15.468  1.00  0.00    -0.000 C 
BRANCH  12  13
ATOM     13  C   UNL     1      14.587 -17.831  14.339  1.00  0.00    -0.000 C 
BRANCH  13  14
ATOM     14  C   UNL     1      14.074 -17.542  12.916  1.00  0.00    -0.000 C 
BRANCH  14  15
ATOM     15  C   UNL     1      15.046 -16.681  12.092  1.00  0.00    -0.000 C 
BRANCH  15  16
ATOM     16  C   UNL     1      14.554 -15.235  11.919  1.00  0.00    -0.000 C 
BRANCH  16  17
ATOM     17  C   UNL     1      15.046 -14.308  13.040  1.00  0.00    -0.003 C 
ATOM     18  C   UNL     1      16.442 -14.705  13.510  1.00  0.00     0.004 C 
ENDBRANCH  16  17
ENDBRANCH  15  16
ENDBRANCH  14  15
ENDBRANCH  13  14
ENDBRANCH  12  13
ENDBRANCH  11  12
ENDBRANCH   1  11
TORSDOF 14
ENDMDL
MODEL 5
REMARK VINA RESULT:    -4.289      4.542      6.579
REMARK INTER + INTRA:          -9.929
REMARK INTER:                  -8.749
REMARK INTRA:                  -1.180
REMARK UNBOUND:                -2.129
REMARK SMILES CCCCCCCCCCCCCCCC(=O)[O-]
REMARK SMILES IDX 9 1 10 2 11 3 12 4 13 5 14 6 15 7 16 8 17 9 18 10 8 11 7 12
REMARK SMILES IDX 6 13 5 14 4 15 3 16 2 17 1 18
REMARK H PARENT
REMARK Flexibility Score: inf
ROOT
ATOM      1  C   UNL     1      13.717 -17.302  11.441  1.00  0.00     0.000 C 
ENDROOT
BRANCH   1   2
ATOM      2  C   UNL     1      12.768 -16.200  11.947  1.00  0.00     0.000 C 
BRANCH   2   3
ATOM      3  C   UNL     1      11.367 -16.280  11.320  1.00  0.00     0.000 C 
BRANCH   3   4
ATOM      4  C   UNL     1      11.362 -17.040   9.983  1.00  0.00     0.000 C 
BRANCH   4   5
ATOM      5  C   UNL     1      11.140 -16.112   8.774  1.00  0.00     0.000 C 
BRANCH   5   6
ATOM      6  C   UNL     1      10.649 -16.870   7.531  1.00  0.00     0.006 C 
BRANCH   6   7
ATOM      7  C   UNL     1       9.179 -16.577   7.205  1.00  0.00     0.053 C 
BRANCH   7   8
ATOM      8  C   UNL     1       9.071 -15.799   5.931  1.00  0.00     0.041 C 
ATOM      9  O   UNL     1       9.627 -14.672   5.827  1.00  0.00    -0.550 OA
ATOM     10  O   UNL     1       8.307 -16.291   4.878  1.00  0.00    -0.550 OA
ENDBRANCH   7   8
ENDBRANCH   6   7
ENDBRANCH   5   6
ENDBRANCH   4   5
ENDBRANCH   3   4
ENDBRANCH   2   3
ENDBRANCH   1   2
BRANCH   1  11
ATOM     11  C   UNL     1      15.171 -17.199  11.939  1.00  0.00     0.000 C 
BRANCH  11  12
ATOM     12  C   UNL     1      15.283 -16.538  13.325  1.00  0.00    -0.000 C 
BRANCH  12  13
ATOM     13  C   UNL     1      15.703 -17.524  14.431  1.00  0.00    -0.000 C 
BRANCH  13  14
ATOM     14  C   UNL     1      14.613 -17.848  15.469  1.00  0.00    -0.000 C 
BRANCH  14  15
ATOM     15  C   UNL     1      13.393 -16.915  15.370  1.00  0.00    -0.000 C 
BRANCH  15  16
ATOM     16  C   UNL     1      13.315 -15.916  16.535  1.00  0.00    -0.000 C 
BRANCH  16  17
ATOM     17  C   UNL     1      12.127 -14.952  16.406  1.00  0.00    -0.003 C 
ATOM     18  C   UNL     1      11.232 -15.336  15.232  1.00  0.00     0.004 C 
ENDBRANCH  16  17
ENDBRANCH  15  16
ENDBRANCH  14  15
ENDBRANCH  13  14
ENDBRANCH  12  13
ENDBRANCH  11  12
ENDBRANCH   1  11
TORSDOF 14
ENDMDL
MODEL 6
REMARK VINA RESULT:    -4.279      4.148      6.360
REMARK INTER + INTRA:          -9.910
REMARK INTER:                  -7.937
REMARK INTRA:                  -1.973
REMARK UNBOUND:                -2.129
REMARK SMILES CCCCCCCCCCCCCCCC(=O)[O-]
REMARK SMILES IDX 9 1 10 2 11 3 12 4 13 5 14 6 15 7 16 8 17 9 18 10 8 11 7 12
REMARK SMILES IDX 6 13 5 14 4 15 3 16 2 17 1 18
REMARK H PARENT
REMARK Flexibility Score: inf
ROOT
ATOM      1  C   UNL     1      11.006 -15.244  13.792  1.00  0.00     0.000 C 
ENDROOT
BRANCH   1   2
ATOM      2  C   UNL     1      10.943 -16.193  12.580  1.00  0.00     0.000 C 
BRANCH   2   3
ATOM      3  C   UNL     1      10.608 -15.467  11.267  1.00  0.00     0.000 C 
BRANCH   3   4
ATOM      4  C   UNL     1      11.581 -15.823  10.131  1.00  0.00     0.000 C 
BRANCH   4   5
ATOM      5  C   UNL     1      11.574 -17.325   9.792  1.00  0.00     0.000 C 
BRANCH   5   6
ATOM      6  C   UNL     1      10.824 -17.633   8.487  1.00  0.00     0.006 C 
BRANCH   6   7
ATOM      7  C   UNL     1      10.865 -16.464   7.494  1.00  0.00     0.053 C 
BRANCH   7   8
ATOM      8  C   UNL     1       9.506 -16.222   6.915  1.00  0.00     0.041 C 
ATOM      9  O   UNL     1       8.554 -17.002   7.184  1.00  0.00    -0.550 OA
ATOM     10  O   UNL     1       9.305 -15.168   6.031  1.00  0.00    -0.550 OA
ENDBRANCH   7   8
ENDBRANCH   6   7
ENDBRANCH   5   6
ENDBRANCH   4   5
ENDBRANCH   3   4
ENDBRANCH   2   3
ENDBRANCH   1   2
BRANCH   1  11
ATOM     11  C   UNL     1      11.492 -15.886  15.105  1.00  0.00     0.000 C 
BRANCH  11  12
ATOM     12  C   UNL     1      12.655 -15.114  15.754  1.00  0.00    -0.000 C 
BRANCH  12  13
ATOM     13  C   UNL     1      13.920 -15.973  15.937  1.00  0.00    -0.000 C 
BRANCH  13  14
ATOM     14  C   UNL     1      13.781 -17.445  15.508  1.00  0.00    -0.000 C 
BRANCH  14  15
ATOM     15  C   UNL     1      14.723 -17.825  14.353  1.00  0.00    -0.000 C 
BRANCH  15  16
ATOM     16  C   UNL     1      14.083 -17.611  12.972  1.00  0.00    -0.000 C 
BRANCH  16  17
ATOM     17  C   UNL     1      14.921 -16.694  12.069  1.00  0.00    -0.003 C 
ATOM     18  C   UNL     1      14.595 -15.226  12.322  1.00  0.00     0.004 C 
ENDBRANCH  16  17
ENDBRANCH  15  16
ENDBRANCH  14  15
ENDBRANCH  13  14
ENDBRANCH  12  13
ENDBRANCH  11  12
ENDBRANCH   1  11
TORSDOF 14
ENDMDL
MODEL 7
REMARK VINA RESULT:    -4.254      1.650      2.962
REMARK INTER + INTRA:          -9.865
REMARK INTER:                  -8.231
REMARK INTRA:                  -1.634
REMARK UNBOUND:                -2.129
REMARK SMILES CCCCCCCCCCCCCCCC(=O)[O-]
REMARK SMILES IDX 9 1 10 2 11 3 12 4 13 5 14 6 15 7 16 8 17 9 18 10 8 11 7 12
REMARK SMILES IDX 6 13 5 14 4 15 3 16 2 17 1 18
REMARK H PARENT
REMARK Flexibility Score: inf
ROOT
ATOM      1  C   UNL     1      11.165 -15.568  14.857  1.00  0.00     0.000 C 
ENDROOT
BRANCH   1   2
ATOM      2  C   UNL     1      11.404 -14.474  15.914  1.00  0.00     0.000 C 
BRANCH   2   3
ATOM      3  C   UNL     1      12.176 -13.264  15.361  1.00  0.00     0.000 C 
BRANCH   3   4
ATOM      4  C   UNL     1      11.301 -12.003  15.259  1.00  0.00     0.000 C 
BRANCH   4   5
ATOM      5  C   UNL     1      12.117 -10.704  15.382  1.00  0.00     0.000 C 
BRANCH   5   6
ATOM      6  C   UNL     1      13.516 -10.823  14.758  1.00  0.00     0.006 C 
BRANCH   6   7
ATOM      7  C   UNL     1      14.143  -9.457  14.454  1.00  0.00     0.053 C 
BRANCH   7   8
ATOM      8  C   UNL     1      15.203  -9.590  13.405  1.00  0.00     0.041 C 
ATOM      9  O   UNL     1      15.282 -10.640  12.714  1.00  0.00    -0.550 OA
ATOM     10  O   UNL     1      16.139  -8.577  13.231  1.00  0.00    -0.550 OA
ENDBRANCH   7   8
ENDBRANCH   6   7
ENDBRANCH   5   6
ENDBRANCH   4   5
ENDBRANCH   3   4
ENDBRANCH   2   3
ENDBRANCH   1   2
BRANCH   1  11
ATOM     11  C   UNL     1      11.171 -15.084  13.395  1.00  0.00     0.000 C 
BRANCH  11  12
ATOM     12  C   UNL     1      10.946 -16.223  12.386  1.00  0.00    -0.000 C 
BRANCH  12  13
ATOM     13  C   UNL     1      12.203 -16.557  11.562  1.00  0.00    -0.000 C 
BRANCH  13  14
ATOM     14  C   UNL     1      13.497 -15.867  12.032  1.00  0.00    -0.000 C 
BRANCH  14  15
ATOM     15  C   UNL     1      14.347 -16.753  12.959  1.00  0.00    -0.000 C 
BRANCH  15  16
ATOM     16  C   UNL     1      15.003 -15.958  14.099  1.00  0.00    -0.000 C 
BRANCH  16  17
ATOM     17  C   UNL     1      14.590 -16.469  15.487  1.00  0.00    -0.003 C 
ATOM     18  C   UNL     1      13.999 -17.872  15.404  1.00  0.00     0.004 C 
ENDBRANCH  16  17
ENDBRANCH  15  16
ENDBRANCH  14  15
ENDBRANCH  13  14
ENDBRANCH  12  13
ENDBRANCH  11  12
ENDBRANCH   1  11
TORSDOF 14
ENDMDL
MODEL 8
REMARK VINA RESULT:    -4.201      5.226      7.276
REMARK INTER + INTRA:          -9.767
REMARK INTER:                  -8.650
REMARK INTRA:                  -1.117
REMARK UNBOUND:                -2.129
REMARK SMILES CCCCCCCCCCCCCCCC(=O)[O-]
REMARK SMILES IDX 9 1 10 2 11 3 12 4 13 5 14 6 15 7 16 8 17 9 18 10 8 11 7 12
REMARK SMILES IDX 6 13 5 14 4 15 3 16 2 17 1 18
REMARK H PARENT
REMARK Flexibility Score: inf
ROOT
ATOM      1  C   UNL     1      11.104 -16.245  12.652  1.00  0.00     0.000 C 
ENDROOT
BRANCH   1   2
ATOM      2  C   UNL     1      12.092 -16.253  11.470  1.00  0.00     0.000 C 
BRANCH   2   3
ATOM      3  C   UNL     1      11.484 -15.691  10.175  1.00  0.00     0.000 C 
BRANCH   3   4
ATOM      4  C   UNL     1      10.851 -16.783   9.298  1.00  0.00     0.000 C 
BRANCH   4   5
ATOM      5  C   UNL     1      10.642 -16.329   7.842  1.00  0.00     0.000 C 
BRANCH   5   6
ATOM      6  C   UNL     1       9.303 -16.807   7.260  1.00  0.00     0.006 C 
BRANCH   6   7
ATOM      7  C   UNL     1       8.759 -15.864   6.180  1.00  0.00     0.053 C 
BRANCH   7   8
ATOM      8  C   UNL     1       8.831 -16.514   4.833  1.00  0.00     0.041 C 
ATOM      9  O   UNL     1       7.858 -16.430   4.037  1.00  0.00    -0.550 OA
ATOM     10  O   UNL     1       9.949 -17.262   4.481  1.00  0.00    -0.550 OA
ENDBRANCH   7   8
ENDBRANCH   6   7
ENDBRANCH   5   6
ENDBRANCH   4   5
ENDBRANCH   3   4
ENDBRANCH   2   3
ENDBRANCH   1   2
BRANCH   1  11
ATOM     11  C   UNL     1      11.315 -15.116  13.678  1.00  0.00     0.000 C 
BRANCH  11  12
ATOM     12  C   UNL     1      10.973 -15.544  15.116  1.00  0.00    -0.000 C 
BRANCH  12  13
ATOM     13  C   UNL     1      12.090 -15.216  16.125  1.00  0.00    -0.000 C 
BRANCH  13  14
ATOM     14  C   UNL     1      13.508 -15.625  15.688  1.00  0.00    -0.000 C 
BRANCH  14  15
ATOM     15  C   UNL     1      13.767 -17.136  15.824  1.00  0.00    -0.000 C 
BRANCH  15  16
ATOM     16  C   UNL     1      14.055 -17.811  14.475  1.00  0.00    -0.000 C 
BRANCH  16  17
ATOM     17  C   UNL     1      15.484 -17.546  13.977  1.00  0.00    -0.003 C 
ATOM     18  C   UNL     1      15.507 -17.312  12.470  1.00  0.00     0.004 C 
ENDBRANCH  16  17
ENDBRANCH  15  16
ENDBRANCH  14  15
ENDBRANCH  13  14
ENDBRANCH  12  13
ENDBRANCH  11  12
ENDBRANCH   1  11
TORSDOF 14
ENDMDL
MODEL 9
REMARK VINA RESULT:    -4.152      6.137      8.703
REMARK INTER + INTRA:          -9.678
REMARK INTER:                  -8.648
REMARK INTRA:                  -1.031
REMARK UNBOUND:                -2.129
REMARK SMILES CCCCCCCCCCCCCCCC(=O)[O-]
REMARK SMILES IDX 9 1 10 2 11 3 12 4 13 5 14 6 15 7 16 8 17 9 18 10 8 11 7 12
REMARK SMILES IDX 6 13 5 14 4 15 3 16 2 17 1 18
REMARK H PARENT
REMARK Flexibility Score: inf
ROOT
ATOM      1  C   UNL     1       9.763 -17.810   7.317  1.00  0.00     0.000 C 
ENDROOT
BRANCH   1   2
ATOM      2  C   UNL     1      10.991 -17.389   8.145  1.00  0.00     0.000 C 
BRANCH   2   3
ATOM      3  C   UNL     1      10.710 -16.194   9.070  1.00  0.00     0.000 C 
BRANCH   3   4
ATOM      4  C   UNL     1      11.392 -16.336  10.441  1.00  0.00     0.000 C 
BRANCH   4   5
ATOM      5  C   UNL     1      10.659 -15.562  11.552  1.00  0.00     0.000 C 
BRANCH   5   6
ATOM      6  C   UNL     1      11.025 -16.060  12.959  1.00  0.00     0.006 C 
BRANCH   6   7
ATOM      7  C   UNL     1      12.512 -16.412  13.091  1.00  0.00     0.053 C 
BRANCH   7   8
ATOM      8  C   UNL     1      12.815 -16.891  14.476  1.00  0.00     0.041 C 
ATOM      9  O   UNL     1      12.664 -16.118  15.461  1.00  0.00    -0.550 OA
ATOM     10  O   UNL     1      13.321 -18.170  14.675  1.00  0.00    -0.550 OA
ENDBRANCH   7   8
ENDBRANCH   6   7
ENDBRANCH   5   6
ENDBRANCH   4   5
ENDBRANCH   3   4
ENDBRANCH   2   3
ENDBRANCH   1   2
BRANCH   1  11
ATOM     11  C   UNL     1       8.769 -16.680   6.991  1.00  0.00     0.000 C 
BRANCH  11  12
ATOM     12  C   UNL     1       9.265 -15.753   5.868  1.00  0.00    -0.000 C 
BRANCH  12  13
ATOM     13  C   UNL     1       9.328 -16.449   4.495  1.00  0.00    -0.000 C 
BRANCH  13  14
ATOM     14  C   UNL     1       7.989 -16.533   3.740  1.00  0.00    -0.000 C 
BRANCH  14  15
ATOM     15  C   UNL     1       7.991 -17.599   2.632  1.00  0.00    -0.000 C 
BRANCH  15  16
ATOM     16  C   UNL     1       7.318 -18.909   3.070  1.00  0.00    -0.000 C 
BRANCH  16  17
ATOM     17  C   UNL     1       6.460 -18.737   4.332  1.00  0.00    -0.003 C 
ATOM     18  C   UNL     1       6.910 -19.685   5.438  1.00  0.00     0.004 C 
ENDBRANCH  16  17
ENDBRANCH  15  16
ENDBRANCH  14  15
ENDBRANCH  13  14
ENDBRANCH  12  13
ENDBRANCH  11  12
ENDBRANCH   1  11
TORSDOF 14
ENDMDL
