MODEL 1
REMARK VINA RESULT:    -6.606      0.000      0.000
REMARK INTER + INTRA:          -8.072
REMARK INTER:                  -7.571
REMARK INTRA:                  -0.501
REMARK UNBOUND:                -0.501
REMARK SMILES C=C(C)[C@@H]1CC[C@@]2(C(=O)[O-])CC[C@@]3(C)[C@@H](CC[C@@H]4[C@@]5(C)CC[C@H](O)C(C)(C)[C@H]5CC[C@@]43C)[C@@H]12
REMARK SMILES IDX 7 1 6 2 33 3 11 4 5 5 15 6 4 7 12 8 16 9 13 10 17 11 31 12
REMARK SMILES IDX 14 13 18 14 30 15 32 16 19 17 29 18 21 19 20 20 28 21 22 22
REMARK SMILES IDX 25 23 23 24 26 25 27 26 8 27 9 28 10 29 2 30 3 31 1 32 24 33
REMARK H PARENT 24 34
REMARK Flexibility Score: inf
ROOT
ATOM      1  C   UNL     1      27.652  30.911  29.975  1.00  0.00     0.014 C 
ATOM      2  C   UNL     1      28.977  31.329  30.639  1.00  0.00     0.014 C 
ATOM      3  C   UNL     1      26.672  32.043  30.396  1.00  0.00     0.012 C 
ATOM      4  C   UNL     1      27.232  29.506  30.496  1.00  0.00     0.014 C 
ATOM      5  C   UNL     1      28.609  32.078  31.916  1.00  0.00     0.009 C 
ATOM      6  C   UNL     1      25.179  31.600  30.390  1.00  0.00     0.000 C 
ATOM      7  C   UNL     1      27.219  32.692  31.692  1.00  0.00     0.018 C 
ATOM      8  C   UNL     1      25.722  29.200  30.386  1.00  0.00     0.008 C 
ATOM      9  C   UNL     1      24.208  32.708  30.748  1.00  0.00     0.005 C 
ATOM     10  C   UNL     1      24.788  30.253  31.092  1.00  0.00    -0.024 C 
ATOM     11  C   UNL     1      22.845  32.413  30.114  1.00  0.00     0.005 C 
ATOM     12  C   UNL     1      23.166  29.952  30.914  1.00  0.00    -0.024 C 
ATOM     13  C   UNL     1      25.155  30.236  32.610  1.00  0.00     0.012 C 
ATOM     14  C   UNL     1      22.508  30.893  29.804  1.00  0.00     0.002 C 
ATOM     15  C   UNL     1      22.330  30.239  32.201  1.00  0.00     0.008 C 
ATOM     16  C   UNL     1      23.005  28.427  30.622  1.00  0.00     0.012 C 
ATOM     17  C   UNL     1      20.927  30.747  29.532  1.00  0.00    -0.026 C 
ATOM     18  C   UNL     1      20.813  30.015  32.049  1.00  0.00     0.005 C 
ATOM     19  C   UNL     1      20.595  29.465  28.693  1.00  0.00     0.010 C 
ATOM     20  C   UNL     1      20.503  31.942  28.605  1.00  0.00     0.012 C 
ATOM     21  C   UNL     1      20.112  30.796  30.898  1.00  0.00     0.003 C 
ATOM     22  C   UNL     1      19.098  29.142  28.583  1.00  0.00     0.033 C 
ATOM     23  C   UNL     1      18.570  30.389  30.777  1.00  0.00    -0.006 C 
ATOM     24  C   UNL     1      18.413  29.074  29.955  1.00  0.00     0.120 C 
ATOM     25  C   UNL     1      17.940  30.147  32.182  1.00  0.00     0.014 C 
ATOM     26  C   UNL     1      17.723  31.542  30.158  1.00  0.00     0.014 C 
ENDROOT
BRANCH   1  27
ATOM     27  C   UNL     1      27.847  30.825  28.466  1.00  0.00     0.048 C 
ATOM     28  O   UNL     1      27.002  30.248  27.725  1.00  0.00    -0.550 OA
ATOM     29  O   UNL     1      28.992  31.367  27.888  1.00  0.00    -0.550 OA
ENDBRANCH   1  27
BRANCH   7  30
ATOM     30  C   UNL     1      27.277  34.218  31.600  1.00  0.00    -0.077 C 
ATOM     31  C   UNL     1      27.988  34.910  30.463  1.00  0.00     0.039 C 
ATOM     32  C   UNL     1      26.647  34.974  32.514  1.00  0.00     0.008 C 
ENDBRANCH   7  30
BRANCH  24  33
ATOM     33  O   UNL     1      17.050  28.778  29.777  1.00  0.00    -0.393 OA
ATOM     34  H   UNL     1      16.851  27.975  30.327  1.00  0.00     0.210 HD
ENDBRANCH  24  33
TORSDOF 3
ENDMDL
MODEL 2
REMARK VINA RESULT:    -6.423      2.717      8.717
REMARK INTER + INTRA:          -7.863
REMARK INTER:                  -7.360
REMARK INTRA:                  -0.503
REMARK UNBOUND:                -0.501
REMARK SMILES C=C(C)[C@@H]1CC[C@@]2(C(=O)[O-])CC[C@@]3(C)[C@@H](CC[C@@H]4[C@@]5(C)CC[C@H](O)C(C)(C)[C@H]5CC[C@@]43C)[C@@H]12
REMARK SMILES IDX 7 1 6 2 33 3 11 4 5 5 15 6 4 7 12 8 16 9 13 10 17 11 31 12
REMARK SMILES IDX 14 13 18 14 30 15 32 16 19 17 29 18 21 19 20 20 28 21 22 22
REMARK SMILES IDX 25 23 23 24 26 25 27 26 8 27 9 28 10 29 2 30 3 31 1 32 24 33
REMARK H PARENT 24 34
REMARK Flexibility Score: inf
ROOT
ATOM      1  C   UNL     1      23.299  33.039  31.261  1.00  0.00     0.014 C 
ATOM      2  C   UNL     1      21.983  32.553  31.896  1.00  0.00     0.014 C 
ATOM      3  C   UNL     1      23.878  31.748  30.614  1.00  0.00     0.012 C 
ATOM      4  C   UNL     1      24.217  33.641  32.365  1.00  0.00     0.014 C 
ATOM      5  C   UNL     1      22.202  31.098  32.297  1.00  0.00     0.009 C 
ATOM      6  C   UNL     1      25.425  31.788  30.437  1.00  0.00     0.000 C 
ATOM      7  C   UNL     1      23.275  30.529  31.357  1.00  0.00     0.018 C 
ATOM      8  C   UNL     1      25.722  33.645  32.023  1.00  0.00     0.008 C 
ATOM      9  C   UNL     1      25.997  30.558  29.760  1.00  0.00     0.005 C 
ATOM     10  C   UNL     1      26.313  32.233  31.650  1.00  0.00    -0.024 C 
ATOM     11  C   UNL     1      27.310  30.927  29.063  1.00  0.00     0.005 C 
ATOM     12  C   UNL     1      27.916  32.258  31.222  1.00  0.00    -0.024 C 
ATOM     13  C   UNL     1      26.125  31.320  32.903  1.00  0.00     0.012 C 
ATOM     14  C   UNL     1      28.106  32.173  29.639  1.00  0.00     0.002 C 
ATOM     15  C   UNL     1      28.730  31.042  31.769  1.00  0.00     0.008 C 
ATOM     16  C   UNL     1      28.551  33.530  31.865  1.00  0.00     0.012 C 
ATOM     17  C   UNL     1      29.610  32.154  29.059  1.00  0.00    -0.026 C 
ATOM     18  C   UNL     1      30.210  31.013  31.344  1.00  0.00     0.005 C 
ATOM     19  C   UNL     1      30.268  33.576  29.100  1.00  0.00     0.010 C 
ATOM     20  C   UNL     1      29.514  31.809  27.530  1.00  0.00     0.012 C 
ATOM     21  C   UNL     1      30.491  31.064  29.813  1.00  0.00     0.003 C 
ATOM     22  C   UNL     1      31.768  33.595  28.771  1.00  0.00     0.033 C 
ATOM     23  C   UNL     1      32.060  31.143  29.514  1.00  0.00    -0.006 C 
ATOM     24  C   UNL     1      32.568  32.612  29.637  1.00  0.00     0.120 C 
ATOM     25  C   UNL     1      32.871  30.276  30.524  1.00  0.00     0.014 C 
ATOM     26  C   UNL     1      32.405  30.546  28.116  1.00  0.00     0.014 C 
ENDROOT
BRANCH   1  27
ATOM     27  C   UNL     1      22.997  34.130  30.241  1.00  0.00     0.048 C 
ATOM     28  O   UNL     1      23.891  34.932  29.850  1.00  0.00    -0.550 OA
ATOM     29  O   UNL     1      21.703  34.270  29.745  1.00  0.00    -0.550 OA
ENDBRANCH   1  27
BRANCH   7  30
ATOM     30  C   UNL     1      22.699  29.489  30.395  1.00  0.00    -0.077 C 
ATOM     31  C   UNL     1      21.721  29.874  29.313  1.00  0.00     0.039 C 
ATOM     32  C   UNL     1      23.096  28.207  30.469  1.00  0.00     0.008 C 
ENDBRANCH   7  30
BRANCH  24  33
ATOM     33  O   UNL     1      33.927  32.682  29.281  1.00  0.00    -0.393 OA
ATOM     34  H   UNL     1      33.993  33.292  28.500  1.00  0.00     0.210 HD
ENDBRANCH  24  33
TORSDOF 3
ENDMDL
MODEL 3
REMARK VINA RESULT:    -6.384      3.241      9.316
REMARK INTER + INTRA:          -7.817
REMARK INTER:                  -7.393
REMARK INTRA:                  -0.424
REMARK UNBOUND:                -0.501
REMARK SMILES C=C(C)[C@@H]1CC[C@@]2(C(=O)[O-])CC[C@@]3(C)[C@@H](CC[C@@H]4[C@@]5(C)CC[C@H](O)C(C)(C)[C@H]5CC[C@@]43C)[C@@H]12
REMARK SMILES IDX 7 1 6 2 33 3 11 4 5 5 15 6 4 7 12 8 16 9 13 10 17 11 31 12
REMARK SMILES IDX 14 13 18 14 30 15 32 16 19 17 29 18 21 19 20 20 28 21 22 22
REMARK SMILES IDX 25 23 23 24 26 25 27 26 8 27 9 28 10 29 2 30 3 31 1 32 24 33
REMARK H PARENT 24 34
REMARK Flexibility Score: inf
ROOT
ATOM      1  C   UNL     1      24.502  31.837  31.269  1.00  0.00     0.014 C 
ATOM      2  C   UNL     1      23.412  30.892  31.807  1.00  0.00     0.014 C 
ATOM      3  C   UNL     1      25.298  30.934  30.283  1.00  0.00     0.012 C 
ATOM      4  C   UNL     1      25.362  32.365  32.454  1.00  0.00     0.014 C 
ATOM      5  C   UNL     1      24.009  29.488  31.804  1.00  0.00     0.009 C 
ATOM      6  C   UNL     1      26.765  31.409  30.060  1.00  0.00     0.000 C 
ATOM      7  C   UNL     1      25.082  29.459  30.704  1.00  0.00     0.018 C 
ATOM      8  C   UNL     1      26.780  32.837  32.064  1.00  0.00     0.008 C 
ATOM      9  C   UNL     1      27.537  30.569  29.062  1.00  0.00     0.005 C 
ATOM     10  C   UNL     1      27.645  31.757  31.311  1.00  0.00    -0.024 C 
ATOM     11  C   UNL     1      28.646  31.419  28.433  1.00  0.00     0.005 C 
ATOM     12  C   UNL     1      29.142  32.294  30.839  1.00  0.00    -0.024 C 
ATOM     13  C   UNL     1      27.810  30.549  32.287  1.00  0.00     0.012 C 
ATOM     14  C   UNL     1      29.180  32.648  29.283  1.00  0.00     0.002 C 
ATOM     15  C   UNL     1      30.273  31.231  31.015  1.00  0.00     0.008 C 
ATOM     16  C   UNL     1      29.522  33.489  31.766  1.00  0.00     0.012 C 
ATOM     17  C   UNL     1      30.577  33.155  28.658  1.00  0.00    -0.026 C 
ATOM     18  C   UNL     1      31.665  31.684  30.538  1.00  0.00     0.005 C 
ATOM     19  C   UNL     1      30.881  34.644  29.043  1.00  0.00     0.010 C 
ATOM     20  C   UNL     1      30.405  33.181  27.097  1.00  0.00     0.012 C 
ATOM     21  C   UNL     1      31.765  32.177  29.063  1.00  0.00     0.003 C 
ATOM     22  C   UNL     1      32.291  35.125  28.670  1.00  0.00     0.033 C 
ATOM     23  C   UNL     1      33.230  32.724  28.732  1.00  0.00    -0.006 C 
ATOM     24  C   UNL     1      33.387  34.198  29.215  1.00  0.00     0.120 C 
ATOM     25  C   UNL     1      34.324  31.873  29.446  1.00  0.00     0.014 C 
ATOM     26  C   UNL     1      33.557  32.594  27.214  1.00  0.00     0.014 C 
ENDROOT
BRANCH   1  27
ATOM     27  C   UNL     1      23.846  33.028  30.583  1.00  0.00     0.048 C 
ATOM     28  O   UNL     1      24.288  34.202  30.735  1.00  0.00    -0.550 OA
ATOM     29  O   UNL     1      22.716  32.832  29.793  1.00  0.00    -0.550 OA
ENDBRANCH   1  27
BRANCH   7  30
ATOM     30  C   UNL     1      24.670  28.572  29.528  1.00  0.00    -0.077 C 
ATOM     31  C   UNL     1      25.598  27.520  28.974  1.00  0.00     0.039 C 
ATOM     32  C   UNL     1      23.442  28.685  28.995  1.00  0.00     0.008 C 
ENDBRANCH   7  30
BRANCH  24  33
ATOM     33  O   UNL     1      34.646  34.697  28.835  1.00  0.00    -0.393 OA
ATOM     34  H   UNL     1      35.260  33.919  28.767  1.00  0.00     0.210 HD
ENDBRANCH  24  33
TORSDOF 3
ENDMDL
MODEL 4
REMARK VINA RESULT:    -6.272      2.238      8.366
REMARK INTER + INTRA:          -7.690
REMARK INTER:                  -7.221
REMARK INTRA:                  -0.469
REMARK UNBOUND:                -0.501
REMARK SMILES C=C(C)[C@@H]1CC[C@@]2(C(=O)[O-])CC[C@@]3(C)[C@@H](CC[C@@H]4[C@@]5(C)CC[C@H](O)C(C)(C)[C@H]5CC[C@@]43C)[C@@H]12
REMARK SMILES IDX 7 1 6 2 33 3 11 4 5 5 15 6 4 7 12 8 16 9 13 10 17 11 31 12
REMARK SMILES IDX 14 13 18 14 30 15 32 16 19 17 29 18 21 19 20 20 28 21 22 22
REMARK SMILES IDX 25 23 23 24 26 25 27 26 8 27 9 28 10 29 2 30 3 31 1 32 24 33
REMARK H PARENT 24 34
REMARK Flexibility Score: inf
ROOT
ATOM      1  C   UNL     1      21.817  31.686  30.818  1.00  0.00     0.014 C 
ATOM      2  C   UNL     1      20.508  30.967  31.191  1.00  0.00     0.014 C 
ATOM      3  C   UNL     1      22.714  30.533  30.283  1.00  0.00     0.012 C 
ATOM      4  C   UNL     1      22.401  32.389  32.078  1.00  0.00     0.014 C 
ATOM      5  C   UNL     1      20.892  29.554  31.618  1.00  0.00     0.009 C 
ATOM      6  C   UNL     1      24.238  30.833  30.399  1.00  0.00     0.000 C 
ATOM      7  C   UNL     1      22.199  29.204  30.892  1.00  0.00     0.018 C 
ATOM      8  C   UNL     1      23.922  32.653  32.024  1.00  0.00     0.008 C 
ATOM      9  C   UNL     1      25.124  29.740  29.835  1.00  0.00     0.005 C 
ATOM     10  C   UNL     1      24.800  31.373  31.760  1.00  0.00    -0.024 C 
ATOM     11  C   UNL     1      26.462  30.345  29.398  1.00  0.00     0.005 C 
ATOM     12  C   UNL     1      26.427  31.677  31.640  1.00  0.00    -0.024 C 
ATOM     13  C   UNL     1      24.541  30.395  32.950  1.00  0.00     0.012 C 
ATOM     14  C   UNL     1      26.917  31.683  30.121  1.00  0.00     0.002 C 
ATOM     15  C   UNL     1      27.320  30.592  32.323  1.00  0.00     0.008 C 
ATOM     16  C   UNL     1      26.709  33.011  32.398  1.00  0.00     0.012 C 
ATOM     17  C   UNL     1      28.483  31.933  29.833  1.00  0.00    -0.026 C 
ATOM     18  C   UNL     1      28.836  30.822  32.184  1.00  0.00     0.005 C 
ATOM     19  C   UNL     1      28.874  33.441  30.005  1.00  0.00     0.010 C 
ATOM     20  C   UNL     1      28.729  31.635  28.311  1.00  0.00     0.012 C 
ATOM     21  C   UNL     1      29.381  30.976  30.733  1.00  0.00     0.003 C 
ATOM     22  C   UNL     1      30.383  33.720  29.964  1.00  0.00     0.033 C 
ATOM     23  C   UNL     1      30.942  31.323  30.734  1.00  0.00    -0.006 C 
ATOM     24  C   UNL     1      31.164  32.849  30.958  1.00  0.00     0.120 C 
ATOM     25  C   UNL     1      31.687  30.563  31.873  1.00  0.00     0.014 C 
ATOM     26  C   UNL     1      31.633  30.843  29.422  1.00  0.00     0.014 C 
ENDROOT
BRANCH   1  27
ATOM     27  C   UNL     1      21.529  32.749  29.765  1.00  0.00     0.048 C 
ATOM     28  O   UNL     1      22.288  33.747  29.611  1.00  0.00    -0.550 OA
ATOM     29  O   UNL     1      20.389  32.642  28.972  1.00  0.00    -0.550 OA
ENDBRANCH   1  27
BRANCH   7  30
ATOM     30  C   UNL     1      21.993  28.120  29.834  1.00  0.00    -0.077 C 
ATOM     31  C   UNL     1      21.024  28.309  28.693  1.00  0.00     0.039 C 
ATOM     32  C   UNL     1      22.716  26.988  29.877  1.00  0.00     0.008 C 
ENDBRANCH   7  30
BRANCH  24  33
ATOM     33  O   UNL     1      32.534  33.155  30.864  1.00  0.00    -0.393 OA
ATOM     34  H   UNL     1      32.603  34.075  30.495  1.00  0.00     0.210 HD
ENDBRANCH  24  33
TORSDOF 3
ENDMDL
MODEL 5
REMARK VINA RESULT:    -6.245      1.722      2.449
REMARK INTER + INTRA:          -7.658
REMARK INTER:                  -6.989
REMARK INTRA:                  -0.669
REMARK UNBOUND:                -0.501
REMARK SMILES C=C(C)[C@@H]1CC[C@@]2(C(=O)[O-])CC[C@@]3(C)[C@@H](CC[C@@H]4[C@@]5(C)CC[C@H](O)C(C)(C)[C@H]5CC[C@@]43C)[C@@H]12
REMARK SMILES IDX 7 1 6 2 33 3 11 4 5 5 15 6 4 7 12 8 16 9 13 10 17 11 31 12
REMARK SMILES IDX 14 13 18 14 30 15 32 16 19 17 29 18 21 19 20 20 28 21 22 22
REMARK SMILES IDX 25 23 23 24 26 25 27 26 8 27 9 28 10 29 2 30 3 31 1 32 24 33
REMARK H PARENT 24 34
REMARK Flexibility Score: inf
ROOT
ATOM      1  C   UNL     1      25.791  29.445  29.671  1.00  0.00     0.014 C 
ATOM      2  C   UNL     1      27.264  29.287  30.092  1.00  0.00     0.014 C 
ATOM      3  C   UNL     1      25.483  30.931  30.012  1.00  0.00     0.012 C 
ATOM      4  C   UNL     1      24.913  28.435  30.466  1.00  0.00     0.014 C 
ATOM      5  C   UNL     1      27.489  30.241  31.261  1.00  0.00     0.009 C 
ATOM      6  C   UNL     1      23.970  31.206  30.259  1.00  0.00     0.000 C 
ATOM      7  C   UNL     1      26.480  31.388  31.106  1.00  0.00     0.018 C 
ATOM      8  C   UNL     1      23.425  28.829  30.591  1.00  0.00     0.008 C 
ATOM      9  C   UNL     1      23.648  32.660  30.541  1.00  0.00     0.005 C 
ATOM     10  C   UNL     1      23.176  30.252  31.218  1.00  0.00    -0.024 C 
ATOM     11  C   UNL     1      22.199  32.948  30.133  1.00  0.00     0.005 C 
ATOM     12  C   UNL     1      21.578  30.694  31.289  1.00  0.00    -0.024 C 
ATOM     13  C   UNL     1      23.769  30.220  32.663  1.00  0.00     0.012 C 
ATOM     14  C   UNL     1      21.196  31.718  30.125  1.00  0.00     0.002 C 
ATOM     15  C   UNL     1      21.193  31.449  32.601  1.00  0.00     0.008 C 
ATOM     16  C   UNL     1      20.731  29.384  31.277  1.00  0.00     0.012 C 
ATOM     17  C   UNL     1      19.683  32.271  30.073  1.00  0.00    -0.026 C 
ATOM     18  C   UNL     1      19.727  31.915  32.672  1.00  0.00     0.005 C 
ATOM     19  C   UNL     1      18.690  31.199  29.506  1.00  0.00     0.010 C 
ATOM     20  C   UNL     1      19.649  33.433  29.016  1.00  0.00     0.012 C 
ATOM     21  C   UNL     1      19.230  32.812  31.499  1.00  0.00     0.003 C 
ATOM     22  C   UNL     1      17.205  31.572  29.632  1.00  0.00     0.033 C 
ATOM     23  C   UNL     1      17.669  33.130  31.634  1.00  0.00    -0.006 C 
ATOM     24  C   UNL     1      16.819  31.952  31.068  1.00  0.00     0.120 C 
ATOM     25  C   UNL     1      17.262  33.334  33.125  1.00  0.00     0.014 C 
ATOM     26  C   UNL     1      17.298  34.474  30.937  1.00  0.00     0.014 C 
ENDROOT
BRANCH   1  27
ATOM     27  C   UNL     1      25.653  29.135  28.186  1.00  0.00     0.048 C 
ATOM     28  O   UNL     1      25.763  30.040  27.311  1.00  0.00    -0.550 OA
ATOM     29  O   UNL     1      25.370  27.834  27.777  1.00  0.00    -0.550 OA
ENDBRANCH   1  27
BRANCH   7  30
ATOM     30  C   UNL     1      27.166  32.709  30.753  1.00  0.00    -0.077 C 
ATOM     31  C   UNL     1      28.071  32.829  29.552  1.00  0.00     0.039 C 
ATOM     32  C   UNL     1      26.933  33.809  31.489  1.00  0.00     0.008 C 
ENDBRANCH   7  30
BRANCH  24  33
ATOM     33  O   UNL     1      15.452  32.283  31.107  1.00  0.00    -0.393 OA
ATOM     34  H   UNL     1      15.021  31.834  30.333  1.00  0.00     0.210 HD
ENDBRANCH  24  33
TORSDOF 3
ENDMDL
MODEL 6
REMARK VINA RESULT:    -6.030      2.433      4.186
REMARK INTER + INTRA:          -7.412
REMARK INTER:                  -7.392
REMARK INTRA:                  -0.020
REMARK UNBOUND:                -0.501
REMARK SMILES C=C(C)[C@@H]1CC[C@@]2(C(=O)[O-])CC[C@@]3(C)[C@@H](CC[C@@H]4[C@@]5(C)CC[C@H](O)C(C)(C)[C@H]5CC[C@@]43C)[C@@H]12
REMARK SMILES IDX 7 1 6 2 33 3 11 4 5 5 15 6 4 7 12 8 16 9 13 10 17 11 31 12
REMARK SMILES IDX 14 13 18 14 30 15 32 16 19 17 29 18 21 19 20 20 28 21 22 22
REMARK SMILES IDX 25 23 23 24 26 25 27 26 8 27 9 28 10 29 2 30 3 31 1 32 24 33
REMARK H PARENT 24 34
REMARK Flexibility Score: inf
ROOT
ATOM      1  C   UNL     1      27.273  31.601  31.427  1.00  0.00     0.014 C 
ATOM      2  C   UNL     1      28.659  31.585  30.756  1.00  0.00     0.014 C 
ATOM      3  C   UNL     1      26.320  31.151  30.282  1.00  0.00     0.012 C 
ATOM      4  C   UNL     1      26.969  33.033  31.955  1.00  0.00     0.014 C 
ATOM      5  C   UNL     1      28.436  31.919  29.284  1.00  0.00     0.009 C 
ATOM      6  C   UNL     1      24.854  31.640  30.473  1.00  0.00     0.000 C 
ATOM      7  C   UNL     1      27.010  31.469  28.932  1.00  0.00     0.018 C 
ATOM      8  C   UNL     1      25.468  33.354  32.128  1.00  0.00     0.008 C 
ATOM      9  C   UNL     1      23.903  31.165  29.391  1.00  0.00     0.005 C 
ATOM     10  C   UNL     1      24.600  33.146  30.830  1.00  0.00    -0.024 C 
ATOM     11  C   UNL     1      22.479  31.113  29.954  1.00  0.00     0.005 C 
ATOM     12  C   UNL     1      22.980  33.430  31.042  1.00  0.00    -0.024 C 
ATOM     13  C   UNL     1      25.162  34.125  29.750  1.00  0.00     0.012 C 
ATOM     14  C   UNL     1      22.154  32.070  31.178  1.00  0.00     0.002 C 
ATOM     15  C   UNL     1      22.309  34.164  29.838  1.00  0.00     0.008 C 
ATOM     16  C   UNL     1      22.830  34.382  32.269  1.00  0.00     0.012 C 
ATOM     17  C   UNL     1      20.556  32.173  31.358  1.00  0.00    -0.026 C 
ATOM     18  C   UNL     1      20.794  34.397  29.986  1.00  0.00     0.005 C 
ATOM     19  C   UNL     1      20.159  32.603  32.813  1.00  0.00     0.010 C 
ATOM     20  C   UNL     1      19.977  30.720  31.207  1.00  0.00     0.012 C 
ATOM     21  C   UNL     1      19.924  33.133  30.257  1.00  0.00     0.003 C 
ATOM     22  C   UNL     1      18.671  32.934  32.999  1.00  0.00     0.033 C 
ATOM     23  C   UNL     1      18.393  33.525  30.504  1.00  0.00    -0.006 C 
ATOM     24  C   UNL     1      18.173  33.970  31.981  1.00  0.00     0.120 C 
ATOM     25  C   UNL     1      17.959  34.705  29.584  1.00  0.00     0.014 C 
ATOM     26  C   UNL     1      17.437  32.354  30.123  1.00  0.00     0.014 C 
ENDROOT
BRANCH   1  27
ATOM     27  C   UNL     1      27.273  30.642  32.611  1.00  0.00     0.048 C 
ATOM     28  O   UNL     1      28.350  30.230  33.125  1.00  0.00    -0.550 OA
ATOM     29  O   UNL     1      26.062  30.184  33.125  1.00  0.00    -0.550 OA
ENDBRANCH   1  27
BRANCH   7  30
ATOM     30  C   UNL     1      27.007  30.272  27.980  1.00  0.00    -0.077 C 
ATOM     31  C   UNL     1      28.285  29.562  27.606  1.00  0.00     0.039 C 
ATOM     32  C   UNL     1      25.848  29.799  27.494  1.00  0.00     0.008 C 
ENDBRANCH   7  30
BRANCH  24  33
ATOM     33  O   UNL     1      16.808  34.222  32.209  1.00  0.00    -0.393 OA
ATOM     34  H   UNL     1      16.512  34.874  31.521  1.00  0.00     0.210 HD
ENDBRANCH  24  33
TORSDOF 3
ENDMDL
MODEL 7
REMARK VINA RESULT:    -5.936      3.115      9.162
REMARK INTER + INTRA:          -7.304
REMARK INTER:                  -6.845
REMARK INTRA:                  -0.458
REMARK UNBOUND:                -0.501
REMARK SMILES C=C(C)[C@@H]1CC[C@@]2(C(=O)[O-])CC[C@@]3(C)[C@@H](CC[C@@H]4[C@@]5(C)CC[C@H](O)C(C)(C)[C@H]5CC[C@@]43C)[C@@H]12
REMARK SMILES IDX 7 1 6 2 33 3 11 4 5 5 15 6 4 7 12 8 16 9 13 10 17 11 31 12
REMARK SMILES IDX 14 13 18 14 30 15 32 16 19 17 29 18 21 19 20 20 28 21 22 22
REMARK SMILES IDX 25 23 23 24 26 25 27 26 8 27 9 28 10 29 2 30 3 31 1 32 24 33
REMARK H PARENT 24 34
REMARK Flexibility Score: inf
ROOT
ATOM      1  C   UNL     1      25.228  29.270  29.236  1.00  0.00     0.014 C 
ATOM      2  C   UNL     1      23.690  29.325  29.184  1.00  0.00     0.014 C 
ATOM      3  C   UNL     1      25.558  29.896  30.622  1.00  0.00     0.012 C 
ATOM      4  C   UNL     1      25.817  30.073  28.040  1.00  0.00     0.014 C 
ATOM      5  C   UNL     1      23.269  30.549  29.992  1.00  0.00     0.009 C 
ATOM      6  C   UNL     1      26.987  30.511  30.695  1.00  0.00     0.000 C 
ATOM      7  C   UNL     1      24.369  30.800  31.034  1.00  0.00     0.018 C 
ATOM      8  C   UNL     1      27.259  30.583  28.251  1.00  0.00     0.008 C 
ATOM      9  C   UNL     1      27.341  31.079  32.056  1.00  0.00     0.005 C 
ATOM     10  C   UNL     1      27.461  31.462  29.542  1.00  0.00    -0.024 C 
ATOM     11  C   UNL     1      28.863  31.050  32.237  1.00  0.00     0.005 C 
ATOM     12  C   UNL     1      29.026  31.951  29.795  1.00  0.00    -0.024 C 
ATOM     13  C   UNL     1      26.544  32.717  29.381  1.00  0.00     0.012 C 
ATOM     14  C   UNL     1      29.746  31.073  30.918  1.00  0.00     0.002 C 
ATOM     15  C   UNL     1      29.148  33.417  30.321  1.00  0.00     0.008 C 
ATOM     16  C   UNL     1      29.751  31.924  28.414  1.00  0.00     0.012 C 
ATOM     17  C   UNL     1      31.265  31.443  31.306  1.00  0.00    -0.026 C 
ATOM     18  C   UNL     1      30.587  33.881  30.613  1.00  0.00     0.005 C 
ATOM     19  C   UNL     1      32.281  30.950  30.217  1.00  0.00     0.010 C 
ATOM     20  C   UNL     1      31.632  30.613  32.588  1.00  0.00     0.012 C 
ATOM     21  C   UNL     1      31.411  33.000  31.599  1.00  0.00     0.003 C 
ATOM     22  C   UNL     1      33.718  31.457  30.408  1.00  0.00     0.033 C 
ATOM     23  C   UNL     1      32.916  33.524  31.725  1.00  0.00    -0.006 C 
ATOM     24  C   UNL     1      33.785  32.984  30.549  1.00  0.00     0.120 C 
ATOM     25  C   UNL     1      32.977  35.081  31.682  1.00  0.00     0.014 C 
ATOM     26  C   UNL     1      33.539  33.142  33.102  1.00  0.00     0.014 C 
ENDROOT
BRANCH   1  27
ATOM     27  C   UNL     1      25.686  27.822  29.115  1.00  0.00     0.048 C 
ATOM     28  O   UNL     1      24.871  26.892  28.858  1.00  0.00    -0.550 OA
ATOM     29  O   UNL     1      27.027  27.505  29.319  1.00  0.00    -0.550 OA
ENDBRANCH   1  27
BRANCH   7  30
ATOM     30  C   UNL     1      23.885  30.514  32.456  1.00  0.00    -0.077 C 
ATOM     31  C   UNL     1      22.845  31.380  33.122  1.00  0.00     0.039 C 
ATOM     32  C   UNL     1      24.349  29.445  33.125  1.00  0.00     0.008 C 
ENDBRANCH   7  30
BRANCH  24  33
ATOM     33  O   UNL     1      35.125  33.374  30.721  1.00  0.00    -0.393 OA
ATOM     34  H   UNL     1      35.205  33.746  31.639  1.00  0.00     0.210 HD
ENDBRANCH  24  33
TORSDOF 3
ENDMDL
MODEL 8
REMARK VINA RESULT:    -5.914      2.404      4.389
REMARK INTER + INTRA:          -7.279
REMARK INTER:                  -6.759
REMARK INTRA:                  -0.520
REMARK UNBOUND:                -0.501
REMARK SMILES C=C(C)[C@@H]1CC[C@@]2(C(=O)[O-])CC[C@@]3(C)[C@@H](CC[C@@H]4[C@@]5(C)CC[C@H](O)C(C)(C)[C@H]5CC[C@@]43C)[C@@H]12
REMARK SMILES IDX 7 1 6 2 33 3 11 4 5 5 15 6 4 7 12 8 16 9 13 10 17 11 31 12
REMARK SMILES IDX 14 13 18 14 30 15 32 16 19 17 29 18 21 19 20 20 28 21 22 22
REMARK SMILES IDX 25 23 23 24 26 25 27 26 8 27 9 28 10 29 2 30 3 31 1 32 24 33
REMARK H PARENT 24 34
REMARK Flexibility Score: inf
ROOT
ATOM      1  C   UNL     1      30.322  32.421  32.090  1.00  0.00     0.014 C 
ATOM      2  C   UNL     1      31.651  33.148  31.813  1.00  0.00     0.014 C 
ATOM      3  C   UNL     1      29.677  32.310  30.679  1.00  0.00     0.012 C 
ATOM      4  C   UNL     1      29.473  33.254  33.093  1.00  0.00     0.014 C 
ATOM      5  C   UNL     1      31.407  34.062  30.616  1.00  0.00     0.009 C 
ATOM      6  C   UNL     1      28.126  32.178  30.719  1.00  0.00     0.000 C 
ATOM      7  C   UNL     1      30.277  33.429  29.790  1.00  0.00     0.018 C 
ATOM      8  C   UNL     1      27.954  32.981  33.038  1.00  0.00     0.008 C 
ATOM      9  C   UNL     1      27.488  32.017  29.353  1.00  0.00     0.005 C 
ATOM     10  C   UNL     1      27.306  33.170  31.615  1.00  0.00    -0.024 C 
ATOM     11  C   UNL     1      26.157  31.274  29.499  1.00  0.00     0.005 C 
ATOM     12  C   UNL     1      25.687  32.812  31.552  1.00  0.00    -0.024 C 
ATOM     13  C   UNL     1      27.523  34.664  31.215  1.00  0.00     0.012 C 
ATOM     14  C   UNL     1      25.424  31.376  30.903  1.00  0.00     0.002 C 
ATOM     15  C   UNL     1      24.863  33.791  30.656  1.00  0.00     0.008 C 
ATOM     16  C   UNL     1      25.120  32.963  32.997  1.00  0.00     0.012 C 
ATOM     17  C   UNL     1      23.897  30.891  30.739  1.00  0.00    -0.026 C 
ATOM     18  C   UNL     1      23.365  33.453  30.539  1.00  0.00     0.005 C 
ATOM     19  C   UNL     1      23.283  30.427  32.105  1.00  0.00     0.010 C 
ATOM     20  C   UNL     1      23.914  29.592  29.856  1.00  0.00     0.012 C 
ATOM     21  C   UNL     1      23.018  32.018  30.040  1.00  0.00     0.003 C 
ATOM     22  C   UNL     1      21.771  30.161  32.069  1.00  0.00     0.033 C 
ATOM     23  C   UNL     1      21.440  31.759  30.073  1.00  0.00    -0.006 C 
ATOM     24  C   UNL     1      20.982  31.351  31.505  1.00  0.00     0.120 C 
ATOM     25  C   UNL     1      20.650  33.041  29.670  1.00  0.00     0.014 C 
ATOM     26  C   UNL     1      21.016  30.689  29.022  1.00  0.00     0.014 C 
ENDROOT
BRANCH   1  27
ATOM     27  C   UNL     1      30.611  31.063  32.719  1.00  0.00     0.048 C 
ATOM     28  O   UNL     1      29.677  30.286  33.066  1.00  0.00    -0.550 OA
ATOM     29  O   UNL     1      31.929  30.675  32.945  1.00  0.00    -0.550 OA
ENDBRANCH   1  27
BRANCH   7  30
ATOM     30  C   UNL     1      30.779  32.898  28.446  1.00  0.00    -0.077 C 
ATOM     31  C   UNL     1      31.020  31.426  28.222  1.00  0.00     0.039 C 
ATOM     32  C   UNL     1      30.969  33.740  27.417  1.00  0.00     0.008 C 
ENDBRANCH   7  30
BRANCH  24  33
ATOM     33  O   UNL     1      19.611  31.036  31.500  1.00  0.00    -0.393 OA
ATOM     34  H   UNL     1      19.302  31.060  32.444  1.00  0.00     0.210 HD
ENDBRANCH  24  33
TORSDOF 3
ENDMDL
MODEL 9
REMARK VINA RESULT:    -5.793      3.519      6.403
REMARK INTER + INTRA:          -7.140
REMARK INTER:                  -6.654
REMARK INTRA:                  -0.487
REMARK UNBOUND:                -0.501
REMARK SMILES C=C(C)[C@@H]1CC[C@@]2(C(=O)[O-])CC[C@@]3(C)[C@@H](CC[C@@H]4[C@@]5(C)CC[C@H](O)C(C)(C)[C@H]5CC[C@@]43C)[C@@H]12
REMARK SMILES IDX 7 1 6 2 33 3 11 4 5 5 15 6 4 7 12 8 16 9 13 10 17 11 31 12
REMARK SMILES IDX 14 13 18 14 30 15 32 16 19 17 29 18 21 19 20 20 28 21 22 22
REMARK SMILES IDX 25 23 23 24 26 25 27 26 8 27 9 28 10 29 2 30 3 31 1 32 24 33
REMARK H PARENT 24 34
REMARK Flexibility Score: inf
ROOT
ATOM      1  C   UNL     1      32.903  32.757  31.643  1.00  0.00     0.014 C 
ATOM      2  C   UNL     1      34.157  33.505  31.155  1.00  0.00     0.014 C 
ATOM      3  C   UNL     1      32.198  32.346  30.318  1.00  0.00     0.012 C 
ATOM      4  C   UNL     1      32.044  33.706  32.530  1.00  0.00     0.014 C 
ATOM      5  C   UNL     1      33.786  34.164  29.831  1.00  0.00     0.009 C 
ATOM      6  C   UNL     1      30.665  32.124  30.479  1.00  0.00     0.000 C 
ATOM      7  C   UNL     1      32.667  33.318  29.206  1.00  0.00     0.018 C 
ATOM      8  C   UNL     1      30.549  33.330  32.621  1.00  0.00     0.008 C 
ATOM      9  C   UNL     1      29.974  31.673  29.207  1.00  0.00     0.005 C 
ATOM     10  C   UNL     1      29.819  33.210  31.230  1.00  0.00    -0.024 C 
ATOM     11  C   UNL     1      28.710  30.885  29.568  1.00  0.00     0.005 C 
ATOM     12  C   UNL     1      28.230  32.743  31.335  1.00  0.00    -0.024 C 
ATOM     13  C   UNL     1      29.903  34.616  30.554  1.00  0.00     0.012 C 
ATOM     14  C   UNL     1      28.043  31.199  30.974  1.00  0.00     0.002 C 
ATOM     15  C   UNL     1      27.291  33.484  30.330  1.00  0.00     0.008 C 
ATOM     16  C   UNL     1      27.726  33.122  32.762  1.00  0.00     0.012 C 
ATOM     17  C   UNL     1      26.550  30.594  30.997  1.00  0.00    -0.026 C 
ATOM     18  C   UNL     1      25.819  33.035  30.370  1.00  0.00     0.005 C 
ATOM     19  C   UNL     1      26.041  30.352  32.460  1.00  0.00     0.010 C 
ATOM     20  C   UNL     1      26.621  29.158  30.364  1.00  0.00     0.012 C 
ATOM     21  C   UNL     1      25.555  31.513  30.162  1.00  0.00     0.003 C 
ATOM     22  C   UNL     1      24.554  29.987  32.568  1.00  0.00     0.033 C 
ATOM     23  C   UNL     1      24.005  31.164  30.340  1.00  0.00    -0.006 C 
ATOM     24  C   UNL     1      23.651  30.999  31.849  1.00  0.00     0.120 C 
ATOM     25  C   UNL     1      23.102  32.296  29.763  1.00  0.00     0.014 C 
ATOM     26  C   UNL     1      23.611  29.893  29.529  1.00  0.00     0.014 C 
ENDROOT
BRANCH   1  27
ATOM     27  C   UNL     1      33.323  31.561  32.487  1.00  0.00     0.048 C 
ATOM     28  O   UNL     1      32.520  30.618  32.740  1.00  0.00    -0.550 OA
ATOM     29  O   UNL     1      34.609  31.511  33.020  1.00  0.00    -0.550 OA
ENDBRANCH   1  27
BRANCH   7  30
ATOM     30  C   UNL     1      33.139  32.582  27.951  1.00  0.00    -0.077 C 
ATOM     31  C   UNL     1      33.195  31.075  27.898  1.00  0.00     0.039 C 
ATOM     32  C   UNL     1      33.470  33.272  26.847  1.00  0.00     0.008 C 
ENDBRANCH   7  30
BRANCH  24  33
ATOM     33  O   UNL     1      22.308  30.601  31.987  1.00  0.00    -0.393 OA
ATOM     34  H   UNL     1      22.065  30.722  32.942  1.00  0.00     0.210 HD
ENDBRANCH  24  33
TORSDOF 3
ENDMDL
