MODEL 1
REMARK VINA RESULT:    -4.372      0.000      0.000
REMARK INTER + INTRA:          -4.372
REMARK INTER:                  -4.372
REMARK INTRA:                   0.000
REMARK UNBOUND:                 0.000
REMARK SMILES CC1(C)[C@H]2CC[C@]1(C)C(=O)C2
REMARK SMILES IDX 1 1 2 2 4 3 5 4 6 5 7 6 9 7 10 8 11 9 8 10 3 11
REMARK H PARENT
REMARK Flexibility Score: inf
ROOT
ATOM      1  C   UNL     1     107.878 106.478 104.329  1.00  0.00     0.012 C 
ATOM      2  C   UNL     1     107.018 105.783 103.231  1.00  0.00    -0.020 C 
ATOM      3  C   UNL     1     107.320 104.274 103.062  1.00  0.00     0.003 C 
ATOM      4  C   UNL     1     106.883 103.683 104.431  1.00  0.00     0.005 C 
ATOM      5  C   UNL     1     105.650 104.543 104.803  1.00  0.00     0.015 C 
ATOM      6  C   UNL     1     105.544 105.520 103.609  1.00  0.00     0.032 C 
ATOM      7  C   UNL     1     105.107 104.663 102.447  1.00  0.00     0.139 C 
ATOM      8  O   UNL     1     103.980 104.607 101.979  1.00  0.00    -0.299 OA
ATOM      9  C   UNL     1     106.261 103.806 102.025  1.00  0.00     0.080 C 
ATOM     10  C   UNL     1     104.673 106.755 103.864  1.00  0.00     0.020 C 
ATOM     11  C   UNL     1     107.218 106.610 101.924  1.00  0.00     0.012 C 
ENDROOT
TORSDOF 0
ENDMDL
MODEL 2
REMARK VINA RESULT:    -4.359      1.609      2.635
REMARK INTER + INTRA:          -4.359
REMARK INTER:                  -4.359
REMARK INTRA:                   0.000
REMARK UNBOUND:                 0.000
REMARK SMILES CC1(C)[C@H]2CC[C@]1(C)C(=O)C2
REMARK SMILES IDX 1 1 2 2 4 3 5 4 6 5 7 6 9 7 10 8 11 9 8 10 3 11
REMARK H PARENT
REMARK Flexibility Score: inf
ROOT
ATOM      1  C   UNL     1     105.418 107.885 104.321  1.00  0.00     0.012 C 
ATOM      2  C   UNL     1     106.136 107.076 103.200  1.00  0.00    -0.020 C 
ATOM      3  C   UNL     1     107.625 107.457 103.009  1.00  0.00     0.003 C 
ATOM      4  C   UNL     1     108.261 107.033 104.362  1.00  0.00     0.005 C 
ATOM      5  C   UNL     1     107.472 105.753 104.731  1.00  0.00     0.015 C 
ATOM      6  C   UNL     1     106.480 105.613 103.552  1.00  0.00     0.032 C 
ATOM      7  C   UNL     1     107.338 105.235 102.370  1.00  0.00     0.139 C 
ATOM      8  O   UNL     1     107.442 104.119 101.886  1.00  0.00    -0.299 OA
ATOM      9  C   UNL     1     108.128 106.437 101.950  1.00  0.00     0.080 C 
ATOM     10  C   UNL     1     105.295 104.676 103.816  1.00  0.00     0.020 C 
ATOM     11  C   UNL     1     105.277 107.251 101.909  1.00  0.00     0.012 C 
ENDROOT
TORSDOF 0
ENDMDL
MODEL 3
REMARK VINA RESULT:    -4.330      1.974      3.632
REMARK INTER + INTRA:          -4.330
REMARK INTER:                  -4.330
REMARK INTRA:                   0.000
REMARK UNBOUND:                 0.000
REMARK SMILES CC1(C)[C@H]2CC[C@]1(C)C(=O)C2
REMARK SMILES IDX 1 1 2 2 4 3 5 4 6 5 7 6 9 7 10 8 11 9 8 10 3 11
REMARK H PARENT
REMARK Flexibility Score: inf
ROOT
ATOM      1  C   UNL     1     104.020 105.506 104.300  1.00  0.00     0.012 C 
ATOM      2  C   UNL     1     104.855 106.195 103.179  1.00  0.00    -0.020 C 
ATOM      3  C   UNL     1     104.521 107.694 102.981  1.00  0.00     0.003 C 
ATOM      4  C   UNL     1     104.957 108.322 104.334  1.00  0.00     0.005 C 
ATOM      5  C   UNL     1     106.211 107.496 104.712  1.00  0.00     0.015 C 
ATOM      6  C   UNL     1     106.327 106.496 103.538  1.00  0.00     0.032 C 
ATOM      7  C   UNL     1     106.736 107.338 102.355  1.00  0.00     0.139 C 
ATOM      8  O   UNL     1     107.857 107.407 101.875  1.00  0.00    -0.299 OA
ATOM      9  C   UNL     1     105.561 108.162 101.925  1.00  0.00     0.080 C 
ATOM     10  C   UNL     1     107.226 105.285 103.811  1.00  0.00     0.020 C 
ATOM     11  C   UNL     1     104.661 105.336 101.891  1.00  0.00     0.012 C 
ENDROOT
TORSDOF 0
ENDMDL
MODEL 4
REMARK VINA RESULT:    -4.325      1.549      2.478
REMARK INTER + INTRA:          -4.325
REMARK INTER:                  -4.325
REMARK INTRA:                   0.000
REMARK UNBOUND:                 0.000
REMARK SMILES CC1(C)[C@H]2CC[C@]1(C)C(=O)C2
REMARK SMILES IDX 1 1 2 2 4 3 5 4 6 5 7 6 9 7 10 8 11 9 8 10 3 11
REMARK H PARENT
REMARK Flexibility Score: inf
ROOT
ATOM      1  C   UNL     1     106.559 104.050 104.309  1.00  0.00     0.012 C 
ATOM      2  C   UNL     1     105.839 104.863 103.192  1.00  0.00    -0.020 C 
ATOM      3  C   UNL     1     104.342 104.503 103.022  1.00  0.00     0.003 C 
ATOM      4  C   UNL     1     103.730 104.944 104.381  1.00  0.00     0.005 C 
ATOM      5  C   UNL     1     104.542 106.215 104.733  1.00  0.00     0.015 C 
ATOM      6  C   UNL     1     105.520 106.333 103.541  1.00  0.00     0.032 C 
ATOM      7  C   UNL     1     104.653 106.717 102.367  1.00  0.00     0.139 C 
ATOM      8  O   UNL     1     104.559 107.832 101.878  1.00  0.00    -0.299 OA
ATOM      9  C   UNL     1     103.841 105.525 101.964  1.00  0.00     0.080 C 
ATOM     10  C   UNL     1     106.722 107.254 103.784  1.00  0.00     0.020 C 
ATOM     11  C   UNL     1     106.679 104.669 101.892  1.00  0.00     0.012 C 
ENDROOT
TORSDOF 0
ENDMDL
MODEL 5
REMARK VINA RESULT:    -4.226      1.272      2.673
REMARK INTER + INTRA:          -4.226
REMARK INTER:                  -4.226
REMARK INTRA:                   0.000
REMARK UNBOUND:                 0.000
REMARK SMILES CC1(C)[C@H]2CC[C@]1(C)C(=O)C2
REMARK SMILES IDX 1 1 2 2 4 3 5 4 6 5 7 6 9 7 10 8 11 9 8 10 3 11
REMARK H PARENT
REMARK Flexibility Score: inf
ROOT
ATOM      1  C   UNL     1     108.227 106.764 104.880  1.00  0.00     0.012 C 
ATOM      2  C   UNL     1     106.972 106.953 103.975  1.00  0.00    -0.020 C 
ATOM      3  C   UNL     1     107.274 107.650 102.625  1.00  0.00     0.003 C 
ATOM      4  C   UNL     1     108.205 106.629 101.915  1.00  0.00     0.005 C 
ATOM      5  C   UNL     1     107.631 105.263 102.365  1.00  0.00     0.015 C 
ATOM      6  C   UNL     1     106.455 105.674 103.282  1.00  0.00     0.032 C 
ATOM      7  C   UNL     1     105.425 106.260 102.348  1.00  0.00     0.139 C 
ATOM      8  O   UNL     1     104.404 105.709 101.966  1.00  0.00    -0.299 OA
ATOM      9  C   UNL     1     105.913 107.596 101.877  1.00  0.00     0.080 C 
ATOM     10  C   UNL     1     105.935 104.562 104.200  1.00  0.00     0.020 C 
ATOM     11  C   UNL     1     105.911 107.701 104.840  1.00  0.00     0.012 C 
ENDROOT
TORSDOF 0
ENDMDL
MODEL 6
REMARK VINA RESULT:    -4.213      1.596      3.306
REMARK INTER + INTRA:          -4.213
REMARK INTER:                  -4.213
REMARK INTRA:                   0.000
REMARK UNBOUND:                 0.000
REMARK SMILES CC1(C)[C@H]2CC[C@]1(C)C(=O)C2
REMARK SMILES IDX 1 1 2 2 4 3 5 4 6 5 7 6 9 7 10 8 11 9 8 10 3 11
REMARK H PARENT
REMARK Flexibility Score: inf
ROOT
ATOM      1  C   UNL     1     107.476 107.506 102.416  1.00  0.00     0.012 C 
ATOM      2  C   UNL     1     106.509 106.914 103.485  1.00  0.00    -0.020 C 
ATOM      3  C   UNL     1     105.709 107.985 104.265  1.00  0.00     0.003 C 
ATOM      4  C   UNL     1     104.831 108.630 103.157  1.00  0.00     0.005 C 
ATOM      5  C   UNL     1     104.494 107.430 102.238  1.00  0.00     0.015 C 
ATOM      6  C   UNL     1     105.227 106.256 102.929  1.00  0.00     0.032 C 
ATOM      7  C   UNL     1     104.459 106.020 104.206  1.00  0.00     0.139 C 
ATOM      8  O   UNL     1     103.666 105.113 104.410  1.00  0.00    -0.299 OA
ATOM      9  C   UNL     1     104.747 107.146 105.152  1.00  0.00     0.080 C 
ATOM     10  C   UNL     1     105.421 105.014 102.052  1.00  0.00     0.020 C 
ATOM     11  C   UNL     1     107.372 105.990 104.399  1.00  0.00     0.012 C 
ENDROOT
TORSDOF 0
ENDMDL
MODEL 7
REMARK VINA RESULT:    -4.195      1.867      3.178
REMARK INTER + INTRA:          -4.195
REMARK INTER:                  -4.195
REMARK INTRA:                   0.000
REMARK UNBOUND:                 0.000
REMARK SMILES CC1(C)[C@H]2CC[C@]1(C)C(=O)C2
REMARK SMILES IDX 1 1 2 2 4 3 5 4 6 5 7 6 9 7 10 8 11 9 8 10 3 11
REMARK H PARENT
REMARK Flexibility Score: inf
ROOT
ATOM      1  C   UNL     1     104.537 104.977 101.974  1.00  0.00     0.012 C 
ATOM      2  C   UNL     1     105.484 105.316 103.165  1.00  0.00    -0.020 C 
ATOM      3  C   UNL     1     106.222 104.085 103.747  1.00  0.00     0.003 C 
ATOM      4  C   UNL     1     107.117 103.632 102.560  1.00  0.00     0.005 C 
ATOM      5  C   UNL     1     107.526 104.973 101.901  1.00  0.00     0.015 C 
ATOM      6  C   UNL     1     106.805 106.019 102.784  1.00  0.00     0.032 C 
ATOM      7  C   UNL     1     107.534 105.976 104.104  1.00  0.00     0.139 C 
ATOM      8  O   UNL     1     108.347 106.796 104.503  1.00  0.00    -0.299 OA
ATOM      9  C   UNL     1     107.177 104.702 104.806  1.00  0.00     0.080 C 
ATOM     10  C   UNL     1     106.682 107.413 102.159  1.00  0.00     0.020 C 
ATOM     11  C   UNL     1     104.618 106.079 104.214  1.00  0.00     0.012 C 
ENDROOT
TORSDOF 0
ENDMDL
MODEL 8
REMARK VINA RESULT:    -4.190      1.680      3.035
REMARK INTER + INTRA:          -4.190
REMARK INTER:                  -4.190
REMARK INTRA:                   0.000
REMARK UNBOUND:                 0.000
REMARK SMILES CC1(C)[C@H]2CC[C@]1(C)C(=O)C2
REMARK SMILES IDX 1 1 2 2 4 3 5 4 6 5 7 6 9 7 10 8 11 9 8 10 3 11
REMARK H PARENT
REMARK Flexibility Score: inf
ROOT
ATOM      1  C   UNL     1     103.759 105.278 104.856  1.00  0.00     0.012 C 
ATOM      2  C   UNL     1     105.020 105.048 103.970  1.00  0.00    -0.020 C 
ATOM      3  C   UNL     1     104.711 104.405 102.596  1.00  0.00     0.003 C 
ATOM      4  C   UNL     1     103.848 105.492 101.897  1.00  0.00     0.005 C 
ATOM      5  C   UNL     1     104.484 106.814 102.396  1.00  0.00     0.015 C 
ATOM      6  C   UNL     1     105.618 106.316 103.323  1.00  0.00     0.032 C 
ATOM      7  C   UNL     1     106.634 105.703 102.393  1.00  0.00     0.139 C 
ATOM      8  O   UNL     1     107.690 106.210 102.046  1.00  0.00    -0.299 OA
ATOM      9  C   UNL     1     106.088 104.407 101.875  1.00  0.00     0.080 C 
ATOM     10  C   UNL     1     106.175 107.375 104.282  1.00  0.00     0.020 C 
ATOM     11  C   UNL     1     106.023 104.223 104.834  1.00  0.00     0.012 C 
ENDROOT
TORSDOF 0
ENDMDL
MODEL 9
REMARK VINA RESULT:    -1.373      1.586      3.319
REMARK INTER + INTRA:          -1.373
REMARK INTER:                  -1.373
REMARK INTRA:                   0.000
REMARK UNBOUND:                 0.000
REMARK SMILES CC1(C)[C@H]2CC[C@]1(C)C(=O)C2
REMARK SMILES IDX 1 1 2 2 4 3 5 4 6 5 7 6 9 7 10 8 11 9 8 10 3 11
REMARK H PARENT
REMARK Flexibility Score: inf
ROOT
ATOM      1  C   UNL     1     105.259 108.255 104.889  1.00  0.00     0.012 C 
ATOM      2  C   UNL     1     105.083 106.997 103.986  1.00  0.00    -0.020 C 
ATOM      3  C   UNL     1     104.434 107.299 102.613  1.00  0.00     0.003 C 
ATOM      4  C   UNL     1     105.490 108.212 101.931  1.00  0.00     0.005 C 
ATOM      5  C   UNL     1     106.833 107.624 102.428  1.00  0.00     0.015 C 
ATOM      6  C   UNL     1     106.377 106.459 103.338  1.00  0.00     0.032 C 
ATOM      7  C   UNL     1     105.809 105.431 102.392  1.00  0.00     0.139 C 
ATOM      8  O   UNL     1     106.359 104.401 102.034  1.00  0.00    -0.299 OA
ATOM      9  C   UNL     1     104.495 105.932 101.875  1.00  0.00     0.080 C 
ATOM     10  C   UNL     1     107.453 105.932 104.295  1.00  0.00     0.020 C 
ATOM     11  C   UNL     1     104.295 105.951 104.833  1.00  0.00     0.012 C 
ENDROOT
TORSDOF 0
ENDMDL
