MODEL 1
REMARK VINA RESULT:    -7.398      0.000      0.000
REMARK INTER + INTRA:         -14.181
REMARK INTER:                 -12.155
REMARK INTRA:                  -2.026
REMARK UNBOUND:                -2.026
REMARK SMILES COc1ccc([C@@H]2CC(=O)c3c(O)cc(O[C@@H]4O[C@@H](CO[C@H]5O[C@@H](C)[C@@H](O)[C@H](O)[C@H]5O)[C@H](O)[C@H](O)[C@H]4O)cc3O2)cc1O
REMARK SMILES IDX 19 1 32 2 34 3 36 4 17 5 18 6 20 7 21 8 22 9 25 10 24 11
REMARK SMILES IDX 26 12 23 13 28 14 30 15 27 16 29 18 31 20 33 22 35 24 16 26
REMARK SMILES IDX 15 27 14 28 38 29 12 30 39 31 11 32 40 33 9 34 7 35 10 36
REMARK SMILES IDX 8 37 13 38 6 40 41 41 5 42 42 43 4 44 3 45 43 46 2 48 1 49
REMARK SMILES IDX 37 50
REMARK H PARENT 27 17 29 19 31 21 33 23 35 25 13 39 43 47 37 51
REMARK Flexibility Score: inf
ROOT
ATOM      1  C   UNL     1      73.662  44.188   6.847  1.00  0.00     0.180 C 
ATOM      2  C   UNL     1      73.041  44.429   5.437  1.00  0.00     0.177 C 
ATOM      3  C   UNL     1      73.302  45.862   4.948  1.00  0.00     0.180 C 
ATOM      4  C   UNL     1      72.931  46.908   6.039  1.00  0.00     0.214 C 
ATOM      5  C   UNL     1      72.575  46.237   7.388  1.00  0.00     0.339 C 
ATOM      6  O   UNL     1      73.561  45.288   7.756  1.00  0.00    -0.332 OA
ENDROOT
BRANCH   1   7
ATOM      7  C   UNL     1      73.099  42.913   7.501  1.00  0.00     0.198 C 
BRANCH   7   8
ATOM      8  O   UNL     1      71.748  43.106   7.868  1.00  0.00    -0.347 OA
BRANCH   8   9
ATOM      9  C   UNL     1      70.883  42.202   7.211  1.00  0.00     0.281 C 
ATOM     10  C   UNL     1      69.939  38.754   8.008  1.00  0.00     0.041 C 
ATOM     11  C   UNL     1      69.734  40.184   7.506  1.00  0.00     0.150 C 
ATOM     12  C   UNL     1      68.375  40.805   7.948  1.00  0.00     0.174 C 
ATOM     13  O   UNL     1      70.805  40.989   7.956  1.00  0.00    -0.344 OA
ATOM     14  C   UNL     1      68.485  42.342   8.069  1.00  0.00     0.179 C 
ATOM     15  C   UNL     1      69.485  42.882   7.025  1.00  0.00     0.202 C 
BRANCH  12  16
ATOM     16  O   UNL     1      67.955  40.265   9.174  1.00  0.00    -0.388 OA
ATOM     17  H   UNL     1      68.773  39.994   9.667  1.00  0.00     0.211 HD
ENDBRANCH  12  16
BRANCH  14  18
ATOM     18  O   UNL     1      67.221  42.920   7.875  1.00  0.00    -0.387 OA
ATOM     19  H   UNL     1      67.184  43.211   6.928  1.00  0.00     0.211 HD
ENDBRANCH  14  18
BRANCH  15  20
ATOM     20  O   UNL     1      69.571  44.287   7.067  1.00  0.00    -0.385 OA
ATOM     21  H   UNL     1      69.760  44.612   6.147  1.00  0.00     0.211 HD
ENDBRANCH  15  20
ENDBRANCH   8   9
ENDBRANCH   7   8
ENDBRANCH   1   7
BRANCH   2  22
ATOM     22  O   UNL     1      73.500  43.485   4.500  1.00  0.00    -0.387 OA
ATOM     23  H   UNL     1      74.401  43.771   4.195  1.00  0.00     0.211 HD
ENDBRANCH   2  22
BRANCH   3  24
ATOM     24  O   UNL     1      74.656  46.007   4.598  1.00  0.00    -0.387 OA
ATOM     25  H   UNL     1      75.181  45.714   5.385  1.00  0.00     0.211 HD
ENDBRANCH   3  24
BRANCH   5  26
ATOM     26  O   UNL     1      72.402  47.219   8.416  1.00  0.00    -0.462 OA
BRANCH  26  27
ATOM     27  C   UNL     1      71.232  47.933   8.728  1.00  0.00     0.130 A 
ATOM     28  C   UNL     1      71.284  49.327   8.637  1.00  0.00     0.093 A 
ATOM     29  C   UNL     1      70.017  47.314   9.076  1.00  0.00     0.094 A 
ATOM     30  C   UNL     1      70.139  50.106   8.824  1.00  0.00     0.133 A 
ATOM     31  C   UNL     1      68.864  48.075   9.254  1.00  0.00     0.138 A 
ATOM     32  C   UNL     1      68.912  49.477   9.155  1.00  0.00     0.102 A 
ATOM     33  O   UNL     1      67.653  47.412   9.506  1.00  0.00    -0.484 OA
ATOM     34  C   UNL     1      67.636  50.206   9.369  1.00  0.00     0.174 C 
ATOM     35  C   UNL     1      66.438  48.087   9.851  1.00  0.00     0.211 C 
ATOM     36  O   UNL     1      67.613  51.406   9.750  1.00  0.00    -0.294 OA
ATOM     37  C   UNL     1      66.351  49.461   9.160  1.00  0.00     0.131 C 
BRANCH  30  38
ATOM     38  O   UNL     1      70.261  51.484   8.624  1.00  0.00    -0.507 OA
ATOM     39  H   UNL     1      70.362  51.913   7.717  1.00  0.00     0.293 HD
ENDBRANCH  30  38
BRANCH  35  40
ATOM     40  C   UNL     1      65.258  47.220   9.467  1.00  0.00    -0.003 A 
ATOM     41  C   UNL     1      65.439  46.092   8.646  1.00  0.00     0.057 A 
ATOM     42  C   UNL     1      63.965  47.529   9.925  1.00  0.00     0.011 A 
ATOM     43  C   UNL     1      64.349  45.279   8.297  1.00  0.00     0.158 A 
ATOM     44  C   UNL     1      62.877  46.721   9.572  1.00  0.00     0.051 A 
ATOM     45  C   UNL     1      63.063  45.587   8.758  1.00  0.00     0.160 A 
BRANCH  43  46
ATOM     46  O   UNL     1      64.543  44.150   7.500  1.00  0.00    -0.504 OA
ATOM     47  H   UNL     1      65.420  43.643   7.501  1.00  0.00     0.293 HD
ENDBRANCH  43  46
BRANCH  45  48
ATOM     48  O   UNL     1      62.006  44.739   8.393  1.00  0.00    -0.493 OA
ATOM     49  C   UNL     1      60.715  44.750   9.000  1.00  0.00     0.278 C 
ENDBRANCH  45  48
ENDBRANCH  35  40
ENDBRANCH  26  27
ENDBRANCH   5  26
BRANCH   4  50
ATOM     50  O   UNL     1      71.875  47.734   5.612  1.00  0.00    -0.384 OA
ATOM     51  H   UNL     1      71.961  48.603   6.093  1.00  0.00     0.211 HD
ENDBRANCH   4  50
TORSDOF 15
ENDMDL
MODEL 2
REMARK VINA RESULT:    -6.959      1.697      7.250
REMARK INTER + INTRA:         -13.460
REMARK INTER:                 -11.123
REMARK INTRA:                  -2.337
REMARK UNBOUND:                -2.026
REMARK SMILES COc1ccc([C@@H]2CC(=O)c3c(O)cc(O[C@@H]4O[C@@H](CO[C@H]5O[C@@H](C)[C@@H](O)[C@H](O)[C@H]5O)[C@H](O)[C@H](O)[C@H]4O)cc3O2)cc1O
REMARK SMILES IDX 19 1 32 2 34 3 36 4 17 5 18 6 20 7 21 8 22 9 25 10 24 11
REMARK SMILES IDX 26 12 23 13 28 14 30 15 27 16 29 18 31 20 33 22 35 24 16 26
REMARK SMILES IDX 15 27 14 28 38 29 12 30 39 31 11 32 40 33 9 34 7 35 10 36
REMARK SMILES IDX 8 37 13 38 6 40 41 41 5 42 42 43 4 44 3 45 43 46 2 48 1 49
REMARK SMILES IDX 37 50
REMARK H PARENT 27 17 29 19 31 21 33 23 35 25 13 39 43 47 37 51
REMARK Flexibility Score: inf
ROOT
ATOM      1  C   UNL     1      65.224  45.493   8.715  1.00  0.00     0.180 C 
ATOM      2  C   UNL     1      64.189  45.845   9.827  1.00  0.00     0.177 C 
ATOM      3  C   UNL     1      63.373  47.093   9.457  1.00  0.00     0.180 C 
ATOM      4  C   UNL     1      64.298  48.258   8.999  1.00  0.00     0.214 C 
ATOM      5  C   UNL     1      65.772  47.806   8.856  1.00  0.00     0.339 C 
ATOM      6  O   UNL     1      65.864  46.614   8.097  1.00  0.00    -0.332 OA
ENDROOT
BRANCH   1   7
ATOM      7  C   UNL     1      66.284  44.499   9.225  1.00  0.00     0.198 C 
BRANCH   7   8
ATOM      8  O   UNL     1      66.994  43.939   8.138  1.00  0.00    -0.347 OA
BRANCH   8   9
ATOM      9  C   UNL     1      68.107  43.179   8.564  1.00  0.00     0.281 C 
ATOM     10  C   UNL     1      68.399  39.657   9.526  1.00  0.00     0.041 C 
ATOM     11  C   UNL     1      68.837  40.980   8.895  1.00  0.00     0.150 C 
ATOM     12  C   UNL     1      69.536  40.804   7.514  1.00  0.00     0.174 C 
ATOM     13  O   UNL     1      67.711  41.825   8.766  1.00  0.00    -0.344 OA
ATOM     14  C   UNL     1      69.321  42.050   6.625  1.00  0.00     0.179 C 
ATOM     15  C   UNL     1      69.250  43.317   7.502  1.00  0.00     0.202 C 
BRANCH  12  16
ATOM     16  O   UNL     1      69.052  39.664   6.852  1.00  0.00    -0.388 OA
ATOM     17  H   UNL     1      69.408  39.694   5.925  1.00  0.00     0.211 HD
ENDBRANCH  12  16
BRANCH  14  18
ATOM     18  O   UNL     1      70.373  42.157   5.702  1.00  0.00    -0.387 OA
ATOM     19  H   UNL     1      71.155  42.502   6.202  1.00  0.00     0.211 HD
ENDBRANCH  14  18
BRANCH  15  20
ATOM     20  O   UNL     1      69.110  44.482   6.723  1.00  0.00    -0.385 OA
ATOM     21  H   UNL     1      68.436  44.300   6.015  1.00  0.00     0.211 HD
ENDBRANCH  15  20
ENDBRANCH   8   9
ENDBRANCH   7   8
ENDBRANCH   1   7
BRANCH   2  22
ATOM     22  O   UNL     1      63.345  44.757  10.114  1.00  0.00    -0.387 OA
ATOM     23  H   UNL     1      63.141  44.776  11.086  1.00  0.00     0.211 HD
ENDBRANCH   2  22
BRANCH   3  24
ATOM     24  O   UNL     1      62.465  46.780   8.430  1.00  0.00    -0.387 OA
ATOM     25  H   UNL     1      61.749  46.237   8.847  1.00  0.00     0.211 HD
ENDBRANCH   3  24
BRANCH   5  26
ATOM     26  O   UNL     1      66.569  48.845   8.275  1.00  0.00    -0.462 OA
BRANCH  26  27
ATOM     27  C   UNL     1      67.969  48.879   8.149  1.00  0.00     0.130 A 
ATOM     28  C   UNL     1      68.639  49.972   8.704  1.00  0.00     0.093 A 
ATOM     29  C   UNL     1      68.716  47.854   7.540  1.00  0.00     0.094 A 
ATOM     30  C   UNL     1      70.035  50.032   8.719  1.00  0.00     0.133 A 
ATOM     31  C   UNL     1      70.109  47.892   7.557  1.00  0.00     0.138 A 
ATOM     32  C   UNL     1      70.786  48.987   8.122  1.00  0.00     0.102 A 
ATOM     33  O   UNL     1      70.817  46.804   7.023  1.00  0.00    -0.484 OA
ATOM     34  C   UNL     1      72.269  48.946   8.086  1.00  0.00     0.174 C 
ATOM     35  C   UNL     1      72.239  46.794   6.850  1.00  0.00     0.211 C 
ATOM     36  O   UNL     1      72.963  49.995   8.128  1.00  0.00    -0.294 OA
ATOM     37  C   UNL     1      72.938  47.609   7.955  1.00  0.00     0.131 C 
BRANCH  30  38
ATOM     38  O   UNL     1      70.624  51.115   9.376  1.00  0.00    -0.507 OA
ATOM     39  H   UNL     1      71.130  51.851   8.907  1.00  0.00     0.293 HD
ENDBRANCH  30  38
BRANCH  35  40
ATOM     40  C   UNL     1      72.732  45.363   6.849  1.00  0.00    -0.003 A 
ATOM     41  C   UNL     1      73.097  44.736   5.644  1.00  0.00     0.057 A 
ATOM     42  C   UNL     1      72.832  44.641   8.051  1.00  0.00     0.011 A 
ATOM     43  C   UNL     1      73.566  43.412   5.640  1.00  0.00     0.158 A 
ATOM     44  C   UNL     1      73.294  43.319   8.046  1.00  0.00     0.051 A 
ATOM     45  C   UNL     1      73.667  42.696   6.839  1.00  0.00     0.160 A 
BRANCH  43  46
ATOM     46  O   UNL     1      73.945  42.806   4.441  1.00  0.00    -0.504 OA
ATOM     47  H   UNL     1      74.709  42.141   4.401  1.00  0.00     0.293 HD
ENDBRANCH  43  46
BRANCH  45  48
ATOM     48  O   UNL     1      74.153  41.380   6.787  1.00  0.00    -0.493 OA
ATOM     49  C   UNL     1      73.514  40.259   7.395  1.00  0.00     0.278 C 
ENDBRANCH  45  48
ENDBRANCH  35  40
ENDBRANCH  26  27
ENDBRANCH   5  26
BRANCH   4  50
ATOM     50  O   UNL     1      64.206  49.354   9.876  1.00  0.00    -0.384 OA
ATOM     51  H   UNL     1      65.012  49.336  10.463  1.00  0.00     0.211 HD
ENDBRANCH   4  50
TORSDOF 15
ENDMDL
MODEL 3
REMARK VINA RESULT:    -6.946      1.169      1.841
REMARK INTER + INTRA:         -13.439
REMARK INTER:                 -11.920
REMARK INTRA:                  -1.518
REMARK UNBOUND:                -2.026
REMARK SMILES COc1ccc([C@@H]2CC(=O)c3c(O)cc(O[C@@H]4O[C@@H](CO[C@H]5O[C@@H](C)[C@@H](O)[C@H](O)[C@H]5O)[C@H](O)[C@H](O)[C@H]4O)cc3O2)cc1O
REMARK SMILES IDX 19 1 32 2 34 3 36 4 17 5 18 6 20 7 21 8 22 9 25 10 24 11
REMARK SMILES IDX 26 12 23 13 28 14 30 15 27 16 29 18 31 20 33 22 35 24 16 26
REMARK SMILES IDX 15 27 14 28 38 29 12 30 39 31 11 32 40 33 9 34 7 35 10 36
REMARK SMILES IDX 8 37 13 38 6 40 41 41 5 42 42 43 4 44 3 45 43 46 2 48 1 49
REMARK SMILES IDX 37 50
REMARK H PARENT 27 17 29 19 31 21 33 23 35 25 13 39 43 47 37 51
REMARK Flexibility Score: inf
ROOT
ATOM      1  C   UNL     1      73.979  45.665   5.828  1.00  0.00     0.180 C 
ATOM      2  C   UNL     1      73.074  45.999   4.602  1.00  0.00     0.177 C 
ATOM      3  C   UNL     1      72.785  47.506   4.515  1.00  0.00     0.180 C 
ATOM      4  C   UNL     1      72.306  48.070   5.884  1.00  0.00     0.214 C 
ATOM      5  C   UNL     1      72.422  47.020   7.016  1.00  0.00     0.339 C 
ATOM      6  O   UNL     1      73.703  46.414   7.015  1.00  0.00    -0.332 OA
ENDROOT
BRANCH   1   7
ATOM      7  C   UNL     1      73.967  44.158   6.145  1.00  0.00     0.198 C 
BRANCH   7   8
ATOM      8  O   UNL     1      72.703  43.603   5.839  1.00  0.00    -0.347 OA
BRANCH   8   9
ATOM      9  C   UNL     1      72.134  42.931   6.945  1.00  0.00     0.281 C 
ATOM     10  C   UNL     1      69.704  44.037   9.452  1.00  0.00     0.041 C 
ATOM     11  C   UNL     1      70.386  43.057   8.495  1.00  0.00     0.150 C 
ATOM     12  C   UNL     1      69.383  42.150   7.722  1.00  0.00     0.174 C 
ATOM     13  O   UNL     1      71.187  43.783   7.585  1.00  0.00    -0.344 OA
ATOM     14  C   UNL     1      69.963  41.732   6.351  1.00  0.00     0.179 C 
ATOM     15  C   UNL     1      71.496  41.590   6.449  1.00  0.00     0.202 C 
BRANCH  12  16
ATOM     16  O   UNL     1      68.158  42.809   7.534  1.00  0.00    -0.388 OA
ATOM     17  H   UNL     1      67.462  42.106   7.438  1.00  0.00     0.211 HD
ENDBRANCH  12  16
BRANCH  14  18
ATOM     18  O   UNL     1      69.387  40.518   5.948  1.00  0.00    -0.387 OA
ATOM     19  H   UNL     1      68.588  40.379   6.517  1.00  0.00     0.211 HD
ENDBRANCH  14  18
BRANCH  15  20
ATOM     20  O   UNL     1      72.056  41.156   5.232  1.00  0.00    -0.385 OA
ATOM     21  H   UNL     1      72.994  40.877   5.406  1.00  0.00     0.211 HD
ENDBRANCH  15  20
ENDBRANCH   8   9
ENDBRANCH   7   8
ENDBRANCH   1   7
BRANCH   2  22
ATOM     22  O   UNL     1      73.631  45.521   3.402  1.00  0.00    -0.387 OA
ATOM     23  H   UNL     1      73.707  44.533   3.472  1.00  0.00     0.211 HD
ENDBRANCH   2  22
BRANCH   3  24
ATOM     24  O   UNL     1      73.942  48.189   4.102  1.00  0.00    -0.387 OA
ATOM     25  H   UNL     1      74.491  48.327   4.915  1.00  0.00     0.211 HD
ENDBRANCH   3  24
BRANCH   5  26
ATOM     26  O   UNL     1      72.136  47.611   8.289  1.00  0.00    -0.462 OA
BRANCH  26  27
ATOM     27  C   UNL     1      70.947  48.243   8.691  1.00  0.00     0.130 A 
ATOM     28  C   UNL     1      70.938  49.640   8.722  1.00  0.00     0.093 A 
ATOM     29  C   UNL     1      69.769  47.543   9.012  1.00  0.00     0.094 A 
ATOM     30  C   UNL     1      69.768  50.350   9.004  1.00  0.00     0.133 A 
ATOM     31  C   UNL     1      68.590  48.235   9.284  1.00  0.00     0.138 A 
ATOM     32  C   UNL     1      68.577  49.640   9.307  1.00  0.00     0.102 A 
ATOM     33  O   UNL     1      67.415  47.500   9.506  1.00  0.00    -0.484 OA
ATOM     34  C   UNL     1      67.279  50.292   9.615  1.00  0.00     0.174 C 
ATOM     35  C   UNL     1      66.183  48.089   9.938  1.00  0.00     0.211 C 
ATOM     36  O   UNL     1      67.217  51.452  10.101  1.00  0.00    -0.294 OA
ATOM     37  C   UNL     1      66.021  49.512   9.373  1.00  0.00     0.131 C 
BRANCH  30  38
ATOM     38  O   UNL     1      69.827  51.743   8.922  1.00  0.00    -0.507 OA
ATOM     39  H   UNL     1      70.514  52.246   8.381  1.00  0.00     0.293 HD
ENDBRANCH  30  38
BRANCH  35  40
ATOM     40  C   UNL     1      65.030  47.207   9.508  1.00  0.00    -0.003 A 
ATOM     41  C   UNL     1      65.254  46.096   8.676  1.00  0.00     0.057 A 
ATOM     42  C   UNL     1      63.720  47.487   9.933  1.00  0.00     0.011 A 
ATOM     43  C   UNL     1      64.189  45.269   8.284  1.00  0.00     0.158 A 
ATOM     44  C   UNL     1      62.657  46.666   9.538  1.00  0.00     0.051 A 
ATOM     45  C   UNL     1      62.885  45.548   8.713  1.00  0.00     0.160 A 
BRANCH  43  46
ATOM     46  O   UNL     1      64.424  44.156   7.476  1.00  0.00    -0.504 OA
ATOM     47  H   UNL     1      64.461  44.232   6.465  1.00  0.00     0.293 HD
ENDBRANCH  43  46
BRANCH  45  48
ATOM     48  O   UNL     1      61.854  44.687   8.306  1.00  0.00    -0.493 OA
ATOM     49  C   UNL     1      60.597  44.562   8.969  1.00  0.00     0.278 C 
ENDBRANCH  45  48
ENDBRANCH  35  40
ENDBRANCH  26  27
ENDBRANCH   5  26
BRANCH   4  50
ATOM     50  O   UNL     1      70.987  48.553   5.800  1.00  0.00    -0.384 OA
ATOM     51  H   UNL     1      70.698  48.795   6.723  1.00  0.00     0.211 HD
ENDBRANCH   4  50
TORSDOF 15
ENDMDL
MODEL 4
REMARK VINA RESULT:    -6.696      1.502      2.567
REMARK INTER + INTRA:         -13.028
REMARK INTER:                 -11.015
REMARK INTRA:                  -2.014
REMARK UNBOUND:                -2.026
REMARK SMILES COc1ccc([C@@H]2CC(=O)c3c(O)cc(O[C@@H]4O[C@@H](CO[C@H]5O[C@@H](C)[C@@H](O)[C@H](O)[C@H]5O)[C@H](O)[C@H](O)[C@H]4O)cc3O2)cc1O
REMARK SMILES IDX 19 1 32 2 34 3 36 4 17 5 18 6 20 7 21 8 22 9 25 10 24 11
REMARK SMILES IDX 26 12 23 13 28 14 30 15 27 16 29 18 31 20 33 22 35 24 16 26
REMARK SMILES IDX 15 27 14 28 38 29 12 30 39 31 11 32 40 33 9 34 7 35 10 36
REMARK SMILES IDX 8 37 13 38 6 40 41 41 5 42 42 43 4 44 3 45 43 46 2 48 1 49
REMARK SMILES IDX 37 50
REMARK H PARENT 27 17 29 19 31 21 33 23 35 25 13 39 43 47 37 51
REMARK Flexibility Score: inf
ROOT
ATOM      1  C   UNL     1      73.262  42.578   7.835  1.00  0.00     0.180 C 
ATOM      2  C   UNL     1      72.784  41.846   6.544  1.00  0.00     0.177 C 
ATOM      3  C   UNL     1      73.417  42.461   5.286  1.00  0.00     0.180 C 
ATOM      4  C   UNL     1      73.272  44.010   5.278  1.00  0.00     0.214 C 
ATOM      5  C   UNL     1      72.700  44.544   6.614  1.00  0.00     0.339 C 
ATOM      6  O   UNL     1      73.399  43.998   7.719  1.00  0.00    -0.332 OA
ENDROOT
BRANCH   1   7
ATOM      7  C   UNL     1      72.369  42.235   9.042  1.00  0.00     0.198 C 
BRANCH   7   8
ATOM      8  O   UNL     1      72.063  40.855   9.049  1.00  0.00    -0.347 OA
BRANCH   8   9
ATOM      9  C   UNL     1      70.706  40.612   9.362  1.00  0.00     0.281 C 
ATOM     10  C   UNL     1      67.620  42.024   7.985  1.00  0.00     0.041 C 
ATOM     11  C   UNL     1      68.529  40.941   8.569  1.00  0.00     0.150 C 
ATOM     12  C   UNL     1      68.375  39.560   7.864  1.00  0.00     0.174 C 
ATOM     13  O   UNL     1      69.872  41.377   8.496  1.00  0.00    -0.344 OA
ATOM     14  C   UNL     1      69.692  38.753   7.941  1.00  0.00     0.179 C 
ATOM     15  C   UNL     1      70.430  39.074   9.257  1.00  0.00     0.202 C 
BRANCH  12  16
ATOM     16  O   UNL     1      68.002  39.724   6.521  1.00  0.00    -0.388 OA
ATOM     17  H   UNL     1      67.447  38.937   6.275  1.00  0.00     0.211 HD
ENDBRANCH  12  16
BRANCH  14  18
ATOM     18  O   UNL     1      69.407  37.380   7.867  1.00  0.00    -0.387 OA
ATOM     19  H   UNL     1      70.013  36.929   8.508  1.00  0.00     0.211 HD
ENDBRANCH  14  18
BRANCH  15  20
ATOM     20  O   UNL     1      71.609  38.315   9.389  1.00  0.00    -0.385 OA
ATOM     21  H   UNL     1      71.852  38.289  10.353  1.00  0.00     0.211 HD
ENDBRANCH  15  20
ENDBRANCH   8   9
ENDBRANCH   7   8
ENDBRANCH   1   7
BRANCH   2  22
ATOM     22  O   UNL     1      73.032  40.463   6.610  1.00  0.00    -0.387 OA
ATOM     23  H   UNL     1      73.824  40.268   6.043  1.00  0.00     0.211 HD
ENDBRANCH   2  22
BRANCH   3  24
ATOM     24  O   UNL     1      74.777  42.114   5.220  1.00  0.00    -0.387 OA
ATOM     25  H   UNL     1      74.856  41.212   5.622  1.00  0.00     0.211 HD
ENDBRANCH   3  24
BRANCH   5  26
ATOM     26  O   UNL     1      72.733  45.976   6.646  1.00  0.00    -0.462 OA
BRANCH  26  27
ATOM     27  C   UNL     1      71.779  46.841   7.208  1.00  0.00     0.130 A 
ATOM     28  C   UNL     1      72.060  48.210   7.192  1.00  0.00     0.093 A 
ATOM     29  C   UNL     1      70.550  46.400   7.736  1.00  0.00     0.094 A 
ATOM     30  C   UNL     1      71.121  49.147   7.631  1.00  0.00     0.133 A 
ATOM     31  C   UNL     1      69.598  47.322   8.167  1.00  0.00     0.138 A 
ATOM     32  C   UNL     1      69.876  48.699   8.144  1.00  0.00     0.102 A 
ATOM     33  O   UNL     1      68.350  46.846   8.597  1.00  0.00    -0.484 OA
ATOM     34  C   UNL     1      68.805  49.606   8.630  1.00  0.00     0.174 C 
ATOM     35  C   UNL     1      67.350  47.677   9.198  1.00  0.00     0.211 C 
ATOM     36  O   UNL     1      69.060  50.754   9.079  1.00  0.00    -0.294 OA
ATOM     37  C   UNL     1      67.392  49.103   8.617  1.00  0.00     0.131 C 
BRANCH  30  38
ATOM     38  O   UNL     1      71.448  50.498   7.493  1.00  0.00    -0.507 OA
ATOM     39  H   UNL     1      71.724  50.923   6.621  1.00  0.00     0.293 HD
ENDBRANCH  30  38
BRANCH  35  40
ATOM     40  C   UNL     1      65.987  47.053   8.986  1.00  0.00    -0.003 A 
ATOM     41  C   UNL     1      65.864  45.818   8.324  1.00  0.00     0.057 A 
ATOM     42  C   UNL     1      64.827  47.698   9.448  1.00  0.00     0.011 A 
ATOM     43  C   UNL     1      64.602  45.230   8.136  1.00  0.00     0.158 A 
ATOM     44  C   UNL     1      63.568  47.114   9.255  1.00  0.00     0.051 A 
ATOM     45  C   UNL     1      63.448  45.873   8.600  1.00  0.00     0.160 A 
BRANCH  43  46
ATOM     46  O   UNL     1      64.492  43.994   7.497  1.00  0.00    -0.504 OA
ATOM     47  H   UNL     1      63.759  43.337   7.735  1.00  0.00     0.293 HD
ENDBRANCH  43  46
BRANCH  45  48
ATOM     48  O   UNL     1      62.211  45.242   8.401  1.00  0.00    -0.493 OA
ATOM     49  C   UNL     1      61.179  45.158   9.382  1.00  0.00     0.278 C 
ENDBRANCH  45  48
ENDBRANCH  35  40
ENDBRANCH  26  27
ENDBRANCH   5  26
BRANCH   4  50
ATOM     50  O   UNL     1      72.476  44.440   4.201  1.00  0.00    -0.384 OA
ATOM     51  H   UNL     1      71.702  44.941   4.580  1.00  0.00     0.211 HD
ENDBRANCH   4  50
TORSDOF 15
ENDMDL
MODEL 5
REMARK VINA RESULT:    -6.669      2.250      4.127
REMARK INTER + INTRA:         -12.984
REMARK INTER:                 -10.705
REMARK INTRA:                  -2.279
REMARK UNBOUND:                -2.026
REMARK SMILES COc1ccc([C@@H]2CC(=O)c3c(O)cc(O[C@@H]4O[C@@H](CO[C@H]5O[C@@H](C)[C@@H](O)[C@H](O)[C@H]5O)[C@H](O)[C@H](O)[C@H]4O)cc3O2)cc1O
REMARK SMILES IDX 19 1 32 2 34 3 36 4 17 5 18 6 20 7 21 8 22 9 25 10 24 11
REMARK SMILES IDX 26 12 23 13 28 14 30 15 27 16 29 18 31 20 33 22 35 24 16 26
REMARK SMILES IDX 15 27 14 28 38 29 12 30 39 31 11 32 40 33 9 34 7 35 10 36
REMARK SMILES IDX 8 37 13 38 6 40 41 41 5 42 42 43 4 44 3 45 43 46 2 48 1 49
REMARK SMILES IDX 37 50
REMARK H PARENT 27 17 29 19 31 21 33 23 35 25 13 39 43 47 37 51
REMARK Flexibility Score: inf
ROOT
ATOM      1  C   UNL     1      73.880  40.394   7.804  1.00  0.00     0.180 C 
ATOM      2  C   UNL     1      73.102  40.073   6.491  1.00  0.00     0.177 C 
ATOM      3  C   UNL     1      73.847  40.602   5.256  1.00  0.00     0.180 C 
ATOM      4  C   UNL     1      74.273  42.086   5.444  1.00  0.00     0.214 C 
ATOM      5  C   UNL     1      74.005  42.587   6.884  1.00  0.00     0.339 C 
ATOM      6  O   UNL     1      74.516  41.675   7.840  1.00  0.00    -0.332 OA
ENDROOT
BRANCH   1   7
ATOM      7  C   UNL     1      72.989  40.215   9.047  1.00  0.00     0.198 C 
BRANCH   7   8
ATOM      8  O   UNL     1      72.110  39.123   8.867  1.00  0.00    -0.347 OA
BRANCH   8   9
ATOM      9  C   UNL     1      70.837  39.365   9.430  1.00  0.00     0.281 C 
ATOM     10  C   UNL     1      69.055  42.491  10.116  1.00  0.00     0.041 C 
ATOM     11  C   UNL     1      69.212  41.026   9.701  1.00  0.00     0.150 C 
ATOM     12  C   UNL     1      68.339  40.637   8.471  1.00  0.00     0.174 C 
ATOM     13  O   UNL     1      70.575  40.766   9.432  1.00  0.00    -0.344 OA
ATOM     14  C   UNL     1      68.995  39.489   7.670  1.00  0.00     0.179 C 
ATOM     15  C   UNL     1      69.765  38.554   8.626  1.00  0.00     0.202 C 
BRANCH  12  16
ATOM     16  O   UNL     1      68.141  41.744   7.629  1.00  0.00    -0.388 OA
ATOM     17  H   UNL     1      68.909  42.357   7.771  1.00  0.00     0.211 HD
ENDBRANCH  12  16
BRANCH  14  18
ATOM     18  O   UNL     1      68.006  38.771   6.981  1.00  0.00    -0.387 OA
ATOM     19  H   UNL     1      67.318  39.429   6.705  1.00  0.00     0.211 HD
ENDBRANCH  14  18
BRANCH  15  20
ATOM     20  O   UNL     1      70.332  37.463   7.941  1.00  0.00    -0.385 OA
ATOM     21  H   UNL     1      69.852  36.639   8.221  1.00  0.00     0.211 HD
ENDBRANCH  15  20
ENDBRANCH   8   9
ENDBRANCH   7   8
ENDBRANCH   1   7
BRANCH   2  22
ATOM     22  O   UNL     1      72.835  38.697   6.370  1.00  0.00    -0.387 OA
ATOM     23  H   UNL     1      73.577  38.203   6.808  1.00  0.00     0.211 HD
ENDBRANCH   2  22
BRANCH   3  24
ATOM     24  O   UNL     1      74.984  39.812   5.012  1.00  0.00    -0.387 OA
ATOM     25  H   UNL     1      75.170  39.882   4.041  1.00  0.00     0.211 HD
ENDBRANCH   3  24
BRANCH   5  26
ATOM     26  O   UNL     1      74.557  43.895   7.079  1.00  0.00    -0.462 OA
BRANCH  26  27
ATOM     27  C   UNL     1      73.907  45.028   7.598  1.00  0.00     0.130 A 
ATOM     28  C   UNL     1      74.631  46.222   7.645  1.00  0.00     0.093 A 
ATOM     29  C   UNL     1      72.565  45.024   8.022  1.00  0.00     0.094 A 
ATOM     30  C   UNL     1      74.029  47.419   8.044  1.00  0.00     0.133 A 
ATOM     31  C   UNL     1      71.946  46.211   8.412  1.00  0.00     0.138 A 
ATOM     32  C   UNL     1      72.670  47.414   8.451  1.00  0.00     0.102 A 
ATOM     33  O   UNL     1      70.581  46.181   8.736  1.00  0.00    -0.484 OA
ATOM     34  C   UNL     1      71.932  48.626   8.888  1.00  0.00     0.174 C 
ATOM     35  C   UNL     1      69.874  47.297   9.289  1.00  0.00     0.211 C 
ATOM     36  O   UNL     1      72.521  49.619   9.389  1.00  0.00    -0.294 OA
ATOM     37  C   UNL     1      70.437  48.628   8.757  1.00  0.00     0.131 C 
BRANCH  30  38
ATOM     38  O   UNL     1      74.801  48.581   7.971  1.00  0.00    -0.507 OA
ATOM     39  H   UNL     1      75.409  48.899   8.711  1.00  0.00     0.293 HD
ENDBRANCH  30  38
BRANCH  35  40
ATOM     40  C   UNL     1      68.402  47.169   8.961  1.00  0.00    -0.003 A 
ATOM     41  C   UNL     1      67.841  47.904   7.901  1.00  0.00     0.057 A 
ATOM     42  C   UNL     1      67.575  46.315   9.711  1.00  0.00     0.011 A 
ATOM     43  C   UNL     1      66.478  47.779   7.586  1.00  0.00     0.158 A 
ATOM     44  C   UNL     1      66.215  46.195   9.401  1.00  0.00     0.051 A 
ATOM     45  C   UNL     1      65.658  46.925   8.333  1.00  0.00     0.160 A 
BRANCH  43  46
ATOM     46  O   UNL     1      65.936  48.497   6.519  1.00  0.00    -0.504 OA
ATOM     47  H   UNL     1      66.525  48.966   5.840  1.00  0.00     0.293 HD
ENDBRANCH  43  46
BRANCH  45  48
ATOM     48  O   UNL     1      64.304  46.823   7.974  1.00  0.00    -0.493 OA
ATOM     49  C   UNL     1      63.668  45.617   7.556  1.00  0.00     0.278 C 
ENDBRANCH  45  48
ENDBRANCH  35  40
ENDBRANCH  26  27
ENDBRANCH   5  26
BRANCH   4  50
ATOM     50  O   UNL     1      73.631  42.921   4.511  1.00  0.00    -0.384 OA
ATOM     51  H   UNL     1      73.543  42.408   3.661  1.00  0.00     0.211 HD
ENDBRANCH   4  50
TORSDOF 15
ENDMDL
MODEL 6
REMARK VINA RESULT:    -6.601      1.408      2.070
REMARK INTER + INTRA:         -12.871
REMARK INTER:                 -11.250
REMARK INTRA:                  -1.621
REMARK UNBOUND:                -2.026
REMARK SMILES COc1ccc([C@@H]2CC(=O)c3c(O)cc(O[C@@H]4O[C@@H](CO[C@H]5O[C@@H](C)[C@@H](O)[C@H](O)[C@H]5O)[C@H](O)[C@H](O)[C@H]4O)cc3O2)cc1O
REMARK SMILES IDX 19 1 32 2 34 3 36 4 17 5 18 6 20 7 21 8 22 9 25 10 24 11
REMARK SMILES IDX 26 12 23 13 28 14 30 15 27 16 29 18 31 20 33 22 35 24 16 26
REMARK SMILES IDX 15 27 14 28 38 29 12 30 39 31 11 32 40 33 9 34 7 35 10 36
REMARK SMILES IDX 8 37 13 38 6 40 41 41 5 42 42 43 4 44 3 45 43 46 2 48 1 49
REMARK SMILES IDX 37 50
REMARK H PARENT 27 17 29 19 31 21 33 23 35 25 13 39 43 47 37 51
REMARK Flexibility Score: inf
ROOT
ATOM      1  C   UNL     1      73.484  44.047   6.889  1.00  0.00     0.180 C 
ATOM      2  C   UNL     1      73.002  44.412   5.451  1.00  0.00     0.177 C 
ATOM      3  C   UNL     1      73.388  45.852   5.081  1.00  0.00     0.180 C 
ATOM      4  C   UNL     1      72.987  46.852   6.203  1.00  0.00     0.214 C 
ATOM      5  C   UNL     1      72.477  46.125   7.471  1.00  0.00     0.339 C 
ATOM      6  O   UNL     1      73.370  45.095   7.857  1.00  0.00    -0.332 OA
ENDROOT
BRANCH   1   7
ATOM      7  C   UNL     1      72.793  42.774   7.411  1.00  0.00     0.198 C 
BRANCH   7   8
ATOM      8  O   UNL     1      71.626  42.507   6.658  1.00  0.00    -0.347 OA
BRANCH   8   9
ATOM      9  C   UNL     1      71.594  41.178   6.178  1.00  0.00     0.281 C 
ATOM     10  C   UNL     1      74.294  38.849   5.340  1.00  0.00     0.041 C 
ATOM     11  C   UNL     1      72.929  39.279   5.881  1.00  0.00     0.150 C 
ATOM     12  C   UNL     1      72.537  38.564   7.209  1.00  0.00     0.174 C 
ATOM     13  O   UNL     1      72.925  40.680   6.063  1.00  0.00    -0.344 OA
ATOM     14  C   UNL     1      71.606  39.457   8.060  1.00  0.00     0.179 C 
ATOM     15  C   UNL     1      70.711  40.313   7.140  1.00  0.00     0.202 C 
BRANCH  12  16
ATOM     16  O   UNL     1      73.681  38.233   7.953  1.00  0.00    -0.388 OA
ATOM     17  H   UNL     1      74.466  38.558   7.438  1.00  0.00     0.211 HD
ENDBRANCH  12  16
BRANCH  14  18
ATOM     18  O   UNL     1      70.814  38.650   8.893  1.00  0.00    -0.387 OA
ATOM     19  H   UNL     1      71.331  38.510   9.727  1.00  0.00     0.211 HD
ENDBRANCH  14  18
BRANCH  15  20
ATOM     20  O   UNL     1      69.808  41.100   7.880  1.00  0.00    -0.385 OA
ATOM     21  H   UNL     1      70.317  41.849   8.291  1.00  0.00     0.211 HD
ENDBRANCH  15  20
ENDBRANCH   8   9
ENDBRANCH   7   8
ENDBRANCH   1   7
BRANCH   2  22
ATOM     22  O   UNL     1      73.484  43.498   4.496  1.00  0.00    -0.387 OA
ATOM     23  H   UNL     1      74.465  43.632   4.413  1.00  0.00     0.211 HD
ENDBRANCH   2  22
BRANCH   3  24
ATOM     24  O   UNL     1      74.773  45.930   4.853  1.00  0.00    -0.387 OA
ATOM     25  H   UNL     1      74.894  45.967   3.871  1.00  0.00     0.211 HD
ENDBRANCH   3  24
BRANCH   5  26
ATOM     26  O   UNL     1      72.274  47.054   8.544  1.00  0.00    -0.462 OA
BRANCH  26  27
ATOM     27  C   UNL     1      71.106  47.781   8.835  1.00  0.00     0.130 A 
ATOM     28  C   UNL     1      71.170  49.172   8.728  1.00  0.00     0.093 A 
ATOM     29  C   UNL     1      69.884  47.175   9.180  1.00  0.00     0.094 A 
ATOM     30  C   UNL     1      70.030  49.963   8.894  1.00  0.00     0.133 A 
ATOM     31  C   UNL     1      68.735  47.948   9.337  1.00  0.00     0.138 A 
ATOM     32  C   UNL     1      68.794  49.347   9.221  1.00  0.00     0.102 A 
ATOM     33  O   UNL     1      67.516  47.297   9.586  1.00  0.00    -0.484 OA
ATOM     34  C   UNL     1      67.523  50.089   9.414  1.00  0.00     0.174 C 
ATOM     35  C   UNL     1      66.303  47.985   9.911  1.00  0.00     0.211 C 
ATOM     36  O   UNL     1      67.506  51.294   9.780  1.00  0.00    -0.294 OA
ATOM     37  C   UNL     1      66.234  49.351   9.202  1.00  0.00     0.131 C 
BRANCH  30  38
ATOM     38  O   UNL     1      70.165  51.337   8.678  1.00  0.00    -0.507 OA
ATOM     39  H   UNL     1      69.508  52.026   9.011  1.00  0.00     0.293 HD
ENDBRANCH  30  38
BRANCH  35  40
ATOM     40  C   UNL     1      65.120  47.123   9.526  1.00  0.00    -0.003 A 
ATOM     41  C   UNL     1      65.286  46.035   8.650  1.00  0.00     0.057 A 
ATOM     42  C   UNL     1      63.840  47.396  10.039  1.00  0.00     0.011 A 
ATOM     43  C   UNL     1      64.193  45.225   8.300  1.00  0.00     0.158 A 
ATOM     44  C   UNL     1      62.749  46.593   9.686  1.00  0.00     0.051 A 
ATOM     45  C   UNL     1      62.920  45.498   8.816  1.00  0.00     0.160 A 
BRANCH  43  46
ATOM     46  O   UNL     1      64.372  44.136   7.447  1.00  0.00    -0.504 OA
ATOM     47  H   UNL     1      63.814  44.021   6.608  1.00  0.00     0.293 HD
ENDBRANCH  43  46
BRANCH  45  48
ATOM     48  O   UNL     1      61.860  44.655   8.448  1.00  0.00    -0.493 OA
ATOM     49  C   UNL     1      60.553  44.705   9.015  1.00  0.00     0.278 C 
ENDBRANCH  45  48
ENDBRANCH  35  40
ENDBRANCH  26  27
ENDBRANCH   5  26
BRANCH   4  50
ATOM     50  O   UNL     1      72.022  47.768   5.746  1.00  0.00    -0.384 OA
ATOM     51  H   UNL     1      71.743  48.324   6.524  1.00  0.00     0.211 HD
ENDBRANCH   4  50
TORSDOF 15
ENDMDL
MODEL 7
REMARK VINA RESULT:    -6.350      1.611      4.696
REMARK INTER + INTRA:         -12.460
REMARK INTER:                 -11.169
REMARK INTRA:                  -1.291
REMARK UNBOUND:                -2.026
REMARK SMILES COc1ccc([C@@H]2CC(=O)c3c(O)cc(O[C@@H]4O[C@@H](CO[C@H]5O[C@@H](C)[C@@H](O)[C@H](O)[C@H]5O)[C@H](O)[C@H](O)[C@H]4O)cc3O2)cc1O
REMARK SMILES IDX 19 1 32 2 34 3 36 4 17 5 18 6 20 7 21 8 22 9 25 10 24 11
REMARK SMILES IDX 26 12 23 13 28 14 30 15 27 16 29 18 31 20 33 22 35 24 16 26
REMARK SMILES IDX 15 27 14 28 38 29 12 30 39 31 11 32 40 33 9 34 7 35 10 36
REMARK SMILES IDX 8 37 13 38 6 40 41 41 5 42 42 43 4 44 3 45 43 46 2 48 1 49
REMARK SMILES IDX 37 50
REMARK H PARENT 27 17 29 19 31 21 33 23 35 25 13 39 43 47 37 51
REMARK Flexibility Score: inf
ROOT
ATOM      1  C   UNL     1      72.326  42.680   6.306  1.00  0.00     0.180 C 
ATOM      2  C   UNL     1      72.097  41.213   6.784  1.00  0.00     0.177 C 
ATOM      3  C   UNL     1      70.893  41.116   7.734  1.00  0.00     0.180 C 
ATOM      4  C   UNL     1      70.973  42.190   8.858  1.00  0.00     0.214 C 
ATOM      5  C   UNL     1      72.132  43.189   8.624  1.00  0.00     0.339 C 
ATOM      6  O   UNL     1      72.110  43.688   7.299  1.00  0.00    -0.332 OA
ENDROOT
BRANCH   1   7
ATOM      7  C   UNL     1      73.719  42.857   5.674  1.00  0.00     0.198 C 
BRANCH   7   8
ATOM      8  O   UNL     1      73.721  43.960   4.790  1.00  0.00    -0.347 OA
BRANCH   8   9
ATOM      9  C   UNL     1      73.180  45.122   5.387  1.00  0.00     0.281 C 
ATOM     10  C   UNL     1      74.802  48.017   6.938  1.00  0.00     0.041 C 
ATOM     11  C   UNL     1      73.749  47.272   6.114  1.00  0.00     0.150 C 
ATOM     12  C   UNL     1      73.335  48.025   4.815  1.00  0.00     0.174 C 
ATOM     13  O   UNL     1      74.238  45.985   5.795  1.00  0.00    -0.344 OA
ATOM     14  C   UNL     1      72.884  47.030   3.721  1.00  0.00     0.179 C 
ATOM     15  C   UNL     1      72.205  45.806   4.370  1.00  0.00     0.202 C 
BRANCH  12  16
ATOM     16  O   UNL     1      74.396  48.807   4.332  1.00  0.00    -0.388 OA
ATOM     17  H   UNL     1      74.007  49.463   3.695  1.00  0.00     0.211 HD
ENDBRANCH  12  16
BRANCH  14  18
ATOM     18  O   UNL     1      71.996  47.669   2.842  1.00  0.00    -0.387 OA
ATOM     19  H   UNL     1      72.056  48.639   3.033  1.00  0.00     0.211 HD
ENDBRANCH  14  18
BRANCH  15  20
ATOM     20  O   UNL     1      71.731  44.901   3.401  1.00  0.00    -0.385 OA
ATOM     21  H   UNL     1      72.499  44.626   2.833  1.00  0.00     0.211 HD
ENDBRANCH  15  20
ENDBRANCH   8   9
ENDBRANCH   7   8
ENDBRANCH   1   7
BRANCH   2  22
ATOM     22  O   UNL     1      71.955  40.331   5.697  1.00  0.00    -0.387 OA
ATOM     23  H   UNL     1      71.473  40.812   4.974  1.00  0.00     0.211 HD
ENDBRANCH   2  22
BRANCH   3  24
ATOM     24  O   UNL     1      69.700  41.280   7.009  1.00  0.00    -0.387 OA
ATOM     25  H   UNL     1      69.248  40.398   7.013  1.00  0.00     0.211 HD
ENDBRANCH   3  24
BRANCH   5  26
ATOM     26  O   UNL     1      72.080  44.260   9.575  1.00  0.00    -0.462 OA
BRANCH  26  27
ATOM     27  C   UNL     1      71.280  45.414   9.518  1.00  0.00     0.130 A 
ATOM     28  C   UNL     1      71.889  46.601   9.103  1.00  0.00     0.093 A 
ATOM     29  C   UNL     1      69.903  45.417   9.812  1.00  0.00     0.094 A 
ATOM     30  C   UNL     1      71.145  47.769   8.915  1.00  0.00     0.133 A 
ATOM     31  C   UNL     1      69.144  46.569   9.618  1.00  0.00     0.138 A 
ATOM     32  C   UNL     1      69.754  47.762   9.193  1.00  0.00     0.102 A 
ATOM     33  O   UNL     1      67.759  46.504   9.831  1.00  0.00    -0.484 OA
ATOM     34  C   UNL     1      68.868  48.942   9.023  1.00  0.00     0.174 C 
ATOM     35  C   UNL     1      66.900  47.650   9.809  1.00  0.00     0.211 C 
ATOM     36  O   UNL     1      69.309  50.119   9.094  1.00  0.00    -0.294 OA
ATOM     37  C   UNL     1      67.404  48.701   8.802  1.00  0.00     0.131 C 
BRANCH  30  38
ATOM     38  O   UNL     1      71.817  48.884   8.409  1.00  0.00    -0.507 OA
ATOM     39  H   UNL     1      72.726  48.843   7.975  1.00  0.00     0.293 HD
ENDBRANCH  30  38
BRANCH  35  40
ATOM     40  C   UNL     1      65.492  47.213   9.467  1.00  0.00    -0.003 A 
ATOM     41  C   UNL     1      65.268  46.231   8.485  1.00  0.00     0.057 A 
ATOM     42  C   UNL     1      64.388  47.783  10.125  1.00  0.00     0.011 A 
ATOM     43  C   UNL     1      63.964  45.815   8.173  1.00  0.00     0.158 A 
ATOM     44  C   UNL     1      63.087  47.372   9.810  1.00  0.00     0.051 A 
ATOM     45  C   UNL     1      62.866  46.382   8.833  1.00  0.00     0.160 A 
BRANCH  43  46
ATOM     46  O   UNL     1      63.755  44.825   7.213  1.00  0.00    -0.504 OA
ATOM     47  H   UNL     1      63.569  43.863   7.473  1.00  0.00     0.293 HD
ENDBRANCH  43  46
BRANCH  45  48
ATOM     48  O   UNL     1      61.582  45.926   8.497  1.00  0.00    -0.493 OA
ATOM     49  C   UNL     1      60.784  45.080   9.322  1.00  0.00     0.278 C 
ENDBRANCH  45  48
ENDBRANCH  35  40
ENDBRANCH  26  27
ENDBRANCH   5  26
BRANCH   4  50
ATOM     50  O   UNL     1      71.094  41.590  10.125  1.00  0.00    -0.384 OA
ATOM     51  H   UNL     1      71.968  41.875  10.509  1.00  0.00     0.211 HD
ENDBRANCH   4  50
TORSDOF 15
ENDMDL
MODEL 8
REMARK VINA RESULT:    -6.111      2.005      5.679
REMARK INTER + INTRA:         -12.066
REMARK INTER:                  -8.989
REMARK INTRA:                  -3.077
REMARK UNBOUND:                -2.026
REMARK SMILES COc1ccc([C@@H]2CC(=O)c3c(O)cc(O[C@@H]4O[C@@H](CO[C@H]5O[C@@H](C)[C@@H](O)[C@H](O)[C@H]5O)[C@H](O)[C@H](O)[C@H]4O)cc3O2)cc1O
REMARK SMILES IDX 19 1 32 2 34 3 36 4 17 5 18 6 20 7 21 8 22 9 25 10 24 11
REMARK SMILES IDX 26 12 23 13 28 14 30 15 27 16 29 18 31 20 33 22 35 24 16 26
REMARK SMILES IDX 15 27 14 28 38 29 12 30 39 31 11 32 40 33 9 34 7 35 10 36
REMARK SMILES IDX 8 37 13 38 6 40 41 41 5 42 42 43 4 44 3 45 43 46 2 48 1 49
REMARK SMILES IDX 37 50
REMARK H PARENT 27 17 29 19 31 21 33 23 35 25 13 39 43 47 37 51
REMARK Flexibility Score: inf
ROOT
ATOM      1  C   UNL     1      73.047  48.835   9.555  1.00  0.00     0.180 C 
ATOM      2  C   UNL     1      73.401  48.952   8.040  1.00  0.00     0.177 C 
ATOM      3  C   UNL     1      72.674  50.138   7.386  1.00  0.00     0.180 C 
ATOM      4  C   UNL     1      71.156  50.130   7.728  1.00  0.00     0.214 C 
ATOM      5  C   UNL     1      70.805  49.049   8.780  1.00  0.00     0.339 C 
ATOM      6  O   UNL     1      71.685  49.117   9.889  1.00  0.00    -0.332 OA
ENDROOT
BRANCH   1   7
ATOM      7  C   UNL     1      73.454  47.464  10.124  1.00  0.00     0.198 C 
BRANCH   7   8
ATOM      8  O   UNL     1      74.404  46.844   9.281  1.00  0.00    -0.347 OA
BRANCH   8   9
ATOM      9  C   UNL     1      74.078  45.496   9.011  1.00  0.00     0.281 C 
ATOM     10  C   UNL     1      71.239  43.439  10.072  1.00  0.00     0.041 C 
ATOM     11  C   UNL     1      72.324  43.951   9.122  1.00  0.00     0.150 C 
ATOM     12  C   UNL     1      71.829  44.123   7.655  1.00  0.00     0.174 C 
ATOM     13  O   UNL     1      72.826  45.177   9.613  1.00  0.00    -0.344 OA
ATOM     14  C   UNL     1      72.622  45.237   6.933  1.00  0.00     0.179 C 
ATOM     15  C   UNL     1      74.072  45.277   7.460  1.00  0.00     0.202 C 
BRANCH  12  16
ATOM     16  O   UNL     1      70.458  44.426   7.624  1.00  0.00    -0.388 OA
ATOM     17  H   UNL     1      70.369  45.324   7.208  1.00  0.00     0.211 HD
ENDBRANCH  12  16
BRANCH  14  18
ATOM     18  O   UNL     1      72.615  44.998   5.550  1.00  0.00    -0.387 OA
ATOM     19  H   UNL     1      73.518  44.663   5.315  1.00  0.00     0.211 HD
ENDBRANCH  14  18
BRANCH  15  20
ATOM     20  O   UNL     1      74.843  46.243   6.787  1.00  0.00    -0.385 OA
ATOM     21  H   UNL     1      74.990  47.007   7.406  1.00  0.00     0.211 HD
ENDBRANCH  15  20
ENDBRANCH   8   9
ENDBRANCH   7   8
ENDBRANCH   1   7
BRANCH   2  22
ATOM     22  O   UNL     1      74.790  49.037   7.837  1.00  0.00    -0.387 OA
ATOM     23  H   UNL     1      75.239  48.709   8.659  1.00  0.00     0.211 HD
ENDBRANCH   2  22
BRANCH   3  24
ATOM     24  O   UNL     1      73.249  51.346   7.820  1.00  0.00    -0.387 OA
ATOM     25  H   UNL     1      73.708  51.735   7.033  1.00  0.00     0.211 HD
ENDBRANCH   3  24
BRANCH   5  26
ATOM     26  O   UNL     1      69.441  49.172   9.201  1.00  0.00    -0.462 OA
BRANCH  26  27
ATOM     27  C   UNL     1      68.449  48.177   9.184  1.00  0.00     0.130 A 
ATOM     28  C   UNL     1      67.148  48.570   8.860  1.00  0.00     0.093 A 
ATOM     29  C   UNL     1      68.712  46.816   9.429  1.00  0.00     0.094 A 
ATOM     30  C   UNL     1      66.123  47.630   8.714  1.00  0.00     0.133 A 
ATOM     31  C   UNL     1      67.705  45.865   9.275  1.00  0.00     0.138 A 
ATOM     32  C   UNL     1      66.398  46.257   8.942  1.00  0.00     0.102 A 
ATOM     33  O   UNL     1      68.032  44.509   9.435  1.00  0.00    -0.484 OA
ATOM     34  C   UNL     1      65.388  45.177   8.809  1.00  0.00     0.174 C 
ATOM     35  C   UNL     1      67.060  43.457   9.449  1.00  0.00     0.211 C 
ATOM     36  O   UNL     1      64.158  45.394   8.965  1.00  0.00    -0.294 OA
ATOM     37  C   UNL     1      65.874  43.786   8.524  1.00  0.00     0.131 C 
BRANCH  30  38
ATOM     38  O   UNL     1      64.875  48.101   8.298  1.00  0.00    -0.507 OA
ATOM     39  H   UNL     1      64.175  47.524   7.858  1.00  0.00     0.293 HD
ENDBRANCH  30  38
BRANCH  35  40
ATOM     40  C   UNL     1      67.720  42.161   9.033  1.00  0.00    -0.003 A 
ATOM     41  C   UNL     1      68.137  41.967   7.704  1.00  0.00     0.057 A 
ATOM     42  C   UNL     1      67.927  41.132   9.969  1.00  0.00     0.011 A 
ATOM     43  C   UNL     1      68.760  40.770   7.316  1.00  0.00     0.158 A 
ATOM     44  C   UNL     1      68.543  39.936   9.581  1.00  0.00     0.051 A 
ATOM     45  C   UNL     1      68.968  39.748   8.251  1.00  0.00     0.160 A 
BRANCH  43  46
ATOM     46  O   UNL     1      69.189  40.596   6.000  1.00  0.00    -0.504 OA
ATOM     47  H   UNL     1      69.906  39.922   5.759  1.00  0.00     0.293 HD
ENDBRANCH  43  46
BRANCH  45  48
ATOM     48  O   UNL     1      69.606  38.574   7.821  1.00  0.00    -0.493 OA
ATOM     49  C   UNL     1      69.522  37.318   8.490  1.00  0.00     0.278 C 
ENDBRANCH  45  48
ENDBRANCH  35  40
ENDBRANCH  26  27
ENDBRANCH   5  26
BRANCH   4  50
ATOM     50  O   UNL     1      70.375  49.955   6.571  1.00  0.00    -0.384 OA
ATOM     51  H   UNL     1      70.640  50.663   5.921  1.00  0.00     0.211 HD
ENDBRANCH   4  50
TORSDOF 15
ENDMDL
