MODEL 1
REMARK VINA RESULT:    -4.377      0.000      0.000
REMARK INTER + INTRA:          -6.019
REMARK INTER:                  -5.912
REMARK INTRA:                  -0.107
REMARK UNBOUND:                -0.107
REMARK SMILES [NH3+]CCCC[C@H]([NH3+])C(=O)[O-]
REMARK SMILES IDX 4 1 3 2 2 3 1 4 5 8 6 9 7 10 8 14 9 15 10 16
REMARK H PARENT 1 5 1 6 1 7 7 11 7 12 7 13
REMARK Flexibility Score: inf
ROOT
ATOM      1  C   UNL     1     121.225 154.430 159.545  1.00  0.00     0.012 C 
ENDROOT
BRANCH   1   2
ATOM      2  C   UNL     1     120.912 152.984 159.982  1.00  0.00     0.061 C 
BRANCH   2   3
ATOM      3  C   UNL     1     120.787 152.815 161.507  1.00  0.00     0.258 C 
BRANCH   3   4
ATOM      4  N   UNL     1     119.397 152.869 161.962  1.00  0.00    -0.358 N 
ATOM      5  H   UNL     1     119.001 153.825 161.810  1.00  0.00     0.344 HD
ATOM      6  H   UNL     1     119.337 152.608 162.972  1.00  0.00     0.344 HD
ATOM      7  H   UNL     1     118.834 152.181 161.412  1.00  0.00     0.344 HD
ENDBRANCH   3   4
ENDBRANCH   2   3
ENDBRANCH   1   2
BRANCH   1   8
ATOM      8  C   UNL     1     120.750 154.721 158.109  1.00  0.00     0.072 C 
BRANCH   8   9
ATOM      9  C   UNL     1     121.651 155.749 157.393  1.00  0.00     0.227 C 
BRANCH   9  10
ATOM     10  N   UNL     1     122.745 156.177 158.274  1.00  0.00    -0.350 N 
ATOM     11  H   UNL     1     122.659 155.704 159.204  1.00  0.00     0.345 HD
ATOM     12  H   UNL     1     123.674 155.941 157.853  1.00  0.00     0.345 HD
ATOM     13  H   UNL     1     122.692 157.210 158.428  1.00  0.00     0.345 HD
ENDBRANCH   9  10
BRANCH   9  14
ATOM     14  C   UNL     1     120.857 156.946 156.934  1.00  0.00     0.099 C 
ATOM     15  O   UNL     1     120.513 157.838 157.755  1.00  0.00    -0.544 OA
ATOM     16  O   UNL     1     120.490 157.064 155.599  1.00  0.00    -0.544 OA
ENDBRANCH   9  14
ENDBRANCH   8   9
ENDBRANCH   1   8
TORSDOF 7
ENDMDL
MODEL 2
REMARK VINA RESULT:    -4.374      7.051      9.039
REMARK INTER + INTRA:          -6.015
REMARK INTER:                  -5.564
REMARK INTRA:                  -0.451
REMARK UNBOUND:                -0.107
REMARK SMILES [NH3+]CCCC[C@H]([NH3+])C(=O)[O-]
REMARK SMILES IDX 4 1 3 2 2 3 1 4 5 8 6 9 7 10 8 14 9 15 10 16
REMARK H PARENT 1 5 1 6 1 7 7 11 7 12 7 13
REMARK Flexibility Score: inf
ROOT
ATOM      1  C   UNL     1     120.889 157.745 150.724  1.00  0.00     0.012 C 
ENDROOT
BRANCH   1   2
ATOM      2  C   UNL     1     121.222 158.459 152.050  1.00  0.00     0.061 C 
BRANCH   2   3
ATOM      3  C   UNL     1     120.785 157.672 153.300  1.00  0.00     0.258 C 
BRANCH   3   4
ATOM      4  N   UNL     1     119.540 158.184 153.873  1.00  0.00    -0.358 N 
ATOM      5  H   UNL     1     119.138 158.932 153.263  1.00  0.00     0.344 HD
ATOM      6  H   UNL     1     119.709 158.552 154.835  1.00  0.00     0.344 HD
ATOM      7  H   UNL     1     118.850 157.400 153.940  1.00  0.00     0.344 HD
ENDBRANCH   3   4
ENDBRANCH   2   3
ENDBRANCH   1   2
BRANCH   1   8
ATOM      8  C   UNL     1     120.214 158.688 149.709  1.00  0.00     0.072 C 
BRANCH   8   9
ATOM      9  C   UNL     1     118.702 158.406 149.567  1.00  0.00     0.227 C 
BRANCH   9  10
ATOM     10  N   UNL     1     118.293 158.498 148.160  1.00  0.00    -0.350 N 
ATOM     11  H   UNL     1     118.159 159.501 147.892  1.00  0.00     0.345 HD
ATOM     12  H   UNL     1     119.015 158.068 147.535  1.00  0.00     0.345 HD
ATOM     13  H   UNL     1     117.383 158.001 148.023  1.00  0.00     0.345 HD
ENDBRANCH   9  10
BRANCH   9  14
ATOM     14  C   UNL     1     117.889 159.358 150.406  1.00  0.00     0.099 C 
ATOM     15  O   UNL     1     117.706 159.133 151.633  1.00  0.00    -0.544 OA
ATOM     16  O   UNL     1     117.324 160.487 149.825  1.00  0.00    -0.544 OA
ENDBRANCH   9  14
ENDBRANCH   8   9
ENDBRANCH   1   8
TORSDOF 7
ENDMDL
MODEL 3
REMARK VINA RESULT:    -4.362      3.660      5.034
REMARK INTER + INTRA:          -5.999
REMARK INTER:                  -5.884
REMARK INTRA:                  -0.116
REMARK UNBOUND:                -0.107
REMARK SMILES [NH3+]CCCC[C@H]([NH3+])C(=O)[O-]
REMARK SMILES IDX 4 1 3 2 2 3 1 4 5 8 6 9 7 10 8 14 9 15 10 16
REMARK H PARENT 1 5 1 6 1 7 7 11 7 12 7 13
REMARK Flexibility Score: inf
ROOT
ATOM      1  C   UNL     1     120.799 154.804 158.355  1.00  0.00     0.012 C 
ENDROOT
BRANCH   1   2
ATOM      2  C   UNL     1     121.725 156.037 158.391  1.00  0.00     0.061 C 
BRANCH   2   3
ATOM      3  C   UNL     1     122.458 156.217 159.734  1.00  0.00     0.258 C 
BRANCH   3   4
ATOM      4  N   UNL     1     123.898 155.987 159.617  1.00  0.00    -0.358 N 
ATOM      5  H   UNL     1     124.226 155.337 160.367  1.00  0.00     0.344 HD
ATOM      6  H   UNL     1     124.414 156.894 159.671  1.00  0.00     0.344 HD
ATOM      7  H   UNL     1     124.098 155.552 158.687  1.00  0.00     0.344 HD
ENDBRANCH   3   4
ENDBRANCH   2   3
ENDBRANCH   1   2
BRANCH   1   8
ATOM      8  C   UNL     1     121.020 153.874 159.563  1.00  0.00     0.072 C 
BRANCH   8   9
ATOM      9  C   UNL     1     120.715 152.398 159.227  1.00  0.00     0.227 C 
BRANCH   9  10
ATOM     10  N   UNL     1     120.117 152.288 157.890  1.00  0.00    -0.350 N 
ATOM     11  H   UNL     1     119.796 153.229 157.565  1.00  0.00     0.345 HD
ATOM     12  H   UNL     1     120.810 151.904 157.205  1.00  0.00     0.345 HD
ATOM     13  H   UNL     1     119.286 151.655 157.925  1.00  0.00     0.345 HD
ENDBRANCH   9  10
BRANCH   9  14
ATOM     14  C   UNL     1     119.802 151.782 160.255  1.00  0.00     0.099 C 
ATOM     15  O   UNL     1     119.770 152.229 161.433  1.00  0.00    -0.544 OA
ATOM     16  O   UNL     1     118.995 150.704 159.909  1.00  0.00    -0.544 OA
ENDBRANCH   9  14
ENDBRANCH   8   9
ENDBRANCH   1   8
TORSDOF 7
ENDMDL
MODEL 4
REMARK VINA RESULT:    -4.274      3.150      4.480
REMARK INTER + INTRA:          -5.880
REMARK INTER:                  -5.466
REMARK INTRA:                  -0.415
REMARK UNBOUND:                -0.107
REMARK SMILES [NH3+]CCCC[C@H]([NH3+])C(=O)[O-]
REMARK SMILES IDX 4 1 3 2 2 3 1 4 5 8 6 9 7 10 8 14 9 15 10 16
REMARK H PARENT 1 5 1 6 1 7 7 11 7 12 7 13
REMARK Flexibility Score: inf
ROOT
ATOM      1  C   UNL     1     119.459 151.024 159.856  1.00  0.00     0.012 C 
ENDROOT
BRANCH   1   2
ATOM      2  C   UNL     1     119.194 150.481 158.437  1.00  0.00     0.061 C 
BRANCH   2   3
ATOM      3  C   UNL     1     120.111 151.093 157.362  1.00  0.00     0.258 C 
BRANCH   3   4
ATOM      4  N   UNL     1     119.601 152.365 156.852  1.00  0.00    -0.358 N 
ATOM      5  H   UNL     1     119.810 152.460 155.832  1.00  0.00     0.344 HD
ATOM      6  H   UNL     1     120.018 153.162 157.384  1.00  0.00     0.344 HD
ATOM      7  H   UNL     1     118.564 152.392 156.985  1.00  0.00     0.344 HD
ENDBRANCH   3   4
ENDBRANCH   2   3
ENDBRANCH   1   2
BRANCH   1   8
ATOM      8  C   UNL     1     120.895 151.559 160.015  1.00  0.00     0.072 C 
BRANCH   8   9
ATOM      9  C   UNL     1     120.968 152.756 160.989  1.00  0.00     0.227 C 
BRANCH   9  10
ATOM     10  N   UNL     1     119.694 152.917 161.701  1.00  0.00    -0.350 N 
ATOM     11  H   UNL     1     119.658 152.267 162.520  1.00  0.00     0.345 HD
ATOM     12  H   UNL     1     119.581 153.902 162.037  1.00  0.00     0.345 HD
ATOM     13  H   UNL     1     118.899 152.681 161.063  1.00  0.00     0.345 HD
ENDBRANCH   9  10
BRANCH   9  14
ATOM     14  C   UNL     1     121.321 154.029 160.263  1.00  0.00     0.099 C 
ATOM     15  O   UNL     1     122.023 154.911 160.824  1.00  0.00    -0.544 OA
ATOM     16  O   UNL     1     120.861 154.240 158.968  1.00  0.00    -0.544 OA
ENDBRANCH   9  14
ENDBRANCH   8   9
ENDBRANCH   1   8
TORSDOF 7
ENDMDL
MODEL 5
REMARK VINA RESULT:    -4.266      3.098      5.343
REMARK INTER + INTRA:          -5.870
REMARK INTER:                  -5.767
REMARK INTRA:                  -0.103
REMARK UNBOUND:                -0.107
REMARK SMILES [NH3+]CCCC[C@H]([NH3+])C(=O)[O-]
REMARK SMILES IDX 4 1 3 2 2 3 1 4 5 8 6 9 7 10 8 14 9 15 10 16
REMARK H PARENT 1 5 1 6 1 7 7 11 7 12 7 13
REMARK Flexibility Score: inf
ROOT
ATOM      1  C   UNL     1     121.245 156.465 155.653  1.00  0.00     0.012 C 
ENDROOT
BRANCH   1   2
ATOM      2  C   UNL     1     120.126 156.152 154.639  1.00  0.00     0.061 C 
BRANCH   2   3
ATOM      3  C   UNL     1     119.610 157.394 153.888  1.00  0.00     0.258 C 
BRANCH   3   4
ATOM      4  N   UNL     1     118.208 157.262 153.490  1.00  0.00    -0.358 N 
ATOM      5  H   UNL     1     117.830 158.186 153.178  1.00  0.00     0.344 HD
ATOM      6  H   UNL     1     117.641 156.887 154.283  1.00  0.00     0.344 HD
ATOM      7  H   UNL     1     118.144 156.587 152.694  1.00  0.00     0.344 HD
ENDBRANCH   3   4
ENDBRANCH   2   3
ENDBRANCH   1   2
BRANCH   1   8
ATOM      8  C   UNL     1     120.690 156.780 157.055  1.00  0.00     0.072 C 
BRANCH   8   9
ATOM      9  C   UNL     1     121.654 156.340 158.177  1.00  0.00     0.227 C 
BRANCH   9  10
ATOM     10  N   UNL     1     123.024 156.221 157.662  1.00  0.00    -0.350 N 
ATOM     11  H   UNL     1     123.244 157.038 157.046  1.00  0.00     0.345 HD
ATOM     12  H   UNL     1     123.714 156.187 158.449  1.00  0.00     0.345 HD
ATOM     13  H   UNL     1     123.113 155.349 157.091  1.00  0.00     0.345 HD
ENDBRANCH   9  10
BRANCH   9  14
ATOM     14  C   UNL     1     121.217 155.034 158.792  1.00  0.00     0.099 C 
ATOM     15  O   UNL     1     120.511 154.223 158.136  1.00  0.00    -0.544 OA
ATOM     16  O   UNL     1     121.586 154.724 160.096  1.00  0.00    -0.544 OA
ENDBRANCH   9  14
ENDBRANCH   8   9
ENDBRANCH   1   8
TORSDOF 7
ENDMDL
MODEL 6
REMARK VINA RESULT:    -4.171      3.708      4.887
REMARK INTER + INTRA:          -5.741
REMARK INTER:                  -5.635
REMARK INTRA:                  -0.106
REMARK UNBOUND:                -0.107
REMARK SMILES [NH3+]CCCC[C@H]([NH3+])C(=O)[O-]
REMARK SMILES IDX 4 1 3 2 2 3 1 4 5 8 6 9 7 10 8 14 9 15 10 16
REMARK H PARENT 1 5 1 6 1 7 7 11 7 12 7 13
REMARK Flexibility Score: inf
ROOT
ATOM      1  C   UNL     1     121.273 156.246 155.851  1.00  0.00     0.012 C 
ENDROOT
BRANCH   1   2
ATOM      2  C   UNL     1     120.667 156.295 157.268  1.00  0.00     0.061 C 
BRANCH   2   3
ATOM      3  C   UNL     1     121.723 156.274 158.390  1.00  0.00     0.258 C 
BRANCH   3   4
ATOM      4  N   UNL     1     123.085 156.147 157.870  1.00  0.00    -0.358 N 
ATOM      5  H   UNL     1     123.495 155.225 158.145  1.00  0.00     0.344 HD
ATOM      6  H   UNL     1     123.681 156.929 158.223  1.00  0.00     0.344 HD
ATOM      7  H   UNL     1     123.056 156.203 156.827  1.00  0.00     0.344 HD
ENDBRANCH   3   4
ENDBRANCH   2   3
ENDBRANCH   1   2
BRANCH   1   8
ATOM      8  C   UNL     1     120.197 156.353 154.754  1.00  0.00     0.072 C 
BRANCH   8   9
ATOM      9  C   UNL     1     120.369 157.620 153.889  1.00  0.00     0.227 C 
BRANCH   9  10
ATOM     10  N   UNL     1     119.084 158.313 153.730  1.00  0.00    -0.350 N 
ATOM     11  H   UNL     1     118.521 158.223 154.608  1.00  0.00     0.345 HD
ATOM     12  H   UNL     1     119.234 159.327 153.519  1.00  0.00     0.345 HD
ATOM     13  H   UNL     1     118.541 157.878 152.949  1.00  0.00     0.345 HD
ENDBRANCH   9  10
BRANCH   9  14
ATOM     14  C   UNL     1     120.946 157.284 152.537  1.00  0.00     0.099 C 
ATOM     15  O   UNL     1     121.434 158.187 151.807  1.00  0.00    -0.544 OA
ATOM     16  O   UNL     1     120.932 155.970 152.084  1.00  0.00    -0.544 OA
ENDBRANCH   9  14
ENDBRANCH   8   9
ENDBRANCH   1   8
TORSDOF 7
ENDMDL
MODEL 7
REMARK VINA RESULT:    -4.136      3.388      5.576
REMARK INTER + INTRA:          -5.694
REMARK INTER:                  -5.585
REMARK INTRA:                  -0.109
REMARK UNBOUND:                -0.107
REMARK SMILES [NH3+]CCCC[C@H]([NH3+])C(=O)[O-]
REMARK SMILES IDX 4 1 3 2 2 3 1 4 5 8 6 9 7 10 8 14 9 15 10 16
REMARK H PARENT 1 5 1 6 1 7 7 11 7 12 7 13
REMARK Flexibility Score: inf
ROOT
ATOM      1  C   UNL     1     120.873 156.061 155.861  1.00  0.00     0.012 C 
ENDROOT
BRANCH   1   2
ATOM      2  C   UNL     1     120.549 157.280 154.973  1.00  0.00     0.061 C 
BRANCH   2   3
ATOM      3  C   UNL     1     121.136 157.181 153.553  1.00  0.00     0.258 C 
BRANCH   3   4
ATOM      4  N   UNL     1     121.039 158.444 152.821  1.00  0.00    -0.358 N 
ATOM      5  H   UNL     1     121.452 159.224 153.382  1.00  0.00     0.344 HD
ATOM      6  H   UNL     1     120.041 158.652 152.589  1.00  0.00     0.344 HD
ATOM      7  H   UNL     1     121.571 158.358 151.925  1.00  0.00     0.344 HD
ENDBRANCH   3   4
ENDBRANCH   2   3
ENDBRANCH   1   2
BRANCH   1   8
ATOM      8  C   UNL     1     120.645 156.353 157.356  1.00  0.00     0.072 C 
BRANCH   8   9
ATOM      9  C   UNL     1     121.971 156.562 158.120  1.00  0.00     0.227 C 
BRANCH   9  10
ATOM     10  N   UNL     1     123.114 156.198 157.274  1.00  0.00    -0.350 N 
ATOM     11  H   UNL     1     122.790 156.017 156.295  1.00  0.00     0.345 HD
ATOM     12  H   UNL     1     123.826 156.966 157.264  1.00  0.00     0.345 HD
ATOM     13  H   UNL     1     123.559 155.324 157.636  1.00  0.00     0.345 HD
ENDBRANCH   9  10
BRANCH   9  14
ATOM     14  C   UNL     1     121.997 155.763 159.398  1.00  0.00     0.099 C 
ATOM     15  O   UNL     1     122.792 156.068 160.327  1.00  0.00    -0.544 OA
ATOM     16  O   UNL     1     121.146 154.675 159.553  1.00  0.00    -0.544 OA
ENDBRANCH   9  14
ENDBRANCH   8   9
ENDBRANCH   1   8
TORSDOF 7
ENDMDL
MODEL 8
REMARK VINA RESULT:    -4.111      8.254      9.830
REMARK INTER + INTRA:          -5.660
REMARK INTER:                  -5.180
REMARK INTRA:                  -0.480
REMARK UNBOUND:                -0.107
REMARK SMILES [NH3+]CCCC[C@H]([NH3+])C(=O)[O-]
REMARK SMILES IDX 4 1 3 2 2 3 1 4 5 8 6 9 7 10 8 14 9 15 10 16
REMARK H PARENT 1 5 1 6 1 7 7 11 7 12 7 13
REMARK Flexibility Score: inf
ROOT
ATOM      1  C   UNL     1     120.663 158.542 151.240  1.00  0.00     0.012 C 
ENDROOT
BRANCH   1   2
ATOM      2  C   UNL     1     120.913 157.745 149.943  1.00  0.00     0.061 C 
BRANCH   2   3
ATOM      3  C   UNL     1     120.954 158.623 148.679  1.00  0.00     0.258 C 
BRANCH   3   4
ATOM      4  N   UNL     1     119.660 158.683 147.999  1.00  0.00    -0.358 N 
ATOM      5  H   UNL     1     118.988 159.270 148.545  1.00  0.00     0.344 HD
ATOM      6  H   UNL     1     119.276 157.720 147.867  1.00  0.00     0.344 HD
ATOM      7  H   UNL     1     119.791 159.114 147.056  1.00  0.00     0.344 HD
ENDBRANCH   3   4
ENDBRANCH   2   3
ENDBRANCH   1   2
BRANCH   1   8
ATOM      8  C   UNL     1     119.513 157.949 152.075  1.00  0.00     0.072 C 
BRANCH   8   9
ATOM      9  C   UNL     1     118.251 158.838 152.046  1.00  0.00     0.227 C 
BRANCH   9  10
ATOM     10  N   UNL     1     117.232 158.314 152.965  1.00  0.00    -0.350 N 
ATOM     11  H   UNL     1     116.664 159.102 153.354  1.00  0.00     0.345 HD
ATOM     12  H   UNL     1     116.597 157.643 152.470  1.00  0.00     0.345 HD
ATOM     13  H   UNL     1     117.694 157.821 153.763  1.00  0.00     0.345 HD
ENDBRANCH   9  10
BRANCH   9  14
ATOM     14  C   UNL     1     117.687 158.941 150.652  1.00  0.00     0.099 C 
ATOM     15  O   UNL     1     117.560 160.064 150.095  1.00  0.00    -0.544 OA
ATOM     16  O   UNL     1     117.294 157.792 149.976  1.00  0.00    -0.544 OA
ENDBRANCH   9  14
ENDBRANCH   8   9
ENDBRANCH   1   8
TORSDOF 7
ENDMDL
MODEL 9
REMARK VINA RESULT:    -4.097      6.838      8.401
REMARK INTER + INTRA:          -5.642
REMARK INTER:                  -5.399
REMARK INTRA:                  -0.242
REMARK UNBOUND:                -0.107
REMARK SMILES [NH3+]CCCC[C@H]([NH3+])C(=O)[O-]
REMARK SMILES IDX 4 1 3 2 2 3 1 4 5 8 6 9 7 10 8 14 9 15 10 16
REMARK H PARENT 1 5 1 6 1 7 7 11 7 12 7 13
REMARK Flexibility Score: inf
ROOT
ATOM      1  C   UNL     1     120.638 157.672 151.173  1.00  0.00     0.012 C 
ENDROOT
BRANCH   1   2
ATOM      2  C   UNL     1     121.187 158.192 152.517  1.00  0.00     0.061 C 
BRANCH   2   3
ATOM      3  C   UNL     1     120.888 157.260 153.707  1.00  0.00     0.258 C 
BRANCH   3   4
ATOM      4  N   UNL     1     119.990 157.875 154.684  1.00  0.00    -0.358 N 
ATOM      5  H   UNL     1     119.183 157.241 154.888  1.00  0.00     0.344 HD
ATOM      6  H   UNL     1     119.647 158.797 154.330  1.00  0.00     0.344 HD
ATOM      7  H   UNL     1     120.517 158.042 155.572  1.00  0.00     0.344 HD
ENDBRANCH   3   4
ENDBRANCH   2   3
ENDBRANCH   1   2
BRANCH   1   8
ATOM      8  C   UNL     1     119.107 157.501 151.197  1.00  0.00     0.072 C 
BRANCH   8   9
ATOM      9  C   UNL     1     118.372 158.849 151.353  1.00  0.00     0.227 C 
BRANCH   9  10
ATOM     10  N   UNL     1     117.471 158.812 152.512  1.00  0.00    -0.350 N 
ATOM     11  H   UNL     1     118.027 158.705 153.392  1.00  0.00     0.345 HD
ATOM     12  H   UNL     1     116.903 159.690 152.568  1.00  0.00     0.345 HD
ATOM     13  H   UNL     1     116.826 157.993 152.433  1.00  0.00     0.345 HD
ENDBRANCH   9  10
BRANCH   9  14
ATOM     14  C   UNL     1     117.599 159.198 150.107  1.00  0.00     0.099 C 
ATOM     15  O   UNL     1     117.112 158.290 149.381  1.00  0.00    -0.544 OA
ATOM     16  O   UNL     1     117.428 160.529 149.746  1.00  0.00    -0.544 OA
ENDBRANCH   9  14
ENDBRANCH   8   9
ENDBRANCH   1   8
TORSDOF 7
ENDMDL
