MODEL 1
REMARK VINA RESULT:    -5.061      0.000      0.000
REMARK INTER + INTRA:          -5.596
REMARK INTER:                  -5.504
REMARK INTRA:                  -0.092
REMARK UNBOUND:                -0.092
REMARK SMILES C=C(C)[C@@H]1CC=C(C)[C@H](O)C1
REMARK SMILES IDX 8 1 7 2 6 3 5 4 4 5 11 6 9 7 10 8 2 10 1 11 3 12
REMARK H PARENT 10 9
REMARK Flexibility Score: inf
ROOT
ATOM      1  C   UNL     1     134.504 136.125 139.264  1.00  0.00     0.042 C 
ATOM      2  C   UNL     1     134.040 134.868 138.573  1.00  0.00    -0.049 C 
ATOM      3  C   UNL     1     132.712 134.671 138.421  1.00  0.00    -0.025 C 
ATOM      4  C   UNL     1     132.132 133.455 137.745  1.00  0.00     0.035 C 
ATOM      5  C   UNL     1     133.099 132.260 137.790  1.00  0.00     0.021 C 
ATOM      6  C   UNL     1     134.485 132.702 137.298  1.00  0.00     0.044 C 
ATOM      7  C   UNL     1     135.062 133.797 138.214  1.00  0.00     0.140 C 
ENDROOT
BRANCH   7   8
ATOM      8  O   UNL     1     136.164 134.395 137.584  1.00  0.00    -0.389 OA
ATOM      9  H   UNL     1     136.011 135.376 137.608  1.00  0.00     0.211 HD
ENDBRANCH   7   8
BRANCH   5  10
ATOM     10  C   UNL     1     132.566 131.078 136.991  1.00  0.00    -0.077 C 
ATOM     11  C   UNL     1     132.824 130.946 135.678  1.00  0.00     0.008 C 
ATOM     12  C   UNL     1     131.733 130.022 137.670  1.00  0.00     0.039 C 
ENDBRANCH   5  10
TORSDOF 2
ENDMDL
MODEL 2
REMARK VINA RESULT:    -3.786      1.967      4.673
REMARK INTER + INTRA:          -4.210
REMARK INTER:                  -4.122
REMARK INTRA:                  -0.088
REMARK UNBOUND:                -0.092
REMARK SMILES C=C(C)[C@@H]1CC=C(C)[C@H](O)C1
REMARK SMILES IDX 8 1 7 2 6 3 5 4 4 5 11 6 9 7 10 8 2 10 1 11 3 12
REMARK H PARENT 10 9
REMARK Flexibility Score: inf
ROOT
ATOM      1  C   UNL     1     133.397 130.871 135.074  1.00  0.00     0.042 C 
ATOM      2  C   UNL     1     133.662 131.932 136.110  1.00  0.00    -0.049 C 
ATOM      3  C   UNL     1     134.751 132.718 135.962  1.00  0.00    -0.025 C 
ATOM      4  C   UNL     1     135.116 133.812 136.932  1.00  0.00     0.035 C 
ATOM      5  C   UNL     1     134.517 133.563 138.326  1.00  0.00     0.021 C 
ATOM      6  C   UNL     1     133.018 133.259 138.194  1.00  0.00     0.044 C 
ATOM      7  C   UNL     1     132.795 131.982 137.362  1.00  0.00     0.140 C 
ENDROOT
BRANCH   7   8
ATOM      8  O   UNL     1     131.443 131.897 136.997  1.00  0.00    -0.389 OA
ATOM      9  H   UNL     1     131.187 132.785 136.632  1.00  0.00     0.211 HD
ENDBRANCH   7   8
BRANCH   5  10
ATOM     10  C   UNL     1     134.775 134.736 139.264  1.00  0.00    -0.077 C 
ATOM     11  C   UNL     1     135.605 134.623 140.316  1.00  0.00     0.008 C 
ATOM     12  C   UNL     1     134.096 136.059 139.022  1.00  0.00     0.039 C 
ENDBRANCH   5  10
TORSDOF 2
ENDMDL
MODEL 3
REMARK VINA RESULT:    -3.488      1.523      2.036
REMARK INTER + INTRA:          -3.886
REMARK INTER:                  -3.798
REMARK INTRA:                  -0.088
REMARK UNBOUND:                -0.092
REMARK SMILES C=C(C)[C@@H]1CC=C(C)[C@H](O)C1
REMARK SMILES IDX 8 1 7 2 6 3 5 4 4 5 11 6 9 7 10 8 2 10 1 11 3 12
REMARK H PARENT 10 9
REMARK Flexibility Score: inf
ROOT
ATOM      1  C   UNL     1     135.768 135.463 138.439  1.00  0.00     0.042 C 
ATOM      2  C   UNL     1     134.760 134.366 138.207  1.00  0.00    -0.049 C 
ATOM      3  C   UNL     1     134.997 133.473 137.222  1.00  0.00    -0.025 C 
ATOM      4  C   UNL     1     134.064 132.335 136.899  1.00  0.00     0.035 C 
ATOM      5  C   UNL     1     132.625 132.628 137.357  1.00  0.00     0.021 C 
ATOM      6  C   UNL     1     132.637 133.089 138.822  1.00  0.00     0.044 C 
ATOM      7  C   UNL     1     133.444 134.392 138.973  1.00  0.00     0.140 C 
ENDROOT
BRANCH   7   8
ATOM      8  O   UNL     1     133.700 134.623 140.334  1.00  0.00    -0.389 OA
ATOM      9  H   UNL     1     134.040 133.768 140.711  1.00  0.00     0.211 HD
ENDBRANCH   7   8
BRANCH   5  10
ATOM     10  C   UNL     1     131.716 131.424 137.151  1.00  0.00    -0.077 C 
ATOM     11  C   UNL     1     131.130 131.182 135.966  1.00  0.00     0.008 C 
ATOM     12  C   UNL     1     131.457 130.470 138.289  1.00  0.00     0.039 C 
ENDBRANCH   5  10
TORSDOF 2
ENDMDL
MODEL 4
REMARK VINA RESULT:    -3.419      1.647      4.229
REMARK INTER + INTRA:          -3.810
REMARK INTER:                  -3.723
REMARK INTRA:                  -0.088
REMARK UNBOUND:                -0.092
REMARK SMILES C=C(C)[C@@H]1CC=C(C)[C@H](O)C1
REMARK SMILES IDX 8 1 7 2 6 3 5 4 4 5 11 6 9 7 10 8 2 10 1 11 3 12
REMARK H PARENT 10 9
REMARK Flexibility Score: inf
ROOT
ATOM      1  C   UNL     1     134.118 131.113 134.256  1.00  0.00     0.042 C 
ATOM      2  C   UNL     1     134.246 131.968 135.492  1.00  0.00    -0.049 C 
ATOM      3  C   UNL     1     133.379 131.763 136.507  1.00  0.00    -0.025 C 
ATOM      4  C   UNL     1     133.411 132.553 137.790  1.00  0.00     0.035 C 
ATOM      5  C   UNL     1     134.083 133.924 137.601  1.00  0.00     0.021 C 
ATOM      6  C   UNL     1     135.433 133.740 136.893  1.00  0.00     0.044 C 
ATOM      7  C   UNL     1     135.233 133.128 135.495  1.00  0.00     0.140 C 
ENDROOT
BRANCH   7   8
ATOM      8  O   UNL     1     136.471 132.688 135.000  1.00  0.00    -0.389 OA
ATOM      9  H   UNL     1     136.766 133.358 134.327  1.00  0.00     0.211 HD
ENDBRANCH   7   8
BRANCH   5  10
ATOM     10  C   UNL     1     134.235 134.661 138.925  1.00  0.00    -0.077 C 
ATOM     11  C   UNL     1     133.505 135.755 139.206  1.00  0.00     0.008 C 
ATOM     12  C   UNL     1     135.217 134.168 139.955  1.00  0.00     0.039 C 
ENDBRANCH   5  10
TORSDOF 2
ENDMDL
MODEL 5
REMARK VINA RESULT:    -3.264      1.586      2.557
REMARK INTER + INTRA:          -3.642
REMARK INTER:                  -3.548
REMARK INTRA:                  -0.094
REMARK UNBOUND:                -0.092
REMARK SMILES C=C(C)[C@@H]1CC=C(C)[C@H](O)C1
REMARK SMILES IDX 8 1 7 2 6 3 5 4 4 5 11 6 9 7 10 8 2 10 1 11 3 12
REMARK H PARENT 10 9
REMARK Flexibility Score: inf
ROOT
ATOM      1  C   UNL     1     137.713 134.139 139.956  1.00  0.00     0.042 C 
ATOM      2  C   UNL     1     136.347 134.045 139.326  1.00  0.00    -0.049 C 
ATOM      3  C   UNL     1     135.273 134.410 140.061  1.00  0.00    -0.025 C 
ATOM      4  C   UNL     1     133.861 134.361 139.538  1.00  0.00     0.035 C 
ATOM      5  C   UNL     1     133.712 133.352 138.386  1.00  0.00     0.021 C 
ATOM      6  C   UNL     1     134.806 133.604 137.338  1.00  0.00     0.044 C 
ATOM      7  C   UNL     1     136.203 133.400 137.954  1.00  0.00     0.140 C 
ENDROOT
BRANCH   7   8
ATOM      8  O   UNL     1     137.173 133.926 137.086  1.00  0.00    -0.389 OA
ATOM      9  H   UNL     1     136.762 133.960 136.182  1.00  0.00     0.211 HD
ENDBRANCH   7   8
BRANCH   5  10
ATOM     10  C   UNL     1     132.319 133.404 137.772  1.00  0.00    -0.077 C 
ATOM     11  C   UNL     1     131.701 134.574 137.533  1.00  0.00     0.008 C 
ATOM     12  C   UNL     1     131.604 132.126 137.415  1.00  0.00     0.039 C 
ENDBRANCH   5  10
TORSDOF 2
ENDMDL
MODEL 6
REMARK VINA RESULT:    -3.102      1.722      4.362
REMARK INTER + INTRA:          -3.466
REMARK INTER:                  -3.377
REMARK INTRA:                  -0.089
REMARK UNBOUND:                -0.092
REMARK SMILES C=C(C)[C@@H]1CC=C(C)[C@H](O)C1
REMARK SMILES IDX 8 1 7 2 6 3 5 4 4 5 11 6 9 7 10 8 2 10 1 11 3 12
REMARK H PARENT 10 9
REMARK Flexibility Score: inf
ROOT
ATOM      1  C   UNL     1     131.197 130.865 136.623  1.00  0.00     0.042 C 
ATOM      2  C   UNL     1     132.227 131.839 137.137  1.00  0.00    -0.049 C 
ATOM      3  C   UNL     1     132.047 132.377 138.363  1.00  0.00    -0.025 C 
ATOM      4  C   UNL     1     133.008 133.359 138.981  1.00  0.00     0.035 C 
ATOM      5  C   UNL     1     133.831 134.102 137.915  1.00  0.00     0.021 C 
ATOM      6  C   UNL     1     134.445 133.087 136.940  1.00  0.00     0.044 C 
ATOM      7  C   UNL     1     133.340 132.304 136.207  1.00  0.00     0.140 C 
ENDROOT
BRANCH   7   8
ATOM      8  O   UNL     1     133.908 131.191 135.567  1.00  0.00    -0.389 OA
ATOM      9  H   UNL     1     134.739 131.508 135.123  1.00  0.00     0.211 HD
ENDBRANCH   7   8
BRANCH   5  10
ATOM     10  C   UNL     1     134.893 134.992 138.547  1.00  0.00    -0.077 C 
ATOM     11  C   UNL     1     134.566 136.125 139.193  1.00  0.00     0.008 C 
ATOM     12  C   UNL     1     136.348 134.609 138.459  1.00  0.00     0.039 C 
ENDBRANCH   5  10
TORSDOF 2
ENDMDL
MODEL 7
REMARK VINA RESULT:    -3.068      2.113      4.727
REMARK INTER + INTRA:          -3.429
REMARK INTER:                  -3.341
REMARK INTRA:                  -0.087
REMARK UNBOUND:                -0.092
REMARK SMILES C=C(C)[C@@H]1CC=C(C)[C@H](O)C1
REMARK SMILES IDX 8 1 7 2 6 3 5 4 4 5 11 6 9 7 10 8 2 10 1 11 3 12
REMARK H PARENT 10 9
REMARK Flexibility Score: inf
ROOT
ATOM      1  C   UNL     1     132.610 130.168 136.040  1.00  0.00     0.042 C 
ATOM      2  C   UNL     1     132.929 131.449 136.767  1.00  0.00    -0.049 C 
ATOM      3  C   UNL     1     134.021 132.148 136.387  1.00  0.00    -0.025 C 
ATOM      4  C   UNL     1     134.438 133.442 137.037  1.00  0.00     0.035 C 
ATOM      5  C   UNL     1     133.892 133.563 138.470  1.00  0.00     0.021 C 
ATOM      6  C   UNL     1     132.385 133.268 138.473  1.00  0.00     0.044 C 
ATOM      7  C   UNL     1     132.114 131.829 137.996  1.00  0.00     0.140 C 
ENDROOT
BRANCH   7   8
ATOM      8  O   UNL     1     130.747 131.685 137.713  1.00  0.00    -0.389 OA
ATOM      9  H   UNL     1     130.259 131.852 138.562  1.00  0.00     0.211 HD
ENDBRANCH   7   8
BRANCH   5  10
ATOM     10  C   UNL     1     134.201 134.927 139.074  1.00  0.00    -0.077 C 
ATOM     11  C   UNL     1     135.214 135.096 139.942  1.00  0.00     0.008 C 
ATOM     12  C   UNL     1     133.367 136.125 138.700  1.00  0.00     0.039 C 
ENDBRANCH   5  10
TORSDOF 2
ENDMDL
MODEL 8
REMARK VINA RESULT:    -2.743      2.945      5.029
REMARK INTER + INTRA:          -3.076
REMARK INTER:                  -2.988
REMARK INTRA:                  -0.088
REMARK UNBOUND:                -0.092
REMARK SMILES C=C(C)[C@@H]1CC=C(C)[C@H](O)C1
REMARK SMILES IDX 8 1 7 2 6 3 5 4 4 5 11 6 9 7 10 8 2 10 1 11 3 12
REMARK H PARENT 10 9
REMARK Flexibility Score: inf
ROOT
ATOM      1  C   UNL     1     133.326 134.566 138.117  1.00  0.00     0.042 C 
ATOM      2  C   UNL     1     134.670 134.193 138.687  1.00  0.00    -0.049 C 
ATOM      3  C   UNL     1     134.761 133.953 140.014  1.00  0.00    -0.025 C 
ATOM      4  C   UNL     1     136.049 133.570 140.696  1.00  0.00     0.035 C 
ATOM      5  C   UNL     1     137.279 134.042 139.902  1.00  0.00     0.021 C 
ATOM      6  C   UNL     1     137.141 133.606 138.435  1.00  0.00     0.044 C 
ATOM      7  C   UNL     1     135.900 134.252 137.792  1.00  0.00     0.140 C 
ENDROOT
BRANCH   7   8
ATOM      8  O   UNL     1     135.623 133.610 136.575  1.00  0.00    -0.389 OA
ATOM      9  H   UNL     1     136.498 133.416 136.146  1.00  0.00     0.211 HD
ENDBRANCH   7   8
BRANCH   5  10
ATOM     10  C   UNL     1     138.575 133.537 140.522  1.00  0.00    -0.077 C 
ATOM     11  C   UNL     1     139.422 134.371 141.151  1.00  0.00     0.008 C 
ATOM     12  C   UNL     1     138.930 132.075 140.442  1.00  0.00     0.039 C 
ENDBRANCH   5  10
TORSDOF 2
ENDMDL
MODEL 9
REMARK VINA RESULT:    -2.509      2.174      3.245
REMARK INTER + INTRA:          -2.820
REMARK INTER:                  -2.725
REMARK INTRA:                  -0.096
REMARK UNBOUND:                -0.092
REMARK SMILES C=C(C)[C@@H]1CC=C(C)[C@H](O)C1
REMARK SMILES IDX 8 1 7 2 6 3 5 4 4 5 11 6 9 7 10 8 2 10 1 11 3 12
REMARK H PARENT 10 9
REMARK Flexibility Score: inf
ROOT
ATOM      1  C   UNL     1     133.519 134.997 140.157  1.00  0.00     0.042 C 
ATOM      2  C   UNL     1     134.034 134.304 138.921  1.00  0.00    -0.049 C 
ATOM      3  C   UNL     1     135.330 134.477 138.581  1.00  0.00    -0.025 C 
ATOM      4  C   UNL     1     135.956 133.834 137.370  1.00  0.00     0.035 C 
ATOM      5  C   UNL     1     134.907 133.488 136.300  1.00  0.00     0.021 C 
ATOM      6  C   UNL     1     133.751 132.711 136.947  1.00  0.00     0.044 C 
ATOM      7  C   UNL     1     133.052 133.571 138.016  1.00  0.00     0.140 C 
ENDROOT
BRANCH   7   8
ATOM      8  O   UNL     1     132.219 132.754 138.796  1.00  0.00    -0.389 OA
ATOM      9  H   UNL     1     131.384 133.268 138.960  1.00  0.00     0.211 HD
ENDBRANCH   7   8
BRANCH   5  10
ATOM     10  C   UNL     1     135.524 132.718 135.139  1.00  0.00    -0.077 C 
ATOM     11  C   UNL     1     136.853 132.705 134.934  1.00  0.00     0.008 C 
ATOM     12  C   UNL     1     134.642 131.946 134.192  1.00  0.00     0.039 C 
ENDBRANCH   5  10
TORSDOF 2
ENDMDL
