MODEL 1
REMARK VINA RESULT:    -4.556      0.000      0.000
REMARK INTER + INTRA:          -4.982
REMARK INTER:                  -4.955
REMARK INTRA:                  -0.027
REMARK UNBOUND:                -0.027
REMARK SMILES COc1ccccc1O
REMARK SMILES IDX 3 1 4 2 5 3 6 4 7 5 8 6 2 7 1 8 9 9
REMARK H PARENT 9 10
REMARK Flexibility Score: inf
ROOT
ATOM      1  C   UNL     1     -14.593 -27.840 -34.710  1.00  0.00     0.160 A 
ATOM      2  C   UNL     1     -14.208 -28.236 -33.413  1.00  0.00     0.050 A 
ATOM      3  C   UNL     1     -15.024 -27.947 -32.315  1.00  0.00     0.004 A 
ATOM      4  C   UNL     1     -16.227 -27.264 -32.497  1.00  0.00     0.004 A 
ATOM      5  C   UNL     1     -16.619 -26.867 -33.776  1.00  0.00     0.050 A 
ATOM      6  C   UNL     1     -15.809 -27.151 -34.884  1.00  0.00     0.157 A 
ENDROOT
BRANCH   1   7
ATOM      7  O   UNL     1     -13.800 -28.111 -35.836  1.00  0.00    -0.493 OA
ATOM      8  C   UNL     1     -12.381 -28.230 -35.814  1.00  0.00     0.278 C 
ENDBRANCH   1   7
BRANCH   6   9
ATOM      9  O   UNL     1     -16.230 -26.740 -36.148  1.00  0.00    -0.504 OA
ATOM     10  H   UNL     1     -15.602 -26.706 -36.941  1.00  0.00     0.293 HD
ENDBRANCH   6   9
TORSDOF 2
ENDMDL
MODEL 2
REMARK VINA RESULT:    -4.519      1.579      3.236
REMARK INTER + INTRA:          -4.943
REMARK INTER:                  -4.906
REMARK INTRA:                  -0.037
REMARK UNBOUND:                -0.027
REMARK SMILES COc1ccccc1O
REMARK SMILES IDX 3 1 4 2 5 3 6 4 7 5 8 6 2 7 1 8 9 9
REMARK H PARENT 9 10
REMARK Flexibility Score: inf
ROOT
ATOM      1  C   UNL     1     -15.538 -27.575 -33.125  1.00  0.00     0.160 A 
ATOM      2  C   UNL     1     -14.494 -28.192 -32.405  1.00  0.00     0.050 A 
ATOM      3  C   UNL     1     -13.331 -28.603 -33.062  1.00  0.00     0.004 A 
ATOM      4  C   UNL     1     -13.196 -28.405 -34.437  1.00  0.00     0.004 A 
ATOM      5  C   UNL     1     -14.222 -27.796 -35.160  1.00  0.00     0.050 A 
ATOM      6  C   UNL     1     -15.393 -27.379 -34.512  1.00  0.00     0.157 A 
ENDROOT
BRANCH   1   7
ATOM      7  O   UNL     1     -16.721 -27.149 -32.500  1.00  0.00    -0.493 OA
ATOM      8  C   UNL     1     -16.908 -25.862 -31.921  1.00  0.00     0.278 C 
ENDBRANCH   1   7
BRANCH   6   9
ATOM      9  O   UNL     1     -16.399 -26.773 -35.264  1.00  0.00    -0.504 OA
ATOM     10  H   UNL     1     -16.388 -25.785 -35.482  1.00  0.00     0.293 HD
ENDBRANCH   6   9
TORSDOF 2
ENDMDL
MODEL 3
REMARK VINA RESULT:    -4.503     13.977     15.256
REMARK INTER + INTRA:          -4.925
REMARK INTER:                  -4.900
REMARK INTRA:                  -0.026
REMARK UNBOUND:                -0.027
REMARK SMILES COc1ccccc1O
REMARK SMILES IDX 3 1 4 2 5 3 6 4 7 5 8 6 2 7 1 8 9 9
REMARK H PARENT 9 10
REMARK Flexibility Score: inf
ROOT
ATOM      1  C   UNL     1      -5.902 -29.356 -23.318  1.00  0.00     0.160 A 
ATOM      2  C   UNL     1      -5.674 -30.100 -24.494  1.00  0.00     0.050 A 
ATOM      3  C   UNL     1      -4.394 -30.581 -24.787  1.00  0.00     0.004 A 
ATOM      4  C   UNL     1      -3.334 -30.328 -23.916  1.00  0.00     0.004 A 
ATOM      5  C   UNL     1      -3.548 -29.593 -22.749  1.00  0.00     0.050 A 
ATOM      6  C   UNL     1      -4.826 -29.106 -22.445  1.00  0.00     0.157 A 
ENDROOT
BRANCH   1   7
ATOM      7  O   UNL     1      -7.172 -28.856 -22.990  1.00  0.00    -0.493 OA
ATOM      8  C   UNL     1      -8.391 -29.307 -23.572  1.00  0.00     0.278 C 
ENDBRANCH   1   7
BRANCH   6   9
ATOM      9  O   UNL     1      -5.005 -28.375 -21.270  1.00  0.00    -0.504 OA
ATOM     10  H   UNL     1      -5.093 -27.367 -21.271  1.00  0.00     0.293 HD
ENDBRANCH   6   9
TORSDOF 2
ENDMDL
MODEL 4
REMARK VINA RESULT:    -4.353      1.563      2.760
REMARK INTER + INTRA:          -4.762
REMARK INTER:                  -4.731
REMARK INTRA:                  -0.031
REMARK UNBOUND:                -0.027
REMARK SMILES COc1ccccc1O
REMARK SMILES IDX 3 1 4 2 5 3 6 4 7 5 8 6 2 7 1 8 9 9
REMARK H PARENT 9 10
REMARK Flexibility Score: inf
ROOT
ATOM      1  C   UNL     1     -14.893 -27.835 -32.870  1.00  0.00     0.160 A 
ATOM      2  C   UNL     1     -15.952 -27.176 -32.212  1.00  0.00     0.050 A 
ATOM      3  C   UNL     1     -16.961 -26.551 -32.951  1.00  0.00     0.004 A 
ATOM      4  C   UNL     1     -16.927 -26.577 -34.346  1.00  0.00     0.004 A 
ATOM      5  C   UNL     1     -15.884 -27.227 -35.007  1.00  0.00     0.050 A 
ATOM      6  C   UNL     1     -14.867 -27.856 -34.278  1.00  0.00     0.157 A 
ENDROOT
BRANCH   1   7
ATOM      7  O   UNL     1     -13.862 -28.473 -32.163  1.00  0.00    -0.493 OA
ATOM      8  C   UNL     1     -13.881 -29.841 -31.767  1.00  0.00     0.278 C 
ENDBRANCH   1   7
BRANCH   6   9
ATOM      9  O   UNL     1     -13.839 -28.496 -34.970  1.00  0.00    -0.504 OA
ATOM     10  H   UNL     1     -13.698 -28.370 -35.965  1.00  0.00     0.293 HD
ENDBRANCH   6   9
TORSDOF 2
ENDMDL
MODEL 5
REMARK VINA RESULT:    -4.344      1.532      2.441
REMARK INTER + INTRA:          -4.753
REMARK INTER:                  -4.718
REMARK INTRA:                  -0.035
REMARK UNBOUND:                -0.027
REMARK SMILES COc1ccccc1O
REMARK SMILES IDX 3 1 4 2 5 3 6 4 7 5 8 6 2 7 1 8 9 9
REMARK H PARENT 9 10
REMARK Flexibility Score: inf
ROOT
ATOM      1  C   UNL     1     -14.764 -27.831 -34.079  1.00  0.00     0.160 A 
ATOM      2  C   UNL     1     -15.786 -27.446 -34.971  1.00  0.00     0.050 A 
ATOM      3  C   UNL     1     -16.910 -26.760 -34.503  1.00  0.00     0.004 A 
ATOM      4  C   UNL     1     -17.028 -26.451 -33.147  1.00  0.00     0.004 A 
ATOM      5  C   UNL     1     -16.022 -26.827 -32.255  1.00  0.00     0.050 A 
ATOM      6  C   UNL     1     -14.891 -27.515 -32.713  1.00  0.00     0.157 A 
ENDROOT
BRANCH   1   7
ATOM      7  O   UNL     1     -13.621 -28.521 -34.512  1.00  0.00    -0.493 OA
ATOM      8  C   UNL     1     -12.773 -28.091 -35.574  1.00  0.00     0.278 C 
ENDBRANCH   1   7
BRANCH   6   9
ATOM      9  O   UNL     1     -13.905 -27.875 -31.795  1.00  0.00    -0.504 OA
ATOM     10  H   UNL     1     -13.183 -28.550 -32.016  1.00  0.00     0.293 HD
ENDBRANCH   6   9
TORSDOF 2
ENDMDL
MODEL 6
REMARK VINA RESULT:    -4.338     14.206     15.505
REMARK INTER + INTRA:          -4.745
REMARK INTER:                  -4.708
REMARK INTRA:                  -0.037
REMARK UNBOUND:                -0.027
REMARK SMILES COc1ccccc1O
REMARK SMILES IDX 3 1 4 2 5 3 6 4 7 5 8 6 2 7 1 8 9 9
REMARK H PARENT 9 10
REMARK Flexibility Score: inf
ROOT
ATOM      1  C   UNL     1      -5.613 -28.933 -22.482  1.00  0.00     0.160 A 
ATOM      2  C   UNL     1      -6.881 -28.721 -23.063  1.00  0.00     0.050 A 
ATOM      3  C   UNL     1      -7.700 -29.808 -23.385  1.00  0.00     0.004 A 
ATOM      4  C   UNL     1      -7.267 -31.111 -23.133  1.00  0.00     0.004 A 
ATOM      5  C   UNL     1      -6.014 -31.332 -22.558  1.00  0.00     0.050 A 
ATOM      6  C   UNL     1      -5.185 -30.251 -22.231  1.00  0.00     0.157 A 
ENDROOT
BRANCH   1   7
ATOM      7  O   UNL     1      -4.763 -27.868 -22.145  1.00  0.00    -0.493 OA
ATOM      8  C   UNL     1      -5.115 -26.802 -21.269  1.00  0.00     0.278 C 
ENDBRANCH   1   7
BRANCH   6   9
ATOM      9  O   UNL     1      -3.940 -30.508 -21.658  1.00  0.00    -0.504 OA
ATOM     10  H   UNL     1      -3.075 -30.379 -22.168  1.00  0.00     0.293 HD
ENDBRANCH   6   9
TORSDOF 2
ENDMDL
MODEL 7
REMARK VINA RESULT:    -4.322      1.276      2.573
REMARK INTER + INTRA:          -4.729
REMARK INTER:                  -4.703
REMARK INTRA:                  -0.025
REMARK UNBOUND:                -0.027
REMARK SMILES COc1ccccc1O
REMARK SMILES IDX 3 1 4 2 5 3 6 4 7 5 8 6 2 7 1 8 9 9
REMARK H PARENT 9 10
REMARK Flexibility Score: inf
ROOT
ATOM      1  C   UNL     1     -15.530 -27.371 -34.919  1.00  0.00     0.160 A 
ATOM      2  C   UNL     1     -16.656 -26.662 -34.455  1.00  0.00     0.050 A 
ATOM      3  C   UNL     1     -16.881 -26.515 -33.083  1.00  0.00     0.004 A 
ATOM      4  C   UNL     1     -15.990 -27.071 -32.163  1.00  0.00     0.004 A 
ATOM      5  C   UNL     1     -14.871 -27.775 -32.611  1.00  0.00     0.050 A 
ATOM      6  C   UNL     1     -14.636 -27.928 -33.984  1.00  0.00     0.157 A 
ENDROOT
BRANCH   1   7
ATOM      7  O   UNL     1     -15.270 -27.540 -36.288  1.00  0.00    -0.493 OA
ATOM      8  C   UNL     1     -16.185 -27.210 -37.329  1.00  0.00     0.278 C 
ENDBRANCH   1   7
BRANCH   6   9
ATOM      9  O   UNL     1     -13.508 -28.638 -34.398  1.00  0.00    -0.504 OA
ATOM     10  H   UNL     1     -13.105 -28.520 -35.319  1.00  0.00     0.293 HD
ENDBRANCH   6   9
TORSDOF 2
ENDMDL
MODEL 8
REMARK VINA RESULT:    -4.224      1.393      2.265
REMARK INTER + INTRA:          -4.622
REMARK INTER:                  -4.597
REMARK INTRA:                  -0.025
REMARK UNBOUND:                -0.027
REMARK SMILES COc1ccccc1O
REMARK SMILES IDX 3 1 4 2 5 3 6 4 7 5 8 6 2 7 1 8 9 9
REMARK H PARENT 9 10
REMARK Flexibility Score: inf
ROOT
ATOM      1  C   UNL     1     -15.402 -27.535 -34.944  1.00  0.00     0.160 A 
ATOM      2  C   UNL     1     -14.072 -28.005 -34.964  1.00  0.00     0.050 A 
ATOM      3  C   UNL     1     -13.422 -28.335 -33.771  1.00  0.00     0.004 A 
ATOM      4  C   UNL     1     -14.087 -28.203 -32.551  1.00  0.00     0.004 A 
ATOM      5  C   UNL     1     -15.404 -27.739 -32.519  1.00  0.00     0.050 A 
ATOM      6  C   UNL     1     -16.064 -27.404 -33.708  1.00  0.00     0.157 A 
ENDROOT
BRANCH   1   7
ATOM      7  O   UNL     1     -16.086 -27.193 -36.120  1.00  0.00    -0.493 OA
ATOM      8  C   UNL     1     -15.527 -27.263 -37.428  1.00  0.00     0.278 C 
ENDBRANCH   1   7
BRANCH   6   9
ATOM      9  O   UNL     1     -17.379 -26.944 -33.640  1.00  0.00    -0.504 OA
ATOM     10  H   UNL     1     -17.823 -26.464 -34.413  1.00  0.00     0.293 HD
ENDBRANCH   6   9
TORSDOF 2
ENDMDL
MODEL 9
REMARK VINA RESULT:    -4.109     14.645     15.581
REMARK INTER + INTRA:          -4.496
REMARK INTER:                  -4.470
REMARK INTRA:                  -0.026
REMARK UNBOUND:                -0.027
REMARK SMILES COc1ccccc1O
REMARK SMILES IDX 3 1 4 2 5 3 6 4 7 5 8 6 2 7 1 8 9 9
REMARK H PARENT 9 10
REMARK Flexibility Score: inf
ROOT
ATOM      1  C   UNL     1      -3.831 -28.997 -23.430  1.00  0.00     0.160 A 
ATOM      2  C   UNL     1      -3.860 -29.747 -24.623  1.00  0.00     0.050 A 
ATOM      3  C   UNL     1      -4.997 -30.484 -24.967  1.00  0.00     0.004 A 
ATOM      4  C   UNL     1      -6.113 -30.481 -24.129  1.00  0.00     0.004 A 
ATOM      5  C   UNL     1      -6.096 -29.742 -22.945  1.00  0.00     0.050 A 
ATOM      6  C   UNL     1      -4.962 -29.000 -22.591  1.00  0.00     0.157 A 
ENDROOT
BRANCH   1   7
ATOM      7  O   UNL     1      -2.708 -28.245 -23.052  1.00  0.00    -0.493 OA
ATOM      8  C   UNL     1      -1.411 -28.389 -23.623  1.00  0.00     0.278 C 
ENDBRANCH   1   7
BRANCH   6   9
ATOM      9  O   UNL     1      -4.979 -28.273 -21.401  1.00  0.00    -0.504 OA
ATOM     10  H   UNL     1      -4.162 -27.782 -21.057  1.00  0.00     0.293 HD
ENDBRANCH   6   9
TORSDOF 2
ENDMDL
