MODEL 1
REMARK VINA RESULT:    -1.499      0.000      0.000
REMARK INTER + INTRA:          -2.030
REMARK INTER:                  -1.762
REMARK INTRA:                  -0.269
REMARK UNBOUND:                -0.269
REMARK SMILES O=c1cc(-c2ccc(O)c(O)c2)oc2cc(O)cc(O)c12
REMARK SMILES IDX 4 1 3 2 2 3 1 4 21 5 19 6 18 7 16 8 15 9 14 10 13 11 5 12
REMARK SMILES IDX 6 13 7 14 8 15 12 16 10 17 9 18 11 20 20 22 17 24
REMARK H PARENT 9 19 11 21 20 23 17 25
REMARK Flexibility Score: inf
ROOT
ATOM      1  C   UNL     1      13.340  -9.234 -28.169  1.00  0.00     0.138 A 
ATOM      2  C   UNL     1      13.999  -9.874 -27.111  1.00  0.00     0.100 A 
ATOM      3  C   UNL     1      13.601 -11.154 -26.722  1.00  0.00     0.197 A 
ATOM      4  O   UNL     1      14.253 -11.727 -25.811  1.00  0.00    -0.289 OA
ATOM      5  C   UNL     1      12.515 -11.782 -27.377  1.00  0.00     0.107 A 
ATOM      6  C   UNL     1      11.996 -13.067 -27.040  1.00  0.00     0.134 A 
ATOM      7  C   UNL     1      10.993 -13.636 -27.835  1.00  0.00     0.093 A 
ATOM      8  C   UNL     1      10.450 -12.941 -28.918  1.00  0.00     0.123 A 
ATOM      9  C   UNL     1      10.913 -11.664 -29.223  1.00  0.00     0.094 A 
ATOM     10  C   UNL     1      11.937 -11.082 -28.470  1.00  0.00     0.146 A 
ATOM     11  O   UNL     1      12.360  -9.867 -28.804  1.00  0.00    -0.456 OA
ENDROOT
BRANCH   1  12
ATOM     12  C   UNL     1      13.722  -7.872 -28.622  1.00  0.00     0.021 A 
ATOM     13  C   UNL     1      14.895  -7.643 -29.366  1.00  0.00     0.016 A 
ATOM     14  C   UNL     1      15.236  -6.349 -29.770  1.00  0.00     0.051 A 
ATOM     15  C   UNL     1      14.417  -5.263 -29.434  1.00  0.00     0.157 A 
ATOM     16  C   UNL     1      12.913  -6.774 -28.277  1.00  0.00     0.062 A 
ATOM     17  C   UNL     1      13.251  -5.478 -28.682  1.00  0.00     0.158 A 
BRANCH  15  18
ATOM     18  O   UNL     1      14.759  -3.975 -29.841  1.00  0.00    -0.504 OA
ATOM     19  H   UNL     1      14.881  -3.742 -30.820  1.00  0.00     0.293 HD
ENDBRANCH  15  18
BRANCH  17  20
ATOM     20  O   UNL     1      12.417  -4.419 -28.327  1.00  0.00    -0.504 OA
ATOM     21  H   UNL     1      11.430  -4.410 -28.560  1.00  0.00     0.293 HD
ENDBRANCH  17  20
ENDBRANCH   1  12
BRANCH   6  22
ATOM     22  O   UNL     1      12.408 -13.809 -25.929  1.00  0.00    -0.507 OA
ATOM     23  H   UNL     1      12.060 -13.685 -24.992  1.00  0.00     0.293 HD
ENDBRANCH   6  22
BRANCH   8  24
ATOM     24  O   UNL     1       9.442 -13.510 -29.694  1.00  0.00    -0.508 OA
ATOM     25  H   UNL     1       8.554 -13.043 -29.832  1.00  0.00     0.293 HD
ENDBRANCH   8  24
TORSDOF 5
ENDMDL
MODEL 2
REMARK VINA RESULT:    -1.202      1.888      3.046
REMARK INTER + INTRA:          -1.681
REMARK INTER:                  -1.368
REMARK INTRA:                  -0.314
REMARK UNBOUND:                -0.269
REMARK SMILES O=c1cc(-c2ccc(O)c(O)c2)oc2cc(O)cc(O)c12
REMARK SMILES IDX 4 1 3 2 2 3 1 4 21 5 19 6 18 7 16 8 15 9 14 10 13 11 5 12
REMARK SMILES IDX 6 13 7 14 8 15 12 16 10 17 9 18 11 20 20 22 17 24
REMARK H PARENT 9 19 11 21 20 23 17 25
REMARK Flexibility Score: inf
ROOT
ATOM      1  C   UNL     1      13.103  -9.643 -27.539  1.00  0.00     0.138 A 
ATOM      2  C   UNL     1      11.842  -9.840 -26.961  1.00  0.00     0.100 A 
ATOM      3  C   UNL     1      11.522 -11.082 -26.410  1.00  0.00     0.197 A 
ATOM      4  O   UNL     1      10.406 -11.209 -25.843  1.00  0.00    -0.289 OA
ATOM      5  C   UNL     1      12.460 -12.139 -26.467  1.00  0.00     0.107 A 
ATOM      6  C   UNL     1      12.229 -13.458 -25.973  1.00  0.00     0.134 A 
ATOM      7  C   UNL     1      13.274 -14.390 -25.980  1.00  0.00     0.093 A 
ATOM      8  C   UNL     1      14.524 -14.069 -26.515  1.00  0.00     0.123 A 
ATOM      9  C   UNL     1      14.743 -12.801 -27.048  1.00  0.00     0.094 A 
ATOM     10  C   UNL     1      13.731 -11.838 -27.025  1.00  0.00     0.146 A 
ATOM     11  O   UNL     1      13.986 -10.636 -27.530  1.00  0.00    -0.456 OA
ENDROOT
BRANCH   1  12
ATOM     12  C   UNL     1      13.495  -8.343 -28.141  1.00  0.00     0.021 A 
ATOM     13  C   UNL     1      12.784  -7.158 -27.871  1.00  0.00     0.016 A 
ATOM     14  C   UNL     1      13.169  -5.951 -28.459  1.00  0.00     0.051 A 
ATOM     15  C   UNL     1      14.264  -5.906 -29.332  1.00  0.00     0.157 A 
ATOM     16  C   UNL     1      14.585  -8.291 -29.028  1.00  0.00     0.062 A 
ATOM     17  C   UNL     1      14.974  -7.082 -29.618  1.00  0.00     0.158 A 
BRANCH  15  18
ATOM     18  O   UNL     1      14.646  -4.699 -29.916  1.00  0.00    -0.504 OA
ATOM     19  H   UNL     1      14.102  -3.853 -29.790  1.00  0.00     0.293 HD
ENDBRANCH  15  18
BRANCH  17  20
ATOM     20  O   UNL     1      16.065  -7.073 -30.486  1.00  0.00    -0.504 OA
ATOM     21  H   UNL     1      15.958  -7.195 -31.486  1.00  0.00     0.293 HD
ENDBRANCH  17  20
ENDBRANCH   1  12
BRANCH   6  22
ATOM     22  O   UNL     1      10.994 -13.907 -25.496  1.00  0.00    -0.507 OA
ATOM     23  H   UNL     1      10.609 -14.823 -25.664  1.00  0.00     0.293 HD
ENDBRANCH   6  22
BRANCH   8  24
ATOM     24  O   UNL     1      15.553 -15.008 -26.531  1.00  0.00    -0.508 OA
ATOM     25  H   UNL     1      15.448 -15.900 -26.998  1.00  0.00     0.293 HD
ENDBRANCH   8  24
TORSDOF 5
ENDMDL
MODEL 3
REMARK VINA RESULT:    -0.519      1.612      2.640
REMARK INTER + INTRA:          -0.879
REMARK INTER:                  -0.606
REMARK INTRA:                  -0.273
REMARK UNBOUND:                -0.269
REMARK SMILES O=c1cc(-c2ccc(O)c(O)c2)oc2cc(O)cc(O)c12
REMARK SMILES IDX 4 1 3 2 2 3 1 4 21 5 19 6 18 7 16 8 15 9 14 10 13 11 5 12
REMARK SMILES IDX 6 13 7 14 8 15 12 16 10 17 9 18 11 20 20 22 17 24
REMARK H PARENT 9 19 11 21 20 23 17 25
REMARK Flexibility Score: inf
ROOT
ATOM      1  C   UNL     1      12.660  -9.128 -28.241  1.00  0.00     0.138 A 
ATOM      2  C   UNL     1      12.315 -10.104 -29.186  1.00  0.00     0.100 A 
ATOM      3  C   UNL     1      11.765 -11.314 -28.760  1.00  0.00     0.197 A 
ATOM      4  O   UNL     1      11.408 -12.144 -29.636  1.00  0.00    -0.289 OA
ATOM      5  C   UNL     1      11.589 -11.558 -27.377  1.00  0.00     0.107 A 
ATOM      6  C   UNL     1      11.075 -12.769 -26.825  1.00  0.00     0.134 A 
ATOM      7  C   UNL     1      10.837 -12.853 -25.448  1.00  0.00     0.093 A 
ATOM      8  C   UNL     1      11.149 -11.791 -24.596  1.00  0.00     0.123 A 
ATOM      9  C   UNL     1      11.701 -10.624 -25.119  1.00  0.00     0.094 A 
ATOM     10  C   UNL     1      11.919 -10.496 -26.493  1.00  0.00     0.146 A 
ATOM     11  O   UNL     1      12.434  -9.361 -26.953  1.00  0.00    -0.456 OA
ENDROOT
BRANCH   1  12
ATOM     12  C   UNL     1      13.250  -7.825 -28.639  1.00  0.00     0.021 A 
ATOM     13  C   UNL     1      14.561  -7.730 -29.146  1.00  0.00     0.016 A 
ATOM     14  C   UNL     1      15.094  -6.489 -29.503  1.00  0.00     0.051 A 
ATOM     15  C   UNL     1      14.333  -5.322 -29.355  1.00  0.00     0.157 A 
ATOM     16  C   UNL     1      12.498  -6.647 -28.481  1.00  0.00     0.062 A 
ATOM     17  C   UNL     1      13.030  -5.403 -28.839  1.00  0.00     0.158 A 
BRANCH  15  18
ATOM     18  O   UNL     1      14.868  -4.086 -29.713  1.00  0.00    -0.504 OA
ATOM     19  H   UNL     1      15.153  -3.408 -29.015  1.00  0.00     0.293 HD
ENDBRANCH  15  18
BRANCH  17  20
ATOM     20  O   UNL     1      12.247  -4.260 -28.675  1.00  0.00    -0.504 OA
ATOM     21  H   UNL     1      11.798  -4.039 -27.794  1.00  0.00     0.293 HD
ENDBRANCH  17  20
ENDBRANCH   1  12
BRANCH   6  22
ATOM     22  O   UNL     1      10.809 -13.918 -27.576  1.00  0.00    -0.507 OA
ATOM     23  H   UNL     1      11.363 -14.760 -27.558  1.00  0.00     0.293 HD
ENDBRANCH   6  22
BRANCH   8  24
ATOM     24  O   UNL     1      10.923 -11.889 -23.225  1.00  0.00    -0.508 OA
ATOM     25  H   UNL     1      11.688 -11.907 -22.562  1.00  0.00     0.293 HD
ENDBRANCH   8  24
TORSDOF 5
ENDMDL
MODEL 4
REMARK VINA RESULT:    -0.491      1.763      3.065
REMARK INTER + INTRA:          -0.846
REMARK INTER:                  -0.582
REMARK INTRA:                  -0.264
REMARK UNBOUND:                -0.269
REMARK SMILES O=c1cc(-c2ccc(O)c(O)c2)oc2cc(O)cc(O)c12
REMARK SMILES IDX 4 1 3 2 2 3 1 4 21 5 19 6 18 7 16 8 15 9 14 10 13 11 5 12
REMARK SMILES IDX 6 13 7 14 8 15 12 16 10 17 9 18 11 20 20 22 17 24
REMARK H PARENT 9 19 11 21 20 23 17 25
REMARK Flexibility Score: inf
ROOT
ATOM      1  C   UNL     1      12.530  -9.596 -28.087  1.00  0.00     0.138 A 
ATOM      2  C   UNL     1      12.161 -10.519 -29.075  1.00  0.00     0.100 A 
ATOM      3  C   UNL     1      11.604 -11.743 -28.704  1.00  0.00     0.197 A 
ATOM      4  O   UNL     1      11.225 -12.524 -29.616  1.00  0.00    -0.289 OA
ATOM      5  C   UNL     1      11.445 -12.056 -27.333  1.00  0.00     0.107 A 
ATOM      6  C   UNL     1      10.925 -13.288 -26.836  1.00  0.00     0.134 A 
ATOM      7  C   UNL     1      10.706 -13.440 -25.462  1.00  0.00     0.093 A 
ATOM      8  C   UNL     1      11.042 -12.426 -24.561  1.00  0.00     0.123 A 
ATOM      9  C   UNL     1      11.599 -11.240 -25.032  1.00  0.00     0.094 A 
ATOM     10  C   UNL     1      11.799 -11.044 -26.401  1.00  0.00     0.146 A 
ATOM     11  O   UNL     1      12.319  -9.892 -26.809  1.00  0.00    -0.456 OA
ENDROOT
BRANCH   1  12
ATOM     12  C   UNL     1      13.128  -8.280 -28.427  1.00  0.00     0.021 A 
ATOM     13  C   UNL     1      12.476  -7.070 -28.122  1.00  0.00     0.016 A 
ATOM     14  C   UNL     1      13.057  -5.846 -28.462  1.00  0.00     0.051 A 
ATOM     15  C   UNL     1      14.294  -5.808 -29.119  1.00  0.00     0.157 A 
ATOM     16  C   UNL     1      14.364  -8.233 -29.098  1.00  0.00     0.062 A 
ATOM     17  C   UNL     1      14.948  -7.008 -29.439  1.00  0.00     0.158 A 
BRANCH  15  18
ATOM     18  O   UNL     1      14.871  -4.585 -29.455  1.00  0.00    -0.504 OA
ATOM     19  H   UNL     1      15.624  -4.521 -30.131  1.00  0.00     0.293 HD
ENDBRANCH  15  18
BRANCH  17  20
ATOM     20  O   UNL     1      16.179  -7.005 -30.096  1.00  0.00    -0.504 OA
ATOM     21  H   UNL     1      16.833  -6.236 -30.009  1.00  0.00     0.293 HD
ENDBRANCH  17  20
ENDBRANCH   1  12
BRANCH   6  22
ATOM     22  O   UNL     1      10.637 -14.395 -27.641  1.00  0.00    -0.507 OA
ATOM     23  H   UNL     1       9.812 -14.495 -28.210  1.00  0.00     0.293 HD
ENDBRANCH   6  22
BRANCH   8  24
ATOM     24  O   UNL     1      10.833 -12.592 -23.194  1.00  0.00    -0.508 OA
ATOM     25  H   UNL     1      11.479 -13.121 -22.620  1.00  0.00     0.293 HD
ENDBRANCH   8  24
TORSDOF 5
ENDMDL
