MODEL 1
REMARK VINA RESULT:    -4.121      0.000      0.000
REMARK INTER + INTRA:         -12.587
REMARK INTER:                  -9.421
REMARK INTRA:                  -3.166
REMARK UNBOUND:                -3.166
REMARK SMILES CCCCCCCCCCCCCCCCCCCCCCCC(=O)[O-]
REMARK SMILES IDX 13 1 14 2 15 3 16 4 17 5 18 6 19 7 20 8 21 9 22 10 23 11
REMARK SMILES IDX 24 12 25 13 26 14 12 15 11 16 10 17 9 18 8 19 7 20 6 21 5 22
REMARK SMILES IDX 4 23 3 24 2 25 1 26
REMARK H PARENT
REMARK Flexibility Score: inf
ROOT
ATOM      1  C   UNL     1       7.482   5.868  -1.517  1.00  0.00     0.000 C 
ENDROOT
BRANCH   1   2
ATOM      2  C   UNL     1       8.340   5.146  -0.467  1.00  0.00     0.000 C 
BRANCH   2   3
ATOM      3  C   UNL     1       9.607   5.934  -0.092  1.00  0.00     0.000 C 
BRANCH   3   4
ATOM      4  C   UNL     1       9.697   6.214   1.418  1.00  0.00     0.000 C 
BRANCH   4   5
ATOM      5  C   UNL     1       9.187   7.620   1.786  1.00  0.00     0.000 C 
BRANCH   5   6
ATOM      6  C   UNL     1       9.409   8.640   0.649  1.00  0.00     0.000 C 
BRANCH   6   7
ATOM      7  C   UNL     1       8.473   9.862   0.718  1.00  0.00     0.000 C 
BRANCH   7   8
ATOM      8  C   UNL     1       8.302  10.624  -0.607  1.00  0.00     0.000 C 
BRANCH   8   9
ATOM      9  C   UNL     1       7.898   9.707  -1.771  1.00  0.00     0.000 C 
BRANCH   9  10
ATOM     10  C   UNL     1       6.384   9.443  -1.763  1.00  0.00     0.006 C 
BRANCH  10  11
ATOM     11  C   UNL     1       5.573  10.708  -2.072  1.00  0.00     0.053 C 
BRANCH  11  12
ATOM     12  C   UNL     1       4.100  10.471  -1.941  1.00  0.00     0.041 C 
ATOM     13  O   UNL     1       3.624  10.023  -0.865  1.00  0.00    -0.550 OA
ATOM     14  O   UNL     1       3.258  10.706  -3.020  1.00  0.00    -0.550 OA
ENDBRANCH  11  12
ENDBRANCH  10  11
ENDBRANCH   9  10
ENDBRANCH   8   9
ENDBRANCH   7   8
ENDBRANCH   6   7
ENDBRANCH   5   6
ENDBRANCH   4   5
ENDBRANCH   3   4
ENDBRANCH   2   3
ENDBRANCH   1   2
BRANCH   1  15
ATOM     15  C   UNL     1       7.100   4.963  -2.701  1.00  0.00     0.000 C 
BRANCH  15  16
ATOM     16  C   UNL     1       7.642   5.483  -4.041  1.00  0.00     0.000 C 
BRANCH  16  17
ATOM     17  C   UNL     1       8.117   6.942  -3.964  1.00  0.00     0.000 C 
BRANCH  17  18
ATOM     18  C   UNL     1       9.573   7.068  -4.438  1.00  0.00    -0.000 C 
BRANCH  18  19
ATOM     19  C   UNL     1       9.834   8.370  -5.213  1.00  0.00    -0.000 C 
BRANCH  19  20
ATOM     20  C   UNL     1       8.535   9.046  -5.689  1.00  0.00    -0.000 C 
BRANCH  20  21
ATOM     21  C   UNL     1       8.496   9.247  -7.212  1.00  0.00    -0.000 C 
BRANCH  21  22
ATOM     22  C   UNL     1       9.097   8.057  -7.981  1.00  0.00    -0.000 C 
BRANCH  22  23
ATOM     23  C   UNL     1       8.022   7.172  -8.633  1.00  0.00    -0.000 C 
BRANCH  23  24
ATOM     24  C   UNL     1       7.314   6.257  -7.620  1.00  0.00    -0.000 C 
BRANCH  24  25
ATOM     25  C   UNL     1       7.922   4.847  -7.574  1.00  0.00    -0.003 C 
ATOM     26  C   UNL     1       9.450   4.857  -7.582  1.00  0.00     0.004 C 
ENDBRANCH  24  25
ENDBRANCH  23  24
ENDBRANCH  22  23
ENDBRANCH  21  22
ENDBRANCH  20  21
ENDBRANCH  19  20
ENDBRANCH  18  19
ENDBRANCH  17  18
ENDBRANCH  16  17
ENDBRANCH  15  16
ENDBRANCH   1  15
TORSDOF 22
ENDMDL
MODEL 2
REMARK VINA RESULT:    -4.091      2.772      7.110
REMARK INTER + INTRA:         -12.518
REMARK INTER:                  -8.804
REMARK INTRA:                  -3.714
REMARK UNBOUND:                -3.166
REMARK SMILES CCCCCCCCCCCCCCCCCCCCCCCC(=O)[O-]
REMARK SMILES IDX 13 1 14 2 15 3 16 4 17 5 18 6 19 7 20 8 21 9 22 10 23 11
REMARK SMILES IDX 24 12 25 13 26 14 12 15 11 16 10 17 9 18 8 19 7 20 6 21 5 22
REMARK SMILES IDX 4 23 3 24 2 25 1 26
REMARK H PARENT
REMARK Flexibility Score: inf
ROOT
ATOM      1  C   UNL     1       5.945   8.476  -1.878  1.00  0.00     0.000 C 
ENDROOT
BRANCH   1   2
ATOM      2  C   UNL     1       6.558   9.866  -1.647  1.00  0.00     0.000 C 
BRANCH   2   3
ATOM      3  C   UNL     1       6.790  10.637  -2.958  1.00  0.00     0.000 C 
BRANCH   3   4
ATOM      4  C   UNL     1       8.281  10.905  -3.224  1.00  0.00     0.000 C 
BRANCH   4   5
ATOM      5  C   UNL     1       9.008   9.670  -3.787  1.00  0.00     0.000 C 
BRANCH   5   6
ATOM      6  C   UNL     1      10.121   9.164  -2.845  1.00  0.00     0.000 C 
BRANCH   6   7
ATOM      7  C   UNL     1      10.528   7.698  -3.091  1.00  0.00     0.000 C 
BRANCH   7   8
ATOM      8  C   UNL     1      10.271   7.186  -4.518  1.00  0.00     0.000 C 
BRANCH   8   9
ATOM      9  C   UNL     1      10.342   5.655  -4.621  1.00  0.00     0.000 C 
BRANCH   9  10
ATOM     10  C   UNL     1       9.697   5.161  -5.925  1.00  0.00     0.006 C 
BRANCH  10  11
ATOM     11  C   UNL     1       8.351   5.843  -6.202  1.00  0.00     0.053 C 
BRANCH  11  12
ATOM     12  C   UNL     1       7.751   5.386  -7.496  1.00  0.00     0.041 C 
ATOM     13  O   UNL     1       8.052   4.259  -7.971  1.00  0.00    -0.550 OA
ATOM     14  O   UNL     1       6.893   6.222  -8.199  1.00  0.00    -0.550 OA
ENDBRANCH  11  12
ENDBRANCH  10  11
ENDBRANCH   9  10
ENDBRANCH   8   9
ENDBRANCH   7   8
ENDBRANCH   6   7
ENDBRANCH   5   6
ENDBRANCH   4   5
ENDBRANCH   3   4
ENDBRANCH   2   3
ENDBRANCH   1   2
BRANCH   1  15
ATOM     15  C   UNL     1       6.989   7.348  -1.826  1.00  0.00     0.000 C 
BRANCH  15  16
ATOM     16  C   UNL     1       6.922   6.424  -3.053  1.00  0.00     0.000 C 
BRANCH  16  17
ATOM     17  C   UNL     1       7.325   4.977  -2.730  1.00  0.00     0.000 C 
BRANCH  17  18
ATOM     18  C   UNL     1       7.766   4.848  -1.265  1.00  0.00    -0.000 C 
BRANCH  18  19
ATOM     19  C   UNL     1       9.222   4.375  -1.123  1.00  0.00    -0.000 C 
BRANCH  19  20
ATOM     20  C   UNL     1      10.128   5.436  -0.472  1.00  0.00    -0.000 C 
BRANCH  20  21
ATOM     21  C   UNL     1      10.382   5.164   1.019  1.00  0.00    -0.000 C 
BRANCH  21  22
ATOM     22  C   UNL     1       9.369   5.879   1.931  1.00  0.00    -0.000 C 
BRANCH  22  23
ATOM     23  C   UNL     1       9.654   7.383   2.064  1.00  0.00    -0.000 C 
BRANCH  23  24
ATOM     24  C   UNL     1       9.064   8.204   0.904  1.00  0.00    -0.000 C 
BRANCH  24  25
ATOM     25  C   UNL     1       8.873   9.685   1.267  1.00  0.00    -0.003 C 
ATOM     26  C   UNL     1       8.884   9.934   2.774  1.00  0.00     0.004 C 
ENDBRANCH  24  25
ENDBRANCH  23  24
ENDBRANCH  22  23
ENDBRANCH  21  22
ENDBRANCH  20  21
ENDBRANCH  19  20
ENDBRANCH  18  19
ENDBRANCH  17  18
ENDBRANCH  16  17
ENDBRANCH  15  16
ENDBRANCH   1  15
TORSDOF 22
ENDMDL
MODEL 3
REMARK VINA RESULT:    -4.076      2.675      7.318
REMARK INTER + INTRA:         -12.485
REMARK INTER:                  -8.666
REMARK INTRA:                  -3.819
REMARK UNBOUND:                -3.166
REMARK SMILES CCCCCCCCCCCCCCCCCCCCCCCC(=O)[O-]
REMARK SMILES IDX 13 1 14 2 15 3 16 4 17 5 18 6 19 7 20 8 21 9 22 10 23 11
REMARK SMILES IDX 24 12 25 13 26 14 12 15 11 16 10 17 9 18 8 19 7 20 6 21 5 22
REMARK SMILES IDX 4 23 3 24 2 25 1 26
REMARK H PARENT
REMARK Flexibility Score: inf
ROOT
ATOM      1  C   UNL     1       6.993   7.217  -1.892  1.00  0.00     0.000 C 
ENDROOT
BRANCH   1   2
ATOM      2  C   UNL     1       7.628   8.588  -2.172  1.00  0.00     0.000 C 
BRANCH   2   3
ATOM      3  C   UNL     1       9.100   8.482  -2.606  1.00  0.00     0.000 C 
BRANCH   3   4
ATOM      4  C   UNL     1       9.323   8.972  -4.047  1.00  0.00     0.000 C 
BRANCH   4   5
ATOM      5  C   UNL     1      10.206   8.010  -4.863  1.00  0.00     0.000 C 
BRANCH   5   6
ATOM      6  C   UNL     1      10.583   6.742  -4.068  1.00  0.00     0.000 C 
BRANCH   6   7
ATOM      7  C   UNL     1      10.286   5.427  -4.814  1.00  0.00     0.000 C 
BRANCH   7   8
ATOM      8  C   UNL     1      10.042   5.580  -6.325  1.00  0.00     0.000 C 
BRANCH   8   9
ATOM      9  C   UNL     1       9.153   4.467  -6.898  1.00  0.00     0.000 C 
BRANCH   9  10
ATOM     10  C   UNL     1       7.842   5.042  -7.455  1.00  0.00     0.006 C 
BRANCH  10  11
ATOM     11  C   UNL     1       7.680   6.533  -7.135  1.00  0.00     0.053 C 
BRANCH  11  12
ATOM     12  C   UNL     1       7.859   7.387  -8.352  1.00  0.00     0.041 C 
ATOM     13  O   UNL     1       8.062   8.624  -8.234  1.00  0.00    -0.550 OA
ATOM     14  O   UNL     1       7.759   6.825  -9.618  1.00  0.00    -0.550 OA
ENDBRANCH  11  12
ENDBRANCH  10  11
ENDBRANCH   9  10
ENDBRANCH   8   9
ENDBRANCH   7   8
ENDBRANCH   6   7
ENDBRANCH   5   6
ENDBRANCH   4   5
ENDBRANCH   3   4
ENDBRANCH   2   3
ENDBRANCH   1   2
BRANCH   1  15
ATOM     15  C   UNL     1       7.006   6.292  -3.120  1.00  0.00     0.000 C 
BRANCH  15  16
ATOM     16  C   UNL     1       7.289   4.826  -2.754  1.00  0.00     0.000 C 
BRANCH  16  17
ATOM     17  C   UNL     1       7.719   4.653  -1.289  1.00  0.00     0.000 C 
BRANCH  17  18
ATOM     18  C   UNL     1       9.210   4.295  -1.198  1.00  0.00    -0.000 C 
BRANCH  18  19
ATOM     19  C   UNL     1      10.064   5.449  -0.649  1.00  0.00    -0.000 C 
BRANCH  19  20
ATOM     20  C   UNL     1      10.502   5.220   0.810  1.00  0.00    -0.000 C 
BRANCH  20  21
ATOM     21  C   UNL     1       9.555   5.882   1.823  1.00  0.00    -0.000 C 
BRANCH  21  22
ATOM     22  C   UNL     1       9.179   7.321   1.428  1.00  0.00    -0.000 C 
BRANCH  22  23
ATOM     23  C   UNL     1       9.105   8.265   2.638  1.00  0.00    -0.000 C 
BRANCH  23  24
ATOM     24  C   UNL     1       9.491   9.712   2.286  1.00  0.00    -0.000 C 
BRANCH  24  25
ATOM     25  C   UNL     1       9.158  10.073   0.830  1.00  0.00    -0.003 C 
ATOM     26  C   UNL     1       7.931  10.975   0.706  1.00  0.00     0.004 C 
ENDBRANCH  24  25
ENDBRANCH  23  24
ENDBRANCH  22  23
ENDBRANCH  21  22
ENDBRANCH  20  21
ENDBRANCH  19  20
ENDBRANCH  18  19
ENDBRANCH  17  18
ENDBRANCH  16  17
ENDBRANCH  15  16
ENDBRANCH   1  15
TORSDOF 22
ENDMDL
MODEL 4
REMARK VINA RESULT:    -4.039      3.467      4.990
REMARK INTER + INTRA:         -12.400
REMARK INTER:                  -9.427
REMARK INTRA:                  -2.973
REMARK UNBOUND:                -3.166
REMARK SMILES CCCCCCCCCCCCCCCCCCCCCCCC(=O)[O-]
REMARK SMILES IDX 13 1 14 2 15 3 16 4 17 5 18 6 19 7 20 8 21 9 22 10 23 11
REMARK SMILES IDX 24 12 25 13 26 14 12 15 11 16 10 17 9 18 8 19 7 20 6 21 5 22
REMARK SMILES IDX 4 23 3 24 2 25 1 26
REMARK H PARENT
REMARK Flexibility Score: inf
ROOT
ATOM      1  C   UNL     1       7.035   4.747  -2.504  1.00  0.00     0.000 C 
ENDROOT
BRANCH   1   2
ATOM      2  C   UNL     1       7.703   4.418  -1.160  1.00  0.00     0.000 C 
BRANCH   2   3
ATOM      3  C   UNL     1       9.236   4.340  -1.263  1.00  0.00     0.000 C 
BRANCH   3   4
ATOM      4  C   UNL     1       9.937   5.377  -0.370  1.00  0.00     0.000 C 
BRANCH   4   5
ATOM      5  C   UNL     1       9.042   5.857   0.787  1.00  0.00     0.000 C 
BRANCH   5   6
ATOM      6  C   UNL     1       9.499   7.217   1.357  1.00  0.00     0.000 C 
BRANCH   6   7
ATOM      7  C   UNL     1       9.278   7.362   2.875  1.00  0.00     0.000 C 
BRANCH   7   8
ATOM      8  C   UNL     1       9.249   8.810   3.390  1.00  0.00     0.000 C 
BRANCH   8   9
ATOM      9  C   UNL     1       9.118   8.895   4.918  1.00  0.00     0.000 C 
BRANCH   9  10
ATOM     10  C   UNL     1       8.121   9.990   5.325  1.00  0.00     0.006 C 
BRANCH  10  11
ATOM     11  C   UNL     1       8.185  10.306   6.825  1.00  0.00     0.053 C 
BRANCH  11  12
ATOM     12  C   UNL     1       7.010   9.744   7.564  1.00  0.00     0.041 C 
ATOM     13  O   UNL     1       7.160   8.763   8.339  1.00  0.00    -0.550 OA
ATOM     14  O   UNL     1       5.743  10.276   7.365  1.00  0.00    -0.550 OA
ENDBRANCH  11  12
ENDBRANCH  10  11
ENDBRANCH   9  10
ENDBRANCH   8   9
ENDBRANCH   7   8
ENDBRANCH   6   7
ENDBRANCH   5   6
ENDBRANCH   4   5
ENDBRANCH   3   4
ENDBRANCH   2   3
ENDBRANCH   1   2
BRANCH   1  15
ATOM     15  C   UNL     1       7.282   6.197  -2.954  1.00  0.00     0.000 C 
BRANCH  15  16
ATOM     16  C   UNL     1       6.919   7.223  -1.869  1.00  0.00     0.000 C 
BRANCH  16  17
ATOM     17  C   UNL     1       7.647   8.563  -2.052  1.00  0.00     0.000 C 
BRANCH  17  18
ATOM     18  C   UNL     1       9.150   8.342  -2.274  1.00  0.00    -0.000 C 
BRANCH  18  19
ATOM     19  C   UNL     1       9.660   8.991  -3.571  1.00  0.00    -0.000 C 
BRANCH  19  20
ATOM     20  C   UNL     1      10.125   7.954  -4.609  1.00  0.00    -0.000 C 
BRANCH  20  21
ATOM     21  C   UNL     1      10.821   6.743  -3.966  1.00  0.00    -0.000 C 
BRANCH  21  22
ATOM     22  C   UNL     1      10.374   5.407  -4.585  1.00  0.00    -0.000 C 
BRANCH  22  23
ATOM     23  C   UNL     1       9.839   5.570  -6.017  1.00  0.00    -0.000 C 
BRANCH  23  24
ATOM     24  C   UNL     1       8.379   5.107  -6.159  1.00  0.00    -0.000 C 
BRANCH  24  25
ATOM     25  C   UNL     1       7.926   5.026  -7.626  1.00  0.00    -0.003 C 
ATOM     26  C   UNL     1       7.125   6.249  -8.069  1.00  0.00     0.004 C 
ENDBRANCH  24  25
ENDBRANCH  23  24
ENDBRANCH  22  23
ENDBRANCH  21  22
ENDBRANCH  20  21
ENDBRANCH  19  20
ENDBRANCH  18  19
ENDBRANCH  17  18
ENDBRANCH  16  17
ENDBRANCH  15  16
ENDBRANCH   1  15
TORSDOF 22
ENDMDL
MODEL 5
REMARK VINA RESULT:    -4.032      1.940      7.284
REMARK INTER + INTRA:         -12.384
REMARK INTER:                  -8.579
REMARK INTRA:                  -3.805
REMARK UNBOUND:                -3.166
REMARK SMILES CCCCCCCCCCCCCCCCCCCCCCCC(=O)[O-]
REMARK SMILES IDX 13 1 14 2 15 3 16 4 17 5 18 6 19 7 20 8 21 9 22 10 23 11
REMARK SMILES IDX 24 12 25 13 26 14 12 15 11 16 10 17 9 18 8 19 7 20 6 21 5 22
REMARK SMILES IDX 4 23 3 24 2 25 1 26
REMARK H PARENT
REMARK Flexibility Score: inf
ROOT
ATOM      1  C   UNL     1       7.873   5.468  -0.883  1.00  0.00     0.000 C 
ENDROOT
BRANCH   1   2
ATOM      2  C   UNL     1       7.654   4.689  -2.188  1.00  0.00     0.000 C 
BRANCH   2   3
ATOM      3  C   UNL     1       6.914   5.515  -3.255  1.00  0.00     0.000 C 
BRANCH   3   4
ATOM      4  C   UNL     1       7.644   5.514  -4.608  1.00  0.00     0.000 C 
BRANCH   4   5
ATOM      5  C   UNL     1       8.450   6.805  -4.841  1.00  0.00     0.000 C 
BRANCH   5   6
ATOM      6  C   UNL     1       9.795   6.802  -4.082  1.00  0.00     0.000 C 
BRANCH   6   7
ATOM      7  C   UNL     1      10.034   8.065  -3.234  1.00  0.00     0.000 C 
BRANCH   7   8
ATOM      8  C   UNL     1       8.859   9.056  -3.200  1.00  0.00     0.000 C 
BRANCH   8   9
ATOM      9  C   UNL     1       8.135   9.072  -1.845  1.00  0.00     0.000 C 
BRANCH   9  10
ATOM     10  C   UNL     1       6.614   8.970  -2.032  1.00  0.00     0.006 C 
BRANCH  10  11
ATOM     11  C   UNL     1       5.855  10.009  -1.197  1.00  0.00     0.053 C 
BRANCH  11  12
ATOM     12  C   UNL     1       4.611  10.479  -1.888  1.00  0.00     0.041 C 
ATOM     13  O   UNL     1       4.686  11.049  -3.008  1.00  0.00    -0.550 OA
ATOM     14  O   UNL     1       3.374  10.326  -1.275  1.00  0.00    -0.550 OA
ENDBRANCH  11  12
ENDBRANCH  10  11
ENDBRANCH   9  10
ENDBRANCH   8   9
ENDBRANCH   7   8
ENDBRANCH   6   7
ENDBRANCH   5   6
ENDBRANCH   4   5
ENDBRANCH   3   4
ENDBRANCH   2   3
ENDBRANCH   1   2
BRANCH   1  15
ATOM     15  C   UNL     1       9.331   5.415  -0.394  1.00  0.00     0.000 C 
BRANCH  15  16
ATOM     16  C   UNL     1       9.497   5.965   1.031  1.00  0.00     0.000 C 
BRANCH  16  17
ATOM     17  C   UNL     1       9.996   7.418   1.054  1.00  0.00     0.000 C 
BRANCH  17  18
ATOM     18  C   UNL     1       8.897   8.365   1.556  1.00  0.00    -0.000 C 
BRANCH  18  19
ATOM     19  C   UNL     1       9.348   9.834   1.588  1.00  0.00    -0.000 C 
BRANCH  19  20
ATOM     20  C   UNL     1       9.887  10.257   2.967  1.00  0.00    -0.000 C 
BRANCH  20  21
ATOM     21  C   UNL     1       8.836  10.124   4.080  1.00  0.00    -0.000 C 
BRANCH  21  22
ATOM     22  C   UNL     1       9.268   9.145   5.186  1.00  0.00    -0.000 C 
BRANCH  22  23
ATOM     23  C   UNL     1      10.672   8.568   4.948  1.00  0.00    -0.000 C 
BRANCH  23  24
ATOM     24  C   UNL     1      10.694   7.030   4.975  1.00  0.00    -0.000 C 
BRANCH  24  25
ATOM     25  C   UNL     1       9.311   6.416   4.703  1.00  0.00    -0.003 C 
ATOM     26  C   UNL     1       9.359   4.900   4.523  1.00  0.00     0.004 C 
ENDBRANCH  24  25
ENDBRANCH  23  24
ENDBRANCH  22  23
ENDBRANCH  21  22
ENDBRANCH  20  21
ENDBRANCH  19  20
ENDBRANCH  18  19
ENDBRANCH  17  18
ENDBRANCH  16  17
ENDBRANCH  15  16
ENDBRANCH   1  15
TORSDOF 22
ENDMDL
MODEL 6
REMARK VINA RESULT:    -4.014      1.376      2.495
REMARK INTER + INTRA:         -12.342
REMARK INTER:                  -9.183
REMARK INTRA:                  -3.159
REMARK UNBOUND:                -3.166
REMARK SMILES CCCCCCCCCCCCCCCCCCCCCCCC(=O)[O-]
REMARK SMILES IDX 13 1 14 2 15 3 16 4 17 5 18 6 19 7 20 8 21 9 22 10 23 11
REMARK SMILES IDX 24 12 25 13 26 14 12 15 11 16 10 17 9 18 8 19 7 20 6 21 5 22
REMARK SMILES IDX 4 23 3 24 2 25 1 26
REMARK H PARENT
REMARK Flexibility Score: inf
ROOT
ATOM      1  C   UNL     1       7.136   4.751  -2.595  1.00  0.00     0.000 C 
ENDROOT
BRANCH   1   2
ATOM      2  C   UNL     1       7.492   4.501  -1.122  1.00  0.00     0.000 C 
BRANCH   2   3
ATOM      3  C   UNL     1       8.972   4.785  -0.813  1.00  0.00     0.000 C 
BRANCH   3   4
ATOM      4  C   UNL     1       9.164   5.493   0.539  1.00  0.00     0.000 C 
BRANCH   4   5
ATOM      5  C   UNL     1       9.761   6.903   0.384  1.00  0.00     0.000 C 
BRANCH   5   6
ATOM      6  C   UNL     1       8.762   7.898  -0.245  1.00  0.00     0.000 C 
BRANCH   6   7
ATOM      7  C   UNL     1       9.427   9.148  -0.853  1.00  0.00     0.000 C 
BRANCH   7   8
ATOM      8  C   UNL     1       8.664   9.781  -2.027  1.00  0.00     0.000 C 
BRANCH   8   9
ATOM      9  C   UNL     1       7.762  10.946  -1.591  1.00  0.00     0.000 C 
BRANCH   9  10
ATOM     10  C   UNL     1       6.414  10.431  -1.064  1.00  0.00     0.006 C 
BRANCH  10  11
ATOM     11  C   UNL     1       5.530   9.868  -2.184  1.00  0.00     0.053 C 
BRANCH  11  12
ATOM     12  C   UNL     1       4.098  10.279  -2.024  1.00  0.00     0.041 C 
ATOM     13  O   UNL     1       3.547  10.225  -0.893  1.00  0.00    -0.550 OA
ATOM     14  O   UNL     1       3.361  10.681  -3.130  1.00  0.00    -0.550 OA
ENDBRANCH  11  12
ENDBRANCH  10  11
ENDBRANCH   9  10
ENDBRANCH   8   9
ENDBRANCH   7   8
ENDBRANCH   6   7
ENDBRANCH   5   6
ENDBRANCH   4   5
ENDBRANCH   3   4
ENDBRANCH   2   3
ENDBRANCH   1   2
BRANCH   1  15
ATOM     15  C   UNL     1       7.211   6.238  -2.983  1.00  0.00     0.000 C 
BRANCH  15  16
ATOM     16  C   UNL     1       8.073   6.481  -4.231  1.00  0.00     0.000 C 
BRANCH  16  17
ATOM     17  C   UNL     1       9.540   6.785  -3.890  1.00  0.00     0.000 C 
BRANCH  17  18
ATOM     18  C   UNL     1      10.486   6.073  -4.868  1.00  0.00    -0.000 C 
BRANCH  18  19
ATOM     19  C   UNL     1       9.831   4.864  -5.554  1.00  0.00    -0.000 C 
BRANCH  19  20
ATOM     20  C   UNL     1      10.708   4.270  -6.672  1.00  0.00    -0.000 C 
BRANCH  20  21
ATOM     21  C   UNL     1      10.039   3.081  -7.381  1.00  0.00    -0.000 C 
BRANCH  21  22
ATOM     22  C   UNL     1       9.406   3.476  -8.727  1.00  0.00    -0.000 C 
BRANCH  22  23
ATOM     23  C   UNL     1       9.997   4.775  -9.298  1.00  0.00    -0.000 C 
BRANCH  23  24
ATOM     24  C   UNL     1       8.918   5.821  -9.630  1.00  0.00    -0.000 C 
BRANCH  24  25
ATOM     25  C   UNL     1       8.541   6.685  -8.417  1.00  0.00    -0.003 C 
ATOM     26  C   UNL     1       7.173   6.331  -7.837  1.00  0.00     0.004 C 
ENDBRANCH  24  25
ENDBRANCH  23  24
ENDBRANCH  22  23
ENDBRANCH  21  22
ENDBRANCH  20  21
ENDBRANCH  19  20
ENDBRANCH  18  19
ENDBRANCH  17  18
ENDBRANCH  16  17
ENDBRANCH  15  16
ENDBRANCH   1  15
TORSDOF 22
ENDMDL
MODEL 7
REMARK VINA RESULT:    -4.012      3.575      7.944
REMARK INTER + INTRA:         -12.337
REMARK INTER:                  -8.766
REMARK INTRA:                  -3.571
REMARK UNBOUND:                -3.166
REMARK SMILES CCCCCCCCCCCCCCCCCCCCCCCC(=O)[O-]
REMARK SMILES IDX 13 1 14 2 15 3 16 4 17 5 18 6 19 7 20 8 21 9 22 10 23 11
REMARK SMILES IDX 24 12 25 13 26 14 12 15 11 16 10 17 9 18 8 19 7 20 6 21 5 22
REMARK SMILES IDX 4 23 3 24 2 25 1 26
REMARK H PARENT
REMARK Flexibility Score: inf
ROOT
ATOM      1  C   UNL     1       8.669   4.017  -1.463  1.00  0.00     0.000 C 
ENDROOT
BRANCH   1   2
ATOM      2  C   UNL     1      10.144   4.420  -1.322  1.00  0.00     0.000 C 
BRANCH   2   3
ATOM      3  C   UNL     1      10.828   4.652  -2.680  1.00  0.00     0.000 C 
BRANCH   3   4
ATOM      4  C   UNL     1      10.733   6.116  -3.142  1.00  0.00     0.000 C 
BRANCH   4   5
ATOM      5  C   UNL     1      10.301   6.241  -4.614  1.00  0.00     0.000 C 
BRANCH   5   6
ATOM      6  C   UNL     1       9.181   5.244  -4.982  1.00  0.00     0.000 C 
BRANCH   6   7
ATOM      7  C   UNL     1       7.950   5.903  -5.634  1.00  0.00     0.000 C 
BRANCH   7   8
ATOM      8  C   UNL     1       8.270   6.912  -6.749  1.00  0.00     0.000 C 
BRANCH   8   9
ATOM      9  C   UNL     1       7.439   6.676  -8.019  1.00  0.00     0.000 C 
BRANCH   9  10
ATOM     10  C   UNL     1       8.336   6.259  -9.195  1.00  0.00     0.006 C 
BRANCH  10  11
ATOM     11  C   UNL     1       9.636   5.595  -8.725  1.00  0.00     0.053 C 
BRANCH  11  12
ATOM     12  C   UNL     1       9.597   4.108  -8.898  1.00  0.00     0.041 C 
ATOM     13  O   UNL     1       8.861   3.404  -8.157  1.00  0.00    -0.550 OA
ATOM     14  O   UNL     1      10.403   3.495  -9.849  1.00  0.00    -0.550 OA
ENDBRANCH  11  12
ENDBRANCH  10  11
ENDBRANCH   9  10
ENDBRANCH   8   9
ENDBRANCH   7   8
ENDBRANCH   6   7
ENDBRANCH   5   6
ENDBRANCH   4   5
ENDBRANCH   3   4
ENDBRANCH   2   3
ENDBRANCH   1   2
BRANCH   1  15
ATOM     15  C   UNL     1       7.702   5.124  -1.011  1.00  0.00     0.000 C 
BRANCH  15  16
ATOM     16  C   UNL     1       7.059   5.867  -2.193  1.00  0.00     0.000 C 
BRANCH  16  17
ATOM     17  C   UNL     1       6.833   7.359  -1.905  1.00  0.00     0.000 C 
BRANCH  17  18
ATOM     18  C   UNL     1       8.124   8.159  -2.133  1.00  0.00    -0.000 C 
BRANCH  18  19
ATOM     19  C   UNL     1       8.494   9.043  -0.930  1.00  0.00    -0.000 C 
BRANCH  19  20
ATOM     20  C   UNL     1       9.965   8.879  -0.506  1.00  0.00    -0.000 C 
BRANCH  20  21
ATOM     21  C   UNL     1      10.213   7.586   0.286  1.00  0.00    -0.000 C 
BRANCH  21  22
ATOM     22  C   UNL     1       9.109   7.307   1.321  1.00  0.00    -0.000 C 
BRANCH  22  23
ATOM     23  C   UNL     1       9.584   6.384   2.456  1.00  0.00    -0.000 C 
BRANCH  23  24
ATOM     24  C   UNL     1       9.772   7.131   3.788  1.00  0.00    -0.000 C 
BRANCH  24  25
ATOM     25  C   UNL     1       9.226   8.567   3.740  1.00  0.00    -0.003 C 
ATOM     26  C   UNL     1       8.840   9.102   5.118  1.00  0.00     0.004 C 
ENDBRANCH  24  25
ENDBRANCH  23  24
ENDBRANCH  22  23
ENDBRANCH  21  22
ENDBRANCH  20  21
ENDBRANCH  19  20
ENDBRANCH  18  19
ENDBRANCH  17  18
ENDBRANCH  16  17
ENDBRANCH  15  16
ENDBRANCH   1  15
TORSDOF 22
ENDMDL
MODEL 8
REMARK VINA RESULT:    -4.007      3.209      5.228
REMARK INTER + INTRA:         -12.327
REMARK INTER:                  -8.611
REMARK INTRA:                  -3.716
REMARK UNBOUND:                -3.166
REMARK SMILES CCCCCCCCCCCCCCCCCCCCCCCC(=O)[O-]
REMARK SMILES IDX 13 1 14 2 15 3 16 4 17 5 18 6 19 7 20 8 21 9 22 10 23 11
REMARK SMILES IDX 24 12 25 13 26 14 12 15 11 16 10 17 9 18 8 19 7 20 6 21 5 22
REMARK SMILES IDX 4 23 3 24 2 25 1 26
REMARK H PARENT
REMARK Flexibility Score: inf
ROOT
ATOM      1  C   UNL     1       6.727   9.153  -1.917  1.00  0.00     0.000 C 
ENDROOT
BRANCH   1   2
ATOM      2  C   UNL     1       6.484   7.689  -2.313  1.00  0.00     0.000 C 
BRANCH   2   3
ATOM      3  C   UNL     1       7.638   6.762  -1.894  1.00  0.00     0.000 C 
BRANCH   3   4
ATOM      4  C   UNL     1       7.315   5.278  -2.133  1.00  0.00     0.000 C 
BRANCH   4   5
ATOM      5  C   UNL     1       7.909   4.365  -1.045  1.00  0.00     0.000 C 
BRANCH   5   6
ATOM      6  C   UNL     1       9.450   4.298  -1.113  1.00  0.00     0.000 C 
BRANCH   6   7
ATOM      7  C   UNL     1      10.158   5.148  -0.040  1.00  0.00     0.000 C 
BRANCH   7   8
ATOM      8  C   UNL     1       9.250   5.647   1.095  1.00  0.00     0.000 C 
BRANCH   8   9
ATOM      9  C   UNL     1       9.447   7.139   1.401  1.00  0.00     0.000 C 
BRANCH   9  10
ATOM     10  C   UNL     1       9.290   7.418   2.903  1.00  0.00     0.006 C 
BRANCH  10  11
ATOM     11  C   UNL     1      10.130   6.464   3.762  1.00  0.00     0.053 C 
BRANCH  11  12
ATOM     12  C   UNL     1       9.315   5.823   4.843  1.00  0.00     0.041 C 
ATOM     13  O   UNL     1       8.607   4.813   4.587  1.00  0.00    -0.550 OA
ATOM     14  O   UNL     1       9.304   6.364   6.121  1.00  0.00    -0.550 OA
ENDBRANCH  11  12
ENDBRANCH  10  11
ENDBRANCH   9  10
ENDBRANCH   8   9
ENDBRANCH   7   8
ENDBRANCH   6   7
ENDBRANCH   5   6
ENDBRANCH   4   5
ENDBRANCH   3   4
ENDBRANCH   2   3
ENDBRANCH   1   2
BRANCH   1  15
ATOM     15  C   UNL     1       7.991   9.338  -1.060  1.00  0.00     0.000 C 
BRANCH  15  16
ATOM     16  C   UNL     1       9.165   9.925  -1.858  1.00  0.00     0.000 C 
BRANCH  16  17
ATOM     17  C   UNL     1      10.429   9.055  -1.782  1.00  0.00     0.000 C 
BRANCH  17  18
ATOM     18  C   UNL     1      10.828   8.549  -3.176  1.00  0.00    -0.000 C 
BRANCH  18  19
ATOM     19  C   UNL     1      10.928   7.016  -3.245  1.00  0.00    -0.000 C 
BRANCH  19  20
ATOM     20  C   UNL     1      10.231   6.433  -4.488  1.00  0.00    -0.000 C 
BRANCH  20  21
ATOM     21  C   UNL     1       9.322   7.453  -5.191  1.00  0.00    -0.000 C 
BRANCH  21  22
ATOM     22  C   UNL     1       8.035   6.816  -5.744  1.00  0.00    -0.000 C 
BRANCH  22  23
ATOM     23  C   UNL     1       8.141   5.288  -5.872  1.00  0.00    -0.000 C 
BRANCH  23  24
ATOM     24  C   UNL     1       8.021   4.805  -7.328  1.00  0.00    -0.000 C 
BRANCH  24  25
ATOM     25  C   UNL     1       9.225   3.960  -7.770  1.00  0.00    -0.003 C 
ATOM     26  C   UNL     1      10.426   4.807  -8.187  1.00  0.00     0.004 C 
ENDBRANCH  24  25
ENDBRANCH  23  24
ENDBRANCH  22  23
ENDBRANCH  21  22
ENDBRANCH  20  21
ENDBRANCH  19  20
ENDBRANCH  18  19
ENDBRANCH  17  18
ENDBRANCH  16  17
ENDBRANCH  15  16
ENDBRANCH   1  15
TORSDOF 22
ENDMDL
MODEL 9
REMARK VINA RESULT:    -3.941      3.522      4.927
REMARK INTER + INTRA:         -12.176
REMARK INTER:                  -8.315
REMARK INTRA:                  -3.861
REMARK UNBOUND:                -3.166
REMARK SMILES CCCCCCCCCCCCCCCCCCCCCCCC(=O)[O-]
REMARK SMILES IDX 13 1 14 2 15 3 16 4 17 5 18 6 19 7 20 8 21 9 22 10 23 11
REMARK SMILES IDX 24 12 25 13 26 14 12 15 11 16 10 17 9 18 8 19 7 20 6 21 5 22
REMARK SMILES IDX 4 23 3 24 2 25 1 26
REMARK H PARENT
REMARK Flexibility Score: inf
ROOT
ATOM      1  C   UNL     1       7.318   5.085  -3.014  1.00  0.00     0.000 C 
ENDROOT
BRANCH   1   2
ATOM      2  C   UNL     1       7.702   4.702  -1.577  1.00  0.00     0.000 C 
BRANCH   2   3
ATOM      3  C   UNL     1       9.196   4.364  -1.432  1.00  0.00     0.000 C 
BRANCH   3   4
ATOM      4  C   UNL     1       9.845   5.076  -0.234  1.00  0.00     0.000 C 
BRANCH   4   5
ATOM      5  C   UNL     1      10.815   6.190  -0.668  1.00  0.00     0.000 C 
BRANCH   5   6
ATOM      6  C   UNL     1      10.573   7.509   0.097  1.00  0.00     0.000 C 
BRANCH   6   7
ATOM      7  C   UNL     1       9.287   7.510   0.946  1.00  0.00     0.000 C 
BRANCH   7   8
ATOM      8  C   UNL     1       8.919   8.869   1.564  1.00  0.00     0.000 C 
BRANCH   8   9
ATOM      9  C   UNL     1       9.456   9.035   2.994  1.00  0.00     0.000 C 
BRANCH   9  10
ATOM     10  C   UNL     1       9.296   7.735   3.796  1.00  0.00     0.006 C 
BRANCH  10  11
ATOM     11  C   UNL     1       9.731   7.899   5.259  1.00  0.00     0.053 C 
BRANCH  11  12
ATOM     12  C   UNL     1       9.705   6.596   5.997  1.00  0.00     0.041 C 
ATOM     13  O   UNL     1       9.084   6.499   7.088  1.00  0.00    -0.550 OA
ATOM     14  O   UNL     1      10.401   5.502   5.502  1.00  0.00    -0.550 OA
ENDBRANCH  11  12
ENDBRANCH  10  11
ENDBRANCH   9  10
ENDBRANCH   8   9
ENDBRANCH   7   8
ENDBRANCH   6   7
ENDBRANCH   5   6
ENDBRANCH   4   5
ENDBRANCH   3   4
ENDBRANCH   2   3
ENDBRANCH   1   2
BRANCH   1  15
ATOM     15  C   UNL     1       6.996   6.582  -3.168  1.00  0.00     0.000 C 
BRANCH  15  16
ATOM     16  C   UNL     1       6.946   7.317  -1.819  1.00  0.00     0.000 C 
BRANCH  16  17
ATOM     17  C   UNL     1       7.452   8.764  -1.912  1.00  0.00     0.000 C 
BRANCH  17  18
ATOM     18  C   UNL     1       8.192   8.999  -3.236  1.00  0.00    -0.000 C 
BRANCH  18  19
ATOM     19  C   UNL     1       9.719   9.045  -3.062  1.00  0.00    -0.000 C 
BRANCH  19  20
ATOM     20  C   UNL     1      10.469   8.385  -4.234  1.00  0.00    -0.000 C 
BRANCH  20  21
ATOM     21  C   UNL     1      10.486   6.851  -4.136  1.00  0.00    -0.000 C 
BRANCH  21  22
ATOM     22  C   UNL     1       9.970   6.172  -5.417  1.00  0.00    -0.000 C 
BRANCH  22  23
ATOM     23  C   UNL     1       9.019   7.074  -6.221  1.00  0.00    -0.000 C 
BRANCH  23  24
ATOM     24  C   UNL     1       7.944   6.276  -6.978  1.00  0.00    -0.000 C 
BRANCH  24  25
ATOM     25  C   UNL     1       8.159   4.758  -6.881  1.00  0.00    -0.003 C 
ATOM     26  C   UNL     1       8.797   4.166  -8.136  1.00  0.00     0.004 C 
ENDBRANCH  24  25
ENDBRANCH  23  24
ENDBRANCH  22  23
ENDBRANCH  21  22
ENDBRANCH  20  21
ENDBRANCH  19  20
ENDBRANCH  18  19
ENDBRANCH  17  18
ENDBRANCH  16  17
ENDBRANCH  15  16
ENDBRANCH   1  15
TORSDOF 22
ENDMDL
