MODEL 1
REMARK VINA RESULT:    -3.911      0.000      0.000
REMARK INTER + INTRA:          -4.305
REMARK INTER:                  -4.254
REMARK INTRA:                  -0.052
REMARK UNBOUND:                -0.052
REMARK SMILES CCc1cccc(O)c1
REMARK SMILES IDX 3 1 9 2 7 3 6 4 5 5 4 6 2 7 1 8 8 9
REMARK H PARENT 8 10
REMARK Flexibility Score: inf
ROOT
ATOM      1  C   UNL     1     174.349 173.907 152.032  1.00  0.00    -0.045 A 
ATOM      2  C   UNL     1     172.984 173.860 152.363  1.00  0.00     0.049 A 
ATOM      3  C   UNL     1     172.583 173.797 153.705  1.00  0.00     0.115 A 
ATOM      4  C   UNL     1     173.546 173.772 154.719  1.00  0.00     0.046 A 
ATOM      5  C   UNL     1     174.907 173.805 154.395  1.00  0.00     0.004 A 
ATOM      6  C   UNL     1     175.308 173.867 153.058  1.00  0.00     0.004 A 
ENDROOT
BRANCH   1   7
ATOM      7  C   UNL     1     174.779 173.940 150.591  1.00  0.00     0.032 C 
ATOM      8  C   UNL     1     173.637 173.515 149.675  1.00  0.00     0.009 C 
ENDBRANCH   1   7
BRANCH   3   9
ATOM      9  O   UNL     1     171.232 173.757 154.042  1.00  0.00    -0.508 OA
ATOM     10  H   UNL     1     170.671 174.601 154.085  1.00  0.00     0.293 HD
ENDBRANCH   3   9
TORSDOF 2
ENDMDL
MODEL 2
REMARK VINA RESULT:    -3.877      3.233      4.371
REMARK INTER + INTRA:          -4.268
REMARK INTER:                  -4.208
REMARK INTRA:                  -0.061
REMARK UNBOUND:                -0.052
REMARK SMILES CCc1cccc(O)c1
REMARK SMILES IDX 3 1 9 2 7 3 6 4 5 5 4 6 2 7 1 8 8 9
REMARK H PARENT 8 10
REMARK Flexibility Score: inf
ROOT
ATOM      1  C   UNL     1     174.002 172.141 150.090  1.00  0.00    -0.045 A 
ATOM      2  C   UNL     1     172.699 171.650 149.901  1.00  0.00     0.049 A 
ATOM      3  C   UNL     1     172.452 170.270 149.923  1.00  0.00     0.115 A 
ATOM      4  C   UNL     1     173.510 169.378 150.126  1.00  0.00     0.046 A 
ATOM      5  C   UNL     1     174.811 169.859 150.302  1.00  0.00     0.004 A 
ATOM      6  C   UNL     1     175.058 171.235 150.279  1.00  0.00     0.004 A 
ENDROOT
BRANCH   1   7
ATOM      7  C   UNL     1     174.272 173.620 150.032  1.00  0.00     0.032 C 
ATOM      8  C   UNL     1     174.878 174.112 151.341  1.00  0.00     0.009 C 
ENDBRANCH   1   7
BRANCH   3   9
ATOM      9  O   UNL     1     171.162 169.776 149.743  1.00  0.00    -0.508 OA
ATOM     10  H   UNL     1     170.459 170.303 149.238  1.00  0.00     0.293 HD
ENDBRANCH   3   9
TORSDOF 2
ENDMDL
MODEL 3
REMARK VINA RESULT:    -3.867      2.706      3.625
REMARK INTER + INTRA:          -4.258
REMARK INTER:                  -4.185
REMARK INTRA:                  -0.073
REMARK UNBOUND:                -0.052
REMARK SMILES CCc1cccc(O)c1
REMARK SMILES IDX 3 1 9 2 7 3 6 4 5 5 4 6 2 7 1 8 8 9
REMARK H PARENT 8 10
REMARK Flexibility Score: inf
ROOT
ATOM      1  C   UNL     1     174.702 171.471 151.304  1.00  0.00    -0.045 A 
ATOM      2  C   UNL     1     174.821 172.236 152.477  1.00  0.00     0.049 A 
ATOM      3  C   UNL     1     174.918 173.633 152.405  1.00  0.00     0.115 A 
ATOM      4  C   UNL     1     174.903 174.267 151.159  1.00  0.00     0.046 A 
ATOM      5  C   UNL     1     174.798 173.512 149.987  1.00  0.00     0.004 A 
ATOM      6  C   UNL     1     174.703 172.119 150.057  1.00  0.00     0.004 A 
ENDROOT
BRANCH   1   7
ATOM      7  C   UNL     1     174.634 169.970 151.379  1.00  0.00     0.032 C 
ATOM      8  C   UNL     1     175.253 169.337 150.138  1.00  0.00     0.009 C 
ENDBRANCH   1   7
BRANCH   3   9
ATOM      9  O   UNL     1     175.029 174.397 153.564  1.00  0.00    -0.508 OA
ATOM     10  H   UNL     1     174.310 175.059 153.833  1.00  0.00     0.293 HD
ENDBRANCH   3   9
TORSDOF 2
ENDMDL
MODEL 4
REMARK VINA RESULT:    -3.837     13.606     14.145
REMARK INTER + INTRA:          -4.225
REMARK INTER:                  -4.159
REMARK INTRA:                  -0.066
REMARK UNBOUND:                -0.052
REMARK SMILES CCc1cccc(O)c1
REMARK SMILES IDX 3 1 9 2 7 3 6 4 5 5 4 6 2 7 1 8 8 9
REMARK H PARENT 8 10
REMARK Flexibility Score: inf
ROOT
ATOM      1  C   UNL     1     174.359 160.616 150.102  1.00  0.00    -0.045 A 
ATOM      2  C   UNL     1     174.193 159.275 150.487  1.00  0.00     0.049 A 
ATOM      3  C   UNL     1     172.910 158.717 150.573  1.00  0.00     0.115 A 
ATOM      4  C   UNL     1     171.789 159.501 150.281  1.00  0.00     0.046 A 
ATOM      5  C   UNL     1     171.947 160.840 149.910  1.00  0.00     0.004 A 
ATOM      6  C   UNL     1     173.226 161.398 149.825  1.00  0.00     0.004 A 
ENDROOT
BRANCH   1   7
ATOM      7  C   UNL     1     175.734 161.225 150.044  1.00  0.00     0.032 C 
ATOM      8  C   UNL     1     175.822 162.451 150.946  1.00  0.00     0.009 C 
ENDBRANCH   1   7
BRANCH   3   9
ATOM      9  O   UNL     1     172.738 157.386 150.947  1.00  0.00    -0.508 OA
ATOM     10  H   UNL     1     172.066 156.787 150.481  1.00  0.00     0.293 HD
ENDBRANCH   3   9
TORSDOF 2
ENDMDL
MODEL 5
REMARK VINA RESULT:    -3.808      3.357      4.726
REMARK INTER + INTRA:          -4.194
REMARK INTER:                  -4.144
REMARK INTRA:                  -0.050
REMARK UNBOUND:                -0.052
REMARK SMILES CCc1cccc(O)c1
REMARK SMILES IDX 3 1 9 2 7 3 6 4 5 5 4 6 2 7 1 8 8 9
REMARK H PARENT 8 10
REMARK Flexibility Score: inf
ROOT
ATOM      1  C   UNL     1     174.135 172.388 150.128  1.00  0.00    -0.045 A 
ATOM      2  C   UNL     1     174.963 171.274 150.349  1.00  0.00     0.049 A 
ATOM      3  C   UNL     1     174.427 169.979 150.332  1.00  0.00     0.115 A 
ATOM      4  C   UNL     1     173.060 169.795 150.103  1.00  0.00     0.046 A 
ATOM      5  C   UNL     1     172.228 170.899 149.895  1.00  0.00     0.004 A 
ATOM      6  C   UNL     1     172.761 172.191 149.913  1.00  0.00     0.004 A 
ENDROOT
BRANCH   1   7
ATOM      7  C   UNL     1     174.704 173.780 150.180  1.00  0.00     0.032 C 
ATOM      8  C   UNL     1     175.037 174.174 151.615  1.00  0.00     0.009 C 
ENDBRANCH   1   7
BRANCH   3   9
ATOM      9  O   UNL     1     175.243 168.870 150.543  1.00  0.00    -0.508 OA
ATOM     10  H   UNL     1     176.115 168.750 150.041  1.00  0.00     0.293 HD
ENDBRANCH   3   9
TORSDOF 2
ENDMDL
MODEL 6
REMARK VINA RESULT:    -3.800      1.217      3.133
REMARK INTER + INTRA:          -4.185
REMARK INTER:                  -4.139
REMARK INTRA:                  -0.046
REMARK UNBOUND:                -0.052
REMARK SMILES CCc1cccc(O)c1
REMARK SMILES IDX 3 1 9 2 7 3 6 4 5 5 4 6 2 7 1 8 8 9
REMARK H PARENT 8 10
REMARK Flexibility Score: inf
ROOT
ATOM      1  C   UNL     1     174.377 173.747 152.377  1.00  0.00    -0.045 A 
ATOM      2  C   UNL     1     173.114 174.237 152.754  1.00  0.00     0.049 A 
ATOM      3  C   UNL     1     172.120 174.450 151.789  1.00  0.00     0.115 A 
ATOM      4  C   UNL     1     172.389 174.182 150.443  1.00  0.00     0.046 A 
ATOM      5  C   UNL     1     173.647 173.707 150.059  1.00  0.00     0.004 A 
ATOM      6  C   UNL     1     174.639 173.495 151.020  1.00  0.00     0.004 A 
ENDROOT
BRANCH   1   7
ATOM      7  C   UNL     1     175.454 173.551 153.408  1.00  0.00     0.032 C 
ATOM      8  C   UNL     1     175.131 172.364 154.310  1.00  0.00     0.009 C 
ENDBRANCH   1   7
BRANCH   3   9
ATOM      9  O   UNL     1     170.865 174.929 152.156  1.00  0.00    -0.508 OA
ATOM     10  H   UNL     1     170.732 175.476 152.999  1.00  0.00     0.293 HD
ENDBRANCH   3   9
TORSDOF 2
ENDMDL
MODEL 7
REMARK VINA RESULT:    -3.725     12.816     13.278
REMARK INTER + INTRA:          -4.103
REMARK INTER:                  -4.055
REMARK INTRA:                  -0.048
REMARK UNBOUND:                -0.052
REMARK SMILES CCc1cccc(O)c1
REMARK SMILES IDX 3 1 9 2 7 3 6 4 5 5 4 6 2 7 1 8 8 9
REMARK H PARENT 8 10
REMARK Flexibility Score: inf
ROOT
ATOM      1  C   UNL     1     175.929 160.319 152.320  1.00  0.00    -0.045 A 
ATOM      2  C   UNL     1     176.039 161.668 152.701  1.00  0.00     0.049 A 
ATOM      3  C   UNL     1     175.953 162.684 151.739  1.00  0.00     0.115 A 
ATOM      4  C   UNL     1     175.765 162.354 150.394  1.00  0.00     0.046 A 
ATOM      5  C   UNL     1     175.667 161.014 150.006  1.00  0.00     0.004 A 
ATOM      6  C   UNL     1     175.754 160.000 150.963  1.00  0.00     0.004 A 
ENDROOT
BRANCH   1   7
ATOM      7  C   UNL     1     176.056 159.227 153.347  1.00  0.00     0.032 C 
ATOM      8  C   UNL     1     175.328 159.606 154.633  1.00  0.00     0.009 C 
ENDBRANCH   1   7
BRANCH   3   9
ATOM      9  O   UNL     1     176.055 164.023 152.110  1.00  0.00    -0.508 OA
ATOM     10  H   UNL     1     176.060 164.765 151.420  1.00  0.00     0.293 HD
ENDBRANCH   3   9
TORSDOF 2
ENDMDL
MODEL 8
REMARK VINA RESULT:    -3.715     10.653     12.402
REMARK INTER + INTRA:          -4.093
REMARK INTER:                  -4.020
REMARK INTRA:                  -0.073
REMARK UNBOUND:                -0.052
REMARK SMILES CCc1cccc(O)c1
REMARK SMILES IDX 3 1 9 2 7 3 6 4 5 5 4 6 2 7 1 8 8 9
REMARK H PARENT 8 10
REMARK Flexibility Score: inf
ROOT
ATOM      1  C   UNL     1     174.932 174.398 164.579  1.00  0.00    -0.045 A 
ATOM      2  C   UNL     1     174.178 175.034 165.580  1.00  0.00     0.049 A 
ATOM      3  C   UNL     1     173.154 174.342 166.242  1.00  0.00     0.115 A 
ATOM      4  C   UNL     1     172.876 173.015 165.898  1.00  0.00     0.046 A 
ATOM      5  C   UNL     1     173.614 172.380 164.894  1.00  0.00     0.004 A 
ATOM      6  C   UNL     1     174.634 173.069 164.232  1.00  0.00     0.004 A 
ENDROOT
BRANCH   1   7
ATOM      7  C   UNL     1     176.008 175.151 163.845  1.00  0.00     0.032 C 
ATOM      8  C   UNL     1     176.122 174.665 162.404  1.00  0.00     0.009 C 
ENDBRANCH   1   7
BRANCH   3   9
ATOM      9  O   UNL     1     172.407 174.963 167.240  1.00  0.00    -0.508 OA
ATOM     10  H   UNL     1     171.872 175.804 167.055  1.00  0.00     0.293 HD
ENDBRANCH   3   9
TORSDOF 2
ENDMDL
MODEL 9
REMARK VINA RESULT:    -3.695      2.603      3.311
REMARK INTER + INTRA:          -4.071
REMARK INTER:                  -4.023
REMARK INTRA:                  -0.048
REMARK UNBOUND:                -0.052
REMARK SMILES CCc1cccc(O)c1
REMARK SMILES IDX 3 1 9 2 7 3 6 4 5 5 4 6 2 7 1 8 8 9
REMARK H PARENT 8 10
REMARK Flexibility Score: inf
ROOT
ATOM      1  C   UNL     1     173.097 173.201 150.259  1.00  0.00    -0.045 A 
ATOM      2  C   UNL     1     172.436 174.289 150.856  1.00  0.00     0.049 A 
ATOM      3  C   UNL     1     171.168 174.118 151.430  1.00  0.00     0.115 A 
ATOM      4  C   UNL     1     170.555 172.862 151.401  1.00  0.00     0.046 A 
ATOM      5  C   UNL     1     171.201 171.778 150.797  1.00  0.00     0.004 A 
ATOM      6  C   UNL     1     172.465 171.947 150.224  1.00  0.00     0.004 A 
ENDROOT
BRANCH   1   7
ATOM      7  C   UNL     1     174.442 173.392 149.613  1.00  0.00     0.032 C 
ATOM      8  C   UNL     1     175.311 174.332 150.441  1.00  0.00     0.009 C 
ENDBRANCH   1   7
BRANCH   3   9
ATOM      9  O   UNL     1     170.510 175.190 152.029  1.00  0.00    -0.508 OA
ATOM     10  H   UNL     1     170.830 175.585 152.905  1.00  0.00     0.293 HD
ENDBRANCH   3   9
TORSDOF 2
ENDMDL
