MODEL 1
REMARK VINA RESULT:    -7.683      0.000      0.000
REMARK INTER + INTRA:         -13.367
REMARK INTER:                 -12.174
REMARK INTRA:                  -1.193
REMARK UNBOUND:                -1.193
REMARK SMILES C[C@@H]1O[C@@H](O[C@H]2[C@H](Oc3cc(O)c4c(c3)O[C@H](c3ccc(O)cc3)CC4=O)O[C@@H](CO)[C@H](O)[C@H]2O)[C@H](O)[C@H](O)[C@@H]1O
REMARK SMILES IDX 6 1 34 2 32 3 29 4 28 5 7 6 5 7 4 8 1 9 2 10 40 11 3 12
REMARK SMILES IDX 38 13 36 14 41 15 39 17 37 19 35 21 8 23 9 24 10 25 15 26
REMARK SMILES IDX 11 27 14 28 13 29 16 30 26 31 17 32 27 33 25 34 12 35 18 37
REMARK SMILES IDX 19 38 24 39 20 40 23 41 21 42 22 43 33 45 30 47 31 48
REMARK H PARENT 41 16 39 18 37 20 35 22 12 36 22 44 33 46 31 49
REMARK Flexibility Score: inf
ROOT
ATOM      1  C   UNL     1      25.735 -24.603 -34.966  1.00  0.00     0.221 C 
ATOM      2  C   UNL     1      26.397 -23.506 -35.818  1.00  0.00     0.181 C 
ATOM      3  C   UNL     1      27.920 -23.715 -35.874  1.00  0.00     0.177 C 
ATOM      4  C   UNL     1      28.481 -23.879 -34.442  1.00  0.00     0.179 C 
ATOM      5  O   UNL     1      27.826 -24.940 -33.759  1.00  0.00    -0.332 OA
ATOM      6  C   UNL     1      26.440 -24.684 -33.592  1.00  0.00     0.339 C 
ENDROOT
BRANCH   1   7
ATOM      7  O   UNL     1      25.867 -25.846 -35.639  1.00  0.00    -0.337 OA
BRANCH   7   8
ATOM      8  C   UNL     1      24.943 -26.820 -35.170  1.00  0.00     0.282 C 
ATOM      9  C   UNL     1      25.023 -29.055 -38.103  1.00  0.00     0.041 C 
ATOM     10  C   UNL     1      24.740 -27.776 -37.310  1.00  0.00     0.150 C 
ATOM     11  C   UNL     1      23.269 -27.339 -37.476  1.00  0.00     0.174 C 
ATOM     12  O   UNL     1      25.049 -28.007 -35.945  1.00  0.00    -0.344 OA
ATOM     13  C   UNL     1      23.030 -26.063 -36.652  1.00  0.00     0.179 C 
ATOM     14  C   UNL     1      23.507 -26.251 -35.200  1.00  0.00     0.202 C 
BRANCH  11  15
ATOM     15  O   UNL     1      22.410 -28.368 -37.049  1.00  0.00    -0.388 OA
ATOM     16  H   UNL     1      22.866 -29.228 -37.249  1.00  0.00     0.211 HD
ENDBRANCH  11  15
BRANCH  13  17
ATOM     17  O   UNL     1      21.667 -25.724 -36.679  1.00  0.00    -0.387 OA
ATOM     18  H   UNL     1      21.168 -26.521 -36.364  1.00  0.00     0.211 HD
ENDBRANCH  13  17
BRANCH  14  19
ATOM     19  O   UNL     1      22.637 -27.121 -34.522  1.00  0.00    -0.385 OA
ATOM     20  H   UNL     1      23.005 -27.249 -33.607  1.00  0.00     0.211 HD
ENDBRANCH  14  19
ENDBRANCH   7   8
ENDBRANCH   1   7
BRANCH   2  21
ATOM     21  O   UNL     1      25.875 -23.523 -37.121  1.00  0.00    -0.387 OA
ATOM     22  H   UNL     1      25.620 -24.464 -37.315  1.00  0.00     0.211 HD
ENDBRANCH   2  21
BRANCH   6  23
ATOM     23  O   UNL     1      26.241 -23.489 -32.824  1.00  0.00    -0.462 OA
BRANCH  23  24
ATOM     24  C   UNL     1      27.021 -23.062 -31.736  1.00  0.00     0.130 A 
ATOM     25  C   UNL     1      27.877 -21.950 -31.799  1.00  0.00     0.093 A 
ATOM     26  C   UNL     1      26.912 -23.769 -30.538  1.00  0.00     0.094 A 
ATOM     27  C   UNL     1      28.605 -21.535 -30.675  1.00  0.00     0.133 A 
ATOM     28  C   UNL     1      27.652 -23.392 -29.416  1.00  0.00     0.138 A 
ATOM     29  C   UNL     1      28.518 -22.281 -29.470  1.00  0.00     0.102 A 
ATOM     30  O   UNL     1      27.506 -24.128 -28.230  1.00  0.00    -0.484 OA
ATOM     31  C   UNL     1      29.275 -21.962 -28.234  1.00  0.00     0.174 C 
ATOM     32  C   UNL     1      28.390 -23.984 -27.115  1.00  0.00     0.211 C 
ATOM     33  O   UNL     1      30.334 -21.281 -28.260  1.00  0.00    -0.294 OA
ATOM     34  C   UNL     1      28.786 -22.512 -26.928  1.00  0.00     0.131 C 
BRANCH  27  35
ATOM     35  O   UNL     1      29.363 -20.369 -30.798  1.00  0.00    -0.507 OA
ATOM     36  H   UNL     1      29.509 -19.879 -31.669  1.00  0.00     0.293 HD
ENDBRANCH  27  35
BRANCH  32  37
ATOM     37  C   UNL     1      27.737 -24.518 -25.863  1.00  0.00    -0.007 A 
ATOM     38  C   UNL     1      26.860 -23.713 -25.113  1.00  0.00     0.011 A 
ATOM     39  C   UNL     1      28.052 -25.806 -25.398  1.00  0.00     0.011 A 
ATOM     40  C   UNL     1      26.285 -24.203 -23.937  1.00  0.00     0.046 A 
ATOM     41  C   UNL     1      27.477 -26.291 -24.220  1.00  0.00     0.046 A 
ATOM     42  C   UNL     1      26.591 -25.491 -23.486  1.00  0.00     0.115 A 
BRANCH  42  43
ATOM     43  O   UNL     1      26.015 -25.963 -22.309  1.00  0.00    -0.508 OA
ATOM     44  H   UNL     1      25.203 -26.569 -22.324  1.00  0.00     0.293 HD
ENDBRANCH  42  43
ENDBRANCH  32  37
ENDBRANCH  23  24
ENDBRANCH   6  23
BRANCH   3  45
ATOM     45  O   UNL     1      28.525 -22.606 -36.491  1.00  0.00    -0.387 OA
ATOM     46  H   UNL     1      28.630 -22.833 -37.453  1.00  0.00     0.211 HD
ENDBRANCH   3  45
BRANCH   4  47
ATOM     47  C   UNL     1      29.980 -24.192 -34.486  1.00  0.00     0.191 C 
BRANCH  47  48
ATOM     48  O   UNL     1      30.713 -23.033 -34.193  1.00  0.00    -0.394 OA
ATOM     49  H   UNL     1      30.249 -22.599 -33.431  1.00  0.00     0.210 HD
ENDBRANCH  47  48
ENDBRANCH   4  47
TORSDOF 14
ENDMDL
MODEL 2
REMARK VINA RESULT:    -7.300      1.330      1.974
REMARK INTER + INTRA:         -12.760
REMARK INTER:                 -11.165
REMARK INTRA:                  -1.596
REMARK UNBOUND:                -1.193
REMARK SMILES C[C@@H]1O[C@@H](O[C@H]2[C@H](Oc3cc(O)c4c(c3)O[C@H](c3ccc(O)cc3)CC4=O)O[C@@H](CO)[C@H](O)[C@H]2O)[C@H](O)[C@H](O)[C@@H]1O
REMARK SMILES IDX 6 1 34 2 32 3 29 4 28 5 7 6 5 7 4 8 1 9 2 10 40 11 3 12
REMARK SMILES IDX 38 13 36 14 41 15 39 17 37 19 35 21 8 23 9 24 10 25 15 26
REMARK SMILES IDX 11 27 14 28 13 29 16 30 26 31 17 32 27 33 25 34 12 35 18 37
REMARK SMILES IDX 19 38 24 39 20 40 23 41 21 42 22 43 33 45 30 47 31 48
REMARK H PARENT 41 16 39 18 37 20 35 22 12 36 22 44 33 46 31 49
REMARK Flexibility Score: inf
ROOT
ATOM      1  C   UNL     1      25.862 -25.092 -34.813  1.00  0.00     0.221 C 
ATOM      2  C   UNL     1      25.214 -24.070 -35.762  1.00  0.00     0.181 C 
ATOM      3  C   UNL     1      26.277 -23.432 -36.672  1.00  0.00     0.177 C 
ATOM      4  C   UNL     1      27.450 -22.900 -35.816  1.00  0.00     0.179 C 
ATOM      5  O   UNL     1      27.997 -23.932 -35.006  1.00  0.00    -0.332 OA
ATOM      6  C   UNL     1      27.049 -24.430 -34.075  1.00  0.00     0.339 C 
ENDROOT
BRANCH   1   7
ATOM      7  O   UNL     1      26.334 -26.191 -35.577  1.00  0.00    -0.337 OA
BRANCH   7   8
ATOM      8  C   UNL     1      25.943 -27.444 -35.029  1.00  0.00     0.282 C 
ATOM      9  C   UNL     1      28.661 -29.493 -36.452  1.00  0.00     0.041 C 
ATOM     10  C   UNL     1      27.407 -28.614 -36.452  1.00  0.00     0.150 C 
ATOM     11  C   UNL     1      26.263 -29.285 -37.242  1.00  0.00     0.174 C 
ATOM     12  O   UNL     1      27.020 -28.369 -35.110  1.00  0.00    -0.344 OA
ATOM     13  C   UNL     1      25.025 -28.374 -37.202  1.00  0.00     0.179 C 
ATOM     14  C   UNL     1      24.686 -27.974 -35.754  1.00  0.00     0.202 C 
BRANCH  11  15
ATOM     15  O   UNL     1      25.967 -30.542 -36.685  1.00  0.00    -0.388 OA
ATOM     16  H   UNL     1      26.677 -30.738 -36.018  1.00  0.00     0.211 HD
ENDBRANCH  11  15
BRANCH  13  17
ATOM     17  O   UNL     1      23.932 -29.025 -37.797  1.00  0.00    -0.387 OA
ATOM     18  H   UNL     1      24.300 -29.788 -38.314  1.00  0.00     0.211 HD
ENDBRANCH  13  17
BRANCH  14  19
ATOM     19  O   UNL     1      24.171 -29.082 -35.062  1.00  0.00    -0.385 OA
ATOM     20  H   UNL     1      24.615 -29.104 -34.172  1.00  0.00     0.211 HD
ENDBRANCH  14  19
ENDBRANCH   7   8
ENDBRANCH   1   7
BRANCH   2  21
ATOM     21  O   UNL     1      24.236 -24.695 -36.552  1.00  0.00    -0.387 OA
ATOM     22  H   UNL     1      23.888 -25.462 -36.025  1.00  0.00     0.211 HD
ENDBRANCH   2  21
BRANCH   6  23
ATOM     23  O   UNL     1      26.610 -23.382 -33.200  1.00  0.00    -0.462 OA
BRANCH  23  24
ATOM     24  C   UNL     1      27.289 -22.908 -32.065  1.00  0.00     0.130 A 
ATOM     25  C   UNL     1      28.036 -21.718 -32.063  1.00  0.00     0.093 A 
ATOM     26  C   UNL     1      27.191 -23.650 -30.888  1.00  0.00     0.094 A 
ATOM     27  C   UNL     1      28.664 -21.262 -30.895  1.00  0.00     0.133 A 
ATOM     28  C   UNL     1      27.835 -23.232 -29.722  1.00  0.00     0.138 A 
ATOM     29  C   UNL     1      28.591 -22.042 -29.711  1.00  0.00     0.102 A 
ATOM     30  O   UNL     1      27.703 -24.006 -28.560  1.00  0.00    -0.484 OA
ATOM     31  C   UNL     1      29.251 -21.681 -28.432  1.00  0.00     0.174 C 
ATOM     32  C   UNL     1      28.512 -23.804 -27.398  1.00  0.00     0.211 C 
ATOM     33  O   UNL     1      30.240 -20.901 -28.390  1.00  0.00    -0.294 OA
ATOM     34  C   UNL     1      28.754 -22.307 -27.163  1.00  0.00     0.131 C 
BRANCH  27  35
ATOM     35  O   UNL     1      29.310 -20.026 -30.957  1.00  0.00    -0.507 OA
ATOM     36  H   UNL     1      30.295 -19.912 -31.151  1.00  0.00     0.293 HD
ENDBRANCH  27  35
BRANCH  32  37
ATOM     37  C   UNL     1      27.853 -24.428 -26.192  1.00  0.00    -0.007 A 
ATOM     38  C   UNL     1      27.128 -23.637 -25.283  1.00  0.00     0.011 A 
ATOM     39  C   UNL     1      28.014 -25.800 -25.930  1.00  0.00     0.011 A 
ATOM     40  C   UNL     1      26.548 -24.216 -24.150  1.00  0.00     0.046 A 
ATOM     41  C   UNL     1      27.436 -26.374 -24.795  1.00  0.00     0.046 A 
ATOM     42  C   UNL     1      26.700 -25.584 -23.902  1.00  0.00     0.115 A 
BRANCH  42  43
ATOM     43  O   UNL     1      26.122 -26.146 -22.766  1.00  0.00    -0.508 OA
ATOM     44  H   UNL     1      26.602 -26.857 -22.226  1.00  0.00     0.293 HD
ENDBRANCH  42  43
ENDBRANCH  32  37
ENDBRANCH  23  24
ENDBRANCH   6  23
BRANCH   3  45
ATOM     45  O   UNL     1      25.704 -22.372 -37.394  1.00  0.00    -0.387 OA
ATOM     46  H   UNL     1      24.732 -22.569 -37.475  1.00  0.00     0.211 HD
ENDBRANCH   3  45
BRANCH   4  47
ATOM     47  C   UNL     1      28.565 -22.356 -36.715  1.00  0.00     0.191 C 
BRANCH  47  48
ATOM     48  O   UNL     1      28.341 -22.753 -38.041  1.00  0.00    -0.394 OA
ATOM     49  H   UNL     1      27.414 -23.108 -38.069  1.00  0.00     0.210 HD
ENDBRANCH  47  48
ENDBRANCH   4  47
TORSDOF 14
ENDMDL
MODEL 3
REMARK VINA RESULT:    -7.238      3.094     11.037
REMARK INTER + INTRA:         -12.663
REMARK INTER:                 -10.912
REMARK INTRA:                  -1.751
REMARK UNBOUND:                -1.193
REMARK SMILES C[C@@H]1O[C@@H](O[C@H]2[C@H](Oc3cc(O)c4c(c3)O[C@H](c3ccc(O)cc3)CC4=O)O[C@@H](CO)[C@H](O)[C@H]2O)[C@H](O)[C@H](O)[C@@H]1O
REMARK SMILES IDX 6 1 34 2 32 3 29 4 28 5 7 6 5 7 4 8 1 9 2 10 40 11 3 12
REMARK SMILES IDX 38 13 36 14 41 15 39 17 37 19 35 21 8 23 9 24 10 25 15 26
REMARK SMILES IDX 11 27 14 28 13 29 16 30 26 31 17 32 27 33 25 34 12 35 18 37
REMARK SMILES IDX 19 38 24 39 20 40 23 41 21 42 22 43 33 45 30 47 31 48
REMARK H PARENT 41 16 39 18 37 20 35 22 12 36 22 44 33 46 31 49
REMARK Flexibility Score: inf
ROOT
ATOM      1  C   UNL     1      29.678 -21.671 -26.266  1.00  0.00     0.221 C 
ATOM      2  C   UNL     1      28.345 -22.258 -25.771  1.00  0.00     0.181 C 
ATOM      3  C   UNL     1      28.341 -23.789 -25.921  1.00  0.00     0.177 C 
ATOM      4  C   UNL     1      28.747 -24.174 -27.363  1.00  0.00     0.179 C 
ATOM      5  O   UNL     1      30.007 -23.611 -27.704  1.00  0.00    -0.332 OA
ATOM      6  C   UNL     1      29.971 -22.193 -27.693  1.00  0.00     0.339 C 
ENDROOT
BRANCH   1   7
ATOM      7  O   UNL     1      30.714 -22.085 -25.389  1.00  0.00    -0.337 OA
BRANCH   7   8
ATOM      8  C   UNL     1      31.543 -21.005 -24.976  1.00  0.00     0.282 C 
ATOM      9  C   UNL     1      34.620 -22.021 -26.738  1.00  0.00     0.041 C 
ATOM     10  C   UNL     1      33.486 -22.108 -25.713  1.00  0.00     0.150 C 
ATOM     11  C   UNL     1      34.044 -22.291 -24.286  1.00  0.00     0.174 C 
ATOM     12  O   UNL     1      32.698 -20.932 -25.802  1.00  0.00    -0.344 OA
ATOM     13  C   UNL     1      32.872 -22.359 -23.294  1.00  0.00     0.179 C 
ATOM     14  C   UNL     1      31.921 -21.163 -23.487  1.00  0.00     0.202 C 
BRANCH  11  15
ATOM     15  O   UNL     1      34.900 -21.221 -23.964  1.00  0.00    -0.388 OA
ATOM     16  H   UNL     1      35.661 -21.602 -23.453  1.00  0.00     0.211 HD
ENDBRANCH  11  15
BRANCH  13  17
ATOM     17  O   UNL     1      33.359 -22.388 -21.977  1.00  0.00    -0.387 OA
ATOM     18  H   UNL     1      33.878 -21.552 -21.845  1.00  0.00     0.211 HD
ENDBRANCH  13  17
BRANCH  14  19
ATOM     19  O   UNL     1      32.536 -19.987 -23.026  1.00  0.00    -0.385 OA
ATOM     20  H   UNL     1      31.967 -19.627 -22.293  1.00  0.00     0.211 HD
ENDBRANCH  14  19
ENDBRANCH   7   8
ENDBRANCH   1   7
BRANCH   2  21
ATOM     21  O   UNL     1      28.139 -21.920 -24.423  1.00  0.00    -0.387 OA
ATOM     22  H   UNL     1      28.384 -20.963 -24.326  1.00  0.00     0.211 HD
ENDBRANCH   2  21
BRANCH   6  23
ATOM     23  O   UNL     1      29.011 -21.709 -28.641  1.00  0.00    -0.462 OA
BRANCH  23  24
ATOM     24  C   UNL     1      29.126 -21.763 -30.040  1.00  0.00     0.130 A 
ATOM     25  C   UNL     1      30.254 -21.293 -30.733  1.00  0.00     0.093 A 
ATOM     26  C   UNL     1      28.075 -22.332 -30.760  1.00  0.00     0.094 A 
ATOM     27  C   UNL     1      30.343 -21.405 -32.128  1.00  0.00     0.133 A 
ATOM     28  C   UNL     1      28.129 -22.425 -32.152  1.00  0.00     0.138 A 
ATOM     29  C   UNL     1      29.255 -21.951 -32.857  1.00  0.00     0.102 A 
ATOM     30  O   UNL     1      27.052 -23.011 -32.834  1.00  0.00    -0.484 OA
ATOM     31  C   UNL     1      29.219 -22.078 -34.335  1.00  0.00     0.174 C 
ATOM     32  C   UNL     1      26.897 -22.929 -34.253  1.00  0.00     0.211 C 
ATOM     33  O   UNL     1      29.940 -21.364 -35.082  1.00  0.00    -0.294 OA
ATOM     34  C   UNL     1      28.258 -23.050 -34.952  1.00  0.00     0.131 C 
BRANCH  27  35
ATOM     35  O   UNL     1      31.535 -20.995 -32.728  1.00  0.00    -0.507 OA
ATOM     36  H   UNL     1      31.596 -20.265 -33.424  1.00  0.00     0.293 HD
ENDBRANCH  27  35
BRANCH  32  37
ATOM     37  C   UNL     1      25.959 -24.009 -34.736  1.00  0.00    -0.007 A 
ATOM     38  C   UNL     1      25.671 -25.123 -33.927  1.00  0.00     0.011 A 
ATOM     39  C   UNL     1      25.412 -23.942 -36.029  1.00  0.00     0.011 A 
ATOM     40  C   UNL     1      24.827 -26.134 -34.394  1.00  0.00     0.046 A 
ATOM     41  C   UNL     1      24.571 -24.957 -36.493  1.00  0.00     0.046 A 
ATOM     42  C   UNL     1      24.275 -26.056 -35.676  1.00  0.00     0.115 A 
BRANCH  42  43
ATOM     43  O   UNL     1      23.441 -27.075 -36.130  1.00  0.00    -0.508 OA
ATOM     44  H   UNL     1      22.648 -27.391 -35.584  1.00  0.00     0.293 HD
ENDBRANCH  42  43
ENDBRANCH  32  37
ENDBRANCH  23  24
ENDBRANCH   6  23
BRANCH   3  45
ATOM     45  O   UNL     1      27.057 -24.286 -25.646  1.00  0.00    -0.387 OA
ATOM     46  H   UNL     1      26.685 -24.617 -26.507  1.00  0.00     0.211 HD
ENDBRANCH   3  45
BRANCH   4  47
ATOM     47  C   UNL     1      28.850 -25.696 -27.502  1.00  0.00     0.191 C 
BRANCH  47  48
ATOM     48  O   UNL     1      27.571 -26.243 -27.676  1.00  0.00    -0.394 OA
ATOM     49  H   UNL     1      26.932 -25.562 -27.342  1.00  0.00     0.210 HD
ENDBRANCH  47  48
ENDBRANCH   4  47
TORSDOF 14
ENDMDL
MODEL 4
REMARK VINA RESULT:    -7.154      2.744      9.334
REMARK INTER + INTRA:         -12.529
REMARK INTER:                 -11.454
REMARK INTRA:                  -1.075
REMARK UNBOUND:                -1.193
REMARK SMILES C[C@@H]1O[C@@H](O[C@H]2[C@H](Oc3cc(O)c4c(c3)O[C@H](c3ccc(O)cc3)CC4=O)O[C@@H](CO)[C@H](O)[C@H]2O)[C@H](O)[C@H](O)[C@@H]1O
REMARK SMILES IDX 6 1 34 2 32 3 29 4 28 5 7 6 5 7 4 8 1 9 2 10 40 11 3 12
REMARK SMILES IDX 38 13 36 14 41 15 39 17 37 19 35 21 8 23 9 24 10 25 15 26
REMARK SMILES IDX 11 27 14 28 13 29 16 30 26 31 17 32 27 33 25 34 12 35 18 37
REMARK SMILES IDX 19 38 24 39 20 40 23 41 21 42 22 43 33 45 30 47 31 48
REMARK H PARENT 41 16 39 18 37 20 35 22 12 36 22 44 33 46 31 49
REMARK Flexibility Score: inf
ROOT
ATOM      1  C   UNL     1      29.940 -23.402 -33.435  1.00  0.00     0.221 C 
ATOM      2  C   UNL     1      30.233 -22.430 -34.591  1.00  0.00     0.181 C 
ATOM      3  C   UNL     1      28.949 -21.698 -35.018  1.00  0.00     0.177 C 
ATOM      4  C   UNL     1      27.822 -22.725 -35.278  1.00  0.00     0.179 C 
ATOM      5  O   UNL     1      27.610 -23.546 -34.137  1.00  0.00    -0.332 OA
ATOM      6  C   UNL     1      28.757 -24.321 -33.823  1.00  0.00     0.339 C 
ENDROOT
BRANCH   1   7
ATOM      7  O   UNL     1      29.597 -22.651 -32.281  1.00  0.00    -0.337 OA
BRANCH   7   8
ATOM      8  C   UNL     1      30.291 -23.087 -31.119  1.00  0.00     0.282 C 
ATOM      9  C   UNL     1      27.624 -25.198 -29.692  1.00  0.00     0.041 C 
ATOM     10  C   UNL     1      28.313 -23.908 -30.146  1.00  0.00     0.150 C 
ATOM     11  C   UNL     1      28.315 -22.856 -29.016  1.00  0.00     0.174 C 
ATOM     12  O   UNL     1      29.637 -24.215 -30.553  1.00  0.00    -0.344 OA
ATOM     13  C   UNL     1      29.027 -21.587 -29.512  1.00  0.00     0.179 C 
ATOM     14  C   UNL     1      30.408 -21.931 -30.102  1.00  0.00     0.202 C 
BRANCH  11  15
ATOM     15  O   UNL     1      28.965 -23.373 -27.879  1.00  0.00    -0.388 OA
ATOM     16  H   UNL     1      29.939 -23.359 -28.072  1.00  0.00     0.211 HD
ENDBRANCH  11  15
BRANCH  13  17
ATOM     17  O   UNL     1      29.161 -20.669 -28.458  1.00  0.00    -0.387 OA
ATOM     18  H   UNL     1      28.289 -20.204 -28.371  1.00  0.00     0.211 HD
ENDBRANCH  13  17
BRANCH  14  19
ATOM     19  O   UNL     1      31.290 -22.293 -29.071  1.00  0.00    -0.385 OA
ATOM     20  H   UNL     1      32.010 -22.844 -29.481  1.00  0.00     0.211 HD
ENDBRANCH  14  19
ENDBRANCH   7   8
ENDBRANCH   1   7
BRANCH   2  21
ATOM     21  O   UNL     1      31.199 -21.489 -34.198  1.00  0.00    -0.387 OA
ATOM     22  H   UNL     1      31.144 -21.417 -33.209  1.00  0.00     0.211 HD
ENDBRANCH   2  21
BRANCH   6  23
ATOM     23  O   UNL     1      29.093 -25.183 -34.918  1.00  0.00    -0.462 OA
BRANCH  23  24
ATOM     24  C   UNL     1      28.281 -26.194 -35.458  1.00  0.00     0.130 A 
ATOM     25  C   UNL     1      28.794 -27.412 -35.936  1.00  0.00     0.093 A 
ATOM     26  C   UNL     1      26.904 -25.976 -35.495  1.00  0.00     0.094 A 
ATOM     27  C   UNL     1      27.941 -28.410 -36.429  1.00  0.00     0.133 A 
ATOM     28  C   UNL     1      26.040 -26.942 -36.011  1.00  0.00     0.138 A 
ATOM     29  C   UNL     1      26.544 -28.166 -36.498  1.00  0.00     0.102 A 
ATOM     30  O   UNL     1      24.661 -26.682 -36.022  1.00  0.00    -0.484 OA
ATOM     31  C   UNL     1      25.554 -29.129 -37.041  1.00  0.00     0.174 C 
ATOM     32  C   UNL     1      23.726 -27.487 -36.747  1.00  0.00     0.211 C 
ATOM     33  O   UNL     1      25.886 -30.044 -37.841  1.00  0.00    -0.294 OA
ATOM     34  C   UNL     1      24.112 -28.970 -36.661  1.00  0.00     0.131 C 
BRANCH  27  35
ATOM     35  O   UNL     1      28.523 -29.623 -36.800  1.00  0.00    -0.507 OA
ATOM     36  H   UNL     1      29.335 -29.702 -37.396  1.00  0.00     0.293 HD
ENDBRANCH  27  35
BRANCH  32  37
ATOM     37  C   UNL     1      22.332 -27.273 -36.210  1.00  0.00    -0.007 A 
ATOM     38  C   UNL     1      21.616 -26.103 -36.522  1.00  0.00     0.011 A 
ATOM     39  C   UNL     1      21.759 -28.215 -35.339  1.00  0.00     0.011 A 
ATOM     40  C   UNL     1      20.338 -25.897 -35.996  1.00  0.00     0.046 A 
ATOM     41  C   UNL     1      20.482 -28.004 -34.812  1.00  0.00     0.046 A 
ATOM     42  C   UNL     1      19.767 -26.844 -35.140  1.00  0.00     0.115 A 
BRANCH  42  43
ATOM     43  O   UNL     1      18.495 -26.622 -34.617  1.00  0.00    -0.508 OA
ATOM     44  H   UNL     1      17.826 -26.026 -35.091  1.00  0.00     0.293 HD
ENDBRANCH  42  43
ENDBRANCH  32  37
ENDBRANCH  23  24
ENDBRANCH   6  23
BRANCH   3  45
ATOM     45  O   UNL     1      29.194 -20.963 -36.190  1.00  0.00    -0.387 OA
ATOM     46  H   UNL     1      30.168 -20.762 -36.206  1.00  0.00     0.211 HD
ENDBRANCH   3  45
BRANCH   4  47
ATOM     47  C   UNL     1      26.508 -22.008 -35.602  1.00  0.00     0.191 C 
BRANCH  47  48
ATOM     48  O   UNL     1      26.460 -21.707 -36.971  1.00  0.00    -0.394 OA
ATOM     49  H   UNL     1      26.005 -22.474 -37.406  1.00  0.00     0.210 HD
ENDBRANCH  47  48
ENDBRANCH   4  47
TORSDOF 14
ENDMDL
MODEL 5
REMARK VINA RESULT:    -7.096      3.611     10.216
REMARK INTER + INTRA:         -12.437
REMARK INTER:                 -10.789
REMARK INTRA:                  -1.647
REMARK UNBOUND:                -1.193
REMARK SMILES C[C@@H]1O[C@@H](O[C@H]2[C@H](Oc3cc(O)c4c(c3)O[C@H](c3ccc(O)cc3)CC4=O)O[C@@H](CO)[C@H](O)[C@H]2O)[C@H](O)[C@H](O)[C@@H]1O
REMARK SMILES IDX 6 1 34 2 32 3 29 4 28 5 7 6 5 7 4 8 1 9 2 10 40 11 3 12
REMARK SMILES IDX 38 13 36 14 41 15 39 17 37 19 35 21 8 23 9 24 10 25 15 26
REMARK SMILES IDX 11 27 14 28 13 29 16 30 26 31 17 32 27 33 25 34 12 35 18 37
REMARK SMILES IDX 19 38 24 39 20 40 23 41 21 42 22 43 33 45 30 47 31 48
REMARK H PARENT 41 16 39 18 37 20 35 22 12 36 22 44 33 46 31 49
REMARK Flexibility Score: inf
ROOT
ATOM      1  C   UNL     1      29.554 -23.049 -26.989  1.00  0.00     0.221 C 
ATOM      2  C   UNL     1      31.036 -23.441 -26.863  1.00  0.00     0.181 C 
ATOM      3  C   UNL     1      31.760 -22.501 -25.884  1.00  0.00     0.177 C 
ATOM      4  C   UNL     1      31.488 -21.029 -26.272  1.00  0.00     0.179 C 
ATOM      5  O   UNL     1      30.092 -20.767 -26.324  1.00  0.00    -0.332 OA
ATOM      6  C   UNL     1      29.446 -21.542 -27.321  1.00  0.00     0.339 C 
ENDROOT
BRANCH   1   7
ATOM      7  O   UNL     1      28.905 -23.308 -25.753  1.00  0.00    -0.337 OA
BRANCH   7   8
ATOM      8  C   UNL     1      27.836 -24.237 -25.882  1.00  0.00     0.282 C 
ATOM      9  C   UNL     1      25.386 -22.496 -23.744  1.00  0.00     0.041 C 
ATOM     10  C   UNL     1      26.666 -23.263 -24.089  1.00  0.00     0.150 C 
ATOM     11  C   UNL     1      26.830 -24.499 -23.179  1.00  0.00     0.174 C 
ATOM     12  O   UNL     1      26.618 -23.642 -25.455  1.00  0.00    -0.344 OA
ATOM     13  C   UNL     1      28.118 -25.242 -23.571  1.00  0.00     0.179 C 
ATOM     14  C   UNL     1      28.148 -25.523 -25.086  1.00  0.00     0.202 C 
BRANCH  11  15
ATOM     15  O   UNL     1      25.714 -25.345 -23.312  1.00  0.00    -0.388 OA
ATOM     16  H   UNL     1      25.874 -25.913 -24.111  1.00  0.00     0.211 HD
ENDBRANCH  11  15
BRANCH  13  17
ATOM     17  O   UNL     1      28.217 -26.443 -22.850  1.00  0.00    -0.387 OA
ATOM     18  H   UNL     1      28.687 -27.091 -23.436  1.00  0.00     0.211 HD
ENDBRANCH  13  17
BRANCH  14  19
ATOM     19  O   UNL     1      27.209 -26.518 -25.404  1.00  0.00    -0.385 OA
ATOM     20  H   UNL     1      26.532 -26.526 -24.675  1.00  0.00     0.211 HD
ENDBRANCH  14  19
ENDBRANCH   7   8
ENDBRANCH   1   7
BRANCH   2  21
ATOM     21  O   UNL     1      31.149 -24.765 -26.410  1.00  0.00    -0.387 OA
ATOM     22  H   UNL     1      30.960 -25.352 -27.189  1.00  0.00     0.211 HD
ENDBRANCH   2  21
BRANCH   6  23
ATOM     23  O   UNL     1      29.989 -21.246 -28.615  1.00  0.00    -0.462 OA
BRANCH  23  24
ATOM     24  C   UNL     1      29.540 -21.763 -29.842  1.00  0.00     0.130 A 
ATOM     25  C   UNL     1      28.390 -21.290 -30.495  1.00  0.00     0.093 A 
ATOM     26  C   UNL     1      30.293 -22.774 -30.438  1.00  0.00     0.094 A 
ATOM     27  C   UNL     1      28.003 -21.808 -31.739  1.00  0.00     0.133 A 
ATOM     28  C   UNL     1      29.908 -23.326 -31.661  1.00  0.00     0.138 A 
ATOM     29  C   UNL     1      28.752 -22.863 -32.323  1.00  0.00     0.102 A 
ATOM     30  O   UNL     1      30.700 -24.337 -32.227  1.00  0.00    -0.484 OA
ATOM     31  C   UNL     1      28.412 -23.517 -33.611  1.00  0.00     0.174 C 
ATOM     32  C   UNL     1      30.266 -25.132 -33.335  1.00  0.00     0.211 C 
ATOM     33  O   UNL     1      27.245 -23.487 -34.084  1.00  0.00    -0.294 OA
ATOM     34  C   UNL     1      29.482 -24.276 -34.338  1.00  0.00     0.131 C 
BRANCH  27  35
ATOM     35  O   UNL     1      26.899 -21.222 -32.362  1.00  0.00    -0.507 OA
ATOM     36  H   UNL     1      26.583 -20.280 -32.181  1.00  0.00     0.293 HD
ENDBRANCH  27  35
BRANCH  32  37
ATOM     37  C   UNL     1      31.454 -25.777 -34.007  1.00  0.00    -0.007 A 
ATOM     38  C   UNL     1      31.327 -27.026 -34.641  1.00  0.00     0.011 A 
ATOM     39  C   UNL     1      32.717 -25.163 -33.949  1.00  0.00     0.011 A 
ATOM     40  C   UNL     1      32.438 -27.633 -35.233  1.00  0.00     0.046 A 
ATOM     41  C   UNL     1      33.826 -25.775 -34.540  1.00  0.00     0.046 A 
ATOM     42  C   UNL     1      33.690 -27.011 -35.185  1.00  0.00     0.115 A 
BRANCH  42  43
ATOM     43  O   UNL     1      34.790 -27.631 -35.774  1.00  0.00    -0.508 OA
ATOM     44  H   UNL     1      34.701 -28.156 -36.636  1.00  0.00     0.293 HD
ENDBRANCH  42  43
ENDBRANCH  32  37
ENDBRANCH  23  24
ENDBRANCH   6  23
BRANCH   3  45
ATOM     45  O   UNL     1      33.142 -22.751 -25.927  1.00  0.00    -0.387 OA
ATOM     46  H   UNL     1      33.540 -22.305 -25.132  1.00  0.00     0.211 HD
ENDBRANCH   3  45
BRANCH   4  47
ATOM     47  C   UNL     1      32.115 -20.080 -25.246  1.00  0.00     0.191 C 
BRANCH  47  48
ATOM     48  O   UNL     1      31.981 -20.619 -23.959  1.00  0.00    -0.394 OA
ATOM     49  H   UNL     1      32.388 -21.523 -23.995  1.00  0.00     0.210 HD
ENDBRANCH  47  48
ENDBRANCH   4  47
TORSDOF 14
ENDMDL
MODEL 6
REMARK VINA RESULT:    -6.829      3.625      9.323
REMARK INTER + INTRA:         -12.014
REMARK INTER:                 -10.274
REMARK INTRA:                  -1.740
REMARK UNBOUND:                -1.193
REMARK SMILES C[C@@H]1O[C@@H](O[C@H]2[C@H](Oc3cc(O)c4c(c3)O[C@H](c3ccc(O)cc3)CC4=O)O[C@@H](CO)[C@H](O)[C@H]2O)[C@H](O)[C@H](O)[C@@H]1O
REMARK SMILES IDX 6 1 34 2 32 3 29 4 28 5 7 6 5 7 4 8 1 9 2 10 40 11 3 12
REMARK SMILES IDX 38 13 36 14 41 15 39 17 37 19 35 21 8 23 9 24 10 25 15 26
REMARK SMILES IDX 11 27 14 28 13 29 16 30 26 31 17 32 27 33 25 34 12 35 18 37
REMARK SMILES IDX 19 38 24 39 20 40 23 41 21 42 22 43 33 45 30 47 31 48
REMARK H PARENT 41 16 39 18 37 20 35 22 12 36 22 44 33 46 31 49
REMARK Flexibility Score: inf
ROOT
ATOM      1  C   UNL     1      29.857 -25.763 -32.338  1.00  0.00     0.221 C 
ATOM      2  C   UNL     1      31.023 -26.452 -31.608  1.00  0.00     0.181 C 
ATOM      3  C   UNL     1      32.368 -26.027 -32.221  1.00  0.00     0.177 C 
ATOM      4  C   UNL     1      32.331 -26.223 -33.755  1.00  0.00     0.179 C 
ATOM      5  O   UNL     1      31.240 -25.517 -34.330  1.00  0.00    -0.332 OA
ATOM      6  C   UNL     1      29.991 -26.001 -33.861  1.00  0.00     0.339 C 
ENDROOT
BRANCH   1   7
ATOM      7  O   UNL     1      29.909 -24.370 -32.071  1.00  0.00    -0.337 OA
BRANCH   7   8
ATOM      8  C   UNL     1      28.737 -23.896 -31.420  1.00  0.00     0.282 C 
ATOM      9  C   UNL     1      26.938 -22.701 -34.410  1.00  0.00     0.041 C 
ATOM     10  C   UNL     1      28.037 -22.739 -33.345  1.00  0.00     0.150 C 
ATOM     11  C   UNL     1      28.229 -21.349 -32.700  1.00  0.00     0.174 C 
ATOM     12  O   UNL     1      27.694 -23.707 -32.367  1.00  0.00    -0.344 OA
ATOM     13  C   UNL     1      29.329 -21.439 -31.630  1.00  0.00     0.179 C 
ATOM     14  C   UNL     1      29.046 -22.593 -30.650  1.00  0.00     0.202 C 
BRANCH  11  15
ATOM     15  O   UNL     1      27.019 -20.915 -32.127  1.00  0.00    -0.388 OA
ATOM     16  H   UNL     1      26.928 -19.949 -32.340  1.00  0.00     0.211 HD
ENDBRANCH  11  15
BRANCH  13  17
ATOM     17  O   UNL     1      29.425 -20.222 -30.938  1.00  0.00    -0.387 OA
ATOM     18  H   UNL     1      28.759 -20.257 -30.203  1.00  0.00     0.211 HD
ENDBRANCH  13  17
BRANCH  14  19
ATOM     19  O   UNL     1      27.959 -22.260 -29.825  1.00  0.00    -0.385 OA
ATOM     20  H   UNL     1      27.146 -22.662 -30.235  1.00  0.00     0.211 HD
ENDBRANCH  14  19
ENDBRANCH   7   8
ENDBRANCH   1   7
BRANCH   2  21
ATOM     21  O   UNL     1      31.005 -26.118 -30.244  1.00  0.00    -0.387 OA
ATOM     22  H   UNL     1      31.563 -25.303 -30.141  1.00  0.00     0.211 HD
ENDBRANCH   2  21
BRANCH   6  23
ATOM     23  O   UNL     1      29.834 -27.386 -34.196  1.00  0.00    -0.462 OA
BRANCH  23  24
ATOM     24  C   UNL     1      28.906 -27.920 -35.106  1.00  0.00     0.130 A 
ATOM     25  C   UNL     1      29.228 -28.942 -36.015  1.00  0.00     0.093 A 
ATOM     26  C   UNL     1      27.603 -27.421 -35.079  1.00  0.00     0.094 A 
ATOM     27  C   UNL     1      28.259 -29.473 -36.877  1.00  0.00     0.133 A 
ATOM     28  C   UNL     1      26.631 -27.913 -35.951  1.00  0.00     0.138 A 
ATOM     29  C   UNL     1      26.946 -28.934 -36.871  1.00  0.00     0.102 A 
ATOM     30  O   UNL     1      25.332 -27.385 -35.884  1.00  0.00    -0.484 OA
ATOM     31  C   UNL     1      25.852 -29.386 -37.767  1.00  0.00     0.174 C 
ATOM     32  C   UNL     1      24.341 -27.637 -36.884  1.00  0.00     0.211 C 
ATOM     33  O   UNL     1      26.086 -29.974 -38.857  1.00  0.00    -0.294 OA
ATOM     34  C   UNL     1      24.434 -29.086 -37.383  1.00  0.00     0.131 C 
BRANCH  27  35
ATOM     35  O   UNL     1      28.640 -30.546 -37.686  1.00  0.00    -0.507 OA
ATOM     36  H   UNL     1      29.598 -30.817 -37.850  1.00  0.00     0.293 HD
ENDBRANCH  27  35
BRANCH  32  37
ATOM     37  C   UNL     1      22.964 -27.357 -36.333  1.00  0.00    -0.007 A 
ATOM     38  C   UNL     1      22.221 -26.253 -36.789  1.00  0.00     0.011 A 
ATOM     39  C   UNL     1      22.437 -28.162 -35.309  1.00  0.00     0.011 A 
ATOM     40  C   UNL     1      20.960 -25.981 -36.251  1.00  0.00     0.046 A 
ATOM     41  C   UNL     1      21.177 -27.884 -34.771  1.00  0.00     0.046 A 
ATOM     42  C   UNL     1      20.435 -26.793 -35.241  1.00  0.00     0.115 A 
BRANCH  42  43
ATOM     43  O   UNL     1      19.179 -26.505 -34.710  1.00  0.00    -0.508 OA
ATOM     44  H   UNL     1      19.079 -26.042 -33.814  1.00  0.00     0.293 HD
ENDBRANCH  42  43
ENDBRANCH  32  37
ENDBRANCH  23  24
ENDBRANCH   6  23
BRANCH   3  45
ATOM     45  O   UNL     1      33.402 -26.806 -31.673  1.00  0.00    -0.387 OA
ATOM     46  H   UNL     1      32.977 -27.617 -31.284  1.00  0.00     0.211 HD
ENDBRANCH   3  45
BRANCH   4  47
ATOM     47  C   UNL     1      33.624 -25.707 -34.392  1.00  0.00     0.191 C 
BRANCH  47  48
ATOM     48  O   UNL     1      34.168 -24.686 -33.600  1.00  0.00    -0.394 OA
ATOM     49  H   UNL     1      34.868 -24.251 -34.153  1.00  0.00     0.210 HD
ENDBRANCH  47  48
ENDBRANCH   4  47
TORSDOF 14
ENDMDL
MODEL 7
REMARK VINA RESULT:    -6.817      2.595     11.000
REMARK INTER + INTRA:         -11.995
REMARK INTER:                 -10.426
REMARK INTRA:                  -1.569
REMARK UNBOUND:                -1.193
REMARK SMILES C[C@@H]1O[C@@H](O[C@H]2[C@H](Oc3cc(O)c4c(c3)O[C@H](c3ccc(O)cc3)CC4=O)O[C@@H](CO)[C@H](O)[C@H]2O)[C@H](O)[C@H](O)[C@@H]1O
REMARK SMILES IDX 6 1 34 2 32 3 29 4 28 5 7 6 5 7 4 8 1 9 2 10 40 11 3 12
REMARK SMILES IDX 38 13 36 14 41 15 39 17 37 19 35 21 8 23 9 24 10 25 15 26
REMARK SMILES IDX 11 27 14 28 13 29 16 30 26 31 17 32 27 33 25 34 12 35 18 37
REMARK SMILES IDX 19 38 24 39 20 40 23 41 21 42 22 43 33 45 30 47 31 48
REMARK H PARENT 41 16 39 18 37 20 35 22 12 36 22 44 33 46 31 49
REMARK Flexibility Score: inf
ROOT
ATOM      1  C   UNL     1      28.804 -22.886 -25.692  1.00  0.00     0.221 C 
ATOM      2  C   UNL     1      27.491 -22.795 -24.894  1.00  0.00     0.181 C 
ATOM      3  C   UNL     1      27.200 -24.127 -24.182  1.00  0.00     0.177 C 
ATOM      4  C   UNL     1      27.288 -25.293 -25.195  1.00  0.00     0.179 C 
ATOM      5  O   UNL     1      28.551 -25.305 -25.848  1.00  0.00    -0.332 OA
ATOM      6  C   UNL     1      28.761 -24.129 -26.612  1.00  0.00     0.339 C 
ENDROOT
BRANCH   1   7
ATOM      7  O   UNL     1      29.885 -23.009 -24.781  1.00  0.00    -0.337 OA
BRANCH   7   8
ATOM      8  C   UNL     1      31.143 -23.100 -25.437  1.00  0.00     0.282 C 
ATOM      9  C   UNL     1      33.298 -22.737 -22.465  1.00  0.00     0.041 C 
ATOM     10  C   UNL     1      32.285 -22.318 -23.534  1.00  0.00     0.150 C 
ATOM     11  C   UNL     1      32.708 -20.996 -24.209  1.00  0.00     0.174 C 
ATOM     12  O   UNL     1      32.171 -23.360 -24.490  1.00  0.00    -0.344 OA
ATOM     13  C   UNL     1      31.671 -20.625 -25.281  1.00  0.00     0.179 C 
ATOM     14  C   UNL     1      31.423 -21.809 -26.236  1.00  0.00     0.202 C 
BRANCH  11  15
ATOM     15  O   UNL     1      33.984 -21.138 -24.787  1.00  0.00    -0.388 OA
ATOM     16  H   UNL     1      34.258 -22.083 -24.654  1.00  0.00     0.211 HD
ENDBRANCH  11  15
BRANCH  13  17
ATOM     17  O   UNL     1      32.106 -19.500 -26.000  1.00  0.00    -0.387 OA
ATOM     18  H   UNL     1      33.068 -19.380 -25.790  1.00  0.00     0.211 HD
ENDBRANCH  13  17
BRANCH  14  19
ATOM     19  O   UNL     1      32.543 -21.995 -27.063  1.00  0.00    -0.385 OA
ATOM     20  H   UNL     1      32.847 -21.093 -27.351  1.00  0.00     0.211 HD
ENDBRANCH  14  19
ENDBRANCH   7   8
ENDBRANCH   1   7
BRANCH   2  21
ATOM     21  O   UNL     1      27.574 -21.766 -23.943  1.00  0.00    -0.387 OA
ATOM     22  H   UNL     1      27.726 -20.922 -24.445  1.00  0.00     0.211 HD
ENDBRANCH   2  21
BRANCH   6  23
ATOM     23  O   UNL     1      27.754 -24.003 -27.625  1.00  0.00    -0.462 OA
BRANCH  23  24
ATOM     24  C   UNL     1      27.916 -23.408 -28.887  1.00  0.00     0.130 A 
ATOM     25  C   UNL     1      28.750 -22.300 -29.108  1.00  0.00     0.093 A 
ATOM     26  C   UNL     1      27.229 -23.968 -29.965  1.00  0.00     0.094 A 
ATOM     27  C   UNL     1      28.913 -21.764 -30.394  1.00  0.00     0.133 A 
ATOM     28  C   UNL     1      27.352 -23.431 -31.248  1.00  0.00     0.138 A 
ATOM     29  C   UNL     1      28.183 -22.315 -31.479  1.00  0.00     0.102 A 
ATOM     30  O   UNL     1      26.648 -24.030 -32.303  1.00  0.00    -0.484 OA
ATOM     31  C   UNL     1      28.242 -21.803 -32.871  1.00  0.00     0.174 C 
ATOM     32  C   UNL     1      26.508 -23.417 -33.588  1.00  0.00     0.211 C 
ATOM     33  O   UNL     1      28.605 -20.625 -33.132  1.00  0.00    -0.294 OA
ATOM     34  C   UNL     1      27.807 -22.703 -33.989  1.00  0.00     0.131 C 
BRANCH  27  35
ATOM     35  O   UNL     1      29.828 -20.720 -30.541  1.00  0.00    -0.507 OA
ATOM     36  H   UNL     1      29.979 -20.218 -31.405  1.00  0.00     0.293 HD
ENDBRANCH  27  35
BRANCH  32  37
ATOM     37  C   UNL     1      26.136 -24.454 -34.620  1.00  0.00    -0.007 A 
ATOM     38  C   UNL     1      25.375 -24.100 -35.749  1.00  0.00     0.011 A 
ATOM     39  C   UNL     1      26.493 -25.800 -34.429  1.00  0.00     0.011 A 
ATOM     40  C   UNL     1      25.006 -25.072 -36.683  1.00  0.00     0.046 A 
ATOM     41  C   UNL     1      26.120 -26.768 -35.364  1.00  0.00     0.046 A 
ATOM     42  C   UNL     1      25.376 -26.407 -36.495  1.00  0.00     0.115 A 
BRANCH  42  43
ATOM     43  O   UNL     1      24.996 -27.365 -37.432  1.00  0.00    -0.508 OA
ATOM     44  H   UNL     1      24.941 -28.348 -37.190  1.00  0.00     0.293 HD
ENDBRANCH  42  43
ENDBRANCH  32  37
ENDBRANCH  23  24
ENDBRANCH   6  23
BRANCH   3  45
ATOM     45  O   UNL     1      25.914 -24.090 -23.620  1.00  0.00    -0.387 OA
ATOM     46  H   UNL     1      25.298 -23.761 -24.329  1.00  0.00     0.211 HD
ENDBRANCH   3  45
BRANCH   4  47
ATOM     47  C   UNL     1      27.104 -26.637 -24.483  1.00  0.00     0.191 C 
BRANCH  47  48
ATOM     48  O   UNL     1      25.750 -27.000 -24.500  1.00  0.00    -0.394 OA
ATOM     49  H   UNL     1      25.287 -26.310 -25.044  1.00  0.00     0.210 HD
ENDBRANCH  47  48
ENDBRANCH   4  47
TORSDOF 14
ENDMDL
MODEL 8
REMARK VINA RESULT:    -6.807      2.540      3.967
REMARK INTER + INTRA:         -11.980
REMARK INTER:                 -10.206
REMARK INTRA:                  -1.774
REMARK UNBOUND:                -1.193
REMARK SMILES C[C@@H]1O[C@@H](O[C@H]2[C@H](Oc3cc(O)c4c(c3)O[C@H](c3ccc(O)cc3)CC4=O)O[C@@H](CO)[C@H](O)[C@H]2O)[C@H](O)[C@H](O)[C@@H]1O
REMARK SMILES IDX 6 1 34 2 32 3 29 4 28 5 7 6 5 7 4 8 1 9 2 10 40 11 3 12
REMARK SMILES IDX 38 13 36 14 41 15 39 17 37 19 35 21 8 23 9 24 10 25 15 26
REMARK SMILES IDX 11 27 14 28 13 29 16 30 26 31 17 32 27 33 25 34 12 35 18 37
REMARK SMILES IDX 19 38 24 39 20 40 23 41 21 42 22 43 33 45 30 47 31 48
REMARK H PARENT 41 16 39 18 37 20 35 22 12 36 22 44 33 46 31 49
REMARK Flexibility Score: inf
ROOT
ATOM      1  C   UNL     1      27.438 -24.475 -34.145  1.00  0.00     0.221 C 
ATOM      2  C   UNL     1      26.435 -23.598 -34.914  1.00  0.00     0.181 C 
ATOM      3  C   UNL     1      27.171 -22.677 -35.901  1.00  0.00     0.177 C 
ATOM      4  C   UNL     1      28.300 -21.916 -35.167  1.00  0.00     0.179 C 
ATOM      5  O   UNL     1      29.188 -22.820 -34.524  1.00  0.00    -0.332 OA
ATOM      6  C   UNL     1      28.532 -23.578 -33.519  1.00  0.00     0.339 C 
ENDROOT
BRANCH   1   7
ATOM      7  O   UNL     1      28.038 -25.387 -35.052  1.00  0.00    -0.337 OA
BRANCH   7   8
ATOM      8  C   UNL     1      28.029 -26.724 -34.567  1.00  0.00     0.282 C 
ATOM      9  C   UNL     1      31.600 -26.967 -33.674  1.00  0.00     0.041 C 
ATOM     10  C   UNL     1      30.379 -26.833 -34.589  1.00  0.00     0.150 C 
ATOM     11  C   UNL     1      30.419 -27.883 -35.720  1.00  0.00     0.174 C 
ATOM     12  O   UNL     1      29.204 -26.976 -33.807  1.00  0.00    -0.344 OA
ATOM     13  C   UNL     1      29.170 -27.719 -36.601  1.00  0.00     0.179 C 
ATOM     14  C   UNL     1      27.891 -27.716 -35.743  1.00  0.00     0.202 C 
BRANCH  11  15
ATOM     15  O   UNL     1      30.468 -29.178 -35.171  1.00  0.00    -0.388 OA
ATOM     16  H   UNL     1      31.277 -29.219 -34.596  1.00  0.00     0.211 HD
ENDBRANCH  11  15
BRANCH  13  17
ATOM     17  O   UNL     1      29.117 -28.750 -37.553  1.00  0.00    -0.387 OA
ATOM     18  H   UNL     1      28.616 -29.498 -37.138  1.00  0.00     0.211 HD
ENDBRANCH  13  17
BRANCH  14  19
ATOM     19  O   UNL     1      27.648 -29.008 -35.247  1.00  0.00    -0.385 OA
ATOM     20  H   UNL     1      28.526 -29.473 -35.198  1.00  0.00     0.211 HD
ENDBRANCH  14  19
ENDBRANCH   7   8
ENDBRANCH   1   7
BRANCH   2  21
ATOM     21  O   UNL     1      25.526 -24.405 -35.616  1.00  0.00    -0.387 OA
ATOM     22  H   UNL     1      25.108 -23.830 -36.310  1.00  0.00     0.211 HD
ENDBRANCH   2  21
BRANCH   6  23
ATOM     23  O   UNL     1      27.993 -22.712 -32.511  1.00  0.00    -0.462 OA
BRANCH  23  24
ATOM     24  C   UNL     1      28.250 -22.783 -31.131  1.00  0.00     0.130 A 
ATOM     25  C   UNL     1      28.649 -21.672 -30.370  1.00  0.00     0.093 A 
ATOM     26  C   UNL     1      28.074 -24.013 -30.497  1.00  0.00     0.094 A 
ATOM     27  C   UNL     1      28.854 -21.780 -28.987  1.00  0.00     0.133 A 
ATOM     28  C   UNL     1      28.303 -24.151 -29.127  1.00  0.00     0.138 A 
ATOM     29  C   UNL     1      28.709 -23.043 -28.355  1.00  0.00     0.102 A 
ATOM     30  O   UNL     1      28.107 -25.405 -28.530  1.00  0.00    -0.484 OA
ATOM     31  C   UNL     1      28.943 -23.285 -26.910  1.00  0.00     0.174 C 
ATOM     32  C   UNL     1      28.548 -25.710 -27.204  1.00  0.00     0.211 C 
ATOM     33  O   UNL     1      29.665 -22.521 -26.216  1.00  0.00    -0.294 OA
ATOM     34  C   UNL     1      28.342 -24.504 -26.277  1.00  0.00     0.131 C 
BRANCH  27  35
ATOM     35  O   UNL     1      29.162 -20.609 -28.292  1.00  0.00    -0.507 OA
ATOM     36  H   UNL     1      29.115 -20.520 -27.287  1.00  0.00     0.293 HD
ENDBRANCH  27  35
BRANCH  32  37
ATOM     37  C   UNL     1      27.809 -26.915 -26.675  1.00  0.00    -0.007 A 
ATOM     38  C   UNL     1      27.494 -27.991 -27.523  1.00  0.00     0.011 A 
ATOM     39  C   UNL     1      27.372 -26.944 -25.340  1.00  0.00     0.011 A 
ATOM     40  C   UNL     1      26.780 -29.090 -27.034  1.00  0.00     0.046 A 
ATOM     41  C   UNL     1      26.656 -28.042 -24.855  1.00  0.00     0.046 A 
ATOM     42  C   UNL     1      26.359 -29.119 -25.701  1.00  0.00     0.115 A 
BRANCH  42  43
ATOM     43  O   UNL     1      25.644 -30.217 -25.230  1.00  0.00    -0.508 OA
ATOM     44  H   UNL     1      24.697 -30.404 -25.540  1.00  0.00     0.293 HD
ENDBRANCH  42  43
ENDBRANCH  32  37
ENDBRANCH  23  24
ENDBRANCH   6  23
BRANCH   3  45
ATOM     45  O   UNL     1      26.264 -21.756 -36.452  1.00  0.00    -0.387 OA
ATOM     46  H   UNL     1      25.757 -22.238 -37.158  1.00  0.00     0.211 HD
ENDBRANCH   3  45
BRANCH   4  47
ATOM     47  C   UNL     1      29.110 -21.073 -36.157  1.00  0.00     0.191 C 
BRANCH  47  48
ATOM     48  O   UNL     1      28.748 -21.407 -37.470  1.00  0.00    -0.394 OA
ATOM     49  H   UNL     1      27.771 -21.583 -37.450  1.00  0.00     0.210 HD
ENDBRANCH  47  48
ENDBRANCH   4  47
TORSDOF 14
ENDMDL
