MODEL 1
REMARK VINA RESULT:    -5.259      0.000      0.000
REMARK INTER + INTRA:          -6.079
REMARK INTER:                  -6.028
REMARK INTRA:                  -0.051
REMARK UNBOUND:                -0.051
REMARK SMILES O=C([O-])c1cc(O)c(O)c(O)c1
REMARK SMILES IDX 4 1 5 2 12 3 6 4 10 5 8 6 2 7 1 8 3 9 7 10 11 12 9 14
REMARK H PARENT 7 11 11 13 9 15
REMARK Flexibility Score: inf
ROOT
ATOM      1  C   UNL     1      26.483 -46.409 -18.101  1.00  0.00     0.005 A 
ATOM      2  C   UNL     1      27.657 -46.218 -17.357  1.00  0.00     0.060 A 
ATOM      3  C   UNL     1      26.257 -45.608 -19.233  1.00  0.00     0.060 A 
ATOM      4  C   UNL     1      28.590 -45.247 -17.732  1.00  0.00     0.162 A 
ATOM      5  C   UNL     1      27.181 -44.632 -19.622  1.00  0.00     0.162 A 
ATOM      6  C   UNL     1      28.363 -44.445 -18.864  1.00  0.00     0.200 A 
ENDROOT
BRANCH   1   7
ATOM      7  C   UNL     1      25.503 -47.440 -17.697  1.00  0.00     0.072 C 
ATOM      8  O   UNL     1      24.719 -47.947 -18.545  1.00  0.00    -0.545 OA
ATOM      9  O   UNL     1      25.430 -47.865 -16.376  1.00  0.00    -0.545 OA
ENDBRANCH   1   7
BRANCH   4  10
ATOM     10  O   UNL     1      29.742 -45.094 -16.960  1.00  0.00    -0.504 OA
ATOM     11  H   UNL     1      29.791 -45.398 -15.995  1.00  0.00     0.293 HD
ENDBRANCH   4  10
BRANCH   5  12
ATOM     12  O   UNL     1      26.884 -43.875 -20.757  1.00  0.00    -0.504 OA
ATOM     13  H   UNL     1      26.231 -44.159 -21.474  1.00  0.00     0.293 HD
ENDBRANCH   5  12
BRANCH   6  14
ATOM     14  O   UNL     1      29.321 -43.486 -19.203  1.00  0.00    -0.502 OA
ATOM     15  H   UNL     1      29.540 -42.677 -18.639  1.00  0.00     0.293 HD
ENDBRANCH   6  14
TORSDOF 4
ENDMDL
MODEL 2
REMARK VINA RESULT:    -5.223      0.190      2.452
REMARK INTER + INTRA:          -6.037
REMARK INTER:                  -5.987
REMARK INTRA:                  -0.050
REMARK UNBOUND:                -0.051
REMARK SMILES O=C([O-])c1cc(O)c(O)c(O)c1
REMARK SMILES IDX 4 1 5 2 12 3 6 4 10 5 8 6 2 7 1 8 3 9 7 10 11 12 9 14
REMARK H PARENT 7 11 11 13 9 15
REMARK Flexibility Score: inf
ROOT
ATOM      1  C   UNL     1      26.383 -46.508 -18.200  1.00  0.00     0.005 A 
ATOM      2  C   UNL     1      26.163 -45.677 -19.308  1.00  0.00     0.060 A 
ATOM      3  C   UNL     1      27.544 -46.326 -17.431  1.00  0.00     0.060 A 
ATOM      4  C   UNL     1      27.084 -44.682 -19.648  1.00  0.00     0.162 A 
ATOM      5  C   UNL     1      28.476 -45.334 -17.757  1.00  0.00     0.162 A 
ATOM      6  C   UNL     1      28.248 -44.500 -18.879  1.00  0.00     0.200 A 
ENDROOT
BRANCH   1   7
ATOM      7  C   UNL     1      25.401 -47.558 -17.848  1.00  0.00     0.072 C 
ATOM      8  O   UNL     1      24.768 -48.171 -18.749  1.00  0.00    -0.545 OA
ATOM      9  O   UNL     1      25.163 -47.884 -16.518  1.00  0.00    -0.545 OA
ENDBRANCH   1   7
BRANCH   4  10
ATOM     10  O   UNL     1      26.823 -43.881 -20.760  1.00  0.00    -0.504 OA
ATOM     11  H   UNL     1      27.482 -43.784 -21.523  1.00  0.00     0.293 HD
ENDBRANCH   4  10
BRANCH   5  12
ATOM     12  O   UNL     1      29.606 -45.215 -16.946  1.00  0.00    -0.504 OA
ATOM     13  H   UNL     1      29.921 -45.928 -16.303  1.00  0.00     0.293 HD
ENDBRANCH   5  12
BRANCH   6  14
ATOM     14  O   UNL     1      29.142 -43.493 -19.254  1.00  0.00    -0.502 OA
ATOM     15  H   UNL     1      29.719 -42.977 -18.606  1.00  0.00     0.293 HD
ENDBRANCH   6  14
TORSDOF 4
ENDMDL
MODEL 3
REMARK VINA RESULT:    -5.141      1.305      2.835
REMARK INTER + INTRA:          -5.944
REMARK INTER:                  -5.896
REMARK INTRA:                  -0.048
REMARK UNBOUND:                -0.051
REMARK SMILES O=C([O-])c1cc(O)c(O)c(O)c1
REMARK SMILES IDX 4 1 5 2 12 3 6 4 10 5 8 6 2 7 1 8 3 9 7 10 11 12 9 14
REMARK H PARENT 7 11 11 13 9 15
REMARK Flexibility Score: inf
ROOT
ATOM      1  C   UNL     1      26.044 -46.090 -18.577  1.00  0.00     0.005 A 
ATOM      2  C   UNL     1      26.720 -45.034 -19.205  1.00  0.00     0.060 A 
ATOM      3  C   UNL     1      26.668 -46.761 -17.513  1.00  0.00     0.060 A 
ATOM      4  C   UNL     1      27.997 -44.652 -18.783  1.00  0.00     0.162 A 
ATOM      5  C   UNL     1      27.945 -46.390 -17.077  1.00  0.00     0.162 A 
ATOM      6  C   UNL     1      28.622 -45.324 -17.718  1.00  0.00     0.200 A 
ENDROOT
BRANCH   1   7
ATOM      7  C   UNL     1      24.692 -46.487 -19.031  1.00  0.00     0.072 C 
ATOM      8  O   UNL     1      24.417 -47.698 -19.243  1.00  0.00    -0.545 OA
ATOM      9  O   UNL     1      23.706 -45.528 -19.232  1.00  0.00    -0.545 OA
ENDBRANCH   1   7
BRANCH   4  10
ATOM     10  O   UNL     1      28.629 -43.596 -19.439  1.00  0.00    -0.504 OA
ATOM     11  H   UNL     1      29.535 -43.245 -19.151  1.00  0.00     0.293 HD
ENDBRANCH   4  10
BRANCH   5  12
ATOM     12  O   UNL     1      28.500 -47.106 -16.013  1.00  0.00    -0.504 OA
ATOM     13  H   UNL     1      28.720 -46.705 -15.113  1.00  0.00     0.293 HD
ENDBRANCH   5  12
BRANCH   6  14
ATOM     14  O   UNL     1      29.898 -44.909 -17.327  1.00  0.00    -0.502 OA
ATOM     15  H   UNL     1      30.307 -44.020 -17.576  1.00  0.00     0.293 HD
ENDBRANCH   6  14
TORSDOF 4
ENDMDL
MODEL 4
REMARK VINA RESULT:    -5.140      1.186      2.736
REMARK INTER + INTRA:          -5.942
REMARK INTER:                  -5.890
REMARK INTRA:                  -0.052
REMARK UNBOUND:                -0.051
REMARK SMILES O=C([O-])c1cc(O)c(O)c(O)c1
REMARK SMILES IDX 4 1 5 2 12 3 6 4 10 5 8 6 2 7 1 8 3 9 7 10 11 12 9 14
REMARK H PARENT 7 11 11 13 9 15
REMARK Flexibility Score: inf
ROOT
ATOM      1  C   UNL     1      26.822 -47.006 -17.110  1.00  0.00     0.005 A 
ATOM      2  C   UNL     1      26.026 -46.522 -18.159  1.00  0.00     0.060 A 
ATOM      3  C   UNL     1      28.074 -46.414 -16.878  1.00  0.00     0.060 A 
ATOM      4  C   UNL     1      26.468 -45.468 -18.964  1.00  0.00     0.162 A 
ATOM      5  C   UNL     1      28.532 -45.358 -17.674  1.00  0.00     0.162 A 
ATOM      6  C   UNL     1      27.722 -44.877 -18.731  1.00  0.00     0.200 A 
ENDROOT
BRANCH   1   7
ATOM      7  C   UNL     1      26.344 -48.121 -16.263  1.00  0.00     0.072 C 
ATOM      8  O   UNL     1      25.115 -48.389 -16.189  1.00  0.00    -0.545 OA
ATOM      9  O   UNL     1      27.245 -48.890 -15.536  1.00  0.00    -0.545 OA
ENDBRANCH   1   7
BRANCH   4  10
ATOM     10  O   UNL     1      25.641 -45.022 -19.995  1.00  0.00    -0.504 OA
ATOM     11  H   UNL     1      24.997 -45.638 -20.477  1.00  0.00     0.293 HD
ENDBRANCH   4  10
BRANCH   5  12
ATOM     12  O   UNL     1      29.788 -44.823 -17.381  1.00  0.00    -0.504 OA
ATOM     13  H   UNL     1      30.016 -44.347 -16.519  1.00  0.00     0.293 HD
ENDBRANCH   5  12
BRANCH   6  14
ATOM     14  O   UNL     1      28.126 -43.826 -19.560  1.00  0.00    -0.502 OA
ATOM     15  H   UNL     1      28.160 -42.858 -19.273  1.00  0.00     0.293 HD
ENDBRANCH   6  14
TORSDOF 4
ENDMDL
MODEL 5
REMARK VINA RESULT:    -5.126      2.464      4.161
REMARK INTER + INTRA:          -5.926
REMARK INTER:                  -5.881
REMARK INTRA:                  -0.045
REMARK UNBOUND:                -0.051
REMARK SMILES O=C([O-])c1cc(O)c(O)c(O)c1
REMARK SMILES IDX 4 1 5 2 12 3 6 4 10 5 8 6 2 7 1 8 3 9 7 10 11 12 9 14
REMARK H PARENT 7 11 11 13 9 15
REMARK Flexibility Score: inf
ROOT
ATOM      1  C   UNL     1      25.722 -48.634 -15.887  1.00  0.00     0.005 A 
ATOM      2  C   UNL     1      25.500 -47.648 -16.859  1.00  0.00     0.060 A 
ATOM      3  C   UNL     1      27.002 -48.760 -15.325  1.00  0.00     0.060 A 
ATOM      4  C   UNL     1      26.536 -46.802 -17.268  1.00  0.00     0.162 A 
ATOM      5  C   UNL     1      28.050 -47.921 -15.722  1.00  0.00     0.162 A 
ATOM      6  C   UNL     1      27.818 -46.929 -16.705  1.00  0.00     0.200 A 
ENDROOT
BRANCH   1   7
ATOM      7  C   UNL     1      24.619 -49.524 -15.461  1.00  0.00     0.072 C 
ATOM      8  O   UNL     1      24.042 -49.345 -14.355  1.00  0.00    -0.545 OA
ATOM      9  O   UNL     1      24.203 -50.570 -16.275  1.00  0.00    -0.545 OA
ENDBRANCH   1   7
BRANCH   4  10
ATOM     10  O   UNL     1      26.267 -45.837 -18.238  1.00  0.00    -0.504 OA
ATOM     11  H   UNL     1      25.537 -45.955 -18.930  1.00  0.00     0.293 HD
ENDBRANCH   4  10
BRANCH   5  12
ATOM     12  O   UNL     1      29.295 -48.109 -15.117  1.00  0.00    -0.504 OA
ATOM     13  H   UNL     1      29.843 -48.954 -15.197  1.00  0.00     0.293 HD
ENDBRANCH   5  12
BRANCH   6  14
ATOM     14  O   UNL     1      28.825 -46.063 -17.142  1.00  0.00    -0.502 OA
ATOM     15  H   UNL     1      29.173 -46.029 -18.089  1.00  0.00     0.293 HD
ENDBRANCH   6  14
TORSDOF 4
ENDMDL
MODEL 6
REMARK VINA RESULT:    -5.096      1.292      1.919
REMARK INTER + INTRA:          -5.892
REMARK INTER:                  -5.844
REMARK INTRA:                  -0.047
REMARK UNBOUND:                -0.051
REMARK SMILES O=C([O-])c1cc(O)c(O)c(O)c1
REMARK SMILES IDX 4 1 5 2 12 3 6 4 10 5 8 6 2 7 1 8 3 9 7 10 11 12 9 14
REMARK H PARENT 7 11 11 13 9 15
REMARK Flexibility Score: inf
ROOT
ATOM      1  C   UNL     1      26.073 -46.128 -18.622  1.00  0.00     0.005 A 
ATOM      2  C   UNL     1      26.717 -46.805 -17.576  1.00  0.00     0.060 A 
ATOM      3  C   UNL     1      26.724 -45.045 -19.236  1.00  0.00     0.060 A 
ATOM      4  C   UNL     1      27.988 -46.411 -17.147  1.00  0.00     0.162 A 
ATOM      5  C   UNL     1      27.997 -44.638 -18.818  1.00  0.00     0.162 A 
ATOM      6  C   UNL     1      28.639 -45.326 -17.761  1.00  0.00     0.200 A 
ENDROOT
BRANCH   1   7
ATOM      7  C   UNL     1      24.728 -46.553 -19.070  1.00  0.00     0.072 C 
ATOM      8  O   UNL     1      23.789 -45.717 -19.161  1.00  0.00    -0.545 OA
ATOM      9  O   UNL     1      24.481 -47.881 -19.396  1.00  0.00    -0.545 OA
ENDBRANCH   1   7
BRANCH   4  10
ATOM     10  O   UNL     1      28.588 -47.115 -16.102  1.00  0.00    -0.504 OA
ATOM     11  H   UNL     1      28.989 -46.649 -15.297  1.00  0.00     0.293 HD
ENDBRANCH   4  10
BRANCH   5  12
ATOM     12  O   UNL     1      28.578 -43.553 -19.477  1.00  0.00    -0.504 OA
ATOM     13  H   UNL     1      28.237 -43.167 -20.346  1.00  0.00     0.293 HD
ENDBRANCH   5  12
BRANCH   6  14
ATOM     14  O   UNL     1      29.909 -44.966 -17.300  1.00  0.00    -0.502 OA
ATOM     15  H   UNL     1      30.230 -45.105 -16.353  1.00  0.00     0.293 HD
ENDBRANCH   6  14
TORSDOF 4
ENDMDL
MODEL 7
REMARK VINA RESULT:    -5.067      1.320      2.251
REMARK INTER + INTRA:          -5.858
REMARK INTER:                  -5.806
REMARK INTRA:                  -0.053
REMARK UNBOUND:                -0.051
REMARK SMILES O=C([O-])c1cc(O)c(O)c(O)c1
REMARK SMILES IDX 4 1 5 2 12 3 6 4 10 5 8 6 2 7 1 8 3 9 7 10 11 12 9 14
REMARK H PARENT 7 11 11 13 9 15
REMARK Flexibility Score: inf
ROOT
ATOM      1  C   UNL     1      27.374 -46.461 -17.397  1.00  0.00     0.005 A 
ATOM      2  C   UNL     1      28.372 -45.500 -17.618  1.00  0.00     0.060 A 
ATOM      3  C   UNL     1      26.270 -46.507 -18.263  1.00  0.00     0.060 A 
ATOM      4  C   UNL     1      28.273 -44.600 -18.683  1.00  0.00     0.162 A 
ATOM      5  C   UNL     1      26.155 -45.613 -19.334  1.00  0.00     0.162 A 
ATOM      6  C   UNL     1      27.166 -44.646 -19.549  1.00  0.00     0.200 A 
ENDROOT
BRANCH   1   7
ATOM      7  C   UNL     1      27.489 -47.410 -16.268  1.00  0.00     0.072 C 
ATOM      8  O   UNL     1      28.509 -47.404 -15.527  1.00  0.00    -0.545 OA
ATOM      9  O   UNL     1      26.475 -48.324 -16.008  1.00  0.00    -0.545 OA
ENDBRANCH   1   7
BRANCH   4  10
ATOM     10  O   UNL     1      29.290 -43.662 -18.862  1.00  0.00    -0.504 OA
ATOM     11  H   UNL     1      29.833 -43.299 -18.089  1.00  0.00     0.293 HD
ENDBRANCH   4  10
BRANCH   5  12
ATOM     12  O   UNL     1      25.027 -45.722 -20.150  1.00  0.00    -0.504 OA
ATOM     13  H   UNL     1      24.616 -44.950 -20.656  1.00  0.00     0.293 HD
ENDBRANCH   5  12
BRANCH   6  14
ATOM     14  O   UNL     1      27.106 -43.727 -20.601  1.00  0.00    -0.502 OA
ATOM     15  H   UNL     1      26.901 -42.745 -20.486  1.00  0.00     0.293 HD
ENDBRANCH   6  14
TORSDOF 4
ENDMDL
MODEL 8
REMARK VINA RESULT:    -5.038      2.066      3.849
REMARK INTER + INTRA:          -5.826
REMARK INTER:                  -5.773
REMARK INTRA:                  -0.052
REMARK UNBOUND:                -0.051
REMARK SMILES O=C([O-])c1cc(O)c(O)c(O)c1
REMARK SMILES IDX 4 1 5 2 12 3 6 4 10 5 8 6 2 7 1 8 3 9 7 10 11 12 9 14
REMARK H PARENT 7 11 11 13 9 15
REMARK Flexibility Score: inf
ROOT
ATOM      1  C   UNL     1      26.891 -45.271 -20.630  1.00  0.00     0.005 A 
ATOM      2  C   UNL     1      27.208 -44.381 -19.594  1.00  0.00     0.060 A 
ATOM      3  C   UNL     1      27.175 -46.637 -20.466  1.00  0.00     0.060 A 
ATOM      4  C   UNL     1      27.799 -44.841 -18.413  1.00  0.00     0.162 A 
ATOM      5  C   UNL     1      27.766 -47.114 -19.290  1.00  0.00     0.162 A 
ATOM      6  C   UNL     1      28.084 -46.208 -18.249  1.00  0.00     0.200 A 
ENDROOT
BRANCH   1   7
ATOM      7  C   UNL     1      26.265 -44.775 -21.876  1.00  0.00     0.072 C 
ATOM      8  O   UNL     1      26.224 -45.500 -22.905  1.00  0.00    -0.545 OA
ATOM      9  O   UNL     1      25.714 -43.500 -21.928  1.00  0.00    -0.545 OA
ENDBRANCH   1   7
BRANCH   4  10
ATOM     10  O   UNL     1      28.097 -43.917 -17.411  1.00  0.00    -0.504 OA
ATOM     11  H   UNL     1      28.884 -44.034 -16.784  1.00  0.00     0.293 HD
ENDBRANCH   4  10
BRANCH   5  12
ATOM     12  O   UNL     1      28.018 -48.484 -19.202  1.00  0.00    -0.504 OA
ATOM     13  H   UNL     1      27.756 -49.157 -19.909  1.00  0.00     0.293 HD
ENDBRANCH   5  12
BRANCH   6  14
ATOM     14  O   UNL     1      28.675 -46.625 -17.053  1.00  0.00    -0.502 OA
ATOM     15  H   UNL     1      28.311 -47.362 -16.467  1.00  0.00     0.293 HD
ENDBRANCH   6  14
TORSDOF 4
ENDMDL
MODEL 9
REMARK VINA RESULT:    -4.979      2.106      3.918
REMARK INTER + INTRA:          -5.758
REMARK INTER:                  -5.708
REMARK INTRA:                  -0.050
REMARK UNBOUND:                -0.051
REMARK SMILES O=C([O-])c1cc(O)c(O)c(O)c1
REMARK SMILES IDX 4 1 5 2 12 3 6 4 10 5 8 6 2 7 1 8 3 9 7 10 11 12 9 14
REMARK H PARENT 7 11 11 13 9 15
REMARK Flexibility Score: inf
ROOT
ATOM      1  C   UNL     1      26.741 -45.139 -20.649  1.00  0.00     0.005 A 
ATOM      2  C   UNL     1      27.022 -46.511 -20.568  1.00  0.00     0.060 A 
ATOM      3  C   UNL     1      27.134 -44.300 -19.593  1.00  0.00     0.060 A 
ATOM      4  C   UNL     1      27.681 -47.040 -19.454  1.00  0.00     0.162 A 
ATOM      5  C   UNL     1      27.795 -44.814 -18.472  1.00  0.00     0.162 A 
ATOM      6  C   UNL     1      28.073 -46.200 -18.397  1.00  0.00     0.200 A 
ENDROOT
BRANCH   1   7
ATOM      7  C   UNL     1      26.044 -44.588 -21.832  1.00  0.00     0.072 C 
ATOM      8  O   UNL     1      26.221 -45.093 -22.973  1.00  0.00    -0.545 OA
ATOM      9  O   UNL     1      25.183 -43.505 -21.702  1.00  0.00    -0.545 OA
ENDBRANCH   1   7
BRANCH   4  10
ATOM     10  O   UNL     1      27.938 -48.411 -19.419  1.00  0.00    -0.504 OA
ATOM     11  H   UNL     1      28.198 -48.890 -18.565  1.00  0.00     0.293 HD
ENDBRANCH   4  10
BRANCH   5  12
ATOM     12  O   UNL     1      28.152 -43.916 -17.463  1.00  0.00    -0.504 OA
ATOM     13  H   UNL     1      28.091 -44.118 -16.475  1.00  0.00     0.293 HD
ENDBRANCH   5  12
BRANCH   6  14
ATOM     14  O   UNL     1      28.730 -46.770 -17.303  1.00  0.00    -0.502 OA
ATOM     15  H   UNL     1      28.760 -46.359 -16.381  1.00  0.00     0.293 HD
ENDBRANCH   6  14
TORSDOF 4
ENDMDL
