MODEL 1
REMARK VINA RESULT:    15.873      0.000      0.000
REMARK INTER + INTRA:          25.298
REMARK INTER:                  24.225
REMARK INTRA:                   1.073
REMARK UNBOUND:                 1.073
REMARK SMILES CC1=CCC[C@@H](C)C(=O)C[C@@H](C(C)C)C(=O)C1
REMARK SMILES IDX 8 1 9 2 6 3 7 4 5 5 4 6 3 7 2 8 1 9 10 11 11 12 15 13 16 14
REMARK SMILES IDX 17 15 12 17 13 18 14 19
REMARK H PARENT
REMARK Flexibility Score: 70.00
ROOT
ATOM      1  C   UNL     1      36.345  10.473  40.121  1.00  0.00     0.136 C 
ATOM      2  O   UNL     1      37.107  10.181  39.208  1.00  0.00    -0.299 OA
ENDROOT
BRANCH   1   3
ATOM      3  C   UNL     1      35.273   9.472  40.515  1.00  0.00     0.053 C 
ATOM      4  C   UNL     1      35.879   8.286  41.278  1.00  0.00     0.016 C 
BRANCH   3   5
ATOM      5  C   UNL     1      34.509   8.997  39.256  1.00  0.00     0.015 C 
BRANCH   5   6
ATOM      6  C   UNL     1      33.047   9.496  39.221  1.00  0.00     0.028 C 
BRANCH   6   7
ATOM      7  C   UNL     1      32.596  10.018  40.564  1.00  0.00    -0.028 C 
ATOM      8  C   UNL     1      32.611  11.320  40.940  1.00  0.00    -0.070 CG0
ATOM      9  C   UNL     1      32.094  11.668  42.312  1.00  0.00     0.039 C 
ATOM     10  G   UNL     1      33.113  12.440  40.044  1.00  0.00     0.000 G0
ENDBRANCH   6   7
ENDBRANCH   5   6
ENDBRANCH   3   5
ENDBRANCH   1   3
BRANCH   1  11
ATOM     11  C   UNL     1      36.511  11.843  40.758  1.00  0.00     0.087 C 
BRANCH  11  12
ATOM     12  C   UNL     1      35.278  12.447  41.487  1.00  0.00     0.066 C 
BRANCH  12  13
ATOM     13  C   UNL     1      34.331  13.143  40.517  1.00  0.00     0.140 C 
ATOM     14  O   UNL     1      34.553  14.296  40.176  1.00  0.00    -0.299 OA
BRANCH  13  15
ATOM     15  C   UNL     1      33.082  12.444  40.023  1.00  0.00     0.106 CG0
ATOM     16  G   UNL     1      32.639  11.319  40.943  1.00  0.00     0.000 G0
ENDBRANCH  13  15
ENDBRANCH  12  13
BRANCH  12  17
ATOM     17  C   UNL     1      35.708  13.377  42.666  1.00  0.00    -0.006 C 
ATOM     18  C   UNL     1      37.125  13.965  42.532  1.00  0.00     0.008 C 
ATOM     19  C   UNL     1      34.695  14.511  42.889  1.00  0.00     0.008 C 
ENDBRANCH  12  17
ENDBRANCH  11  12
ENDBRANCH   1  11
TORSDOF 1
ENDMDL
MODEL 2
REMARK VINA RESULT:    17.682      1.645      2.139
REMARK INTER + INTRA:          28.058
REMARK INTER:                  26.028
REMARK INTRA:                   2.030
REMARK UNBOUND:                 1.073
REMARK SMILES CC1=CCC[C@@H](C)C(=O)C[C@@H](C(C)C)C(=O)C1
REMARK SMILES IDX 8 1 9 2 6 3 7 4 5 5 4 6 3 7 2 8 1 9 10 11 11 12 15 13 16 14
REMARK SMILES IDX 17 15 12 17 13 18 14 19
REMARK H PARENT
REMARK Flexibility Score: 70.00
ROOT
ATOM      1  C   UNL     1      34.853  12.157  40.177  1.00  0.00     0.136 C 
ATOM      2  O   UNL     1      33.932  12.446  39.425  1.00  0.00    -0.299 OA
ENDROOT
BRANCH   1   3
ATOM      3  C   UNL     1      35.407  10.744  40.129  1.00  0.00     0.053 C 
ATOM      4  C   UNL     1      36.817  10.724  39.523  1.00  0.00     0.016 C 
BRANCH   3   5
ATOM      5  C   UNL     1      34.444   9.827  39.338  1.00  0.00     0.015 C 
BRANCH   5   6
ATOM      6  C   UNL     1      33.380   9.160  40.238  1.00  0.00     0.028 C 
BRANCH   6   7
ATOM      7  C   UNL     1      32.272  10.117  40.607  1.00  0.00    -0.028 C 
ATOM      8  C   UNL     1      32.274  10.933  41.688  1.00  0.00    -0.070 CG0
ATOM      9  C   UNL     1      31.095  11.850  41.888  1.00  0.00     0.039 C 
ATOM     10  G   UNL     1      33.408  10.974  42.700  1.00  0.00     0.000 G0
ENDBRANCH   6   7
ENDBRANCH   5   6
ENDBRANCH   3   5
ENDBRANCH   1   3
BRANCH   1  11
ATOM     11  C   UNL     1      35.338  13.233  41.134  1.00  0.00     0.087 C 
BRANCH  11  12
ATOM     12  C   UNL     1      35.191  12.956  42.657  1.00  0.00     0.066 C 
BRANCH  12  13
ATOM     13  C   UNL     1      33.798  12.449  43.009  1.00  0.00     0.140 C 
ATOM     14  O   UNL     1      33.018  13.183  43.600  1.00  0.00    -0.299 OA
BRANCH  13  15
ATOM     15  C   UNL     1      33.393  11.024  42.696  1.00  0.00     0.106 CG0
ATOM     16  G   UNL     1      32.236  10.947  41.714  1.00  0.00     0.000 G0
ENDBRANCH  13  15
ENDBRANCH  12  13
BRANCH  12  17
ATOM     17  C   UNL     1      35.603  14.199  43.509  1.00  0.00    -0.006 C 
ATOM     18  C   UNL     1      37.122  14.364  43.704  1.00  0.00     0.008 C 
ATOM     19  C   UNL     1      35.009  15.497  42.938  1.00  0.00     0.008 C 
ENDBRANCH  12  17
ENDBRANCH  11  12
ENDBRANCH   1  11
TORSDOF 1
ENDMDL
MODEL 3
REMARK VINA RESULT:    18.608      2.151      4.869
REMARK INTER + INTRA:          29.471
REMARK INTER:                  28.174
REMARK INTRA:                   1.297
REMARK UNBOUND:                 1.073
REMARK SMILES CC1=CCC[C@@H](C)C(=O)C[C@@H](C(C)C)C(=O)C1
REMARK SMILES IDX 8 1 9 2 6 3 7 4 5 5 4 6 3 7 2 8 1 9 10 11 11 12 15 13 16 14
REMARK SMILES IDX 17 15 12 17 13 18 14 19
REMARK H PARENT
REMARK Flexibility Score: 70.00
ROOT
ATOM      1  C   UNL     1      36.223  13.369  42.461  1.00  0.00     0.136 C 
ATOM      2  O   UNL     1      37.042  12.939  41.660  1.00  0.00    -0.299 OA
ENDROOT
BRANCH   1   3
ATOM      3  C   UNL     1      36.697  14.336  43.532  1.00  0.00     0.053 C 
ATOM      4  C   UNL     1      36.607  13.702  44.927  1.00  0.00     0.016 C 
BRANCH   3   5
ATOM      5  C   UNL     1      35.879  15.646  43.458  1.00  0.00     0.015 C 
BRANCH   5   6
ATOM      6  C   UNL     1      34.435  15.421  42.955  1.00  0.00     0.028 C 
BRANCH   6   7
ATOM      7  C   UNL     1      34.076  16.362  41.831  1.00  0.00    -0.028 C 
ATOM      8  C   UNL     1      34.248  16.103  40.512  1.00  0.00    -0.070 CG0
ATOM      9  C   UNL     1      33.804  17.147  39.520  1.00  0.00     0.039 C 
ATOM     10  G   UNL     1      34.856  14.813  39.988  1.00  0.00     0.000 G0
ENDBRANCH   6   7
ENDBRANCH   5   6
ENDBRANCH   3   5
ENDBRANCH   1   3
BRANCH   1  11
ATOM     11  C   UNL     1      34.795  12.861  42.340  1.00  0.00     0.087 C 
BRANCH  11  12
ATOM     12  C   UNL     1      34.315  12.403  40.934  1.00  0.00     0.066 C 
BRANCH  12  13
ATOM     13  C   UNL     1      33.946  13.587  40.048  1.00  0.00     0.140 C 
ATOM     14  O   UNL     1      32.928  13.541  39.371  1.00  0.00    -0.299 OA
BRANCH  13  15
ATOM     15  C   UNL     1      34.859  14.789  39.947  1.00  0.00     0.106 CG0
ATOM     16  G   UNL     1      34.234  16.049  40.523  1.00  0.00     0.000 G0
ENDBRANCH  13  15
ENDBRANCH  12  13
BRANCH  12  17
ATOM     17  C   UNL     1      33.162  11.354  41.035  1.00  0.00    -0.006 C 
ATOM     18  C   UNL     1      33.281  10.177  40.050  1.00  0.00     0.008 C 
ATOM     19  C   UNL     1      33.010  10.819  42.468  1.00  0.00     0.008 C 
ENDBRANCH  12  17
ENDBRANCH  11  12
ENDBRANCH   1  11
TORSDOF 1
ENDMDL
