MODEL 1
REMARK VINA RESULT:     4.180      0.000      0.000
REMARK INTER + INTRA:           4.180
REMARK INTER:                   4.180
REMARK INTRA:                   0.000
REMARK UNBOUND:                 0.000
REMARK SMILES CC1(C)[C@@H]2CC[C@@]1(C)C(=O)C2
REMARK SMILES IDX 1 1 2 2 4 3 5 4 6 5 7 6 9 7 10 8 11 9 8 10 3 11
REMARK H PARENT
REMARK Flexibility Score: inf
ROOT
ATOM      1  C   UNL     1      22.563 -12.360 -15.853  1.00  0.00     0.012 C 
ATOM      2  C   UNL     1      22.107 -12.002 -17.299  1.00  0.00    -0.020 C 
ATOM      3  C   UNL     1      22.608 -12.993 -18.377  1.00  0.00     0.003 C 
ATOM      4  C   UNL     1      24.150 -12.806 -18.321  1.00  0.00     0.005 C 
ATOM      5  C   UNL     1      24.307 -11.292 -18.033  1.00  0.00     0.015 C 
ATOM      6  C   UNL     1      22.839 -10.808 -17.949  1.00  0.00     0.032 C 
ATOM      7  C   UNL     1      22.322 -10.903 -19.364  1.00  0.00     0.139 C 
ATOM      8  O   UNL     1      22.161  -9.967 -20.133  1.00  0.00    -0.299 OA
ATOM      9  C   UNL     1      22.137 -12.347 -19.710  1.00  0.00     0.080 C 
ATOM     10  C   UNL     1      22.649  -9.443 -17.280  1.00  0.00     0.020 C 
ATOM     11  C   UNL     1      20.553 -11.865 -17.250  1.00  0.00     0.012 C 
ENDROOT
TORSDOF 0
ENDMDL
MODEL 2
REMARK VINA RESULT:     4.267      1.747      3.186
REMARK INTER + INTRA:           4.267
REMARK INTER:                   4.267
REMARK INTRA:                   0.000
REMARK UNBOUND:                 0.000
REMARK SMILES CC1(C)[C@@H]2CC[C@@]1(C)C(=O)C2
REMARK SMILES IDX 1 1 2 2 4 3 5 4 6 5 7 6 9 7 10 8 11 9 8 10 3 11
REMARK H PARENT
REMARK Flexibility Score: inf
ROOT
ATOM      1  C   UNL     1      22.328 -10.532 -19.900  1.00  0.00     0.012 C 
ATOM      2  C   UNL     1      22.664 -10.670 -18.385  1.00  0.00    -0.020 C 
ATOM      3  C   UNL     1      24.124 -11.101 -18.103  1.00  0.00     0.003 C 
ATOM      4  C   UNL     1      24.183 -12.527 -18.718  1.00  0.00     0.005 C 
ATOM      5  C   UNL     1      22.772 -13.092 -18.421  1.00  0.00     0.015 C 
ATOM      6  C   UNL     1      22.083 -11.917 -17.686  1.00  0.00     0.032 C 
ATOM      7  C   UNL     1      22.780 -11.838 -16.350  1.00  0.00     0.139 C 
ATOM      8  O   UNL     1      22.335 -12.235 -15.283  1.00  0.00    -0.299 OA
ATOM      9  C   UNL     1      24.156 -11.288 -16.560  1.00  0.00     0.080 C 
ATOM     10  C   UNL     1      20.555 -12.011 -17.614  1.00  0.00     0.020 C 
ATOM     11  C   UNL     1      22.275  -9.311 -17.722  1.00  0.00     0.012 C 
ENDROOT
TORSDOF 0
ENDMDL
MODEL 3
REMARK VINA RESULT:     5.334      1.487      3.016
REMARK INTER + INTRA:           5.334
REMARK INTER:                   5.334
REMARK INTRA:                   0.000
REMARK UNBOUND:                 0.000
REMARK SMILES CC1(C)[C@@H]2CC[C@@]1(C)C(=O)C2
REMARK SMILES IDX 1 1 2 2 4 3 5 4 6 5 7 6 9 7 10 8 11 9 8 10 3 11
REMARK H PARENT
REMARK Flexibility Score: inf
ROOT
ATOM      1  C   UNL     1      20.584 -11.934 -17.468  1.00  0.00     0.012 C 
ATOM      2  C   UNL     1      22.103 -11.667 -17.247  1.00  0.00    -0.020 C 
ATOM      3  C   UNL     1      22.475 -10.166 -17.202  1.00  0.00     0.003 C 
ATOM      4  C   UNL     1      22.128  -9.685 -18.638  1.00  0.00     0.005 C 
ATOM      5  C   UNL     1      22.505 -10.906 -19.514  1.00  0.00     0.015 C 
ATOM      6  C   UNL     1      23.008 -11.931 -18.469  1.00  0.00     0.032 C 
ATOM      7  C   UNL     1      24.316 -11.364 -17.974  1.00  0.00     0.139 C 
ATOM      8  O   UNL     1      25.431 -11.750 -18.291  1.00  0.00    -0.299 OA
ATOM      9  C   UNL     1      24.027 -10.179 -17.107  1.00  0.00     0.080 C 
ATOM     10  C   UNL     1      23.078 -13.377 -18.970  1.00  0.00     0.020 C 
ATOM     11  C   UNL     1      22.506 -12.450 -15.957  1.00  0.00     0.012 C 
ENDROOT
TORSDOF 0
ENDMDL
MODEL 4
REMARK VINA RESULT:     5.420      1.526      2.757
REMARK INTER + INTRA:           5.420
REMARK INTER:                   5.420
REMARK INTRA:                   0.000
REMARK UNBOUND:                 0.000
REMARK SMILES CC1(C)[C@@H]2CC[C@@]1(C)C(=O)C2
REMARK SMILES IDX 1 1 2 2 4 3 5 4 6 5 7 6 9 7 10 8 11 9 8 10 3 11
REMARK H PARENT
REMARK Flexibility Score: inf
ROOT
ATOM      1  C   UNL     1      22.592  -9.379 -17.377  1.00  0.00     0.012 C 
ATOM      2  C   UNL     1      22.438 -10.685 -18.213  1.00  0.00    -0.020 C 
ATOM      3  C   UNL     1      21.196 -11.528 -17.835  1.00  0.00     0.003 C 
ATOM      4  C   UNL     1      21.505 -11.952 -16.372  1.00  0.00     0.005 C 
ATOM      5  C   UNL     1      23.039 -12.164 -16.388  1.00  0.00     0.015 C 
ATOM      6  C   UNL     1      23.414 -11.825 -17.851  1.00  0.00     0.032 C 
ATOM      7  C   UNL     1      22.837 -12.955 -18.667  1.00  0.00     0.139 C 
ATOM      8  O   UNL     1      23.466 -13.885 -19.150  1.00  0.00    -0.299 OA
ATOM      9  C   UNL     1      21.348 -12.808 -18.703  1.00  0.00     0.080 C 
ATOM     10  C   UNL     1      24.903 -11.550 -18.085  1.00  0.00     0.020 C 
ATOM     11  C   UNL     1      22.467 -10.254 -19.713  1.00  0.00     0.012 C 
ENDROOT
TORSDOF 0
ENDMDL
MODEL 5
REMARK VINA RESULT:     6.101      1.393      2.141
REMARK INTER + INTRA:           6.101
REMARK INTER:                   6.101
REMARK INTRA:                   0.000
REMARK UNBOUND:                 0.000
REMARK SMILES CC1(C)[C@@H]2CC[C@@]1(C)C(=O)C2
REMARK SMILES IDX 1 1 2 2 4 3 5 4 6 5 7 6 9 7 10 8 11 9 8 10 3 11
REMARK H PARENT
REMARK Flexibility Score: inf
ROOT
ATOM      1  C   UNL     1      22.664 -13.481 -18.337  1.00  0.00     0.012 C 
ATOM      2  C   UNL     1      22.294 -11.978 -18.155  1.00  0.00    -0.020 C 
ATOM      3  C   UNL     1      22.460 -11.132 -19.440  1.00  0.00     0.003 C 
ATOM      4  C   UNL     1      23.991 -11.201 -19.699  1.00  0.00     0.005 C 
ATOM      5  C   UNL     1      24.585 -11.192 -18.268  1.00  0.00     0.015 C 
ATOM      6  C   UNL     1      23.322 -11.130 -17.375  1.00  0.00     0.032 C 
ATOM      7  C   UNL     1      22.764  -9.746 -17.594  1.00  0.00     0.139 C 
ATOM      8  O   UNL     1      22.860  -8.803 -16.823  1.00  0.00    -0.299 OA
ATOM      9  C   UNL     1      22.161  -9.683 -18.963  1.00  0.00     0.080 C 
ATOM     10  C   UNL     1      23.553 -11.512 -15.909  1.00  0.00     0.020 C 
ATOM     11  C   UNL     1      20.847 -11.948 -17.569  1.00  0.00     0.012 C 
ENDROOT
TORSDOF 0
ENDMDL
MODEL 6
REMARK VINA RESULT:     6.109      1.241      2.951
REMARK INTER + INTRA:           6.109
REMARK INTER:                   6.109
REMARK INTRA:                   0.000
REMARK UNBOUND:                 0.000
REMARK SMILES CC1(C)[C@@H]2CC[C@@]1(C)C(=O)C2
REMARK SMILES IDX 1 1 2 2 4 3 5 4 6 5 7 6 9 7 10 8 11 9 8 10 3 11
REMARK H PARENT
REMARK Flexibility Score: inf
ROOT
ATOM      1  C   UNL     1      23.288 -13.474 -18.808  1.00  0.00     0.012 C 
ATOM      2  C   UNL     1      23.517 -12.058 -18.198  1.00  0.00    -0.020 C 
ATOM      3  C   UNL     1      23.311 -11.997 -16.665  1.00  0.00     0.003 C 
ATOM      4  C   UNL     1      21.800 -12.326 -16.510  1.00  0.00     0.005 C 
ATOM      5  C   UNL     1      21.168 -11.650 -17.752  1.00  0.00     0.015 C 
ATOM      6  C   UNL     1      22.396 -11.031 -18.464  1.00  0.00     0.032 C 
ATOM      7  C   UNL     1      22.833  -9.902 -17.564  1.00  0.00     0.139 C 
ATOM      8  O   UNL     1      22.632  -8.712 -17.755  1.00  0.00    -0.299 OA
ATOM      9  C   UNL     1      23.466 -10.485 -16.339  1.00  0.00     0.080 C 
ATOM     10  C   UNL     1      22.160 -10.639 -19.926  1.00  0.00     0.020 C 
ATOM     11  C   UNL     1      24.938 -11.605 -18.656  1.00  0.00     0.012 C 
ENDROOT
TORSDOF 0
ENDMDL
MODEL 7
REMARK VINA RESULT:     6.384      1.448      2.817
REMARK INTER + INTRA:           6.384
REMARK INTER:                   6.384
REMARK INTRA:                   0.000
REMARK UNBOUND:                 0.000
REMARK SMILES CC1(C)[C@@H]2CC[C@@]1(C)C(=O)C2
REMARK SMILES IDX 1 1 2 2 4 3 5 4 6 5 7 6 9 7 10 8 11 9 8 10 3 11
REMARK H PARENT
REMARK Flexibility Score: inf
ROOT
ATOM      1  C   UNL     1      24.493 -10.895 -18.179  1.00  0.00     0.012 C 
ATOM      2  C   UNL     1      23.015 -11.071 -17.720  1.00  0.00    -0.020 C 
ATOM      3  C   UNL     1      22.859 -11.862 -16.399  1.00  0.00     0.003 C 
ATOM      4  C   UNL     1      23.393 -13.271 -16.781  1.00  0.00     0.005 C 
ATOM      5  C   UNL     1      22.921 -13.436 -18.247  1.00  0.00     0.015 C 
ATOM      6  C   UNL     1      22.189 -12.100 -18.520  1.00  0.00     0.032 C 
ATOM      7  C   UNL     1      20.938 -12.168 -17.679  1.00  0.00     0.139 C 
ATOM      8  O   UNL     1      19.810 -12.402 -18.087  1.00  0.00    -0.299 OA
ATOM      9  C   UNL     1      21.319 -12.006 -16.241  1.00  0.00     0.080 C 
ATOM     10  C   UNL     1      21.956 -11.787 -20.002  1.00  0.00     0.020 C 
ATOM     11  C   UNL     1      22.396  -9.639 -17.666  1.00  0.00     0.012 C 
ENDROOT
TORSDOF 0
ENDMDL
MODEL 8
REMARK VINA RESULT:     6.650      1.678      2.858
REMARK INTER + INTRA:           6.650
REMARK INTER:                   6.650
REMARK INTRA:                   0.000
REMARK UNBOUND:                 0.000
REMARK SMILES CC1(C)[C@@H]2CC[C@@]1(C)C(=O)C2
REMARK SMILES IDX 1 1 2 2 4 3 5 4 6 5 7 6 9 7 10 8 11 9 8 10 3 11
REMARK H PARENT
REMARK Flexibility Score: inf
ROOT
ATOM      1  C   UNL     1      24.912 -11.465 -18.797  1.00  0.00     0.012 C 
ATOM      2  C   UNL     1      23.516 -12.051 -18.432  1.00  0.00    -0.020 C 
ATOM      3  C   UNL     1      22.385 -11.622 -19.397  1.00  0.00     0.003 C 
ATOM      4  C   UNL     1      22.311 -10.085 -19.174  1.00  0.00     0.005 C 
ATOM      5  C   UNL     1      22.606  -9.940 -17.660  1.00  0.00     0.015 C 
ATOM      6  C   UNL     1      22.822 -11.406 -17.213  1.00  0.00     0.032 C 
ATOM      7  C   UNL     1      21.456 -12.040 -17.303  1.00  0.00     0.139 C 
ATOM      8  O   UNL     1      20.717 -12.288 -16.362  1.00  0.00    -0.299 OA
ATOM      9  C   UNL     1      21.106 -12.220 -18.747  1.00  0.00     0.080 C 
ATOM     10  C   UNL     1      23.524 -11.569 -15.861  1.00  0.00     0.020 C 
ATOM     11  C   UNL     1      23.699 -13.598 -18.333  1.00  0.00     0.012 C 
ENDROOT
TORSDOF 0
ENDMDL
