MODEL 1
REMARK VINA RESULT:    -5.987      0.000      0.000
REMARK INTER + INTRA:         -11.330
REMARK INTER:                 -10.187
REMARK INTRA:                  -1.142
REMARK UNBOUND:                -1.142
REMARK SMILES CCCCCCCCCCCCCC(=O)[O-]
REMARK SMILES IDX 8 1 9 2 10 3 11 4 12 5 13 6 14 7 15 8 16 9 7 10 6 11 5 12
REMARK SMILES IDX 4 13 3 14 2 15 1 16
REMARK H PARENT
REMARK Flexibility Score: inf
ROOT
ATOM      1  C   UNL     1       5.147   5.630  13.842  1.00  0.00     0.000 C 
ENDROOT
BRANCH   1   2
ATOM      2  C   UNL     1       4.128   4.728  13.128  1.00  0.00     0.000 C 
BRANCH   2   3
ATOM      3  C   UNL     1       3.434   3.745  14.084  1.00  0.00     0.000 C 
BRANCH   3   4
ATOM      4  C   UNL     1       3.991   3.882  15.509  1.00  0.00     0.000 C 
BRANCH   4   5
ATOM      5  C   UNL     1       2.994   4.543  16.474  1.00  0.00     0.006 C 
BRANCH   5   6
ATOM      6  C   UNL     1       2.833   3.762  17.784  1.00  0.00     0.053 C 
BRANCH   6   7
ATOM      7  C   UNL     1       2.265   4.643  18.851  1.00  0.00     0.041 C 
ATOM      8  O   UNL     1       1.133   5.174  18.699  1.00  0.00    -0.550 OA
ATOM      9  O   UNL     1       2.963   4.839  20.036  1.00  0.00    -0.550 OA
ENDBRANCH   6   7
ENDBRANCH   5   6
ENDBRANCH   4   5
ENDBRANCH   3   4
ENDBRANCH   2   3
ENDBRANCH   1   2
BRANCH   1  10
ATOM     10  C   UNL     1       5.299   7.003  13.163  1.00  0.00     0.000 C 
BRANCH  10  11
ATOM     11  C   UNL     1       5.315   8.159  14.177  1.00  0.00    -0.000 C 
BRANCH  11  12
ATOM     12  C   UNL     1       4.943   7.702  15.599  1.00  0.00    -0.000 C 
BRANCH  12  13
ATOM     13  C   UNL     1       4.092   8.752  16.344  1.00  0.00    -0.000 C 
BRANCH  13  14
ATOM     14  C   UNL     1       3.168   8.149  17.420  1.00  0.00    -0.000 C 
BRANCH  14  15
ATOM     15  C   UNL     1       2.550   9.176  18.384  1.00  0.00    -0.003 C 
ATOM     16  C   UNL     1       2.119   8.557  19.713  1.00  0.00     0.004 C 
ENDBRANCH  14  15
ENDBRANCH  13  14
ENDBRANCH  12  13
ENDBRANCH  11  12
ENDBRANCH  10  11
ENDBRANCH   1  10
TORSDOF 12
ENDMDL
MODEL 2
REMARK VINA RESULT:    -5.860      1.700      4.178
REMARK INTER + INTRA:         -11.114
REMARK INTER:                 -10.082
REMARK INTRA:                  -1.032
REMARK UNBOUND:                -1.142
REMARK SMILES CCCCCCCCCCCCCC(=O)[O-]
REMARK SMILES IDX 8 1 9 2 10 3 11 4 12 5 13 6 14 7 15 8 16 9 7 10 6 11 5 12
REMARK SMILES IDX 4 13 3 14 2 15 1 16
REMARK H PARENT
REMARK Flexibility Score: inf
ROOT
ATOM      1  C   UNL     1       5.254   5.927  13.973  1.00  0.00     0.000 C 
ENDROOT
BRANCH   1   2
ATOM      2  C   UNL     1       5.275   7.357  13.410  1.00  0.00     0.000 C 
BRANCH   2   3
ATOM      3  C   UNL     1       5.162   8.428  14.507  1.00  0.00     0.000 C 
BRANCH   3   4
ATOM      4  C   UNL     1       4.680   7.808  15.828  1.00  0.00     0.000 C 
BRANCH   4   5
ATOM      5  C   UNL     1       3.792   8.764  16.642  1.00  0.00     0.006 C 
BRANCH   5   6
ATOM      6  C   UNL     1       3.026   8.049  17.761  1.00  0.00     0.053 C 
BRANCH   6   7
ATOM      7  C   UNL     1       2.374   9.046  18.666  1.00  0.00     0.041 C 
ATOM      8  O   UNL     1       1.925  10.127  18.199  1.00  0.00    -0.550 OA
ATOM      9  O   UNL     1       2.215   8.761  20.016  1.00  0.00    -0.550 OA
ENDBRANCH   6   7
ENDBRANCH   5   6
ENDBRANCH   4   5
ENDBRANCH   3   4
ENDBRANCH   2   3
ENDBRANCH   1   2
BRANCH   1  10
ATOM     10  C   UNL     1       4.206   5.036  13.282  1.00  0.00     0.000 C 
BRANCH  10  11
ATOM     11  C   UNL     1       3.899   3.762  14.087  1.00  0.00    -0.000 C 
BRANCH  11  12
ATOM     12  C   UNL     1       2.772   3.971  15.115  1.00  0.00    -0.000 C 
BRANCH  12  13
ATOM     13  C   UNL     1       3.318   4.323  16.514  1.00  0.00    -0.000 C 
BRANCH  13  14
ATOM     14  C   UNL     1       2.982   3.273  17.592  1.00  0.00    -0.000 C 
BRANCH  14  15
ATOM     15  C   UNL     1       3.002   3.805  19.035  1.00  0.00    -0.003 C 
ATOM     16  C   UNL     1       2.015   4.951  19.258  1.00  0.00     0.004 C 
ENDBRANCH  14  15
ENDBRANCH  13  14
ENDBRANCH  12  13
ENDBRANCH  11  12
ENDBRANCH  10  11
ENDBRANCH   1  10
TORSDOF 12
ENDMDL
MODEL 3
REMARK VINA RESULT:    -5.626      2.042      4.350
REMARK INTER + INTRA:         -10.715
REMARK INTER:                  -9.817
REMARK INTRA:                  -0.898
REMARK UNBOUND:                -1.142
REMARK SMILES CCCCCCCCCCCCCC(=O)[O-]
REMARK SMILES IDX 8 1 9 2 10 3 11 4 12 5 13 6 14 7 15 8 16 9 7 10 6 11 5 12
REMARK SMILES IDX 4 13 3 14 2 15 1 16
REMARK H PARENT
REMARK Flexibility Score: inf
ROOT
ATOM      1  C   UNL     1       4.544   7.981  15.608  1.00  0.00     0.000 C 
ENDROOT
BRANCH   1   2
ATOM      2  C   UNL     1       5.999   7.689  15.206  1.00  0.00     0.000 C 
BRANCH   2   3
ATOM      3  C   UNL     1       6.239   7.841  13.696  1.00  0.00     0.000 C 
BRANCH   3   4
ATOM      4  C   UNL     1       5.138   7.130  12.893  1.00  0.00     0.000 C 
BRANCH   4   5
ATOM      5  C   UNL     1       5.310   5.603  12.875  1.00  0.00     0.006 C 
BRANCH   5   6
ATOM      6  C   UNL     1       3.974   4.856  12.967  1.00  0.00     0.053 C 
BRANCH   6   7
ATOM      7  C   UNL     1       3.948   3.979  14.178  1.00  0.00     0.041 C 
ATOM      8  O   UNL     1       3.978   4.488  15.330  1.00  0.00    -0.550 OA
ATOM      9  O   UNL     1       3.840   2.601  14.038  1.00  0.00    -0.550 OA
ENDBRANCH   6   7
ENDBRANCH   5   6
ENDBRANCH   4   5
ENDBRANCH   3   4
ENDBRANCH   2   3
ENDBRANCH   1   2
BRANCH   1  10
ATOM     10  C   UNL     1       4.442   8.747  16.939  1.00  0.00     0.000 C 
BRANCH  10  11
ATOM     11  C   UNL     1       2.988   9.083  17.310  1.00  0.00    -0.000 C 
BRANCH  11  12
ATOM     12  C   UNL     1       2.828   9.451  18.796  1.00  0.00    -0.000 C 
BRANCH  12  13
ATOM     13  C   UNL     1       2.169   8.317  19.609  1.00  0.00    -0.000 C 
BRANCH  13  14
ATOM     14  C   UNL     1       1.985   7.010  18.813  1.00  0.00    -0.000 C 
BRANCH  14  15
ATOM     15  C   UNL     1       2.377   5.733  19.575  1.00  0.00    -0.003 C 
ATOM     16  C   UNL     1       2.722   4.570  18.645  1.00  0.00     0.004 C 
ENDBRANCH  14  15
ENDBRANCH  13  14
ENDBRANCH  12  13
ENDBRANCH  11  12
ENDBRANCH  10  11
ENDBRANCH   1  10
TORSDOF 12
ENDMDL
MODEL 4
REMARK VINA RESULT:    -5.612      2.286      4.753
REMARK INTER + INTRA:         -10.691
REMARK INTER:                  -9.684
REMARK INTRA:                  -1.007
REMARK UNBOUND:                -1.142
REMARK SMILES CCCCCCCCCCCCCC(=O)[O-]
REMARK SMILES IDX 8 1 9 2 10 3 11 4 12 5 13 6 14 7 15 8 16 9 7 10 6 11 5 12
REMARK SMILES IDX 4 13 3 14 2 15 1 16
REMARK H PARENT
REMARK Flexibility Score: inf
ROOT
ATOM      1  C   UNL     1       1.840   6.557  18.769  1.00  0.00     0.000 C 
ENDROOT
BRANCH   1   2
ATOM      2  C   UNL     1       2.490   5.339  19.447  1.00  0.00     0.000 C 
BRANCH   2   3
ATOM      3  C   UNL     1       2.840   4.222  18.451  1.00  0.00     0.000 C 
BRANCH   3   4
ATOM      4  C   UNL     1       2.791   4.743  17.006  1.00  0.00     0.000 C 
BRANCH   4   5
ATOM      5  C   UNL     1       3.460   3.785  16.008  1.00  0.00     0.006 C 
BRANCH   5   6
ATOM      6  C   UNL     1       3.196   2.310  16.337  1.00  0.00     0.053 C 
BRANCH   6   7
ATOM      7  C   UNL     1       4.487   1.581  16.537  1.00  0.00     0.041 C 
ATOM      8  O   UNL     1       5.432   1.728  15.717  1.00  0.00    -0.550 OA
ATOM      9  O   UNL     1       4.666   0.778  17.656  1.00  0.00    -0.550 OA
ENDBRANCH   6   7
ENDBRANCH   5   6
ENDBRANCH   4   5
ENDBRANCH   3   4
ENDBRANCH   2   3
ENDBRANCH   1   2
BRANCH   1  10
ATOM     10  C   UNL     1       2.225   7.885  19.445  1.00  0.00     0.000 C 
BRANCH  10  11
ATOM     11  C   UNL     1       2.346   9.040  18.438  1.00  0.00    -0.000 C 
BRANCH  11  12
ATOM     12  C   UNL     1       3.766   9.172  17.858  1.00  0.00    -0.000 C 
BRANCH  12  13
ATOM     13  C   UNL     1       3.813   8.831  16.353  1.00  0.00    -0.000 C 
BRANCH  13  14
ATOM     14  C   UNL     1       4.960   7.875  15.971  1.00  0.00    -0.000 C 
BRANCH  14  15
ATOM     15  C   UNL     1       5.257   7.799  14.464  1.00  0.00    -0.003 C 
ATOM     16  C   UNL     1       6.753   7.821  14.153  1.00  0.00     0.004 C 
ENDBRANCH  14  15
ENDBRANCH  13  14
ENDBRANCH  12  13
ENDBRANCH  11  12
ENDBRANCH  10  11
ENDBRANCH   1  10
TORSDOF 12
ENDMDL
MODEL 5
REMARK VINA RESULT:    -5.605      1.271      4.341
REMARK INTER + INTRA:         -10.680
REMARK INTER:                  -9.859
REMARK INTRA:                  -0.821
REMARK UNBOUND:                -1.142
REMARK SMILES CCCCCCCCCCCCCC(=O)[O-]
REMARK SMILES IDX 8 1 9 2 10 3 11 4 12 5 13 6 14 7 15 8 16 9 7 10 6 11 5 12
REMARK SMILES IDX 4 13 3 14 2 15 1 16
REMARK H PARENT
REMARK Flexibility Score: inf
ROOT
ATOM      1  C   UNL     1       4.347   8.743  16.386  1.00  0.00     0.000 C 
ENDROOT
BRANCH   1   2
ATOM      2  C   UNL     1       3.344   7.810  17.084  1.00  0.00     0.000 C 
BRANCH   2   3
ATOM      3  C   UNL     1       2.641   8.479  18.276  1.00  0.00     0.000 C 
BRANCH   3   4
ATOM      4  C   UNL     1       2.058   7.425  19.230  1.00  0.00     0.000 C 
BRANCH   4   5
ATOM      5  C   UNL     1       2.297   5.987  18.741  1.00  0.00     0.006 C 
BRANCH   5   6
ATOM      6  C   UNL     1       2.654   5.027  19.881  1.00  0.00     0.053 C 
BRANCH   6   7
ATOM      7  C   UNL     1       2.332   3.617  19.497  1.00  0.00     0.041 C 
ATOM      8  O   UNL     1       1.534   2.936  20.195  1.00  0.00    -0.550 OA
ATOM      9  O   UNL     1       2.872   3.071  18.340  1.00  0.00    -0.550 OA
ENDBRANCH   6   7
ENDBRANCH   5   6
ENDBRANCH   4   5
ENDBRANCH   3   4
ENDBRANCH   2   3
ENDBRANCH   1   2
BRANCH   1  10
ATOM     10  C   UNL     1       5.315   7.984  15.463  1.00  0.00     0.000 C 
BRANCH  10  11
ATOM     11  C   UNL     1       5.292   8.520  14.022  1.00  0.00    -0.000 C 
BRANCH  11  12
ATOM     12  C   UNL     1       5.266   7.393  12.973  1.00  0.00    -0.000 C 
BRANCH  12  13
ATOM     13  C   UNL     1       5.238   5.994  13.622  1.00  0.00    -0.000 C 
BRANCH  13  14
ATOM     14  C   UNL     1       4.222   5.032  12.976  1.00  0.00    -0.000 C 
BRANCH  14  15
ATOM     15  C   UNL     1       3.987   3.727  13.756  1.00  0.00    -0.003 C 
ATOM     16  C   UNL     1       2.945   3.880  14.865  1.00  0.00     0.004 C 
ENDBRANCH  14  15
ENDBRANCH  13  14
ENDBRANCH  12  13
ENDBRANCH  11  12
ENDBRANCH  10  11
ENDBRANCH   1  10
TORSDOF 12
ENDMDL
MODEL 6
REMARK VINA RESULT:    -5.593      2.989      4.959
REMARK INTER + INTRA:         -10.658
REMARK INTER:                  -9.814
REMARK INTRA:                  -0.844
REMARK UNBOUND:                -1.142
REMARK SMILES CCCCCCCCCCCCCC(=O)[O-]
REMARK SMILES IDX 8 1 9 2 10 3 11 4 12 5 13 6 14 7 15 8 16 9 7 10 6 11 5 12
REMARK SMILES IDX 4 13 3 14 2 15 1 16
REMARK H PARENT
REMARK Flexibility Score: inf
ROOT
ATOM      1  C   UNL     1       3.136   2.795  17.596  1.00  0.00     0.000 C 
ENDROOT
BRANCH   1   2
ATOM      2  C   UNL     1       3.019   3.893  16.527  1.00  0.00     0.000 C 
BRANCH   2   3
ATOM      3  C   UNL     1       2.798   3.327  15.116  1.00  0.00     0.000 C 
BRANCH   3   4
ATOM      4  C   UNL     1       3.882   3.829  14.149  1.00  0.00     0.000 C 
BRANCH   4   5
ATOM      5  C   UNL     1       4.585   2.685  13.402  1.00  0.00     0.006 C 
BRANCH   5   6
ATOM      6  C   UNL     1       4.026   1.306  13.771  1.00  0.00     0.053 C 
BRANCH   6   7
ATOM      7  C   UNL     1       5.016   0.546  14.598  1.00  0.00     0.041 C 
ATOM      8  O   UNL     1       5.340  -0.628  14.278  1.00  0.00    -0.550 OA
ATOM      9  O   UNL     1       5.618   1.152  15.693  1.00  0.00    -0.550 OA
ENDBRANCH   6   7
ENDBRANCH   5   6
ENDBRANCH   4   5
ENDBRANCH   3   4
ENDBRANCH   2   3
ENDBRANCH   1   2
BRANCH   1  10
ATOM     10  C   UNL     1       3.080   3.356  19.028  1.00  0.00     0.000 C 
BRANCH  10  11
ATOM     11  C   UNL     1       1.902   4.321  19.233  1.00  0.00    -0.000 C 
BRANCH  11  12
ATOM     12  C   UNL     1       2.349   5.697  19.759  1.00  0.00    -0.000 C 
BRANCH  12  13
ATOM     13  C   UNL     1       2.176   6.809  18.703  1.00  0.00    -0.000 C 
BRANCH  13  14
ATOM     14  C   UNL     1       2.165   8.230  19.298  1.00  0.00    -0.000 C 
BRANCH  14  15
ATOM     15  C   UNL     1       2.571   9.341  18.314  1.00  0.00    -0.003 C 
ATOM     16  C   UNL     1       3.412   8.822  17.148  1.00  0.00     0.004 C 
ENDBRANCH  14  15
ENDBRANCH  13  14
ENDBRANCH  12  13
ENDBRANCH  11  12
ENDBRANCH  10  11
ENDBRANCH   1  10
TORSDOF 12
ENDMDL
MODEL 7
REMARK VINA RESULT:    -5.576      1.768      4.775
REMARK INTER + INTRA:         -10.630
REMARK INTER:                  -9.752
REMARK INTRA:                  -0.878
REMARK UNBOUND:                -1.142
REMARK SMILES CCCCCCCCCCCCCC(=O)[O-]
REMARK SMILES IDX 8 1 9 2 10 3 11 4 12 5 13 6 14 7 15 8 16 9 7 10 6 11 5 12
REMARK SMILES IDX 4 13 3 14 2 15 1 16
REMARK H PARENT
REMARK Flexibility Score: inf
ROOT
ATOM      1  C   UNL     1       2.223   8.221  19.568  1.00  0.00     0.000 C 
ENDROOT
BRANCH   1   2
ATOM      2  C   UNL     1       1.933   6.929  18.786  1.00  0.00     0.000 C 
BRANCH   2   3
ATOM      3  C   UNL     1       2.293   5.663  19.578  1.00  0.00     0.000 C 
BRANCH   3   4
ATOM      4  C   UNL     1       1.375   4.494  19.188  1.00  0.00     0.000 C 
BRANCH   4   5
ATOM      5  C   UNL     1       2.086   3.133  19.256  1.00  0.00     0.006 C 
BRANCH   5   6
ATOM      6  C   UNL     1       3.389   3.106  18.449  1.00  0.00     0.053 C 
BRANCH   6   7
ATOM      7  C   UNL     1       3.096   3.154  16.983  1.00  0.00     0.041 C 
ATOM      8  O   UNL     1       2.586   2.157  16.406  1.00  0.00    -0.550 OA
ATOM      9  O   UNL     1       3.338   4.316  16.262  1.00  0.00    -0.550 OA
ENDBRANCH   6   7
ENDBRANCH   5   6
ENDBRANCH   4   5
ENDBRANCH   3   4
ENDBRANCH   2   3
ENDBRANCH   1   2
BRANCH   1  10
ATOM     10  C   UNL     1       2.892   9.300  18.699  1.00  0.00     0.000 C 
BRANCH  10  11
ATOM     11  C   UNL     1       3.006   8.877  17.226  1.00  0.00    -0.000 C 
BRANCH  11  12
ATOM     12  C   UNL     1       4.466   8.814  16.741  1.00  0.00    -0.000 C 
BRANCH  12  13
ATOM     13  C   UNL     1       4.728   7.587  15.842  1.00  0.00    -0.000 C 
BRANCH  13  14
ATOM     14  C   UNL     1       6.091   7.628  15.123  1.00  0.00    -0.000 C 
BRANCH  14  15
ATOM     15  C   UNL     1       6.036   7.284  13.625  1.00  0.00    -0.003 C 
ATOM     16  C   UNL     1       5.102   6.113  13.319  1.00  0.00     0.004 C 
ENDBRANCH  14  15
ENDBRANCH  13  14
ENDBRANCH  12  13
ENDBRANCH  11  12
ENDBRANCH  10  11
ENDBRANCH   1  10
TORSDOF 12
ENDMDL
MODEL 8
REMARK VINA RESULT:    -5.514      2.559      4.757
REMARK INTER + INTRA:         -10.524
REMARK INTER:                  -9.659
REMARK INTRA:                  -0.865
REMARK UNBOUND:                -1.142
REMARK SMILES CCCCCCCCCCCCCC(=O)[O-]
REMARK SMILES IDX 8 1 9 2 10 3 11 4 12 5 13 6 14 7 15 8 16 9 7 10 6 11 5 12
REMARK SMILES IDX 4 13 3 14 2 15 1 16
REMARK H PARENT
REMARK Flexibility Score: inf
ROOT
ATOM      1  C   UNL     1       2.838   3.013  16.782  1.00  0.00     0.000 C 
ENDROOT
BRANCH   1   2
ATOM      2  C   UNL     1       3.969   3.339  15.793  1.00  0.00     0.000 C 
BRANCH   2   3
ATOM      3  C   UNL     1       3.666   4.574  14.931  1.00  0.00     0.000 C 
BRANCH   3   4
ATOM      4  C   UNL     1       4.385   4.485  13.576  1.00  0.00     0.000 C 
BRANCH   4   5
ATOM      5  C   UNL     1       4.846   5.857  13.058  1.00  0.00     0.006 C 
BRANCH   5   6
ATOM      6  C   UNL     1       5.760   6.586  14.051  1.00  0.00     0.053 C 
BRANCH   6   7
ATOM      7  C   UNL     1       5.210   7.942  14.367  1.00  0.00     0.041 C 
ATOM      8  O   UNL     1       4.709   8.174  15.499  1.00  0.00    -0.550 OA
ATOM      9  O   UNL     1       5.297   8.963  13.429  1.00  0.00    -0.550 OA
ENDBRANCH   6   7
ENDBRANCH   5   6
ENDBRANCH   4   5
ENDBRANCH   3   4
ENDBRANCH   2   3
ENDBRANCH   1   2
BRANCH   1  10
ATOM     10  C   UNL     1       3.335   2.904  18.234  1.00  0.00     0.000 C 
BRANCH  10  11
ATOM     11  C   UNL     1       2.889   4.096  19.096  1.00  0.00    -0.000 C 
BRANCH  11  12
ATOM     12  C   UNL     1       1.867   4.995  18.377  1.00  0.00    -0.000 C 
BRANCH  12  13
ATOM     13  C   UNL     1       2.334   6.464  18.304  1.00  0.00    -0.000 C 
BRANCH  13  14
ATOM     14  C   UNL     1       1.898   7.313  19.514  1.00  0.00    -0.000 C 
BRANCH  14  15
ATOM     15  C   UNL     1       2.236   8.809  19.403  1.00  0.00    -0.003 C 
ATOM     16  C   UNL     1       2.724   9.205  18.010  1.00  0.00     0.004 C 
ENDBRANCH  14  15
ENDBRANCH  13  14
ENDBRANCH  12  13
ENDBRANCH  11  12
ENDBRANCH  10  11
ENDBRANCH   1  10
TORSDOF 12
ENDMDL
MODEL 9
REMARK VINA RESULT:    -5.357      2.886      6.332
REMARK INTER + INTRA:         -10.257
REMARK INTER:                  -9.091
REMARK INTRA:                  -1.165
REMARK UNBOUND:                -1.142
REMARK SMILES CCCCCCCCCCCCCC(=O)[O-]
REMARK SMILES IDX 8 1 9 2 10 3 11 4 12 5 13 6 14 7 15 8 16 9 7 10 6 11 5 12
REMARK SMILES IDX 4 13 3 14 2 15 1 16
REMARK H PARENT
REMARK Flexibility Score: inf
ROOT
ATOM      1  C   UNL     1       2.234   6.272  19.178  1.00  0.00     0.000 C 
ENDROOT
BRANCH   1   2
ATOM      2  C   UNL     1       2.656   6.833  17.810  1.00  0.00     0.000 C 
BRANCH   2   3
ATOM      3  C   UNL     1       3.058   8.314  17.874  1.00  0.00     0.000 C 
BRANCH   3   4
ATOM      4  C   UNL     1       3.784   8.740  16.588  1.00  0.00     0.000 C 
BRANCH   4   5
ATOM      5  C   UNL     1       4.475   7.563  15.880  1.00  0.00     0.006 C 
BRANCH   5   6
ATOM      6  C   UNL     1       5.931   7.869  15.508  1.00  0.00     0.053 C 
BRANCH   6   7
ATOM      7  C   UNL     1       6.168   7.592  14.057  1.00  0.00     0.041 C 
ATOM      8  O   UNL     1       7.296   7.818  13.545  1.00  0.00    -0.550 OA
ATOM      9  O   UNL     1       5.158   7.038  13.281  1.00  0.00    -0.550 OA
ENDBRANCH   6   7
ENDBRANCH   5   6
ENDBRANCH   4   5
ENDBRANCH   3   4
ENDBRANCH   2   3
ENDBRANCH   1   2
BRANCH   1  10
ATOM     10  C   UNL     1       1.847   4.785  19.113  1.00  0.00     0.000 C 
BRANCH  10  11
ATOM     11  C   UNL     1       2.986   3.863  19.577  1.00  0.00    -0.000 C 
BRANCH  11  12
ATOM     12  C   UNL     1       3.290   2.744  18.565  1.00  0.00    -0.000 C 
BRANCH  12  13
ATOM     13  C   UNL     1       2.922   3.149  17.122  1.00  0.00    -0.000 C 
BRANCH  13  14
ATOM     14  C   UNL     1       4.003   2.791  16.084  1.00  0.00    -0.000 C 
BRANCH  14  15
ATOM     15  C   UNL     1       4.342   3.920  15.096  1.00  0.00    -0.003 C 
ATOM     16  C   UNL     1       3.191   4.241  14.143  1.00  0.00     0.004 C 
ENDBRANCH  14  15
ENDBRANCH  13  14
ENDBRANCH  12  13
ENDBRANCH  11  12
ENDBRANCH  10  11
ENDBRANCH   1  10
TORSDOF 12
ENDMDL
