MODEL 1
REMARK VINA RESULT:     9.788      0.000      0.000
REMARK INTER + INTRA:          31.173
REMARK INTER:                  16.940
REMARK INTRA:                  14.233
REMARK UNBOUND:                14.233
REMARK SMILES OC[C@@H]1O[C@@H](O[C@@H]2[C@@H](O)[C@@H](O)[C@@H](O)O[C@@H]2CO)[C@H](O)[C@H](O)[C@@H]1O[C@@H]1O[C@H](CO)[C@@H](O)[C@@H](O)[C@@H]1O
REMARK SMILES IDX 22 1 3 2 4 3 5 4 18 5 20 6 23 7 24 8 26 9 29 10 25 11 31 12
REMARK SMILES IDX 33 13 27 14 28 15 30 17 32 19 34 21 2 23 1 24 21 26 19 28
REMARK SMILES IDX 6 30 7 31 15 32 8 33 14 34 10 35 12 36 16 37 17 38 9 40
REMARK SMILES IDX 11 42 13 44
REMARK H PARENT 28 16 30 18 32 20 34 22 1 25 21 27 19 29 17 39 9 41 11 43
REMARK H PARENT 13 45
REMARK Flexibility Score: inf
ROOT
ATOM      1  C   UNL     1       7.877  -2.406  -0.618  1.00  0.00     0.184 C 
ATOM      2  C   UNL     1       8.708  -1.884  -1.821  1.00  0.00     0.178 C 
ATOM      3  O   UNL     1       9.320  -2.934  -2.538  1.00  0.00    -0.341 OA
ATOM      4  C   UNL     1       9.874  -3.976  -1.738  1.00  0.00     0.282 C 
ATOM      5  C   UNL     1      10.151  -3.615  -0.232  1.00  0.00     0.202 C 
ATOM      6  C   UNL     1       8.848  -3.062   0.430  1.00  0.00     0.180 C 
ENDROOT
BRANCH   1   7
ATOM      7  O   UNL     1       6.904  -3.350  -1.058  1.00  0.00    -0.341 OA
BRANCH   7   8
ATOM      8  C   UNL     1       6.097  -2.863  -2.166  1.00  0.00     0.282 C 
ATOM      9  C   UNL     1       4.144  -1.922  -1.022  1.00  0.00     0.178 C 
ATOM     10  C   UNL     1       3.125  -2.754  -1.869  1.00  0.00     0.177 C 
ATOM     11  O   UNL     1       5.347  -1.710  -1.781  1.00  0.00    -0.341 OA
ATOM     12  C   UNL     1       3.757  -4.153  -2.190  1.00  0.00     0.179 C 
ATOM     13  C   UNL     1       5.169  -3.930  -2.858  1.00  0.00     0.202 C 
BRANCH   9  14
ATOM     14  C   UNL     1       4.342  -2.514   0.396  1.00  0.00     0.191 C 
BRANCH  14  15
ATOM     15  O   UNL     1       5.382  -3.459   0.402  1.00  0.00    -0.394 OA
ATOM     16  H   UNL     1       5.140  -4.225  -0.210  1.00  0.00     0.210 HD
ENDBRANCH  14  15
ENDBRANCH   9  14
BRANCH  10  17
ATOM     17  O   UNL     1       2.876  -2.167  -3.120  1.00  0.00    -0.387 OA
ATOM     18  H   UNL     1       3.533  -2.509  -3.785  1.00  0.00     0.211 HD
ENDBRANCH  10  17
BRANCH  12  19
ATOM     19  O   UNL     1       2.880  -4.887  -3.038  1.00  0.00    -0.387 OA
ATOM     20  H   UNL     1       2.676  -5.751  -2.571  1.00  0.00     0.211 HD
ENDBRANCH  12  19
BRANCH  13  21
ATOM     21  O   UNL     1       5.904  -5.111  -3.125  1.00  0.00    -0.385 OA
ATOM     22  H   UNL     1       6.549  -4.952  -3.865  1.00  0.00     0.211 HD
ENDBRANCH  13  21
ENDBRANCH   7   8
ENDBRANCH   1   7
BRANCH   2  23
ATOM     23  C   UNL     1       7.853  -1.037  -2.784  1.00  0.00     0.191 C 
BRANCH  23  24
ATOM     24  O   UNL     1       7.112  -0.036  -2.123  1.00  0.00    -0.394 OA
ATOM     25  H   UNL     1       6.225  -0.430  -1.885  1.00  0.00     0.210 HD
ENDBRANCH  23  24
ENDBRANCH   2  23
BRANCH   6  26
ATOM     26  O   UNL     1       8.221  -4.126   1.096  1.00  0.00    -0.387 OA
ATOM     27  H   UNL     1       8.546  -4.077   2.038  1.00  0.00     0.211 HD
ENDBRANCH   6  26
BRANCH   5  28
ATOM     28  O   UNL     1      10.659  -4.748   0.485  1.00  0.00    -0.385 OA
ATOM     29  H   UNL     1      10.406  -5.642   0.077  1.00  0.00     0.211 HD
ENDBRANCH   5  28
BRANCH   4  30
ATOM     30  O   UNL     1      11.017  -4.464  -2.402  1.00  0.00    -0.341 OA
BRANCH  30  31
ATOM     31  C   UNL     1      11.158  -5.897  -2.291  1.00  0.00     0.184 C 
ATOM     32  C   UNL     1      11.053  -6.507  -0.838  1.00  0.00     0.178 C 
ATOM     33  C   UNL     1       9.946  -6.467  -3.051  1.00  0.00     0.180 C 
ATOM     34  O   UNL     1       9.929  -5.948  -0.174  1.00  0.00    -0.342 OA
ATOM     35  C   UNL     1       8.659  -6.005  -2.316  1.00  0.00     0.201 C 
ATOM     36  C   UNL     1       8.706  -6.376  -0.802  1.00  0.00     0.279 C 
BRANCH  32  37
ATOM     37  C   UNL     1      12.346  -6.480   0.047  1.00  0.00     0.191 C 
BRANCH  37  38
ATOM     38  O   UNL     1      13.264  -5.521  -0.413  1.00  0.00    -0.394 OA
ATOM     39  H   UNL     1      12.873  -4.620  -0.227  1.00  0.00     0.210 HD
ENDBRANCH  37  38
ENDBRANCH  32  37
BRANCH  33  40
ATOM     40  O   UNL     1       9.994  -7.869  -3.122  1.00  0.00    -0.387 OA
ATOM     41  H   UNL     1       9.912  -8.089  -4.080  1.00  0.00     0.211 HD
ENDBRANCH  33  40
BRANCH  35  42
ATOM     42  O   UNL     1       7.516  -6.552  -2.934  1.00  0.00    -0.385 OA
ATOM     43  H   UNL     1       7.755  -6.725  -3.879  1.00  0.00     0.211 HD
ENDBRANCH  35  42
BRANCH  36  44
ATOM     44  O   UNL     1       8.514  -7.744  -0.561  1.00  0.00    -0.366 OA
ATOM     45  H   UNL     1       7.679  -8.021  -1.024  1.00  0.00     0.213 HD
ENDBRANCH  36  44
ENDBRANCH  30  31
ENDBRANCH   4  30
TORSDOF 18
ENDMDL
MODEL 2
REMARK VINA RESULT:    10.500      1.631      3.966
REMARK INTER + INTRA:          32.406
REMARK INTER:                  30.762
REMARK INTRA:                   1.645
REMARK UNBOUND:                14.233
REMARK SMILES OC[C@@H]1O[C@@H](O[C@@H]2[C@@H](O)[C@@H](O)[C@@H](O)O[C@@H]2CO)[C@H](O)[C@H](O)[C@@H]1O[C@@H]1O[C@H](CO)[C@@H](O)[C@@H](O)[C@@H]1O
REMARK SMILES IDX 22 1 3 2 4 3 5 4 18 5 20 6 23 7 24 8 26 9 29 10 25 11 31 12
REMARK SMILES IDX 33 13 27 14 28 15 30 17 32 19 34 21 2 23 1 24 21 26 19 28
REMARK SMILES IDX 6 30 7 31 15 32 8 33 14 34 10 35 12 36 16 37 17 38 9 40
REMARK SMILES IDX 11 42 13 44
REMARK H PARENT 28 16 30 18 32 20 34 22 1 25 21 27 19 29 17 39 9 41 11 43
REMARK H PARENT 13 45
REMARK Flexibility Score: inf
ROOT
ATOM      1  C   UNL     1       6.827  -5.675  -0.802  1.00  0.00     0.184 C 
ATOM      2  C   UNL     1       8.032  -5.228   0.069  1.00  0.00     0.178 C 
ATOM      3  O   UNL     1       9.123  -4.798  -0.715  1.00  0.00    -0.341 OA
ATOM      4  C   UNL     1       9.386  -5.583  -1.876  1.00  0.00     0.282 C 
ATOM      5  C   UNL     1       8.771  -7.030  -1.882  1.00  0.00     0.202 C 
ATOM      6  C   UNL     1       7.233  -6.955  -1.619  1.00  0.00     0.180 C 
ENDROOT
BRANCH   1   7
ATOM      7  O   UNL     1       6.433  -4.624  -1.681  1.00  0.00    -0.341 OA
BRANCH   7   8
ATOM      8  C   UNL     1       6.247  -3.351  -1.002  1.00  0.00     0.282 C 
ATOM      9  C   UNL     1       4.113  -2.571  -1.920  1.00  0.00     0.178 C 
ATOM     10  C   UNL     1       4.696  -1.186  -2.358  1.00  0.00     0.177 C 
ATOM     11  O   UNL     1       4.860  -3.080  -0.801  1.00  0.00    -0.341 OA
ATOM     12  C   UNL     1       6.185  -1.385  -2.809  1.00  0.00     0.179 C 
ATOM     13  C   UNL     1       6.972  -2.116  -1.653  1.00  0.00     0.202 C 
BRANCH   9  14
ATOM     14  C   UNL     1       3.956  -3.541  -3.118  1.00  0.00     0.191 C 
BRANCH  14  15
ATOM     15  O   UNL     1       4.588  -4.768  -2.854  1.00  0.00    -0.394 OA
ATOM     16  H   UNL     1       4.490  -5.372  -3.657  1.00  0.00     0.210 HD
ENDBRANCH  14  15
ENDBRANCH   9  14
BRANCH  10  17
ATOM     17  O   UNL     1       4.754  -0.277  -1.290  1.00  0.00    -0.387 OA
ATOM     18  H   UNL     1       5.533   0.331  -1.412  1.00  0.00     0.211 HD
ENDBRANCH  10  17
BRANCH  12  19
ATOM     19  O   UNL     1       6.759  -0.120  -3.123  1.00  0.00    -0.387 OA
ATOM     20  H   UNL     1       7.706  -0.291  -3.405  1.00  0.00     0.211 HD
ENDBRANCH  12  19
BRANCH  13  21
ATOM     21  O   UNL     1       8.317  -2.445  -1.952  1.00  0.00    -0.385 OA
ATOM     22  H   UNL     1       8.494  -2.307  -2.921  1.00  0.00     0.211 HD
ENDBRANCH  13  21
ENDBRANCH   7   8
ENDBRANCH   1   7
BRANCH   2  23
ATOM     23  C   UNL     1       7.642  -4.112   1.058  1.00  0.00     0.191 C 
BRANCH  23  24
ATOM     24  O   UNL     1       8.663  -3.157   1.238  1.00  0.00    -0.394 OA
ATOM     25  H   UNL     1       9.417  -3.411   0.633  1.00  0.00     0.210 HD
ENDBRANCH  23  24
ENDBRANCH   2  23
BRANCH   6  26
ATOM     26  O   UNL     1       6.584  -6.982  -2.862  1.00  0.00    -0.387 OA
ATOM     27  H   UNL     1       6.647  -7.928  -3.174  1.00  0.00     0.211 HD
ENDBRANCH   6  26
BRANCH   5  28
ATOM     28  O   UNL     1       9.056  -7.707  -3.113  1.00  0.00    -0.385 OA
ATOM     29  H   UNL     1       8.330  -8.353  -3.406  1.00  0.00     0.211 HD
ENDBRANCH   5  28
BRANCH   4  30
ATOM     30  O   UNL     1      10.779  -5.579  -2.089  1.00  0.00    -0.341 OA
BRANCH  30  31
ATOM     31  C   UNL     1      11.469  -4.620  -1.258  1.00  0.00     0.184 C 
ATOM     32  C   UNL     1      12.125  -5.176   0.067  1.00  0.00     0.178 C 
ATOM     33  C   UNL     1      12.652  -4.141  -2.119  1.00  0.00     0.180 C 
ATOM     34  O   UNL     1      12.848  -6.363  -0.229  1.00  0.00    -0.342 OA
ATOM     35  C   UNL     1      13.572  -5.361  -2.391  1.00  0.00     0.201 C 
ATOM     36  C   UNL     1      13.984  -6.069  -1.064  1.00  0.00     0.279 C 
BRANCH  32  37
ATOM     37  C   UNL     1      11.194  -5.337   1.316  1.00  0.00     0.191 C 
BRANCH  37  38
ATOM     38  O   UNL     1      10.246  -6.356   1.124  1.00  0.00    -0.394 OA
ATOM     39  H   UNL     1      10.408  -6.748   0.218  1.00  0.00     0.210 HD
ENDBRANCH  37  38
ENDBRANCH  32  37
BRANCH  33  40
ATOM     40  O   UNL     1      13.372  -3.116  -1.481  1.00  0.00    -0.387 OA
ATOM     41  H   UNL     1      13.500  -2.417  -2.165  1.00  0.00     0.211 HD
ENDBRANCH  33  40
BRANCH  35  42
ATOM     42  O   UNL     1      14.710  -4.965  -3.124  1.00  0.00    -0.385 OA
ATOM     43  H   UNL     1      15.013  -5.757  -3.635  1.00  0.00     0.211 HD
ENDBRANCH  35  42
BRANCH  36  44
ATOM     44  O   UNL     1      14.931  -5.350  -0.322  1.00  0.00    -0.366 OA
ATOM     45  H   UNL     1      14.441  -4.817   0.360  1.00  0.00     0.213 HD
ENDBRANCH  36  44
ENDBRANCH  30  31
ENDBRANCH   4  30
TORSDOF 18
ENDMDL
MODEL 3
REMARK VINA RESULT:    10.986      1.592      6.742
REMARK INTER + INTRA:          33.247
REMARK INTER:                  28.454
REMARK INTRA:                   4.794
REMARK UNBOUND:                14.233
REMARK SMILES OC[C@@H]1O[C@@H](O[C@@H]2[C@@H](O)[C@@H](O)[C@@H](O)O[C@@H]2CO)[C@H](O)[C@H](O)[C@@H]1O[C@@H]1O[C@H](CO)[C@@H](O)[C@@H](O)[C@@H]1O
REMARK SMILES IDX 22 1 3 2 4 3 5 4 18 5 20 6 23 7 24 8 26 9 29 10 25 11 31 12
REMARK SMILES IDX 33 13 27 14 28 15 30 17 32 19 34 21 2 23 1 24 21 26 19 28
REMARK SMILES IDX 6 30 7 31 15 32 8 33 14 34 10 35 12 36 16 37 17 38 9 40
REMARK SMILES IDX 11 42 13 44
REMARK H PARENT 28 16 30 18 32 20 34 22 1 25 21 27 19 29 17 39 9 41 11 43
REMARK H PARENT 13 45
REMARK Flexibility Score: inf
ROOT
ATOM      1  C   UNL     1       9.705  -6.201   0.923  1.00  0.00     0.184 C 
ATOM      2  C   UNL     1       8.408  -6.801   0.315  1.00  0.00     0.178 C 
ATOM      3  O   UNL     1       8.007  -6.122  -0.855  1.00  0.00    -0.341 OA
ATOM      4  C   UNL     1       8.135  -4.703  -0.810  1.00  0.00     0.282 C 
ATOM      5  C   UNL     1       8.243  -4.066   0.624  1.00  0.00     0.202 C 
ATOM      6  C   UNL     1       9.410  -4.739   1.418  1.00  0.00     0.180 C 
ENDROOT
BRANCH   1   7
ATOM      7  O   UNL     1      10.752  -6.200  -0.044  1.00  0.00    -0.341 OA
BRANCH   7   8
ATOM      8  C   UNL     1      11.176  -4.861  -0.424  1.00  0.00     0.282 C 
ATOM      9  C   UNL     1      10.911  -4.896  -2.861  1.00  0.00     0.178 C 
ATOM     10  C   UNL     1      12.379  -4.423  -3.125  1.00  0.00     0.177 C 
ATOM     11  O   UNL     1      10.468  -4.413  -1.580  1.00  0.00    -0.341 OA
ATOM     12  C   UNL     1      13.312  -5.030  -2.020  1.00  0.00     0.179 C 
ATOM     13  C   UNL     1      12.727  -4.659  -0.602  1.00  0.00     0.202 C 
BRANCH   9  14
ATOM     14  C   UNL     1      10.739  -6.417  -3.098  1.00  0.00     0.191 C 
BRANCH  14  15
ATOM     15  O   UNL     1       9.619  -6.908  -2.406  1.00  0.00    -0.394 OA
ATOM     16  H   UNL     1       9.497  -7.887  -2.622  1.00  0.00     0.210 HD
ENDBRANCH  14  15
ENDBRANCH   9  14
BRANCH  10  17
ATOM     17  O   UNL     1      12.516  -3.032  -2.998  1.00  0.00    -0.387 OA
ATOM     18  H   UNL     1      13.296  -2.825  -2.415  1.00  0.00     0.211 HD
ENDBRANCH  10  17
BRANCH  12  19
ATOM     19  O   UNL     1      14.637  -4.535  -2.191  1.00  0.00    -0.387 OA
ATOM     20  H   UNL     1      15.040  -4.455  -1.277  1.00  0.00     0.211 HD
ENDBRANCH  12  19
BRANCH  13  21
ATOM     21  O   UNL     1      13.418  -5.217   0.501  1.00  0.00    -0.385 OA
ATOM     22  H   UNL     1      13.903  -4.504   0.996  1.00  0.00     0.211 HD
ENDBRANCH  13  21
ENDBRANCH   7   8
ENDBRANCH   1   7
BRANCH   2  23
ATOM     23  C   UNL     1       8.561  -8.303   0.008  1.00  0.00     0.191 C 
BRANCH  23  24
ATOM     24  O   UNL     1       8.196  -9.125   1.094  1.00  0.00    -0.394 OA
ATOM     25  H   UNL     1       7.735  -8.545   1.764  1.00  0.00     0.210 HD
ENDBRANCH  23  24
ENDBRANCH   2  23
BRANCH   6  26
ATOM     26  O   UNL     1      10.544  -3.926   1.282  1.00  0.00    -0.387 OA
ATOM     27  H   UNL     1      10.767  -3.623   2.206  1.00  0.00     0.211 HD
ENDBRANCH   6  26
BRANCH   5  28
ATOM     28  O   UNL     1       8.418  -2.645   0.547  1.00  0.00    -0.385 OA
ATOM     29  H   UNL     1       9.344  -2.328   0.815  1.00  0.00     0.211 HD
ENDBRANCH   5  28
BRANCH   4  30
ATOM     30  O   UNL     1       7.087  -4.153  -1.574  1.00  0.00    -0.341 OA
BRANCH  30  31
ATOM     31  C   UNL     1       6.488  -2.996  -0.951  1.00  0.00     0.184 C 
ATOM     32  C   UNL     1       6.445  -1.673  -1.812  1.00  0.00     0.178 C 
ATOM     33  C   UNL     1       5.013  -3.385  -0.745  1.00  0.00     0.180 C 
ATOM     34  O   UNL     1       5.977  -1.976  -3.118  1.00  0.00    -0.342 OA
ATOM     35  C   UNL     1       4.379  -3.620  -2.142  1.00  0.00     0.201 C 
ATOM     36  C   UNL     1       4.598  -2.391  -3.077  1.00  0.00     0.279 C 
BRANCH  32  37
ATOM     37  C   UNL     1       7.737  -0.786  -1.830  1.00  0.00     0.191 C 
BRANCH  37  38
ATOM     38  O   UNL     1       8.886  -1.545  -1.555  1.00  0.00    -0.394 OA
ATOM     39  H   UNL     1       9.677  -0.942  -1.665  1.00  0.00     0.210 HD
ENDBRANCH  37  38
ENDBRANCH  32  37
BRANCH  33  40
ATOM     40  O   UNL     1       4.309  -2.390  -0.047  1.00  0.00    -0.387 OA
ATOM     41  H   UNL     1       4.782  -2.284   0.813  1.00  0.00     0.211 HD
ENDBRANCH  33  40
BRANCH  35  42
ATOM     42  O   UNL     1       3.007  -3.917  -2.016  1.00  0.00    -0.385 OA
ATOM     43  H   UNL     1       2.899  -4.429  -1.176  1.00  0.00     0.211 HD
ENDBRANCH  35  42
BRANCH  36  44
ATOM     44  O   UNL     1       3.793  -1.291  -2.747  1.00  0.00    -0.366 OA
ATOM     45  H   UNL     1       4.382  -0.588  -2.363  1.00  0.00     0.213 HD
ENDBRANCH  36  44
ENDBRANCH  30  31
ENDBRANCH   4  30
TORSDOF 18
ENDMDL
MODEL 4
REMARK VINA RESULT:    12.444      1.658      6.319
REMARK INTER + INTRA:          35.770
REMARK INTER:                  25.219
REMARK INTRA:                  10.551
REMARK UNBOUND:                14.233
REMARK SMILES OC[C@@H]1O[C@@H](O[C@@H]2[C@@H](O)[C@@H](O)[C@@H](O)O[C@@H]2CO)[C@H](O)[C@H](O)[C@@H]1O[C@@H]1O[C@H](CO)[C@@H](O)[C@@H](O)[C@@H]1O
REMARK SMILES IDX 22 1 3 2 4 3 5 4 18 5 20 6 23 7 24 8 26 9 29 10 25 11 31 12
REMARK SMILES IDX 33 13 27 14 28 15 30 17 32 19 34 21 2 23 1 24 21 26 19 28
REMARK SMILES IDX 6 30 7 31 15 32 8 33 14 34 10 35 12 36 16 37 17 38 9 40
REMARK SMILES IDX 11 42 13 44
REMARK H PARENT 28 16 30 18 32 20 34 22 1 25 21 27 19 29 17 39 9 41 11 43
REMARK H PARENT 13 45
REMARK Flexibility Score: inf
ROOT
ATOM      1  C   UNL     1       9.662  -6.191  -2.969  1.00  0.00     0.184 C 
ATOM      2  C   UNL     1       9.072  -4.757  -3.052  1.00  0.00     0.178 C 
ATOM      3  O   UNL     1       8.216  -4.472  -1.967  1.00  0.00    -0.341 OA
ATOM      4  C   UNL     1       7.348  -5.535  -1.581  1.00  0.00     0.282 C 
ATOM      5  C   UNL     1       7.119  -6.662  -2.653  1.00  0.00     0.202 C 
ATOM      6  C   UNL     1       8.495  -7.234  -3.125  1.00  0.00     0.180 C 
ENDROOT
BRANCH   1   7
ATOM      7  O   UNL     1      10.338  -6.380  -1.728  1.00  0.00    -0.341 OA
BRANCH   7   8
ATOM      8  C   UNL     1       9.562  -5.932  -0.582  1.00  0.00     0.282 C 
ATOM      9  C   UNL     1      11.304  -5.234   0.995  1.00  0.00     0.178 C 
ATOM     10  C   UNL     1      10.752  -6.130   2.153  1.00  0.00     0.177 C 
ATOM     11  O   UNL     1      10.232  -4.876   0.105  1.00  0.00    -0.341 OA
ATOM     12  C   UNL     1      10.161  -7.446   1.537  1.00  0.00     0.179 C 
ATOM     13  C   UNL     1       9.113  -7.058   0.422  1.00  0.00     0.202 C 
BRANCH   9  14
ATOM     14  C   UNL     1      12.552  -5.859   0.322  1.00  0.00     0.191 C 
BRANCH  14  15
ATOM     15  O   UNL     1      12.744  -5.330  -0.966  1.00  0.00    -0.394 OA
ATOM     16  H   UNL     1      12.767  -4.322  -0.911  1.00  0.00     0.210 HD
ENDBRANCH  14  15
ENDBRANCH   9  14
BRANCH  10  17
ATOM     17  O   UNL     1       9.677  -5.523   2.822  1.00  0.00    -0.387 OA
ATOM     18  H   UNL     1      10.026  -4.881   3.498  1.00  0.00     0.211 HD
ENDBRANCH  10  17
BRANCH  12  19
ATOM     19  O   UNL     1       9.571  -8.231   2.568  1.00  0.00    -0.387 OA
ATOM     20  H   UNL     1       8.753  -8.660   2.177  1.00  0.00     0.211 HD
ENDBRANCH  12  19
BRANCH  13  21
ATOM     21  O   UNL     1       8.558  -8.150  -0.289  1.00  0.00    -0.385 OA
ATOM     22  H   UNL     1       8.297  -8.872   0.342  1.00  0.00     0.211 HD
ENDBRANCH  13  21
ENDBRANCH   7   8
ENDBRANCH   1   7
BRANCH   2  23
ATOM     23  C   UNL     1      10.179  -3.687  -3.124  1.00  0.00     0.191 C 
BRANCH  23  24
ATOM     24  O   UNL     1      11.471  -4.222  -2.945  1.00  0.00    -0.394 OA
ATOM     25  H   UNL     1      11.379  -5.041  -2.381  1.00  0.00     0.210 HD
ENDBRANCH  23  24
ENDBRANCH   2  23
BRANCH   6  26
ATOM     26  O   UNL     1       8.756  -8.392  -2.378  1.00  0.00    -0.387 OA
ATOM     27  H   UNL     1       9.607  -8.208  -1.891  1.00  0.00     0.211 HD
ENDBRANCH   6  26
BRANCH   5  28
ATOM     28  O   UNL     1       6.273  -7.699  -2.140  1.00  0.00    -0.385 OA
ATOM     29  H   UNL     1       6.674  -8.629  -2.208  1.00  0.00     0.211 HD
ENDBRANCH   5  28
BRANCH   4  30
ATOM     30  O   UNL     1       6.144  -4.961  -1.126  1.00  0.00    -0.341 OA
BRANCH  30  31
ATOM     31  C   UNL     1       6.303  -3.588  -0.706  1.00  0.00     0.184 C 
ATOM     32  C   UNL     1       6.985  -2.609  -1.741  1.00  0.00     0.178 C 
ATOM     33  C   UNL     1       4.865  -3.061  -0.547  1.00  0.00     0.180 C 
ATOM     34  O   UNL     1       6.400  -2.795  -3.021  1.00  0.00    -0.342 OA
ATOM     35  C   UNL     1       4.179  -3.112  -1.938  1.00  0.00     0.201 C 
ATOM     36  C   UNL     1       5.024  -2.367  -3.016  1.00  0.00     0.279 C 
BRANCH  32  37
ATOM     37  C   UNL     1       8.552  -2.598  -1.793  1.00  0.00     0.191 C 
BRANCH  37  38
ATOM     38  O   UNL     1       9.107  -2.349  -0.527  1.00  0.00    -0.394 OA
ATOM     39  H   UNL     1      10.031  -2.733  -0.525  1.00  0.00     0.210 HD
ENDBRANCH  37  38
ENDBRANCH  32  37
BRANCH  33  40
ATOM     40  O   UNL     1       4.849  -1.752  -0.039  1.00  0.00    -0.387 OA
ATOM     41  H   UNL     1       5.110  -1.832   0.909  1.00  0.00     0.211 HD
ENDBRANCH  33  40
BRANCH  35  42
ATOM     42  O   UNL     1       2.876  -2.579  -1.864  1.00  0.00    -0.385 OA
ATOM     43  H   UNL     1       2.912  -1.674  -2.263  1.00  0.00     0.211 HD
ENDBRANCH  35  42
BRANCH  36  44
ATOM     44  O   UNL     1       4.975  -0.971  -2.892  1.00  0.00    -0.366 OA
ATOM     45  H   UNL     1       5.903  -0.645  -2.749  1.00  0.00     0.213 HD
ENDBRANCH  36  44
ENDBRANCH  30  31
ENDBRANCH   4  30
TORSDOF 18
ENDMDL
