MODEL 1
REMARK VINA RESULT:    -1.603      0.000      0.000
REMARK INTER + INTRA:          -5.687
REMARK INTER:                  -3.103
REMARK INTRA:                  -2.584
REMARK UNBOUND:                -2.584
REMARK SMILES CCCCCCCCCCCCCCCCCC(=O)[O-]
REMARK SMILES IDX 10 1 11 2 12 3 13 4 14 5 15 6 16 7 17 8 18 9 19 10 20 11
REMARK SMILES IDX 9 12 8 13 7 14 6 15 5 16 4 17 3 18 2 19 1 20
REMARK H PARENT
REMARK Flexibility Score: inf
ROOT
ATOM      1  C   UNL     1     173.118 179.625 197.418  1.00  0.00     0.000 C 
ENDROOT
BRANCH   1   2
ATOM      2  C   UNL     1     174.301 178.936 196.712  1.00  0.00     0.000 C 
BRANCH   2   3
ATOM      3  C   UNL     1     174.211 177.401 196.752  1.00  0.00     0.000 C 
BRANCH   3   4
ATOM      4  C   UNL     1     172.790 176.887 196.470  1.00  0.00     0.000 C 
BRANCH   4   5
ATOM      5  C   UNL     1     172.447 176.877 194.971  1.00  0.00     0.000 C 
BRANCH   5   6
ATOM      6  C   UNL     1     173.648 177.246 194.083  1.00  0.00     0.000 C 
BRANCH   6   7
ATOM      7  C   UNL     1     173.250 177.966 192.777  1.00  0.00     0.006 C 
BRANCH   7   8
ATOM      8  C   UNL     1     173.640 179.449 192.787  1.00  0.00     0.053 C 
BRANCH   8   9
ATOM      9  C   UNL     1     172.452 180.302 193.102  1.00  0.00     0.041 C 
ATOM     10  O   UNL     1     171.544 180.463 192.246  1.00  0.00    -0.550 OA
ATOM     11  O   UNL     1     172.373 180.958 194.323  1.00  0.00    -0.550 OA
ENDBRANCH   8   9
ENDBRANCH   7   8
ENDBRANCH   6   7
ENDBRANCH   5   6
ENDBRANCH   4   5
ENDBRANCH   3   4
ENDBRANCH   2   3
ENDBRANCH   1   2
BRANCH   1  12
ATOM     12  C   UNL     1     173.448 180.980 198.070  1.00  0.00     0.000 C 
BRANCH  12  13
ATOM     13  C   UNL     1     172.825 181.140 199.467  1.00  0.00    -0.000 C 
BRANCH  13  14
ATOM     14  C   UNL     1     171.497 180.380 199.611  1.00  0.00    -0.000 C 
BRANCH  14  15
ATOM     15  C   UNL     1     171.506 179.398 200.793  1.00  0.00    -0.000 C 
BRANCH  15  16
ATOM     16  C   UNL     1     171.323 177.953 200.306  1.00  0.00    -0.000 C 
BRANCH  16  17
ATOM     17  C   UNL     1     172.656 177.200 200.146  1.00  0.00    -0.000 C 
BRANCH  17  18
ATOM     18  C   UNL     1     173.828 177.774 200.962  1.00  0.00    -0.000 C 
BRANCH  18  19
ATOM     19  C   UNL     1     175.170 177.694 200.220  1.00  0.00    -0.003 C 
ATOM     20  C   UNL     1     175.853 179.057 200.167  1.00  0.00     0.004 C 
ENDBRANCH  18  19
ENDBRANCH  17  18
ENDBRANCH  16  17
ENDBRANCH  15  16
ENDBRANCH  14  15
ENDBRANCH  13  14
ENDBRANCH  12  13
ENDBRANCH   1  12
TORSDOF 16
ENDMDL
MODEL 2
REMARK VINA RESULT:    -1.467      2.929      6.436
REMARK INTER + INTRA:          -5.424
REMARK INTER:                  -2.848
REMARK INTRA:                  -2.576
REMARK UNBOUND:                -2.584
REMARK SMILES CCCCCCCCCCCCCCCCCC(=O)[O-]
REMARK SMILES IDX 10 1 11 2 12 3 13 4 14 5 15 6 16 7 17 8 18 9 19 10 20 11
REMARK SMILES IDX 9 12 8 13 7 14 6 15 5 16 4 17 3 18 2 19 1 20
REMARK H PARENT
REMARK Flexibility Score: inf
ROOT
ATOM      1  C   UNL     1     173.072 181.367 192.403  1.00  0.00     0.000 C 
ENDROOT
BRANCH   1   2
ATOM      2  C   UNL     1     172.146 181.408 193.633  1.00  0.00     0.000 C 
BRANCH   2   3
ATOM      3  C   UNL     1     172.741 180.689 194.856  1.00  0.00     0.000 C 
BRANCH   3   4
ATOM      4  C   UNL     1     172.965 181.637 196.045  1.00  0.00     0.000 C 
BRANCH   4   5
ATOM      5  C   UNL     1     173.363 180.895 197.331  1.00  0.00     0.000 C 
BRANCH   5   6
ATOM      6  C   UNL     1     173.097 179.381 197.252  1.00  0.00     0.000 C 
BRANCH   6   7
ATOM      7  C   UNL     1     174.080 178.538 198.093  1.00  0.00     0.006 C 
BRANCH   7   8
ATOM      8  C   UNL     1     173.392 177.343 198.767  1.00  0.00     0.053 C 
BRANCH   8   9
ATOM      9  C   UNL     1     172.444 177.813 199.824  1.00  0.00     0.041 C 
ATOM     10  O   UNL     1     171.290 177.317 199.904  1.00  0.00    -0.550 OA
ATOM     11  O   UNL     1     172.818 178.832 200.689  1.00  0.00    -0.550 OA
ENDBRANCH   8   9
ENDBRANCH   7   8
ENDBRANCH   6   7
ENDBRANCH   5   6
ENDBRANCH   4   5
ENDBRANCH   3   4
ENDBRANCH   2   3
ENDBRANCH   1   2
BRANCH   1  12
ATOM     12  C   UNL     1     172.500 180.625 191.182  1.00  0.00     0.000 C 
BRANCH  12  13
ATOM     13  C   UNL     1     171.346 179.675 191.545  1.00  0.00    -0.000 C 
BRANCH  13  14
ATOM     14  C   UNL     1     171.747 178.195 191.448  1.00  0.00    -0.000 C 
BRANCH  14  15
ATOM     15  C   UNL     1     172.163 177.607 192.806  1.00  0.00    -0.000 C 
BRANCH  15  16
ATOM     16  C   UNL     1     173.684 177.404 192.871  1.00  0.00    -0.000 C 
BRANCH  16  17
ATOM     17  C   UNL     1     174.254 177.582 194.290  1.00  0.00    -0.000 C 
BRANCH  17  18
ATOM     18  C   UNL     1     175.780 177.777 194.356  1.00  0.00    -0.000 C 
BRANCH  18  19
ATOM     19  C   UNL     1     176.186 179.083 195.054  1.00  0.00    -0.003 C 
ATOM     20  C   UNL     1     176.234 180.244 194.066  1.00  0.00     0.004 C 
ENDBRANCH  18  19
ENDBRANCH  17  18
ENDBRANCH  16  17
ENDBRANCH  15  16
ENDBRANCH  14  15
ENDBRANCH  13  14
ENDBRANCH  12  13
ENDBRANCH   1  12
TORSDOF 16
ENDMDL
MODEL 3
REMARK VINA RESULT:    -1.465      1.850      6.378
REMARK INTER + INTRA:          -5.419
REMARK INTER:                  -3.078
REMARK INTRA:                  -2.341
REMARK UNBOUND:                -2.584
REMARK SMILES CCCCCCCCCCCCCCCCCC(=O)[O-]
REMARK SMILES IDX 10 1 11 2 12 3 13 4 14 5 15 6 16 7 17 8 18 9 19 10 20 11
REMARK SMILES IDX 9 12 8 13 7 14 6 15 5 16 4 17 3 18 2 19 1 20
REMARK H PARENT
REMARK Flexibility Score: inf
ROOT
ATOM      1  C   UNL     1     173.132 178.792 195.743  1.00  0.00     0.000 C 
ENDROOT
BRANCH   1   2
ATOM      2  C   UNL     1     173.763 178.586 197.133  1.00  0.00     0.000 C 
BRANCH   2   3
ATOM      3  C   UNL     1     173.299 177.288 197.815  1.00  0.00     0.000 C 
BRANCH   3   4
ATOM      4  C   UNL     1     172.556 177.551 199.135  1.00  0.00     0.000 C 
BRANCH   4   5
ATOM      5  C   UNL     1     172.883 178.927 199.738  1.00  0.00     0.000 C 
BRANCH   5   6
ATOM      6  C   UNL     1     171.633 179.669 200.243  1.00  0.00     0.000 C 
BRANCH   6   7
ATOM      7  C   UNL     1     171.444 181.062 199.607  1.00  0.00     0.006 C 
BRANCH   7   8
ATOM      8  C   UNL     1     172.740 181.599 198.986  1.00  0.00     0.053 C 
BRANCH   8   9
ATOM      9  C   UNL     1     172.434 182.498 197.829  1.00  0.00     0.041 C 
ATOM     10  O   UNL     1     172.802 182.182 196.668  1.00  0.00    -0.550 OA
ATOM     11  O   UNL     1     171.786 183.707 198.042  1.00  0.00    -0.550 OA
ENDBRANCH   8   9
ENDBRANCH   7   8
ENDBRANCH   6   7
ENDBRANCH   5   6
ENDBRANCH   4   5
ENDBRANCH   3   4
ENDBRANCH   2   3
ENDBRANCH   1   2
BRANCH   1  12
ATOM     12  C   UNL     1     172.714 177.499 195.020  1.00  0.00     0.000 C 
BRANCH  12  13
ATOM     13  C   UNL     1     173.757 177.023 193.994  1.00  0.00    -0.000 C 
BRANCH  13  14
ATOM     14  C   UNL     1     173.171 176.876 192.581  1.00  0.00    -0.000 C 
BRANCH  14  15
ATOM     15  C   UNL     1     171.845 177.632 192.411  1.00  0.00    -0.000 C 
BRANCH  15  16
ATOM     16  C   UNL     1     172.056 178.942 191.637  1.00  0.00    -0.000 C 
BRANCH  16  17
ATOM     17  C   UNL     1     171.771 180.194 192.485  1.00  0.00    -0.000 C 
BRANCH  17  18
ATOM     18  C   UNL     1     172.995 181.090 192.751  1.00  0.00    -0.000 C 
BRANCH  18  19
ATOM     19  C   UNL     1     174.328 180.376 192.485  1.00  0.00    -0.003 C 
ATOM     20  C   UNL     1     175.416 180.871 193.433  1.00  0.00     0.004 C 
ENDBRANCH  18  19
ENDBRANCH  17  18
ENDBRANCH  16  17
ENDBRANCH  15  16
ENDBRANCH  14  15
ENDBRANCH  13  14
ENDBRANCH  12  13
ENDBRANCH   1  12
TORSDOF 16
ENDMDL
MODEL 4
REMARK VINA RESULT:    -1.463      2.156      4.578
REMARK INTER + INTRA:          -5.415
REMARK INTER:                  -2.432
REMARK INTRA:                  -2.983
REMARK UNBOUND:                -2.584
REMARK SMILES CCCCCCCCCCCCCCCCCC(=O)[O-]
REMARK SMILES IDX 10 1 11 2 12 3 13 4 14 5 15 6 16 7 17 8 18 9 19 10 20 11
REMARK SMILES IDX 9 12 8 13 7 14 6 15 5 16 4 17 3 18 2 19 1 20
REMARK H PARENT
REMARK Flexibility Score: inf
ROOT
ATOM      1  C   UNL     1     174.765 178.953 193.878  1.00  0.00     0.000 C 
ENDROOT
BRANCH   1   2
ATOM      2  C   UNL     1     173.471 179.456 193.211  1.00  0.00     0.000 C 
BRANCH   2   3
ATOM      3  C   UNL     1     173.306 180.983 193.300  1.00  0.00     0.000 C 
BRANCH   3   4
ATOM      4  C   UNL     1     172.179 181.398 194.261  1.00  0.00     0.000 C 
BRANCH   4   5
ATOM      5  C   UNL     1     172.705 182.070 195.540  1.00  0.00     0.000 C 
BRANCH   5   6
ATOM      6  C   UNL     1     173.167 181.054 196.599  1.00  0.00     0.000 C 
BRANCH   6   7
ATOM      7  C   UNL     1     174.394 181.524 197.410  1.00  0.00     0.006 C 
BRANCH   7   8
ATOM      8  C   UNL     1     175.683 180.809 196.982  1.00  0.00     0.053 C 
BRANCH   8   9
ATOM      9  C   UNL     1     176.428 181.629 195.977  1.00  0.00     0.041 C 
ATOM     10  O   UNL     1     176.179 182.856 195.851  1.00  0.00    -0.550 OA
ATOM     11  O   UNL     1     177.362 181.026 195.145  1.00  0.00    -0.550 OA
ENDBRANCH   8   9
ENDBRANCH   7   8
ENDBRANCH   6   7
ENDBRANCH   5   6
ENDBRANCH   4   5
ENDBRANCH   3   4
ENDBRANCH   2   3
ENDBRANCH   1   2
BRANCH   1  12
ATOM     12  C   UNL     1     174.562 177.899 194.981  1.00  0.00     0.000 C 
BRANCH  12  13
ATOM     13  C   UNL     1     173.078 177.638 195.293  1.00  0.00    -0.000 C 
BRANCH  13  14
ATOM     14  C   UNL     1     172.854 177.155 196.734  1.00  0.00    -0.000 C 
BRANCH  14  15
ATOM     15  C   UNL     1     174.128 177.236 197.588  1.00  0.00    -0.000 C 
BRANCH  15  16
ATOM     16  C   UNL     1     173.891 178.082 198.848  1.00  0.00    -0.000 C 
BRANCH  16  17
ATOM     17  C   UNL     1     172.864 177.456 199.808  1.00  0.00    -0.000 C 
BRANCH  17  18
ATOM     18  C   UNL     1     171.832 178.441 200.386  1.00  0.00    -0.000 C 
BRANCH  18  19
ATOM     19  C   UNL     1     171.745 179.752 199.591  1.00  0.00    -0.003 C 
ATOM     20  C   UNL     1     172.120 180.949 200.460  1.00  0.00     0.004 C 
ENDBRANCH  18  19
ENDBRANCH  17  18
ENDBRANCH  16  17
ENDBRANCH  15  16
ENDBRANCH  14  15
ENDBRANCH  13  14
ENDBRANCH  12  13
ENDBRANCH   1  12
TORSDOF 16
ENDMDL
MODEL 5
REMARK VINA RESULT:    -1.452      1.867      3.329
REMARK INTER + INTRA:          -5.394
REMARK INTER:                  -2.396
REMARK INTRA:                  -2.998
REMARK UNBOUND:                -2.584
REMARK SMILES CCCCCCCCCCCCCCCCCC(=O)[O-]
REMARK SMILES IDX 10 1 11 2 12 3 13 4 14 5 15 6 16 7 17 8 18 9 19 10 20 11
REMARK SMILES IDX 9 12 8 13 7 14 6 15 5 16 4 17 3 18 2 19 1 20
REMARK H PARENT
REMARK Flexibility Score: inf
ROOT
ATOM      1  C   UNL     1     174.026 177.068 197.548  1.00  0.00     0.000 C 
ENDROOT
BRANCH   1   2
ATOM      2  C   UNL     1     172.786 177.112 196.635  1.00  0.00     0.000 C 
BRANCH   2   3
ATOM      3  C   UNL     1     173.140 177.026 195.140  1.00  0.00     0.000 C 
BRANCH   3   4
ATOM      4  C   UNL     1     174.416 177.809 194.791  1.00  0.00     0.000 C 
BRANCH   4   5
ATOM      5  C   UNL     1     174.157 178.960 193.805  1.00  0.00     0.000 C 
BRANCH   5   6
ATOM      6  C   UNL     1     172.883 179.755 194.137  1.00  0.00     0.000 C 
BRANCH   6   7
ATOM      7  C   UNL     1     173.022 181.272 193.894  1.00  0.00     0.006 C 
BRANCH   7   8
ATOM      8  C   UNL     1     174.474 181.751 194.018  1.00  0.00     0.053 C 
BRANCH   8   9
ATOM      9  C   UNL     1     174.560 182.933 194.932  1.00  0.00     0.041 C 
ATOM     10  O   UNL     1     173.511 183.489 195.349  1.00  0.00    -0.550 OA
ATOM     11  O   UNL     1     175.800 183.451 195.282  1.00  0.00    -0.550 OA
ENDBRANCH   8   9
ENDBRANCH   7   8
ENDBRANCH   6   7
ENDBRANCH   5   6
ENDBRANCH   4   5
ENDBRANCH   3   4
ENDBRANCH   2   3
ENDBRANCH   1   2
BRANCH   1  12
ATOM     12  C   UNL     1     173.734 177.245 199.049  1.00  0.00     0.000 C 
BRANCH  12  13
ATOM     13  C   UNL     1     172.255 177.549 199.340  1.00  0.00    -0.000 C 
BRANCH  13  14
ATOM     14  C   UNL     1     172.056 178.304 200.663  1.00  0.00    -0.000 C 
BRANCH  14  15
ATOM     15  C   UNL     1     171.469 179.709 200.457  1.00  0.00    -0.000 C 
BRANCH  15  16
ATOM     16  C   UNL     1     172.564 180.704 200.044  1.00  0.00    -0.000 C 
BRANCH  16  17
ATOM     17  C   UNL     1     172.396 181.218 198.603  1.00  0.00    -0.000 C 
BRANCH  17  18
ATOM     18  C   UNL     1     173.445 180.699 197.603  1.00  0.00    -0.000 C 
BRANCH  18  19
ATOM     19  C   UNL     1     174.885 180.846 198.115  1.00  0.00    -0.003 C 
ATOM     20  C   UNL     1     175.882 180.228 197.140  1.00  0.00     0.004 C 
ENDBRANCH  18  19
ENDBRANCH  17  18
ENDBRANCH  16  17
ENDBRANCH  15  16
ENDBRANCH  14  15
ENDBRANCH  13  14
ENDBRANCH  12  13
ENDBRANCH   1  12
TORSDOF 16
ENDMDL
MODEL 6
REMARK VINA RESULT:    -1.435      1.796      5.527
REMARK INTER + INTRA:          -5.361
REMARK INTER:                  -2.554
REMARK INTRA:                  -2.807
REMARK UNBOUND:                -2.584
REMARK SMILES CCCCCCCCCCCCCCCCCC(=O)[O-]
REMARK SMILES IDX 10 1 11 2 12 3 13 4 14 5 15 6 16 7 17 8 18 9 19 10 20 11
REMARK SMILES IDX 9 12 8 13 7 14 6 15 5 16 4 17 3 18 2 19 1 20
REMARK H PARENT
REMARK Flexibility Score: inf
ROOT
ATOM      1  C   UNL     1     174.550 177.429 198.162  1.00  0.00     0.000 C 
ENDROOT
BRANCH   1   2
ATOM      2  C   UNL     1     173.065 177.273 198.541  1.00  0.00     0.000 C 
BRANCH   2   3
ATOM      3  C   UNL     1     172.784 177.609 200.016  1.00  0.00     0.000 C 
BRANCH   3   4
ATOM      4  C   UNL     1     171.648 178.631 200.180  1.00  0.00     0.000 C 
BRANCH   4   5
ATOM      5  C   UNL     1     172.150 180.011 200.635  1.00  0.00     0.000 C 
BRANCH   5   6
ATOM      6  C   UNL     1     171.808 181.129 199.635  1.00  0.00     0.000 C 
BRANCH   6   7
ATOM      7  C   UNL     1     172.562 181.008 198.293  1.00  0.00     0.006 C 
BRANCH   7   8
ATOM      8  C   UNL     1     173.425 182.242 197.996  1.00  0.00     0.053 C 
BRANCH   8   9
ATOM      9  C   UNL     1     172.815 183.056 196.900  1.00  0.00     0.041 C 
ATOM     10  O   UNL     1     172.330 182.491 195.885  1.00  0.00    -0.550 OA
ATOM     11  O   UNL     1     172.827 184.443 196.975  1.00  0.00    -0.550 OA
ENDBRANCH   8   9
ENDBRANCH   7   8
ENDBRANCH   6   7
ENDBRANCH   5   6
ENDBRANCH   4   5
ENDBRANCH   3   4
ENDBRANCH   2   3
ENDBRANCH   1   2
BRANCH   1  12
ATOM     12  C   UNL     1     175.292 178.563 198.892  1.00  0.00     0.000 C 
BRANCH  12  13
ATOM     13  C   UNL     1     176.027 179.512 197.930  1.00  0.00    -0.000 C 
BRANCH  13  14
ATOM     14  C   UNL     1     175.886 179.089 196.460  1.00  0.00    -0.000 C 
BRANCH  14  15
ATOM     15  C   UNL     1     175.390 180.233 195.563  1.00  0.00    -0.000 C 
BRANCH  15  16
ATOM     16  C   UNL     1     174.318 179.735 194.583  1.00  0.00    -0.000 C 
BRANCH  16  17
ATOM     17  C   UNL     1     173.107 179.098 195.289  1.00  0.00    -0.000 C 
BRANCH  17  18
ATOM     18  C   UNL     1     172.769 177.667 194.832  1.00  0.00    -0.000 C 
BRANCH  18  19
ATOM     19  C   UNL     1     173.128 177.407 193.362  1.00  0.00    -0.003 C 
ATOM     20  C   UNL     1     171.880 177.380 192.486  1.00  0.00     0.004 C 
ENDBRANCH  18  19
ENDBRANCH  17  18
ENDBRANCH  16  17
ENDBRANCH  15  16
ENDBRANCH  14  15
ENDBRANCH  13  14
ENDBRANCH  12  13
ENDBRANCH   1  12
TORSDOF 16
ENDMDL
MODEL 7
REMARK VINA RESULT:    -1.428      1.973      2.500
REMARK INTER + INTRA:          -5.348
REMARK INTER:                  -2.570
REMARK INTRA:                  -2.778
REMARK UNBOUND:                -2.584
REMARK SMILES CCCCCCCCCCCCCCCCCC(=O)[O-]
REMARK SMILES IDX 10 1 11 2 12 3 13 4 14 5 15 6 16 7 17 8 18 9 19 10 20 11
REMARK SMILES IDX 9 12 8 13 7 14 6 15 5 16 4 17 3 18 2 19 1 20
REMARK H PARENT
REMARK Flexibility Score: inf
ROOT
ATOM      1  C   UNL     1     174.678 181.595 195.246  1.00  0.00     0.000 C 
ENDROOT
BRANCH   1   2
ATOM      2  C   UNL     1     174.080 180.392 194.492  1.00  0.00     0.000 C 
BRANCH   2   3
ATOM      3  C   UNL     1     175.035 179.187 194.434  1.00  0.00     0.000 C 
BRANCH   3   4
ATOM      4  C   UNL     1     174.304 177.848 194.620  1.00  0.00     0.000 C 
BRANCH   4   5
ATOM      5  C   UNL     1     172.778 178.012 194.720  1.00  0.00     0.000 C 
BRANCH   5   6
ATOM      6  C   UNL     1     172.010 176.875 194.024  1.00  0.00     0.000 C 
BRANCH   6   7
ATOM      7  C   UNL     1     171.763 177.128 192.521  1.00  0.00     0.006 C 
BRANCH   7   8
ATOM      8  C   UNL     1     171.629 178.622 192.196  1.00  0.00     0.053 C 
BRANCH   8   9
ATOM      9  C   UNL     1     172.576 179.008 191.105  1.00  0.00     0.041 C 
ATOM     10  O   UNL     1     173.783 178.655 191.161  1.00  0.00    -0.550 OA
ATOM     11  O   UNL     1     172.138 179.800 190.052  1.00  0.00    -0.550 OA
ENDBRANCH   8   9
ENDBRANCH   7   8
ENDBRANCH   6   7
ENDBRANCH   5   6
ENDBRANCH   4   5
ENDBRANCH   3   4
ENDBRANCH   2   3
ENDBRANCH   1   2
BRANCH   1  12
ATOM     12  C   UNL     1     174.403 181.617 196.760  1.00  0.00     0.000 C 
BRANCH  12  13
ATOM     13  C   UNL     1     173.052 180.982 197.132  1.00  0.00    -0.000 C 
BRANCH  13  14
ATOM     14  C   UNL     1     172.798 180.980 198.647  1.00  0.00    -0.000 C 
BRANCH  14  15
ATOM     15  C   UNL     1     172.785 179.563 199.241  1.00  0.00    -0.000 C 
BRANCH  15  16
ATOM     16  C   UNL     1     172.995 178.508 198.145  1.00  0.00    -0.000 C 
BRANCH  16  17
ATOM     17  C   UNL     1     173.703 177.241 198.658  1.00  0.00    -0.000 C 
BRANCH  17  18
ATOM     18  C   UNL     1     175.177 177.106 198.236  1.00  0.00    -0.000 C 
BRANCH  18  19
ATOM     19  C   UNL     1     175.841 178.458 197.938  1.00  0.00    -0.003 C 
ATOM     20  C   UNL     1     176.381 179.099 199.212  1.00  0.00     0.004 C 
ENDBRANCH  18  19
ENDBRANCH  17  18
ENDBRANCH  16  17
ENDBRANCH  15  16
ENDBRANCH  14  15
ENDBRANCH  13  14
ENDBRANCH  12  13
ENDBRANCH   1  12
TORSDOF 16
ENDMDL
MODEL 8
REMARK VINA RESULT:    -1.421      2.477      4.358
REMARK INTER + INTRA:          -5.334
REMARK INTER:                  -2.557
REMARK INTRA:                  -2.777
REMARK UNBOUND:                -2.584
REMARK SMILES CCCCCCCCCCCCCCCCCC(=O)[O-]
REMARK SMILES IDX 10 1 11 2 12 3 13 4 14 5 15 6 16 7 17 8 18 9 19 10 20 11
REMARK SMILES IDX 9 12 8 13 7 14 6 15 5 16 4 17 3 18 2 19 1 20
REMARK H PARENT
REMARK Flexibility Score: inf
ROOT
ATOM      1  C   UNL     1     174.240 178.823 194.166  1.00  0.00     0.000 C 
ENDROOT
BRANCH   1   2
ATOM      2  C   UNL     1     174.096 180.348 194.006  1.00  0.00     0.000 C 
BRANCH   2   3
ATOM      3  C   UNL     1     172.964 180.937 194.865  1.00  0.00     0.000 C 
BRANCH   3   4
ATOM      4  C   UNL     1     171.920 181.692 194.026  1.00  0.00     0.000 C 
BRANCH   4   5
ATOM      5  C   UNL     1     172.152 181.544 192.514  1.00  0.00     0.000 C 
BRANCH   5   6
ATOM      6  C   UNL     1     170.946 180.928 191.783  1.00  0.00     0.000 C 
BRANCH   6   7
ATOM      7  C   UNL     1     171.130 179.434 191.441  1.00  0.00     0.006 C 
BRANCH   7   8
ATOM      8  C   UNL     1     172.443 179.165 190.695  1.00  0.00     0.053 C 
BRANCH   8   9
ATOM      9  C   UNL     1     172.551 177.719 190.328  1.00  0.00     0.041 C 
ATOM     10  O   UNL     1     171.861 177.253 189.383  1.00  0.00    -0.550 OA
ATOM     11  O   UNL     1     173.375 176.875 191.061  1.00  0.00    -0.550 OA
ENDBRANCH   8   9
ENDBRANCH   7   8
ENDBRANCH   6   7
ENDBRANCH   5   6
ENDBRANCH   4   5
ENDBRANCH   3   4
ENDBRANCH   2   3
ENDBRANCH   1   2
BRANCH   1  12
ATOM     12  C   UNL     1     172.912 178.054 194.291  1.00  0.00     0.000 C 
BRANCH  12  13
ATOM     13  C   UNL     1     172.757 177.345 195.647  1.00  0.00    -0.000 C 
BRANCH  13  14
ATOM     14  C   UNL     1     174.101 176.875 196.225  1.00  0.00    -0.000 C 
BRANCH  14  15
ATOM     15  C   UNL     1     174.329 177.368 197.662  1.00  0.00    -0.000 C 
BRANCH  15  16
ATOM     16  C   UNL     1     173.221 178.342 198.090  1.00  0.00    -0.000 C 
BRANCH  16  17
ATOM     17  C   UNL     1     173.703 179.801 198.176  1.00  0.00    -0.000 C 
BRANCH  17  18
ATOM     18  C   UNL     1     175.163 180.028 197.744  1.00  0.00    -0.000 C 
BRANCH  18  19
ATOM     19  C   UNL     1     175.565 181.510 197.746  1.00  0.00    -0.003 C 
ATOM     20  C   UNL     1     174.369 182.405 198.057  1.00  0.00     0.004 C 
ENDBRANCH  18  19
ENDBRANCH  17  18
ENDBRANCH  16  17
ENDBRANCH  15  16
ENDBRANCH  14  15
ENDBRANCH  13  14
ENDBRANCH  12  13
ENDBRANCH   1  12
TORSDOF 16
ENDMDL
MODEL 9
REMARK VINA RESULT:    -1.406      2.595      3.301
REMARK INTER + INTRA:          -5.306
REMARK INTER:                  -2.171
REMARK INTRA:                  -3.135
REMARK UNBOUND:                -2.584
REMARK SMILES CCCCCCCCCCCCCCCCCC(=O)[O-]
REMARK SMILES IDX 10 1 11 2 12 3 13 4 14 5 15 6 16 7 17 8 18 9 19 10 20 11
REMARK SMILES IDX 9 12 8 13 7 14 6 15 5 16 4 17 3 18 2 19 1 20
REMARK H PARENT
REMARK Flexibility Score: inf
ROOT
ATOM      1  C   UNL     1     174.464 180.200 196.366  1.00  0.00     0.000 C 
ENDROOT
BRANCH   1   2
ATOM      2  C   UNL     1     173.117 179.622 195.893  1.00  0.00     0.000 C 
BRANCH   2   3
ATOM      3  C   UNL     1     173.067 178.086 195.963  1.00  0.00     0.000 C 
BRANCH   3   4
ATOM      4  C   UNL     1     172.704 177.447 194.613  1.00  0.00     0.000 C 
BRANCH   4   5
ATOM      5  C   UNL     1     173.766 177.702 193.530  1.00  0.00     0.000 C 
BRANCH   5   6
ATOM      6  C   UNL     1     175.046 176.875 193.746  1.00  0.00     0.000 C 
BRANCH   6   7
ATOM      7  C   UNL     1     176.269 177.727 194.148  1.00  0.00     0.006 C 
BRANCH   7   8
ATOM      8  C   UNL     1     176.774 177.392 195.558  1.00  0.00     0.053 C 
BRANCH   8   9
ATOM      9  C   UNL     1     177.827 178.366 195.983  1.00  0.00     0.041 C 
ATOM     10  O   UNL     1     178.654 178.053 196.878  1.00  0.00    -0.550 OA
ATOM     11  O   UNL     1     177.863 179.637 195.424  1.00  0.00    -0.550 OA
ENDBRANCH   8   9
ENDBRANCH   7   8
ENDBRANCH   6   7
ENDBRANCH   5   6
ENDBRANCH   4   5
ENDBRANCH   3   4
ENDBRANCH   2   3
ENDBRANCH   1   2
BRANCH   1  12
ATOM     12  C   UNL     1     174.367 181.218 197.517  1.00  0.00     0.000 C 
BRANCH  12  13
ATOM     13  C   UNL     1     173.041 181.123 198.290  1.00  0.00    -0.000 C 
BRANCH  13  14
ATOM     14  C   UNL     1     173.237 181.206 199.811  1.00  0.00    -0.000 C 
BRANCH  14  15
ATOM     15  C   UNL     1     172.742 179.946 200.539  1.00  0.00    -0.000 C 
BRANCH  15  16
ATOM     16  C   UNL     1     171.956 179.036 199.584  1.00  0.00    -0.000 C 
BRANCH  16  17
ATOM     17  C   UNL     1     172.533 177.611 199.501  1.00  0.00    -0.000 C 
BRANCH  17  18
ATOM     18  C   UNL     1     173.952 177.451 200.077  1.00  0.00    -0.000 C 
BRANCH  18  19
ATOM     19  C   UNL     1     175.041 177.461 198.996  1.00  0.00    -0.003 C 
ATOM     20  C   UNL     1     176.117 178.497 199.306  1.00  0.00     0.004 C 
ENDBRANCH  18  19
ENDBRANCH  17  18
ENDBRANCH  16  17
ENDBRANCH  15  16
ENDBRANCH  14  15
ENDBRANCH  13  14
ENDBRANCH  12  13
ENDBRANCH   1  12
TORSDOF 16
ENDMDL
