MODEL 1
REMARK VINA RESULT:    -3.577      0.000      0.000
REMARK INTER + INTRA:          -4.987
REMARK INTER:                  -4.727
REMARK INTRA:                  -0.260
REMARK UNBOUND:                -0.260
REMARK SMILES C=CCC[C@@H](O)CCC
REMARK SMILES IDX 4 1 5 2 7 3 8 4 9 5 6 6 3 8 2 9 1 10
REMARK H PARENT 6 7
REMARK Flexibility Score: inf
ROOT
ATOM      1  C   UNL     1     -39.906  24.430   7.283  1.00  0.00     0.036 C 
ENDROOT
BRANCH   1   2
ATOM      2  C   UNL     1     -41.422  24.723   7.237  1.00  0.00     0.114 C 
BRANCH   2   3
ATOM      3  C   UNL     1     -42.119  24.074   6.014  1.00  0.00     0.031 C 
BRANCH   3   4
ATOM      4  C   UNL     1     -41.425  24.385   4.677  1.00  0.00    -0.001 C 
ATOM      5  C   UNL     1     -42.125  25.485   3.880  1.00  0.00     0.004 C 
ENDBRANCH   3   4
ENDBRANCH   2   3
BRANCH   2   6
ATOM      6  O   UNL     1     -41.663  26.108   7.313  1.00  0.00    -0.393 OA
ATOM      7  H   UNL     1     -40.875  26.535   7.738  1.00  0.00     0.210 HD
ENDBRANCH   2   6
ENDBRANCH   1   2
BRANCH   1   8
ATOM      8  C   UNL     1     -39.511  23.319   8.270  1.00  0.00     0.029 C 
BRANCH   8   9
ATOM      9  C   UNL     1     -40.721  22.768   8.973  1.00  0.00    -0.035 C 
ATOM     10  C   UNL     1     -41.172  21.533   8.735  1.00  0.00     0.004 C 
ENDBRANCH   8   9
ENDBRANCH   1   8
TORSDOF 6
ENDMDL
MODEL 2
REMARK VINA RESULT:    -3.495      1.919      4.155
REMARK INTER + INTRA:          -4.879
REMARK INTER:                  -4.499
REMARK INTRA:                  -0.380
REMARK UNBOUND:                -0.260
REMARK SMILES C=CCC[C@@H](O)CCC
REMARK SMILES IDX 4 1 5 2 7 3 8 4 9 5 6 6 3 8 2 9 1 10
REMARK H PARENT 6 7
REMARK Flexibility Score: inf
ROOT
ATOM      1  C   UNL     1     -42.116  22.811   5.959  1.00  0.00     0.036 C 
ENDROOT
BRANCH   1   2
ATOM      2  C   UNL     1     -41.745  22.760   7.458  1.00  0.00     0.114 C 
BRANCH   2   3
ATOM      3  C   UNL     1     -40.917  23.990   7.911  1.00  0.00     0.031 C 
BRANCH   3   4
ATOM      4  C   UNL     1     -39.474  23.641   8.312  1.00  0.00    -0.001 C 
ATOM      5  C   UNL     1     -38.440  24.093   7.282  1.00  0.00     0.004 C 
ENDBRANCH   3   4
ENDBRANCH   2   3
BRANCH   2   6
ATOM      6  O   UNL     1     -41.107  21.545   7.771  1.00  0.00    -0.393 OA
ATOM      7  H   UNL     1     -40.519  21.697   8.554  1.00  0.00     0.210 HD
ENDBRANCH   2   6
ENDBRANCH   1   2
BRANCH   1   8
ATOM      8  C   UNL     1     -41.006  23.377   5.058  1.00  0.00     0.029 C 
BRANCH   8   9
ATOM      9  C   UNL     1     -41.505  24.549   4.258  1.00  0.00    -0.035 C 
ATOM     10  C   UNL     1     -42.125  25.582   4.836  1.00  0.00     0.004 C 
ENDBRANCH   8   9
ENDBRANCH   1   8
TORSDOF 6
ENDMDL
MODEL 3
REMARK VINA RESULT:    -3.140      1.674      4.166
REMARK INTER + INTRA:          -4.410
REMARK INTER:                  -4.000
REMARK INTRA:                  -0.410
REMARK UNBOUND:                -0.260
REMARK SMILES C=CCC[C@@H](O)CCC
REMARK SMILES IDX 4 1 5 2 7 3 8 4 9 5 6 6 3 8 2 9 1 10
REMARK H PARENT 6 7
REMARK Flexibility Score: inf
ROOT
ATOM      1  C   UNL     1     -40.048  23.773   5.637  1.00  0.00     0.036 C 
ENDROOT
BRANCH   1   2
ATOM      2  C   UNL     1     -39.928  23.413   7.135  1.00  0.00     0.114 C 
BRANCH   2   3
ATOM      3  C   UNL     1     -41.070  24.020   7.989  1.00  0.00     0.031 C 
BRANCH   3   4
ATOM      4  C   UNL     1     -42.056  22.968   8.528  1.00  0.00    -0.001 C 
ATOM      5  C   UNL     1     -41.400  21.615   8.797  1.00  0.00     0.004 C 
ENDBRANCH   3   4
ENDBRANCH   2   3
BRANCH   2   6
ATOM      6  O   UNL     1     -38.655  23.758   7.627  1.00  0.00    -0.393 OA
ATOM      7  H   UNL     1     -38.408  23.104   8.331  1.00  0.00     0.210 HD
ENDBRANCH   2   6
ENDBRANCH   1   2
BRANCH   1   8
ATOM      8  C   UNL     1     -41.389  23.369   5.001  1.00  0.00     0.029 C 
BRANCH   8   9
ATOM      9  C   UNL     1     -42.082  24.561   4.402  1.00  0.00    -0.035 C 
ATOM     10  C   UNL     1     -42.125  25.740   5.029  1.00  0.00     0.004 C 
ENDBRANCH   8   9
ENDBRANCH   1   8
TORSDOF 6
ENDMDL
MODEL 4
REMARK VINA RESULT:    -3.112     17.396     18.931
REMARK INTER + INTRA:          -4.373
REMARK INTER:                  -4.193
REMARK INTRA:                  -0.180
REMARK UNBOUND:                -0.260
REMARK SMILES C=CCC[C@@H](O)CCC
REMARK SMILES IDX 4 1 5 2 7 3 8 4 9 5 6 6 3 8 2 9 1 10
REMARK H PARENT 6 7
REMARK Flexibility Score: inf
ROOT
ATOM      1  C   UNL     1     -22.755  16.195   7.206  1.00  0.00     0.036 C 
ENDROOT
BRANCH   1   2
ATOM      2  C   UNL     1     -23.684  16.683   8.340  1.00  0.00     0.114 C 
BRANCH   2   3
ATOM      3  C   UNL     1     -25.098  16.053   8.268  1.00  0.00     0.031 C 
BRANCH   3   4
ATOM      4  C   UNL     1     -26.192  17.052   7.854  1.00  0.00    -0.001 C 
ATOM      5  C   UNL     1     -27.195  17.339   8.971  1.00  0.00     0.004 C 
ENDBRANCH   3   4
ENDBRANCH   2   3
BRANCH   2   6
ATOM      6  O   UNL     1     -23.729  18.090   8.374  1.00  0.00    -0.393 OA
ATOM      7  H   UNL     1     -22.921  18.436   7.916  1.00  0.00     0.210 HD
ENDBRANCH   2   6
ENDBRANCH   1   2
BRANCH   1   8
ATOM      8  C   UNL     1     -23.190  16.647   5.802  1.00  0.00     0.029 C 
BRANCH   8   9
ATOM      9  C   UNL     1     -22.197  16.207   4.762  1.00  0.00    -0.035 C 
ATOM     10  C   UNL     1     -22.569  15.915   3.512  1.00  0.00     0.004 C 
ENDBRANCH   8   9
ENDBRANCH   1   8
TORSDOF 6
ENDMDL
MODEL 5
REMARK VINA RESULT:    -3.036     17.548     18.656
REMARK INTER + INTRA:          -4.272
REMARK INTER:                  -3.878
REMARK INTRA:                  -0.394
REMARK UNBOUND:                -0.260
REMARK SMILES C=CCC[C@@H](O)CCC
REMARK SMILES IDX 4 1 5 2 7 3 8 4 9 5 6 6 3 8 2 9 1 10
REMARK H PARENT 6 7
REMARK Flexibility Score: inf
ROOT
ATOM      1  C   UNL     1     -23.767  31.021   9.124  1.00  0.00     0.036 C 
ENDROOT
BRANCH   1   2
ATOM      2  C   UNL     1     -24.299  32.139   8.200  1.00  0.00     0.114 C 
BRANCH   2   3
ATOM      3  C   UNL     1     -25.241  31.601   7.093  1.00  0.00     0.031 C 
BRANCH   3   4
ATOM      4  C   UNL     1     -24.939  30.148   6.686  1.00  0.00    -0.001 C 
ATOM      5  C   UNL     1     -25.633  29.732   5.389  1.00  0.00     0.004 C 
ENDBRANCH   3   4
ENDBRANCH   2   3
BRANCH   2   6
ATOM      6  O   UNL     1     -23.236  32.896   7.674  1.00  0.00    -0.393 OA
ATOM      7  H   UNL     1     -23.374  33.844   7.930  1.00  0.00     0.210 HD
ENDBRANCH   2   6
ENDBRANCH   1   2
BRANCH   1   8
ATOM      8  C   UNL     1     -22.240  30.841   9.075  1.00  0.00     0.029 C 
BRANCH   8   9
ATOM      9  C   UNL     1     -21.875  29.449   8.637  1.00  0.00    -0.035 C 
ATOM     10  C   UNL     1     -22.632  28.393   8.947  1.00  0.00     0.004 C 
ENDBRANCH   8   9
ENDBRANCH   1   8
TORSDOF 6
ENDMDL
MODEL 6
REMARK VINA RESULT:    -2.957      1.446      2.391
REMARK INTER + INTRA:          -4.168
REMARK INTER:                  -3.659
REMARK INTRA:                  -0.509
REMARK UNBOUND:                -0.260
REMARK SMILES C=CCC[C@@H](O)CCC
REMARK SMILES IDX 4 1 5 2 7 3 8 4 9 5 6 6 3 8 2 9 1 10
REMARK H PARENT 6 7
REMARK Flexibility Score: inf
ROOT
ATOM      1  C   UNL     1     -40.756  22.147   8.589  1.00  0.00     0.036 C 
ENDROOT
BRANCH   1   2
ATOM      2  C   UNL     1     -41.997  22.851   7.997  1.00  0.00     0.114 C 
BRANCH   2   3
ATOM      3  C   UNL     1     -42.125  22.650   6.465  1.00  0.00     0.031 C 
BRANCH   3   4
ATOM      4  C   UNL     1     -41.819  23.921   5.654  1.00  0.00    -0.001 C 
ATOM      5  C   UNL     1     -40.620  23.762   4.720  1.00  0.00     0.004 C 
ENDBRANCH   3   4
ENDBRANCH   2   3
BRANCH   2   6
ATOM      6  O   UNL     1     -42.014  24.212   8.358  1.00  0.00    -0.393 OA
ATOM      7  H   UNL     1     -41.596  24.732   7.625  1.00  0.00     0.210 HD
ENDBRANCH   2   6
ENDBRANCH   1   2
BRANCH   1   8
ATOM      8  C   UNL     1     -39.599  23.099   8.933  1.00  0.00     0.029 C 
BRANCH   8   9
ATOM      9  C   UNL     1     -38.734  23.353   7.729  1.00  0.00    -0.035 C 
ATOM     10  C   UNL     1     -38.456  24.591   7.311  1.00  0.00     0.004 C 
ENDBRANCH   8   9
ENDBRANCH   1   8
TORSDOF 6
ENDMDL
MODEL 7
REMARK VINA RESULT:    -2.932     17.768     18.843
REMARK INTER + INTRA:          -4.134
REMARK INTER:                  -3.716
REMARK INTRA:                  -0.418
REMARK UNBOUND:                -0.260
REMARK SMILES C=CCC[C@@H](O)CCC
REMARK SMILES IDX 4 1 5 2 7 3 8 4 9 5 6 6 3 8 2 9 1 10
REMARK H PARENT 6 7
REMARK Flexibility Score: inf
ROOT
ATOM      1  C   UNL     1     -24.484  30.236   7.178  1.00  0.00     0.036 C 
ENDROOT
BRANCH   1   2
ATOM      2  C   UNL     1     -24.875  31.717   7.379  1.00  0.00     0.114 C 
BRANCH   2   3
ATOM      3  C   UNL     1     -24.818  32.155   8.864  1.00  0.00     0.031 C 
BRANCH   3   4
ATOM      4  C   UNL     1     -23.833  33.307   9.125  1.00  0.00    -0.001 C 
ATOM      5  C   UNL     1     -22.399  32.973   8.719  1.00  0.00     0.004 C 
ENDBRANCH   3   4
ENDBRANCH   2   3
BRANCH   2   6
ATOM      6  O   UNL     1     -26.127  31.983   6.793  1.00  0.00    -0.393 OA
ATOM      7  H   UNL     1     -26.064  32.846   6.307  1.00  0.00     0.210 HD
ENDBRANCH   2   6
ENDBRANCH   1   2
BRANCH   1   8
ATOM      8  C   UNL     1     -23.955  29.550   8.449  1.00  0.00     0.029 C 
BRANCH   8   9
ATOM      9  C   UNL     1     -22.464  29.365   8.381  1.00  0.00    -0.035 C 
ATOM     10  C   UNL     1     -21.879  28.218   8.737  1.00  0.00     0.004 C 
ENDBRANCH   8   9
ENDBRANCH   1   8
TORSDOF 6
ENDMDL
