MODEL 1
REMARK VINA RESULT:     1.769      0.000      0.000
REMARK INTER + INTRA:           1.990
REMARK INTER:                   2.183
REMARK INTRA:                  -0.192
REMARK UNBOUND:                -0.192
REMARK SMILES [NH3+][C@@H](Cc1ccc(O)cc1)C(=O)[O-]
REMARK SMILES IDX 3 1 2 2 1 3 11 7 12 8 13 9 4 10 5 11 10 12 6 13 9 14 7 15
REMARK SMILES IDX 8 16
REMARK H PARENT 1 4 1 5 1 6 8 17
REMARK Flexibility Score: inf
ROOT
ATOM      1  C   UNL     1       9.457  12.713  15.533  1.00  0.00     0.107 C 
ENDROOT
BRANCH   1   2
ATOM      2  C   UNL     1      10.975  12.710  15.256  1.00  0.00     0.232 C 
BRANCH   2   3
ATOM      3  N   UNL     1      11.626  13.830  15.947  1.00  0.00    -0.350 N 
ATOM      4  H   UNL     1      12.159  14.424  15.270  1.00  0.00     0.345 HD
ATOM      5  H   UNL     1      12.281  13.465  16.676  1.00  0.00     0.345 HD
ATOM      6  H   UNL     1      10.904  14.419  16.423  1.00  0.00     0.345 HD
ENDBRANCH   2   3
BRANCH   2   7
ATOM      7  C   UNL     1      11.258  12.775  13.778  1.00  0.00     0.099 C 
ATOM      8  O   UNL     1      12.359  12.371  13.319  1.00  0.00    -0.544 OA
ATOM      9  O   UNL     1      10.309  13.306  12.913  1.00  0.00    -0.544 OA
ENDBRANCH   2   7
ENDBRANCH   1   2
BRANCH   1  10
ATOM     10  C   UNL     1       9.062  11.619  16.494  1.00  0.00    -0.041 A 
ATOM     11  C   UNL     1       7.789  11.619  17.087  1.00  0.00     0.008 A 
ATOM     12  C   UNL     1       9.949  10.566  16.768  1.00  0.00     0.008 A 
ATOM     13  C   UNL     1       7.416  10.588  17.955  1.00  0.00     0.046 A 
ATOM     14  C   UNL     1       9.574   9.536  17.635  1.00  0.00     0.046 A 
ATOM     15  C   UNL     1       8.306   9.545  18.232  1.00  0.00     0.115 A 
BRANCH  15  16
ATOM     16  O   UNL     1       7.921   8.523  19.098  1.00  0.00    -0.508 OA
ATOM     17  H   UNL     1       8.587   7.841  19.440  1.00  0.00     0.293 HD
ENDBRANCH  15  16
ENDBRANCH   1  10
TORSDOF 5
ENDMDL
MODEL 2
REMARK VINA RESULT:     1.877      1.221      2.011
REMARK INTER + INTRA:           2.123
REMARK INTER:                   2.346
REMARK INTRA:                  -0.222
REMARK UNBOUND:                -0.192
REMARK SMILES [NH3+][C@@H](Cc1ccc(O)cc1)C(=O)[O-]
REMARK SMILES IDX 3 1 2 2 1 3 11 7 12 8 13 9 4 10 5 11 10 12 6 13 9 14 7 15
REMARK SMILES IDX 8 16
REMARK H PARENT 1 4 1 5 1 6 8 17
REMARK Flexibility Score: inf
ROOT
ATOM      1  C   UNL     1      10.497  12.756  15.765  1.00  0.00     0.107 C 
ENDROOT
BRANCH   1   2
ATOM      2  C   UNL     1      10.580  12.433  14.258  1.00  0.00     0.232 C 
BRANCH   2   3
ATOM      3  N   UNL     1      11.978  12.255  13.848  1.00  0.00    -0.350 N 
ATOM      4  H   UNL     1      12.487  11.638  14.522  1.00  0.00     0.345 HD
ATOM      5  H   UNL     1      12.456  13.185  13.802  1.00  0.00     0.345 HD
ATOM      6  H   UNL     1      12.015  11.823  12.895  1.00  0.00     0.345 HD
ENDBRANCH   2   3
BRANCH   2   7
ATOM      7  C   UNL     1       9.928  13.514  13.435  1.00  0.00     0.099 C 
ATOM      8  O   UNL     1       8.967  14.181  13.902  1.00  0.00    -0.544 OA
ATOM      9  O   UNL     1      10.370  13.763  12.142  1.00  0.00    -0.544 OA
ENDBRANCH   2   7
ENDBRANCH   1   2
BRANCH   1  10
ATOM     10  C   UNL     1       9.741  11.693  16.524  1.00  0.00    -0.041 A 
ATOM     11  C   UNL     1      10.371  10.490  16.882  1.00  0.00     0.008 A 
ATOM     12  C   UNL     1       8.412  11.917  16.917  1.00  0.00     0.008 A 
ATOM     13  C   UNL     1       9.677   9.520  17.610  1.00  0.00     0.046 A 
ATOM     14  C   UNL     1       7.719  10.945  17.646  1.00  0.00     0.046 A 
ATOM     15  C   UNL     1       8.350   9.744  17.993  1.00  0.00     0.115 A 
BRANCH  15  16
ATOM     16  O   UNL     1       7.669   8.767  18.719  1.00  0.00    -0.508 OA
ATOM     17  H   UNL     1       8.083   7.861  18.902  1.00  0.00     0.293 HD
ENDBRANCH  15  16
ENDBRANCH   1  10
TORSDOF 5
ENDMDL
MODEL 3
REMARK VINA RESULT:     2.360      3.482      5.929
REMARK INTER + INTRA:           2.719
REMARK INTER:                   2.937
REMARK INTRA:                  -0.217
REMARK UNBOUND:                -0.192
REMARK SMILES [NH3+][C@@H](Cc1ccc(O)cc1)C(=O)[O-]
REMARK SMILES IDX 3 1 2 2 1 3 11 7 12 8 13 9 4 10 5 11 10 12 6 13 9 14 7 15
REMARK SMILES IDX 8 16
REMARK H PARENT 1 4 1 5 1 6 8 17
REMARK Flexibility Score: inf
ROOT
ATOM      1  C   UNL     1      10.694  12.886  14.242  1.00  0.00     0.107 C 
ENDROOT
BRANCH   1   2
ATOM      2  C   UNL     1      10.851  12.551  15.741  1.00  0.00     0.232 C 
BRANCH   2   3
ATOM      3  N   UNL     1       9.663  11.846  16.238  1.00  0.00    -0.350 N 
ATOM      4  H   UNL     1       9.237  11.259  15.483  1.00  0.00     0.345 HD
ATOM      5  H   UNL     1       8.956  12.539  16.577  1.00  0.00     0.345 HD
ATOM      6  H   UNL     1       9.927  11.231  17.041  1.00  0.00     0.345 HD
ENDBRANCH   2   3
BRANCH   2   7
ATOM      7  C   UNL     1      11.097  13.796  16.553  1.00  0.00     0.099 C 
ATOM      8  O   UNL     1      10.981  14.935  16.028  1.00  0.00    -0.544 OA
ATOM      9  O   UNL     1      11.479  13.692  17.885  1.00  0.00    -0.544 OA
ENDBRANCH   2   7
ENDBRANCH   1   2
BRANCH   1  10
ATOM     10  C   UNL     1      11.848  12.359  13.427  1.00  0.00    -0.041 A 
ATOM     11  C   UNL     1      12.944  13.184  13.128  1.00  0.00     0.008 A 
ATOM     12  C   UNL     1      11.856  11.021  12.999  1.00  0.00     0.008 A 
ATOM     13  C   UNL     1      14.025  12.683  12.397  1.00  0.00     0.046 A 
ATOM     14  C   UNL     1      12.939  10.522  12.268  1.00  0.00     0.046 A 
ATOM     15  C   UNL     1      14.026  11.352  11.964  1.00  0.00     0.115 A 
BRANCH  15  16
ATOM     16  O   UNL     1      15.111  10.866  11.237  1.00  0.00    -0.508 OA
ATOM     17  H   UNL     1      15.984  11.376  11.187  1.00  0.00     0.293 HD
ENDBRANCH  15  16
ENDBRANCH   1  10
TORSDOF 5
ENDMDL
MODEL 4
REMARK VINA RESULT:     2.407      1.930      2.099
REMARK INTER + INTRA:           2.778
REMARK INTER:                   2.954
REMARK INTRA:                  -0.176
REMARK UNBOUND:                -0.192
REMARK SMILES [NH3+][C@@H](Cc1ccc(O)cc1)C(=O)[O-]
REMARK SMILES IDX 3 1 2 2 1 3 11 7 12 8 13 9 4 10 5 11 10 12 6 13 9 14 7 15
REMARK SMILES IDX 8 16
REMARK H PARENT 1 4 1 5 1 6 8 17
REMARK Flexibility Score: inf
ROOT
ATOM      1  C   UNL     1      10.596  11.593  15.779  1.00  0.00     0.107 C 
ENDROOT
BRANCH   1   2
ATOM      2  C   UNL     1      10.124  13.054  15.622  1.00  0.00     0.232 C 
BRANCH   2   3
ATOM      3  N   UNL     1      10.199  13.470  14.216  1.00  0.00    -0.350 N 
ATOM      4  H   UNL     1       9.365  14.043  13.953  1.00  0.00     0.345 HD
ATOM      5  H   UNL     1      10.246  12.626  13.598  1.00  0.00     0.345 HD
ATOM      6  H   UNL     1      11.065  14.035  14.060  1.00  0.00     0.345 HD
ENDBRANCH   2   3
BRANCH   2   7
ATOM      7  C   UNL     1      10.938  13.983  16.484  1.00  0.00     0.099 C 
ATOM      8  O   UNL     1      11.405  13.589  17.586  1.00  0.00    -0.544 OA
ATOM      9  O   UNL     1      11.157  15.294  16.078  1.00  0.00    -0.544 OA
ENDBRANCH   2   7
ENDBRANCH   1   2
BRANCH   1  10
ATOM     10  C   UNL     1       9.716  10.821  16.731  1.00  0.00    -0.041 A 
ATOM     11  C   UNL     1       8.456  11.319  17.098  1.00  0.00     0.008 A 
ATOM     12  C   UNL     1      10.133   9.574  17.223  1.00  0.00     0.008 A 
ATOM     13  C   UNL     1       7.631  10.587  17.957  1.00  0.00     0.046 A 
ATOM     14  C   UNL     1       9.307   8.843  18.082  1.00  0.00     0.046 A 
ATOM     15  C   UNL     1       8.054   9.348  18.452  1.00  0.00     0.115 A 
BRANCH  15  16
ATOM     16  O   UNL     1       7.221   8.629  19.308  1.00  0.00    -0.508 OA
ATOM     17  H   UNL     1       6.578   7.931  18.955  1.00  0.00     0.293 HD
ENDBRANCH  15  16
ENDBRANCH   1  10
TORSDOF 5
ENDMDL
MODEL 5
REMARK VINA RESULT:     2.768      3.091      6.205
REMARK INTER + INTRA:           3.223
REMARK INTER:                   3.412
REMARK INTRA:                  -0.189
REMARK UNBOUND:                -0.192
REMARK SMILES [NH3+][C@@H](Cc1ccc(O)cc1)C(=O)[O-]
REMARK SMILES IDX 3 1 2 2 1 3 11 7 12 8 13 9 4 10 5 11 10 12 6 13 9 14 7 15
REMARK SMILES IDX 8 16
REMARK H PARENT 1 4 1 5 1 6 8 17
REMARK Flexibility Score: inf
ROOT
ATOM      1  C   UNL     1      11.869  13.303  14.328  1.00  0.00     0.107 C 
ENDROOT
BRANCH   1   2
ATOM      2  C   UNL     1      10.510  12.631  14.616  1.00  0.00     0.232 C 
BRANCH   2   3
ATOM      3  N   UNL     1       9.431  13.326  13.903  1.00  0.00    -0.350 N 
ATOM      4  H   UNL     1       8.746  12.641  13.507  1.00  0.00     0.345 HD
ATOM      5  H   UNL     1       9.832  13.901  13.126  1.00  0.00     0.345 HD
ATOM      6  H   UNL     1       8.930  13.969  14.558  1.00  0.00     0.345 HD
ENDBRANCH   2   3
BRANCH   2   7
ATOM      7  C   UNL     1      10.222  12.601  16.095  1.00  0.00     0.099 C 
ATOM      8  O   UNL     1       9.457  11.726  16.579  1.00  0.00    -0.544 OA
ATOM      9  O   UNL     1      10.782  13.559  16.930  1.00  0.00    -0.544 OA
ENDBRANCH   2   7
ENDBRANCH   1   2
BRANCH   1  10
ATOM     10  C   UNL     1      12.688  12.508  13.341  1.00  0.00    -0.041 A 
ATOM     11  C   UNL     1      12.310  11.201  12.993  1.00  0.00     0.008 A 
ATOM     12  C   UNL     1      13.811  13.086  12.728  1.00  0.00     0.008 A 
ATOM     13  C   UNL     1      13.054  10.478  12.056  1.00  0.00     0.046 A 
ATOM     14  C   UNL     1      14.554  12.361  11.792  1.00  0.00     0.046 A 
ATOM     15  C   UNL     1      14.178  11.055  11.454  1.00  0.00     0.115 A 
BRANCH  15  16
ATOM     16  O   UNL     1      14.911  10.322  10.522  1.00  0.00    -0.508 OA
ATOM     17  H   UNL     1      14.681  10.342   9.536  1.00  0.00     0.293 HD
ENDBRANCH  15  16
ENDBRANCH   1  10
TORSDOF 5
ENDMDL
MODEL 6
REMARK VINA RESULT:     3.329      2.461      5.524
REMARK INTER + INTRA:           3.915
REMARK INTER:                   4.140
REMARK INTRA:                  -0.225
REMARK UNBOUND:                -0.192
REMARK SMILES [NH3+][C@@H](Cc1ccc(O)cc1)C(=O)[O-]
REMARK SMILES IDX 3 1 2 2 1 3 11 7 12 8 13 9 4 10 5 11 10 12 6 13 9 14 7 15
REMARK SMILES IDX 8 16
REMARK H PARENT 1 4 1 5 1 6 8 17
REMARK Flexibility Score: inf
ROOT
ATOM      1  C   UNL     1       9.108  10.789  16.429  1.00  0.00     0.107 C 
ENDROOT
BRANCH   1   2
ATOM      2  C   UNL     1       9.285  10.083  17.790  1.00  0.00     0.232 C 
BRANCH   2   3
ATOM      3  N   UNL     1      10.141   8.900  17.647  1.00  0.00    -0.350 N 
ATOM      4  H   UNL     1      11.140   9.179  17.506  1.00  0.00     0.345 HD
ATOM      5  H   UNL     1       9.824   8.328  16.830  1.00  0.00     0.345 HD
ATOM      6  H   UNL     1      10.072   8.307  18.506  1.00  0.00     0.345 HD
ENDBRANCH   2   3
BRANCH   2   7
ATOM      7  C   UNL     1       7.952   9.695  18.377  1.00  0.00     0.099 C 
ATOM      8  O   UNL     1       7.047  10.557  18.535  1.00  0.00    -0.544 OA
ATOM      9  O   UNL     1       7.725   8.382  18.772  1.00  0.00    -0.544 OA
ENDBRANCH   2   7
ENDBRANCH   1   2
BRANCH   1  10
ATOM     10  C   UNL     1       9.875  12.087  16.368  1.00  0.00    -0.041 A 
ATOM     11  C   UNL     1      10.283  12.728  17.549  1.00  0.00     0.008 A 
ATOM     12  C   UNL     1      10.229  12.640  15.127  1.00  0.00     0.008 A 
ATOM     13  C   UNL     1      11.019  13.915  17.488  1.00  0.00     0.046 A 
ATOM     14  C   UNL     1      10.966  13.827  15.069  1.00  0.00     0.046 A 
ATOM     15  C   UNL     1      11.362  14.468  16.249  1.00  0.00     0.115 A 
BRANCH  15  16
ATOM     16  O   UNL     1      12.097  15.651  16.204  1.00  0.00    -0.508 OA
ATOM     17  H   UNL     1      13.110  15.644  16.179  1.00  0.00     0.293 HD
ENDBRANCH  15  16
ENDBRANCH   1  10
TORSDOF 5
ENDMDL
MODEL 7
REMARK VINA RESULT:     3.630      2.091      5.504
REMARK INTER + INTRA:           4.287
REMARK INTER:                   4.505
REMARK INTRA:                  -0.218
REMARK UNBOUND:                -0.192
REMARK SMILES [NH3+][C@@H](Cc1ccc(O)cc1)C(=O)[O-]
REMARK SMILES IDX 3 1 2 2 1 3 11 7 12 8 13 9 4 10 5 11 10 12 6 13 9 14 7 15
REMARK SMILES IDX 8 16
REMARK H PARENT 1 4 1 5 1 6 8 17
REMARK Flexibility Score: inf
ROOT
ATOM      1  C   UNL     1      10.038  12.092  16.810  1.00  0.00     0.107 C 
ENDROOT
BRANCH   1   2
ATOM      2  C   UNL     1       9.023  10.933  16.893  1.00  0.00     0.232 C 
BRANCH   2   3
ATOM      3  N   UNL     1       7.956  11.251  17.850  1.00  0.00    -0.350 N 
ATOM      4  H   UNL     1       7.973  12.267  18.099  1.00  0.00     0.345 HD
ATOM      5  H   UNL     1       8.077  10.681  18.719  1.00  0.00     0.345 HD
ATOM      6  H   UNL     1       7.026  11.017  17.434  1.00  0.00     0.345 HD
ENDBRANCH   2   3
BRANCH   2   7
ATOM      7  C   UNL     1       9.702   9.644  17.280  1.00  0.00     0.099 C 
ATOM      8  O   UNL     1       9.386   9.049  18.344  1.00  0.00    -0.544 OA
ATOM      9  O   UNL     1      10.702   9.117  16.472  1.00  0.00    -0.544 OA
ENDBRANCH   2   7
ENDBRANCH   1   2
BRANCH   1  10
ATOM     10  C   UNL     1      10.117  12.666  15.417  1.00  0.00    -0.041 A 
ATOM     11  C   UNL     1      11.291  12.533  14.658  1.00  0.00     0.008 A 
ATOM     12  C   UNL     1       9.000  13.300  14.851  1.00  0.00     0.008 A 
ATOM     13  C   UNL     1      11.351  13.041  13.357  1.00  0.00     0.046 A 
ATOM     14  C   UNL     1       9.062  13.807  13.549  1.00  0.00     0.046 A 
ATOM     15  C   UNL     1      10.238  13.680  12.799  1.00  0.00     0.115 A 
BRANCH  15  16
ATOM     16  O   UNL     1      10.311  14.181  11.501  1.00  0.00    -0.508 OA
ATOM     17  H   UNL     1      10.739  15.078  11.304  1.00  0.00     0.293 HD
ENDBRANCH  15  16
ENDBRANCH   1  10
TORSDOF 5
ENDMDL
MODEL 8
REMARK VINA RESULT:     3.712      2.077      5.323
REMARK INTER + INTRA:           4.388
REMARK INTER:                   4.613
REMARK INTRA:                  -0.226
REMARK UNBOUND:                -0.192
REMARK SMILES [NH3+][C@@H](Cc1ccc(O)cc1)C(=O)[O-]
REMARK SMILES IDX 3 1 2 2 1 3 11 7 12 8 13 9 4 10 5 11 10 12 6 13 9 14 7 15
REMARK SMILES IDX 8 16
REMARK H PARENT 1 4 1 5 1 6 8 17
REMARK Flexibility Score: inf
ROOT
ATOM      1  C   UNL     1       9.917  12.150  16.850  1.00  0.00     0.107 C 
ENDROOT
BRANCH   1   2
ATOM      2  C   UNL     1       8.945  10.955  16.947  1.00  0.00     0.232 C 
BRANCH   2   3
ATOM      3  N   UNL     1       7.897  11.223  17.939  1.00  0.00    -0.350 N 
ATOM      4  H   UNL     1       7.006  11.508  17.469  1.00  0.00     0.345 HD
ATOM      5  H   UNL     1       8.206  11.987  18.584  1.00  0.00     0.345 HD
ATOM      6  H   UNL     1       7.722  10.365  18.510  1.00  0.00     0.345 HD
ENDBRANCH   2   3
BRANCH   2   7
ATOM      7  C   UNL     1       9.679   9.686  17.295  1.00  0.00     0.099 C 
ATOM      8  O   UNL     1      10.578   9.237  16.535  1.00  0.00    -0.544 OA
ATOM      9  O   UNL     1       9.349   8.987  18.450  1.00  0.00    -0.544 OA
ENDBRANCH   2   7
ENDBRANCH   1   2
BRANCH   1  10
ATOM     10  C   UNL     1      10.048  12.650  15.433  1.00  0.00    -0.041 A 
ATOM     11  C   UNL     1       8.971  13.295  14.803  1.00  0.00     0.008 A 
ATOM     12  C   UNL     1      11.266  12.515  14.747  1.00  0.00     0.008 A 
ATOM     13  C   UNL     1       9.106  13.783  13.500  1.00  0.00     0.046 A 
ATOM     14  C   UNL     1      11.399  13.004  13.444  1.00  0.00     0.046 A 
ATOM     15  C   UNL     1      10.319  13.639  12.817  1.00  0.00     0.115 A 
BRANCH  15  16
ATOM     16  O   UNL     1      10.439  14.130  11.518  1.00  0.00    -0.508 OA
ATOM     17  H   UNL     1      10.603  13.513  10.733  1.00  0.00     0.293 HD
ENDBRANCH  15  16
ENDBRANCH   1  10
TORSDOF 5
ENDMDL
MODEL 9
REMARK VINA RESULT:     4.381      2.665      4.883
REMARK INTER + INTRA:           5.213
REMARK INTER:                   4.546
REMARK INTRA:                   0.667
REMARK UNBOUND:                -0.192
REMARK SMILES [NH3+][C@@H](Cc1ccc(O)cc1)C(=O)[O-]
REMARK SMILES IDX 3 1 2 2 1 3 11 7 12 8 13 9 4 10 5 11 10 12 6 13 9 14 7 15
REMARK SMILES IDX 8 16
REMARK H PARENT 1 4 1 5 1 6 8 17
REMARK Flexibility Score: inf
ROOT
ATOM      1  C   UNL     1       8.262  10.901  16.251  1.00  0.00     0.107 C 
ENDROOT
BRANCH   1   2
ATOM      2  C   UNL     1       8.538   9.761  17.255  1.00  0.00     0.232 C 
BRANCH   2   3
ATOM      3  N   UNL     1       7.988  10.094  18.574  1.00  0.00    -0.350 N 
ATOM      4  H   UNL     1       8.520   9.608  19.332  1.00  0.00     0.345 HD
ATOM      5  H   UNL     1       6.982   9.809  18.622  1.00  0.00     0.345 HD
ATOM      6  H   UNL     1       8.040  11.128  18.730  1.00  0.00     0.345 HD
ENDBRANCH   2   3
BRANCH   2   7
ATOM      7  C   UNL     1      10.014   9.479  17.362  1.00  0.00     0.099 C 
ATOM      8  O   UNL     1      10.693   9.221  16.333  1.00  0.00    -0.544 OA
ATOM      9  O   UNL     1      10.631   9.475  18.607  1.00  0.00    -0.544 OA
ENDBRANCH   2   7
ENDBRANCH   1   2
BRANCH   1  10
ATOM     10  C   UNL     1       9.307  11.985  16.335  1.00  0.00    -0.041 A 
ATOM     11  C   UNL     1       9.906  12.488  15.168  1.00  0.00     0.008 A 
ATOM     12  C   UNL     1       9.658  12.533  17.579  1.00  0.00     0.008 A 
ATOM     13  C   UNL     1      10.853  13.514  15.248  1.00  0.00     0.046 A 
ATOM     14  C   UNL     1      10.605  13.558  17.657  1.00  0.00     0.046 A 
ATOM     15  C   UNL     1      11.206  14.051  16.491  1.00  0.00     0.115 A 
BRANCH  15  16
ATOM     16  O   UNL     1      12.151  15.073  16.555  1.00  0.00    -0.508 OA
ATOM     17  H   UNL     1      12.796  15.245  15.793  1.00  0.00     0.293 HD
ENDBRANCH  15  16
ENDBRANCH   1  10
TORSDOF 5
ENDMDL
