MODEL 1
REMARK VINA RESULT:    -1.445      0.000      0.000
REMARK INTER + INTRA:          -1.202
REMARK INTER:                  -1.571
REMARK INTRA:                   0.370
REMARK UNBOUND:                 0.370
REMARK SMILES Cc1ccc(C(C)C)c(O)c1
REMARK SMILES IDX 1 1 2 2 11 3 9 4 5 5 4 6 3 7 10 8 6 10 7 11 8 12
REMARK H PARENT 10 9
REMARK Flexibility Score: inf
ROOT
ATOM      1  C   UNL     1      18.313 100.183   8.322  1.00  0.00     0.044 C 
ATOM      2  C   UNL     1      18.045  98.717   8.496  1.00  0.00    -0.047 A 
ATOM      3  C   UNL     1      16.872  98.283   9.126  1.00  0.00     0.049 A 
ATOM      4  C   UNL     1      16.596  96.914   9.258  1.00  0.00     0.119 A 
ATOM      5  C   UNL     1      17.499  95.958   8.745  1.00  0.00    -0.004 A 
ATOM      6  C   UNL     1      18.666  96.407   8.096  1.00  0.00     0.008 A 
ATOM      7  C   UNL     1      18.932  97.771   7.966  1.00  0.00     0.004 A 
ENDROOT
BRANCH   4   8
ATOM      8  O   UNL     1      15.424  96.510   9.899  1.00  0.00    -0.508 OA
ATOM      9  H   UNL     1      14.533  96.494   9.419  1.00  0.00     0.293 HD
ENDBRANCH   4   8
BRANCH   5  10
ATOM     10  C   UNL     1      17.222  94.466   8.877  1.00  0.00     0.017 C 
ATOM     11  C   UNL     1      15.783  94.134   8.464  1.00  0.00     0.012 C 
ATOM     12  C   UNL     1      18.232  93.642   8.068  1.00  0.00     0.012 C 
ENDBRANCH   5  10
TORSDOF 2
ENDMDL
MODEL 2
REMARK VINA RESULT:    -0.512      1.817      4.500
REMARK INTER + INTRA:          -0.187
REMARK INTER:                   0.010
REMARK INTRA:                  -0.198
REMARK UNBOUND:                 0.370
REMARK SMILES Cc1ccc(C(C)C)c(O)c1
REMARK SMILES IDX 1 1 2 2 11 3 9 4 5 5 4 6 3 7 10 8 6 10 7 11 8 12
REMARK H PARENT 10 9
REMARK Flexibility Score: inf
ROOT
ATOM      1  C   UNL     1      15.736  94.123   8.650  1.00  0.00     0.044 C 
ATOM      2  C   UNL     1      16.581  95.362   8.697  1.00  0.00    -0.047 A 
ATOM      3  C   UNL     1      17.756  95.446   7.938  1.00  0.00     0.049 A 
ATOM      4  C   UNL     1      18.531  96.614   7.947  1.00  0.00     0.119 A 
ATOM      5  C   UNL     1      18.125  97.726   8.718  1.00  0.00    -0.004 A 
ATOM      6  C   UNL     1      16.932  97.637   9.462  1.00  0.00     0.008 A 
ATOM      7  C   UNL     1      16.165  96.471   9.446  1.00  0.00     0.004 A 
ENDROOT
BRANCH   4   8
ATOM      8  O   UNL     1      19.702  96.667   7.190  1.00  0.00    -0.508 OA
ATOM      9  H   UNL     1      20.359  95.897   7.171  1.00  0.00     0.293 HD
ENDBRANCH   4   8
BRANCH   5  10
ATOM     10  C   UNL     1      18.950  99.006   8.745  1.00  0.00     0.017 C 
ATOM     11  C   UNL     1      18.090 100.224   8.386  1.00  0.00     0.012 C 
ATOM     12  C   UNL     1      19.634  99.195  10.105  1.00  0.00     0.012 C 
ENDBRANCH   5  10
TORSDOF 2
ENDMDL
MODEL 3
REMARK VINA RESULT:    -0.488      1.093      4.107
REMARK INTER + INTRA:          -0.162
REMARK INTER:                   0.038
REMARK INTRA:                  -0.200
REMARK UNBOUND:                 0.370
REMARK SMILES Cc1ccc(C(C)C)c(O)c1
REMARK SMILES IDX 1 1 2 2 11 3 9 4 5 5 4 6 3 7 10 8 6 10 7 11 8 12
REMARK H PARENT 10 9
REMARK Flexibility Score: inf
ROOT
ATOM      1  C   UNL     1      16.210  93.682   8.611  1.00  0.00     0.044 C 
ATOM      2  C   UNL     1      16.683  95.103   8.701  1.00  0.00    -0.047 A 
ATOM      3  C   UNL     1      15.823  96.106   9.168  1.00  0.00     0.049 A 
ATOM      4  C   UNL     1      16.268  97.430   9.291  1.00  0.00     0.119 A 
ATOM      5  C   UNL     1      17.598  97.763   8.952  1.00  0.00    -0.004 A 
ATOM      6  C   UNL     1      18.459  96.742   8.502  1.00  0.00     0.008 A 
ATOM      7  C   UNL     1      18.008  95.427   8.385  1.00  0.00     0.004 A 
ENDROOT
BRANCH   4   8
ATOM      8  O   UNL     1      15.388  98.410   9.750  1.00  0.00    -0.508 OA
ATOM      9  H   UNL     1      15.206  99.253   9.220  1.00  0.00     0.293 HD
ENDBRANCH   4   8
BRANCH   5  10
ATOM     10  C   UNL     1      18.106  99.193   9.076  1.00  0.00     0.017 C 
ATOM     11  C   UNL     1      19.502  99.230   9.709  1.00  0.00     0.012 C 
ATOM     12  C   UNL     1      18.097  99.903   7.717  1.00  0.00     0.012 C 
ENDBRANCH   5  10
TORSDOF 2
ENDMDL
MODEL 4
REMARK VINA RESULT:    -0.302      1.851      4.013
REMARK INTER + INTRA:           0.041
REMARK INTER:                  -0.124
REMARK INTRA:                   0.165
REMARK UNBOUND:                 0.370
REMARK SMILES Cc1ccc(C(C)C)c(O)c1
REMARK SMILES IDX 1 1 2 2 11 3 9 4 5 5 4 6 3 7 10 8 6 10 7 11 8 12
REMARK H PARENT 10 9
REMARK Flexibility Score: inf
ROOT
ATOM      1  C   UNL     1      13.187  96.058  10.121  1.00  0.00     0.044 C 
ATOM      2  C   UNL     1      14.599  96.410   9.753  1.00  0.00    -0.047 A 
ATOM      3  C   UNL     1      15.494  95.410   9.350  1.00  0.00     0.049 A 
ATOM      4  C   UNL     1      16.804  95.735   8.968  1.00  0.00     0.119 A 
ATOM      5  C   UNL     1      17.230  97.082   8.977  1.00  0.00    -0.004 A 
ATOM      6  C   UNL     1      16.314  98.080   9.366  1.00  0.00     0.008 A 
ATOM      7  C   UNL     1      15.012  97.748   9.742  1.00  0.00     0.004 A 
ENDROOT
BRANCH   4   8
ATOM      8  O   UNL     1      17.678  94.719   8.580  1.00  0.00    -0.508 OA
ATOM      9  H   UNL     1      17.826  94.487   7.606  1.00  0.00     0.293 HD
ENDBRANCH   4   8
BRANCH   5  10
ATOM     10  C   UNL     1      18.647  97.460   8.568  1.00  0.00     0.017 C 
ATOM     11  C   UNL     1      18.956  96.980   7.144  1.00  0.00     0.012 C 
ATOM     12  C   UNL     1      18.877  98.971   8.703  1.00  0.00     0.012 C 
ENDBRANCH   5  10
TORSDOF 2
ENDMDL
MODEL 5
REMARK VINA RESULT:    -0.280      1.792      4.107
REMARK INTER + INTRA:           0.065
REMARK INTER:                  -0.267
REMARK INTRA:                   0.333
REMARK UNBOUND:                 0.370
REMARK SMILES Cc1ccc(C(C)C)c(O)c1
REMARK SMILES IDX 1 1 2 2 11 3 9 4 5 5 4 6 3 7 10 8 6 10 7 11 8 12
REMARK H PARENT 10 9
REMARK Flexibility Score: inf
ROOT
ATOM      1  C   UNL     1      19.062  93.256   7.499  1.00  0.00     0.044 C 
ATOM      2  C   UNL     1      18.204  94.328   8.105  1.00  0.00    -0.047 A 
ATOM      3  C   UNL     1      18.627  95.664   8.091  1.00  0.00     0.049 A 
ATOM      4  C   UNL     1      17.814  96.676   8.622  1.00  0.00     0.119 A 
ATOM      5  C   UNL     1      16.551  96.356   9.167  1.00  0.00    -0.004 A 
ATOM      6  C   UNL     1      16.128  95.013   9.157  1.00  0.00     0.008 A 
ATOM      7  C   UNL     1      16.943  94.011   8.626  1.00  0.00     0.004 A 
ENDROOT
BRANCH   4   8
ATOM      8  O   UNL     1      18.264  97.997   8.604  1.00  0.00    -0.508 OA
ATOM      9  H   UNL     1      18.438  98.489   7.736  1.00  0.00     0.293 HD
ENDBRANCH   4   8
BRANCH   5  10
ATOM     10  C   UNL     1      15.651  97.438   9.749  1.00  0.00     0.017 C 
ATOM     11  C   UNL     1      15.514  98.620   8.782  1.00  0.00     0.012 C 
ATOM     12  C   UNL     1      14.276  96.870  10.125  1.00  0.00     0.012 C 
ENDBRANCH   5  10
TORSDOF 2
ENDMDL
MODEL 6
REMARK VINA RESULT:     0.242      1.540      2.374
REMARK INTER + INTRA:           0.633
REMARK INTER:                   0.568
REMARK INTRA:                   0.065
REMARK UNBOUND:                 0.370
REMARK SMILES Cc1ccc(C(C)C)c(O)c1
REMARK SMILES IDX 1 1 2 2 11 3 9 4 5 5 4 6 3 7 10 8 6 10 7 11 8 12
REMARK H PARENT 10 9
REMARK Flexibility Score: inf
ROOT
ATOM      1  C   UNL     1      18.387 100.102   8.750  1.00  0.00     0.044 C 
ATOM      2  C   UNL     1      18.006  98.656   8.626  1.00  0.00    -0.047 A 
ATOM      3  C   UNL     1      18.849  97.758   7.956  1.00  0.00     0.049 A 
ATOM      4  C   UNL     1      18.519  96.398   7.868  1.00  0.00     0.119 A 
ATOM      5  C   UNL     1      17.334  95.918   8.467  1.00  0.00    -0.004 A 
ATOM      6  C   UNL     1      16.505  96.826   9.155  1.00  0.00     0.008 A 
ATOM      7  C   UNL     1      16.842  98.178   9.239  1.00  0.00     0.004 A 
ENDROOT
BRANCH   4   8
ATOM      8  O   UNL     1      19.371  95.529   7.186  1.00  0.00    -0.508 OA
ATOM      9  H   UNL     1      19.105  94.573   6.983  1.00  0.00     0.293 HD
ENDBRANCH   4   8
BRANCH   5  10
ATOM     10  C   UNL     1      16.953  94.446   8.385  1.00  0.00     0.017 C 
ATOM     11  C   UNL     1      17.992  93.568   9.095  1.00  0.00     0.012 C 
ATOM     12  C   UNL     1      15.548  94.205   8.951  1.00  0.00     0.012 C 
ENDBRANCH   5  10
TORSDOF 2
ENDMDL
MODEL 7
REMARK VINA RESULT:     0.513      1.836      2.783
REMARK INTER + INTRA:           0.927
REMARK INTER:                   1.127
REMARK INTRA:                  -0.200
REMARK UNBOUND:                 0.370
REMARK SMILES Cc1ccc(C(C)C)c(O)c1
REMARK SMILES IDX 1 1 2 2 11 3 9 4 5 5 4 6 3 7 10 8 6 10 7 11 8 12
REMARK H PARENT 10 9
REMARK Flexibility Score: inf
ROOT
ATOM      1  C   UNL     1      14.977  98.506   9.717  1.00  0.00     0.044 C 
ATOM      2  C   UNL     1      15.917  97.410   9.310  1.00  0.00    -0.047 A 
ATOM      3  C   UNL     1      17.130  97.717   8.680  1.00  0.00     0.049 A 
ATOM      4  C   UNL     1      18.032  96.702   8.331  1.00  0.00     0.119 A 
ATOM      5  C   UNL     1      17.726  95.354   8.621  1.00  0.00    -0.004 A 
ATOM      6  C   UNL     1      16.512  95.059   9.272  1.00  0.00     0.008 A 
ATOM      7  C   UNL     1      15.621  96.076   9.618  1.00  0.00     0.004 A 
ENDROOT
BRANCH   4   8
ATOM      8  O   UNL     1      19.229  97.035   7.696  1.00  0.00    -0.508 OA
ATOM      9  H   UNL     1      19.827  96.331   7.282  1.00  0.00     0.293 HD
ENDBRANCH   4   8
BRANCH   5  10
ATOM     10  C   UNL     1      18.688  94.233   8.251  1.00  0.00     0.017 C 
ATOM     11  C   UNL     1      18.737  93.164   9.349  1.00  0.00     0.012 C 
ATOM     12  C   UNL     1      18.322  93.615   6.896  1.00  0.00     0.012 C 
ENDBRANCH   5  10
TORSDOF 2
ENDMDL
MODEL 8
REMARK VINA RESULT:     0.901      1.556      2.275
REMARK INTER + INTRA:           1.350
REMARK INTER:                   1.547
REMARK INTRA:                  -0.197
REMARK UNBOUND:                 0.370
REMARK SMILES Cc1ccc(C(C)C)c(O)c1
REMARK SMILES IDX 1 1 2 2 11 3 9 4 5 5 4 6 3 7 10 8 6 10 7 11 8 12
REMARK H PARENT 10 9
REMARK Flexibility Score: inf
ROOT
ATOM      1  C   UNL     1      15.560  98.736   9.335  1.00  0.00     0.044 C 
ATOM      2  C   UNL     1      16.241  97.409   9.168  1.00  0.00    -0.047 A 
ATOM      3  C   UNL     1      15.489  96.226   9.154  1.00  0.00     0.049 A 
ATOM      4  C   UNL     1      16.113  94.985   8.961  1.00  0.00     0.119 A 
ATOM      5  C   UNL     1      17.510  94.918   8.768  1.00  0.00    -0.004 A 
ATOM      6  C   UNL     1      18.252  96.116   8.765  1.00  0.00     0.008 A 
ATOM      7  C   UNL     1      17.624  97.347   8.956  1.00  0.00     0.004 A 
ENDROOT
BRANCH   4   8
ATOM      8  O   UNL     1      15.341  93.822   8.960  1.00  0.00    -0.508 OA
ATOM      9  H   UNL     1      15.676  92.961   8.547  1.00  0.00     0.293 HD
ENDBRANCH   4   8
BRANCH   5  10
ATOM     10  C   UNL     1      18.211  93.583   8.557  1.00  0.00     0.017 C 
ATOM     11  C   UNL     1      19.019  93.584   7.253  1.00  0.00     0.012 C 
ATOM     12  C   UNL     1      19.098  93.228   9.756  1.00  0.00     0.012 C 
ENDBRANCH   5  10
TORSDOF 2
ENDMDL
