MODEL 1
REMARK VINA RESULT:    -3.465      0.000      0.000
REMARK INTER + INTRA:          -8.881
REMARK INTER:                  -6.503
REMARK INTRA:                  -2.378
REMARK UNBOUND:                -2.378
REMARK SMILES O=C([O-])CCCCCCCCCCCCCCC(=O)[O-]
REMARK SMILES IDX 10 1 9 2 8 3 7 4 6 5 5 6 4 7 2 8 1 9 3 10 11 11 12 12 13 13
REMARK SMILES IDX 14 14 15 15 16 16 17 17 18 18 19 19 20 20
REMARK H PARENT
REMARK Flexibility Score: inf
ROOT
ATOM      1  C   UNL     1     168.664 153.784 179.741  1.00  0.00     0.000 C 
ENDROOT
BRANCH   1   2
ATOM      2  C   UNL     1     169.137 152.568 178.931  1.00  0.00     0.000 C 
BRANCH   2   3
ATOM      3  C   UNL     1     168.020 151.535 178.716  1.00  0.00     0.000 C 
BRANCH   3   4
ATOM      4  C   UNL     1     167.438 151.585 177.293  1.00  0.00     0.000 C 
BRANCH   4   5
ATOM      5  C   UNL     1     166.171 152.452 177.196  1.00  0.00     0.000 C 
BRANCH   5   6
ATOM      6  C   UNL     1     166.338 153.768 176.412  1.00  0.00     0.006 C 
BRANCH   6   7
ATOM      7  C   UNL     1     167.761 154.002 175.872  1.00  0.00     0.053 C 
BRANCH   7   8
ATOM      8  C   UNL     1     167.931 155.369 175.277  1.00  0.00     0.041 C 
ATOM      9  O   UNL     1     169.082 155.809 175.017  1.00  0.00    -0.550 OA
ATOM     10  O   UNL     1     166.821 156.172 175.045  1.00  0.00    -0.550 OA
ENDBRANCH   7   8
ENDBRANCH   6   7
ENDBRANCH   5   6
ENDBRANCH   4   5
ENDBRANCH   3   4
ENDBRANCH   2   3
ENDBRANCH   1   2
BRANCH   1  11
ATOM     11  C   UNL     1     167.395 153.455 180.535  1.00  0.00     0.000 C 
BRANCH  11  12
ATOM     12  C   UNL     1     166.313 154.518 180.310  1.00  0.00     0.000 C 
BRANCH  12  13
ATOM     13  C   UNL     1     166.858 155.693 179.484  1.00  0.00     0.000 C 
BRANCH  13  14
ATOM     14  C   UNL     1     165.759 156.446 178.712  1.00  0.00     0.000 C 
BRANCH  14  15
ATOM     15  C   UNL     1     164.318 156.039 179.068  1.00  0.00     0.000 C 
BRANCH  15  16
ATOM     16  C   UNL     1     163.477 155.672 177.833  1.00  0.00     0.006 C 
BRANCH  16  17
ATOM     17  C   UNL     1     163.715 156.634 176.662  1.00  0.00     0.053 C 
BRANCH  17  18
ATOM     18  C   UNL     1     162.497 157.448 176.352  1.00  0.00     0.041 C 
ATOM     19  O   UNL     1     161.402 157.191 176.919  1.00  0.00    -0.550 OA
ATOM     20  O   UNL     1     162.575 158.509 175.457  1.00  0.00    -0.550 OA
ENDBRANCH  17  18
ENDBRANCH  16  17
ENDBRANCH  15  16
ENDBRANCH  14  15
ENDBRANCH  13  14
ENDBRANCH  12  13
ENDBRANCH  11  12
ENDBRANCH   1  11
TORSDOF 15
ENDMDL
MODEL 2
REMARK VINA RESULT:    -3.395      1.684      5.337
REMARK INTER + INTRA:          -8.750
REMARK INTER:                  -6.146
REMARK INTRA:                  -2.604
REMARK UNBOUND:                -2.378
REMARK SMILES O=C([O-])CCCCCCCCCCCCCCC(=O)[O-]
REMARK SMILES IDX 10 1 9 2 8 3 7 4 6 5 5 6 4 7 2 8 1 9 3 10 11 11 12 12 13 13
REMARK SMILES IDX 14 14 15 15 16 16 17 17 18 18 19 19 20 20
REMARK H PARENT
REMARK Flexibility Score: inf
ROOT
ATOM      1  C   UNL     1     168.714 151.741 179.236  1.00  0.00     0.000 C 
ENDROOT
BRANCH   1   2
ATOM      2  C   UNL     1     168.338 152.264 180.631  1.00  0.00     0.000 C 
BRANCH   2   3
ATOM      3  C   UNL     1     167.991 153.762 180.622  1.00  0.00     0.000 C 
BRANCH   3   4
ATOM      4  C   UNL     1     166.500 154.019 180.349  1.00  0.00     0.000 C 
BRANCH   4   5
ATOM      5  C   UNL     1     166.212 155.468 179.921  1.00  0.00     0.000 C 
BRANCH   5   6
ATOM      6  C   UNL     1     164.807 155.709 179.332  1.00  0.00     0.006 C 
BRANCH   6   7
ATOM      7  C   UNL     1     164.775 156.731 178.181  1.00  0.00     0.053 C 
BRANCH   7   8
ATOM      8  C   UNL     1     163.893 156.293 177.049  1.00  0.00     0.041 C 
ATOM      9  O   UNL     1     163.252 155.213 177.126  1.00  0.00    -0.550 OA
ATOM     10  O   UNL     1     163.811 157.059 175.892  1.00  0.00    -0.550 OA
ENDBRANCH   7   8
ENDBRANCH   6   7
ENDBRANCH   5   6
ENDBRANCH   4   5
ENDBRANCH   3   4
ENDBRANCH   2   3
ENDBRANCH   1   2
BRANCH   1  11
ATOM     11  C   UNL     1     167.577 150.906 178.637  1.00  0.00     0.000 C 
BRANCH  11  12
ATOM     12  C   UNL     1     167.259 151.355 177.206  1.00  0.00     0.000 C 
BRANCH  12  13
ATOM     13  C   UNL     1     166.065 152.322 177.183  1.00  0.00     0.000 C 
BRANCH  13  14
ATOM     14  C   UNL     1     166.408 153.685 176.556  1.00  0.00     0.000 C 
BRANCH  14  15
ATOM     15  C   UNL     1     167.908 153.932 176.313  1.00  0.00     0.000 C 
BRANCH  15  16
ATOM     16  C   UNL     1     168.456 155.127 177.111  1.00  0.00     0.006 C 
BRANCH  16  17
ATOM     17  C   UNL     1     169.912 154.914 177.546  1.00  0.00     0.053 C 
BRANCH  17  18
ATOM     18  C   UNL     1     170.870 155.673 176.680  1.00  0.00     0.041 C 
ATOM     19  O   UNL     1     170.439 156.460 175.798  1.00  0.00    -0.550 OA
ATOM     20  O   UNL     1     172.241 155.533 176.866  1.00  0.00    -0.550 OA
ENDBRANCH  17  18
ENDBRANCH  16  17
ENDBRANCH  15  16
ENDBRANCH  14  15
ENDBRANCH  13  14
ENDBRANCH  12  13
ENDBRANCH  11  12
ENDBRANCH   1  11
TORSDOF 15
ENDMDL
MODEL 3
REMARK VINA RESULT:    -3.375      0.748      1.495
REMARK INTER + INTRA:          -8.714
REMARK INTER:                  -6.068
REMARK INTRA:                  -2.645
REMARK UNBOUND:                -2.378
REMARK SMILES O=C([O-])CCCCCCCCCCCCCCC(=O)[O-]
REMARK SMILES IDX 10 1 9 2 8 3 7 4 6 5 5 6 4 7 2 8 1 9 3 10 11 11 12 12 13 13
REMARK SMILES IDX 14 14 15 15 16 16 17 17 18 18 19 19 20 20
REMARK H PARENT
REMARK Flexibility Score: inf
ROOT
ATOM      1  C   UNL     1     168.945 152.384 179.010  1.00  0.00     0.000 C 
ENDROOT
BRANCH   1   2
ATOM      2  C   UNL     1     167.749 151.468 178.714  1.00  0.00     0.000 C 
BRANCH   2   3
ATOM      3  C   UNL     1     167.226 151.631 177.278  1.00  0.00     0.000 C 
BRANCH   3   4
ATOM      4  C   UNL     1     166.083 152.656 177.180  1.00  0.00     0.000 C 
BRANCH   4   5
ATOM      5  C   UNL     1     166.402 153.818 176.226  1.00  0.00     0.000 C 
BRANCH   5   6
ATOM      6  C   UNL     1     167.892 153.976 175.862  1.00  0.00     0.006 C 
BRANCH   6   7
ATOM      7  C   UNL     1     168.513 155.308 176.320  1.00  0.00     0.053 C 
BRANCH   7   8
ATOM      8  C   UNL     1     168.594 156.315 175.211  1.00  0.00     0.041 C 
ATOM      9  O   UNL     1     169.664 156.461 174.563  1.00  0.00    -0.550 OA
ATOM     10  O   UNL     1     167.500 157.120 174.918  1.00  0.00    -0.550 OA
ENDBRANCH   7   8
ENDBRANCH   6   7
ENDBRANCH   5   6
ENDBRANCH   4   5
ENDBRANCH   3   4
ENDBRANCH   2   3
ENDBRANCH   1   2
BRANCH   1  11
ATOM     11  C   UNL     1     168.492 153.674 179.704  1.00  0.00     0.000 C 
BRANCH  11  12
ATOM     12  C   UNL     1     167.250 153.426 180.569  1.00  0.00     0.000 C 
BRANCH  12  13
ATOM     13  C   UNL     1     166.236 154.570 180.418  1.00  0.00     0.000 C 
BRANCH  13  14
ATOM     14  C   UNL     1     166.761 155.729 179.551  1.00  0.00     0.000 C 
BRANCH  14  15
ATOM     15  C   UNL     1     165.724 156.353 178.600  1.00  0.00     0.000 C 
BRANCH  15  16
ATOM     16  C   UNL     1     164.286 155.893 178.894  1.00  0.00     0.006 C 
BRANCH  16  17
ATOM     17  C   UNL     1     163.510 155.561 177.613  1.00  0.00     0.053 C 
BRANCH  17  18
ATOM     18  C   UNL     1     163.220 156.787 176.803  1.00  0.00     0.041 C 
ATOM     19  O   UNL     1     162.367 157.623 177.202  1.00  0.00    -0.550 OA
ATOM     20  O   UNL     1     163.912 157.022 175.621  1.00  0.00    -0.550 OA
ENDBRANCH  17  18
ENDBRANCH  16  17
ENDBRANCH  15  16
ENDBRANCH  14  15
ENDBRANCH  13  14
ENDBRANCH  12  13
ENDBRANCH  11  12
ENDBRANCH   1  11
TORSDOF 15
ENDMDL
MODEL 4
REMARK VINA RESULT:    -3.303      1.369      4.452
REMARK INTER + INTRA:          -8.578
REMARK INTER:                  -6.255
REMARK INTRA:                  -2.323
REMARK UNBOUND:                -2.378
REMARK SMILES O=C([O-])CCCCCCCCCCCCCCC(=O)[O-]
REMARK SMILES IDX 10 1 9 2 8 3 7 4 6 5 5 6 4 7 2 8 1 9 3 10 11 11 12 12 13 13
REMARK SMILES IDX 14 14 15 15 16 16 17 17 18 18 19 19 20 20
REMARK H PARENT
REMARK Flexibility Score: inf
ROOT
ATOM      1  C   UNL     1     167.487 152.292 179.624  1.00  0.00     0.000 C 
ENDROOT
BRANCH   1   2
ATOM      2  C   UNL     1     168.595 153.355 179.632  1.00  0.00     0.000 C 
BRANCH   2   3
ATOM      3  C   UNL     1     168.036 154.786 179.658  1.00  0.00     0.000 C 
BRANCH   3   4
ATOM      4  C   UNL     1     166.548 154.829 180.047  1.00  0.00     0.000 C 
BRANCH   4   5
ATOM      5  C   UNL     1     166.026 156.261 180.255  1.00  0.00     0.000 C 
BRANCH   5   6
ATOM      6  C   UNL     1     165.229 156.845 179.072  1.00  0.00     0.006 C 
BRANCH   6   7
ATOM      7  C   UNL     1     164.225 155.860 178.444  1.00  0.00     0.053 C 
BRANCH   7   8
ATOM      8  C   UNL     1     162.904 156.503 178.140  1.00  0.00     0.041 C 
ATOM      9  O   UNL     1     162.556 156.706 176.948  1.00  0.00    -0.550 OA
ATOM     10  O   UNL     1     162.073 156.913 179.177  1.00  0.00    -0.550 OA
ENDBRANCH   7   8
ENDBRANCH   6   7
ENDBRANCH   5   6
ENDBRANCH   4   5
ENDBRANCH   3   4
ENDBRANCH   2   3
ENDBRANCH   1   2
BRANCH   1  11
ATOM     11  C   UNL     1     167.850 151.125 178.698  1.00  0.00     0.000 C 
BRANCH  11  12
ATOM     12  C   UNL     1     167.323 151.364 177.278  1.00  0.00     0.000 C 
BRANCH  12  13
ATOM     13  C   UNL     1     166.092 152.282 177.294  1.00  0.00     0.000 C 
BRANCH  13  14
ATOM     14  C   UNL     1     166.308 153.591 176.513  1.00  0.00     0.000 C 
BRANCH  14  15
ATOM     15  C   UNL     1     167.740 153.811 175.994  1.00  0.00     0.000 C 
BRANCH  15  16
ATOM     16  C   UNL     1     167.927 155.176 175.310  1.00  0.00     0.006 C 
BRANCH  16  17
ATOM     17  C   UNL     1     167.060 156.269 175.950  1.00  0.00     0.053 C 
BRANCH  17  18
ATOM     18  C   UNL     1     166.135 156.901 174.956  1.00  0.00     0.041 C 
ATOM     19  O   UNL     1     165.011 156.386 174.719  1.00  0.00    -0.550 OA
ATOM     20  O   UNL     1     166.503 158.076 174.310  1.00  0.00    -0.550 OA
ENDBRANCH  17  18
ENDBRANCH  16  17
ENDBRANCH  15  16
ENDBRANCH  14  15
ENDBRANCH  13  14
ENDBRANCH  12  13
ENDBRANCH  11  12
ENDBRANCH   1  11
TORSDOF 15
ENDMDL
MODEL 5
REMARK VINA RESULT:    -3.258      1.231      4.925
REMARK INTER + INTRA:          -8.494
REMARK INTER:                  -5.960
REMARK INTRA:                  -2.534
REMARK UNBOUND:                -2.378
REMARK SMILES O=C([O-])CCCCCCCCCCCCCCC(=O)[O-]
REMARK SMILES IDX 10 1 9 2 8 3 7 4 6 5 5 6 4 7 2 8 1 9 3 10 11 11 12 12 13 13
REMARK SMILES IDX 14 14 15 15 16 16 17 17 18 18 19 19 20 20
REMARK H PARENT
REMARK Flexibility Score: inf
ROOT
ATOM      1  C   UNL     1     168.453 153.327 180.122  1.00  0.00     0.000 C 
ENDROOT
BRANCH   1   2
ATOM      2  C   UNL     1     167.722 154.413 180.925  1.00  0.00     0.000 C 
BRANCH   2   3
ATOM      3  C   UNL     1     166.244 154.544 180.525  1.00  0.00     0.000 C 
BRANCH   3   4
ATOM      4  C   UNL     1     165.907 155.936 179.964  1.00  0.00     0.000 C 
BRANCH   4   5
ATOM      5  C   UNL     1     164.507 156.003 179.332  1.00  0.00     0.000 C 
BRANCH   5   6
ATOM      6  C   UNL     1     164.406 156.862 178.056  1.00  0.00     0.006 C 
BRANCH   6   7
ATOM      7  C   UNL     1     163.810 156.120 176.845  1.00  0.00     0.053 C 
BRANCH   7   8
ATOM      8  C   UNL     1     163.958 156.894 175.568  1.00  0.00     0.041 C 
ATOM      9  O   UNL     1     163.328 157.971 175.402  1.00  0.00    -0.550 OA
ATOM     10  O   UNL     1     164.762 156.405 174.545  1.00  0.00    -0.550 OA
ENDBRANCH   7   8
ENDBRANCH   6   7
ENDBRANCH   5   6
ENDBRANCH   4   5
ENDBRANCH   3   4
ENDBRANCH   2   3
ENDBRANCH   1   2
BRANCH   1  11
ATOM     11  C   UNL     1     167.487 152.216 179.694  1.00  0.00     0.000 C 
BRANCH  11  12
ATOM     12  C   UNL     1     167.901 151.616 178.345  1.00  0.00     0.000 C 
BRANCH  12  13
ATOM     13  C   UNL     1     166.730 151.636 177.350  1.00  0.00     0.000 C 
BRANCH  13  14
ATOM     14  C   UNL     1     166.089 153.028 177.205  1.00  0.00     0.000 C 
BRANCH  14  15
ATOM     15  C   UNL     1     166.757 153.948 176.166  1.00  0.00     0.000 C 
BRANCH  15  16
ATOM     16  C   UNL     1     167.467 155.155 176.803  1.00  0.00     0.006 C 
BRANCH  16  17
ATOM     17  C   UNL     1     168.988 154.964 176.870  1.00  0.00     0.053 C 
BRANCH  17  18
ATOM     18  C   UNL     1     169.711 155.930 175.983  1.00  0.00     0.041 C 
ATOM     19  O   UNL     1     169.253 156.209 174.844  1.00  0.00    -0.550 OA
ATOM     20  O   UNL     1     170.876 156.545 176.426  1.00  0.00    -0.550 OA
ENDBRANCH  17  18
ENDBRANCH  16  17
ENDBRANCH  15  16
ENDBRANCH  14  15
ENDBRANCH  13  14
ENDBRANCH  12  13
ENDBRANCH  11  12
ENDBRANCH   1  11
TORSDOF 15
ENDMDL
MODEL 6
REMARK VINA RESULT:    -3.168      1.474      2.551
REMARK INTER + INTRA:          -8.325
REMARK INTER:                  -5.944
REMARK INTRA:                  -2.381
REMARK UNBOUND:                -2.378
REMARK SMILES O=C([O-])CCCCCCCCCCCCCCC(=O)[O-]
REMARK SMILES IDX 10 1 9 2 8 3 7 4 6 5 5 6 4 7 2 8 1 9 3 10 11 11 12 12 13 13
REMARK SMILES IDX 14 14 15 15 16 16 17 17 18 18 19 19 20 20
REMARK H PARENT
REMARK Flexibility Score: inf
ROOT
ATOM      1  C   UNL     1     167.835 151.185 178.961  1.00  0.00     0.000 C 
ENDROOT
BRANCH   1   2
ATOM      2  C   UNL     1     167.526 151.391 177.470  1.00  0.00     0.000 C 
BRANCH   2   3
ATOM      3  C   UNL     1     166.065 151.799 177.225  1.00  0.00     0.000 C 
BRANCH   3   4
ATOM      4  C   UNL     1     165.896 153.321 177.075  1.00  0.00     0.000 C 
BRANCH   4   5
ATOM      5  C   UNL     1     166.938 153.947 176.133  1.00  0.00     0.000 C 
BRANCH   5   6
ATOM      6  C   UNL     1     167.209 155.447 176.363  1.00  0.00     0.006 C 
BRANCH   6   7
ATOM      7  C   UNL     1     167.063 156.314 175.098  1.00  0.00     0.053 C 
BRANCH   7   8
ATOM      8  C   UNL     1     165.778 157.088 175.077  1.00  0.00     0.041 C 
ATOM      9  O   UNL     1     164.865 156.781 174.266  1.00  0.00    -0.550 OA
ATOM     10  O   UNL     1     165.604 158.174 175.927  1.00  0.00    -0.550 OA
ENDBRANCH   7   8
ENDBRANCH   6   7
ENDBRANCH   5   6
ENDBRANCH   4   5
ENDBRANCH   3   4
ENDBRANCH   2   3
ENDBRANCH   1   2
BRANCH   1  11
ATOM     11  C   UNL     1     169.172 151.832 179.340  1.00  0.00     0.000 C 
BRANCH  11  12
ATOM     12  C   UNL     1     169.042 153.358 179.422  1.00  0.00     0.000 C 
BRANCH  12  13
ATOM     13  C   UNL     1     167.818 153.763 180.257  1.00  0.00     0.000 C 
BRANCH  13  14
ATOM     14  C   UNL     1     167.350 155.203 179.978  1.00  0.00     0.000 C 
BRANCH  14  15
ATOM     15  C   UNL     1     165.861 155.471 180.262  1.00  0.00     0.000 C 
BRANCH  15  16
ATOM     16  C   UNL     1     165.192 156.341 179.185  1.00  0.00     0.006 C 
BRANCH  16  17
ATOM     17  C   UNL     1     163.680 156.093 179.095  1.00  0.00     0.053 C 
BRANCH  17  18
ATOM     18  C   UNL     1     163.149 156.372 177.723  1.00  0.00     0.041 C 
ATOM     19  O   UNL     1     163.117 155.458 176.858  1.00  0.00    -0.550 OA
ATOM     20  O   UNL     1     162.662 157.635 177.407  1.00  0.00    -0.550 OA
ENDBRANCH  17  18
ENDBRANCH  16  17
ENDBRANCH  15  16
ENDBRANCH  14  15
ENDBRANCH  13  14
ENDBRANCH  12  13
ENDBRANCH  11  12
ENDBRANCH   1  11
TORSDOF 15
ENDMDL
MODEL 7
REMARK VINA RESULT:    -3.166      1.886      3.144
REMARK INTER + INTRA:          -8.321
REMARK INTER:                  -6.053
REMARK INTRA:                  -2.268
REMARK UNBOUND:                -2.378
REMARK SMILES O=C([O-])CCCCCCCCCCCCCCC(=O)[O-]
REMARK SMILES IDX 10 1 9 2 8 3 7 4 6 5 5 6 4 7 2 8 1 9 3 10 11 11 12 12 13 13
REMARK SMILES IDX 14 14 15 15 16 16 17 17 18 18 19 19 20 20
REMARK H PARENT
REMARK Flexibility Score: inf
ROOT
ATOM      1  C   UNL     1     168.442 155.961 177.053  1.00  0.00     0.000 C 
ENDROOT
BRANCH   1   2
ATOM      2  C   UNL     1     168.393 155.245 175.695  1.00  0.00     0.000 C 
BRANCH   2   3
ATOM      3  C   UNL     1     167.714 153.869 175.781  1.00  0.00     0.000 C 
BRANCH   3   4
ATOM      4  C   UNL     1     166.353 153.928 176.495  1.00  0.00     0.000 C 
BRANCH   4   5
ATOM      5  C   UNL     1     166.020 152.632 177.253  1.00  0.00     0.000 C 
BRANCH   5   6
ATOM      6  C   UNL     1     167.115 151.548 177.209  1.00  0.00     0.006 C 
BRANCH   6   7
ATOM      7  C   UNL     1     167.820 151.311 178.558  1.00  0.00     0.053 C 
BRANCH   7   8
ATOM      8  C   UNL     1     168.830 152.374 178.872  1.00  0.00     0.041 C 
ATOM      9  O   UNL     1     169.918 152.422 178.241  1.00  0.00    -0.550 OA
ATOM     10  O   UNL     1     168.587 153.289 179.890  1.00  0.00    -0.550 OA
ENDBRANCH   7   8
ENDBRANCH   6   7
ENDBRANCH   5   6
ENDBRANCH   4   5
ENDBRANCH   3   4
ENDBRANCH   2   3
ENDBRANCH   1   2
BRANCH   1  11
ATOM     11  C   UNL     1     167.694 157.298 176.998  1.00  0.00     0.000 C 
BRANCH  11  12
ATOM     12  C   UNL     1     166.832 157.499 178.250  1.00  0.00     0.000 C 
BRANCH  12  13
ATOM     13  C   UNL     1     166.987 156.320 179.222  1.00  0.00     0.000 C 
BRANCH  13  14
ATOM     14  C   UNL     1     165.638 155.770 179.720  1.00  0.00     0.000 C 
BRANCH  14  15
ATOM     15  C   UNL     1     164.396 156.495 179.169  1.00  0.00     0.000 C 
BRANCH  15  16
ATOM     16  C   UNL     1     163.613 155.651 178.149  1.00  0.00     0.006 C 
BRANCH  16  17
ATOM     17  C   UNL     1     163.487 156.354 176.791  1.00  0.00     0.053 C 
BRANCH  17  18
ATOM     18  C   UNL     1     162.445 157.429 176.813  1.00  0.00     0.041 C 
ATOM     19  O   UNL     1     161.230 157.130 176.960  1.00  0.00    -0.550 OA
ATOM     20  O   UNL     1     162.816 158.764 176.700  1.00  0.00    -0.550 OA
ENDBRANCH  17  18
ENDBRANCH  16  17
ENDBRANCH  15  16
ENDBRANCH  14  15
ENDBRANCH  13  14
ENDBRANCH  12  13
ENDBRANCH  11  12
ENDBRANCH   1  11
TORSDOF 15
ENDMDL
MODEL 8
REMARK VINA RESULT:    -3.163     12.648     15.175
REMARK INTER + INTRA:          -8.316
REMARK INTER:                  -7.114
REMARK INTRA:                  -1.201
REMARK UNBOUND:                -2.378
REMARK SMILES O=C([O-])CCCCCCCCCCCCCCC(=O)[O-]
REMARK SMILES IDX 10 1 9 2 8 3 7 4 6 5 5 6 4 7 2 8 1 9 3 10 11 11 12 12 13 13
REMARK SMILES IDX 14 14 15 15 16 16 17 17 18 18 19 19 20 20
REMARK H PARENT
REMARK Flexibility Score: inf
ROOT
ATOM      1  C   UNL     1     157.286 152.946 163.386  1.00  0.00     0.000 C 
ENDROOT
BRANCH   1   2
ATOM      2  C   UNL     1     158.417 153.912 163.003  1.00  0.00     0.000 C 
BRANCH   2   3
ATOM      3  C   UNL     1     159.783 153.460 163.544  1.00  0.00     0.000 C 
BRANCH   3   4
ATOM      4  C   UNL     1     159.662 152.313 164.563  1.00  0.00     0.000 C 
BRANCH   4   5
ATOM      5  C   UNL     1     159.995 152.752 165.999  1.00  0.00     0.000 C 
BRANCH   5   6
ATOM      6  C   UNL     1     161.499 152.862 166.317  1.00  0.00     0.006 C 
BRANCH   6   7
ATOM      7  C   UNL     1     161.880 152.383 167.730  1.00  0.00     0.053 C 
BRANCH   7   8
ATOM      8  C   UNL     1     163.022 151.410 167.718  1.00  0.00     0.041 C 
ATOM      9  O   UNL     1     163.401 150.890 166.636  1.00  0.00    -0.550 OA
ATOM     10  O   UNL     1     163.642 151.047 168.908  1.00  0.00    -0.550 OA
ENDBRANCH   7   8
ENDBRANCH   6   7
ENDBRANCH   5   6
ENDBRANCH   4   5
ENDBRANCH   3   4
ENDBRANCH   2   3
ENDBRANCH   1   2
BRANCH   1  11
ATOM     11  C   UNL     1     156.214 153.658 164.219  1.00  0.00     0.000 C 
BRANCH  11  12
ATOM     12  C   UNL     1     155.703 154.914 163.502  1.00  0.00     0.000 C 
BRANCH  12  13
ATOM     13  C   UNL     1     154.337 155.347 164.055  1.00  0.00     0.000 C 
BRANCH  13  14
ATOM     14  C   UNL     1     154.383 156.708 164.773  1.00  0.00     0.000 C 
BRANCH  14  15
ATOM     15  C   UNL     1     153.358 156.880 165.909  1.00  0.00     0.000 C 
BRANCH  15  16
ATOM     16  C   UNL     1     152.961 155.548 166.567  1.00  0.00     0.006 C 
BRANCH  16  17
ATOM     17  C   UNL     1     153.719 155.301 167.878  1.00  0.00     0.053 C 
BRANCH  17  18
ATOM     18  C   UNL     1     154.897 154.397 167.680  1.00  0.00     0.041 C 
ATOM     19  O   UNL     1     154.741 153.148 167.665  1.00  0.00    -0.550 OA
ATOM     20  O   UNL     1     156.164 154.934 167.483  1.00  0.00    -0.550 OA
ENDBRANCH  17  18
ENDBRANCH  16  17
ENDBRANCH  15  16
ENDBRANCH  14  15
ENDBRANCH  13  14
ENDBRANCH  12  13
ENDBRANCH  11  12
ENDBRANCH   1  11
TORSDOF 15
ENDMDL
MODEL 9
REMARK VINA RESULT:    -3.150      2.472      5.678
REMARK INTER + INTRA:          -8.290
REMARK INTER:                  -5.513
REMARK INTRA:                  -2.778
REMARK UNBOUND:                -2.378
REMARK SMILES O=C([O-])CCCCCCCCCCCCCCC(=O)[O-]
REMARK SMILES IDX 10 1 9 2 8 3 7 4 6 5 5 6 4 7 2 8 1 9 3 10 11 11 12 12 13 13
REMARK SMILES IDX 14 14 15 15 16 16 17 17 18 18 19 19 20 20
REMARK H PARENT
REMARK Flexibility Score: inf
ROOT
ATOM      1  C   UNL     1     167.674 156.498 178.623  1.00  0.00     0.000 C 
ENDROOT
BRANCH   1   2
ATOM      2  C   UNL     1     167.380 155.329 179.576  1.00  0.00     0.000 C 
BRANCH   2   3
ATOM      3  C   UNL     1     165.874 155.060 179.727  1.00  0.00     0.000 C 
BRANCH   3   4
ATOM      4  C   UNL     1     165.014 156.102 178.992  1.00  0.00     0.000 C 
BRANCH   4   5
ATOM      5  C   UNL     1     163.851 155.471 178.208  1.00  0.00     0.000 C 
BRANCH   5   6
ATOM      6  C   UNL     1     163.533 156.144 176.858  1.00  0.00     0.006 C 
BRANCH   6   7
ATOM      7  C   UNL     1     164.145 157.547 176.695  1.00  0.00     0.053 C 
BRANCH   7   8
ATOM      8  C   UNL     1     163.971 158.092 175.307  1.00  0.00     0.041 C 
ATOM      9  O   UNL     1     164.679 157.657 174.362  1.00  0.00    -0.550 OA
ATOM     10  O   UNL     1     163.054 159.108 175.067  1.00  0.00    -0.550 OA
ENDBRANCH   7   8
ENDBRANCH   6   7
ENDBRANCH   5   6
ENDBRANCH   4   5
ENDBRANCH   3   4
ENDBRANCH   2   3
ENDBRANCH   1   2
BRANCH   1  11
ATOM     11  C   UNL     1     168.419 156.015 177.374  1.00  0.00     0.000 C 
BRANCH  11  12
ATOM     12  C   UNL     1     167.618 156.321 176.102  1.00  0.00     0.000 C 
BRANCH  12  13
ATOM     13  C   UNL     1     166.786 155.104 175.668  1.00  0.00     0.000 C 
BRANCH  13  14
ATOM     14  C   UNL     1     167.383 153.767 176.144  1.00  0.00     0.000 C 
BRANCH  14  15
ATOM     15  C   UNL     1     166.401 152.842 176.885  1.00  0.00     0.000 C 
BRANCH  15  16
ATOM     16  C   UNL     1     167.091 151.625 177.525  1.00  0.00     0.006 C 
BRANCH  16  17
ATOM     17  C   UNL     1     168.453 151.984 178.134  1.00  0.00     0.053 C 
BRANCH  17  18
ATOM     18  C   UNL     1     168.519 151.645 179.591  1.00  0.00     0.041 C 
ATOM     19  O   UNL     1     167.520 151.837 180.332  1.00  0.00    -0.550 OA
ATOM     20  O   UNL     1     169.676 151.091 180.126  1.00  0.00    -0.550 OA
ENDBRANCH  17  18
ENDBRANCH  16  17
ENDBRANCH  15  16
ENDBRANCH  14  15
ENDBRANCH  13  14
ENDBRANCH  12  13
ENDBRANCH  11  12
ENDBRANCH   1  11
TORSDOF 15
ENDMDL
