MODEL 1
REMARK VINA RESULT:    -4.002      0.000      0.000
REMARK INTER + INTRA:          -6.746
REMARK INTER:                  -6.108
REMARK INTRA:                  -0.637
REMARK UNBOUND:                -0.637
REMARK SMILES CCCCCCCCCCC(=O)[O-]
REMARK SMILES IDX 7 1 8 2 9 3 10 4 11 5 12 6 13 7 6 8 5 9 4 10 3 11 2 12 1 13
REMARK H PARENT
REMARK Flexibility Score: inf
ROOT
ATOM      1  C   UNL     1      -4.485   5.307  -1.924  1.00  0.00     0.000 C 
ENDROOT
BRANCH   1   2
ATOM      2  C   UNL     1      -4.439   5.936  -0.523  1.00  0.00     0.000 C 
BRANCH   2   3
ATOM      3  C   UNL     1      -3.004   6.099   0.005  1.00  0.00     0.006 C 
BRANCH   3   4
ATOM      4  C   UNL     1      -1.996   5.219  -0.744  1.00  0.00     0.053 C 
BRANCH   4   5
ATOM      5  C   UNL     1      -0.938   6.063  -1.381  1.00  0.00     0.041 C 
ATOM      6  O   UNL     1      -1.028   6.382  -2.596  1.00  0.00    -0.550 OA
ATOM      7  O   UNL     1       0.174   6.456  -0.647  1.00  0.00    -0.550 OA
ENDBRANCH   4   5
ENDBRANCH   3   4
ENDBRANCH   2   3
ENDBRANCH   1   2
BRANCH   1   8
ATOM      8  C   UNL     1      -5.302   6.176  -2.888  1.00  0.00     0.000 C 
BRANCH   8   9
ATOM      9  C   UNL     1      -4.398   6.807  -3.958  1.00  0.00    -0.000 C 
BRANCH   9  10
ATOM     10  C   UNL     1      -4.550   6.134  -5.332  1.00  0.00    -0.000 C 
BRANCH  10  11
ATOM     11  C   UNL     1      -5.882   5.377  -5.475  1.00  0.00    -0.000 C 
BRANCH  11  12
ATOM     12  C   UNL     1      -5.727   4.054  -6.240  1.00  0.00    -0.003 C 
ATOM     13  C   UNL     1      -4.905   4.205  -7.520  1.00  0.00     0.004 C 
ENDBRANCH  11  12
ENDBRANCH  10  11
ENDBRANCH   9  10
ENDBRANCH   8   9
ENDBRANCH   1   8
TORSDOF 9
ENDMDL
MODEL 2
REMARK VINA RESULT:    -3.774      2.740      5.445
REMARK INTER + INTRA:          -6.396
REMARK INTER:                  -5.414
REMARK INTRA:                  -0.982
REMARK UNBOUND:                -0.637
REMARK SMILES CCCCCCCCCCC(=O)[O-]
REMARK SMILES IDX 7 1 8 2 9 3 10 4 11 5 12 6 13 7 6 8 5 9 4 10 3 11 2 12 1 13
REMARK H PARENT
REMARK Flexibility Score: inf
ROOT
ATOM      1  C   UNL     1      -4.855   5.593  -2.260  1.00  0.00     0.000 C 
ENDROOT
BRANCH   1   2
ATOM      2  C   UNL     1      -4.842   6.937  -3.003  1.00  0.00     0.000 C 
BRANCH   2   3
ATOM      3  C   UNL     1      -4.720   6.770  -4.527  1.00  0.00     0.006 C 
BRANCH   3   4
ATOM      4  C   UNL     1      -5.843   5.908  -5.118  1.00  0.00     0.053 C 
BRANCH   4   5
ATOM      5  C   UNL     1      -5.297   4.982  -6.157  1.00  0.00     0.041 C 
ATOM      6  O   UNL     1      -4.310   5.326  -6.858  1.00  0.00    -0.550 OA
ATOM      7  O   UNL     1      -5.911   3.756  -6.388  1.00  0.00    -0.550 OA
ENDBRANCH   4   5
ENDBRANCH   3   4
ENDBRANCH   2   3
ENDBRANCH   1   2
BRANCH   1   8
ATOM      8  C   UNL     1      -4.715   5.801  -0.747  1.00  0.00     0.000 C 
BRANCH   8   9
ATOM      9  C   UNL     1      -3.284   6.224  -0.380  1.00  0.00    -0.000 C 
BRANCH   9  10
ATOM     10  C   UNL     1      -2.266   5.088  -0.570  1.00  0.00    -0.000 C 
BRANCH  10  11
ATOM     11  C   UNL     1      -1.111   5.479  -1.508  1.00  0.00    -0.000 C 
BRANCH  11  12
ATOM     12  C   UNL     1      -1.285   6.885  -2.101  1.00  0.00    -0.003 C 
ATOM     13  C   UNL     1      -1.079   6.917  -3.615  1.00  0.00     0.004 C 
ENDBRANCH  11  12
ENDBRANCH  10  11
ENDBRANCH   9  10
ENDBRANCH   8   9
ENDBRANCH   1   8
TORSDOF 9
ENDMDL
MODEL 3
REMARK VINA RESULT:    -3.650     11.900     13.638
REMARK INTER + INTRA:          -6.208
REMARK INTER:                  -5.390
REMARK INTRA:                  -0.818
REMARK UNBOUND:                -0.637
REMARK SMILES CCCCCCCCCCC(=O)[O-]
REMARK SMILES IDX 7 1 8 2 9 3 10 4 11 5 12 6 13 7 6 8 5 9 4 10 3 11 2 12 1 13
REMARK H PARENT
REMARK Flexibility Score: inf
ROOT
ATOM      1  C   UNL     1      -8.096  -5.681  -4.170  1.00  0.00     0.000 C 
ENDROOT
BRANCH   1   2
ATOM      2  C   UNL     1      -9.571  -5.975  -4.484  1.00  0.00     0.000 C 
BRANCH   2   3
ATOM      3  C   UNL     1     -10.009  -7.372  -4.015  1.00  0.00     0.006 C 
BRANCH   3   4
ATOM      4  C   UNL     1      -9.043  -8.475  -4.466  1.00  0.00     0.053 C 
BRANCH   4   5
ATOM      5  C   UNL     1      -9.380  -9.770  -3.797  1.00  0.00     0.041 C 
ATOM      6  O   UNL     1      -9.207  -9.907  -2.558  1.00  0.00    -0.550 OA
ATOM      7  O   UNL     1      -9.839 -10.843  -4.551  1.00  0.00    -0.550 OA
ENDBRANCH   4   5
ENDBRANCH   3   4
ENDBRANCH   2   3
ENDBRANCH   1   2
BRANCH   1   8
ATOM      8  C   UNL     1      -7.897  -4.207  -3.796  1.00  0.00     0.000 C 
BRANCH   8   9
ATOM      9  C   UNL     1      -9.250  -3.497  -3.622  1.00  0.00    -0.000 C 
BRANCH   9  10
ATOM     10  C   UNL     1      -9.410  -2.293  -4.563  1.00  0.00    -0.000 C 
BRANCH  10  11
ATOM     11  C   UNL     1      -8.189  -2.089  -5.476  1.00  0.00    -0.000 C 
BRANCH  11  12
ATOM     12  C   UNL     1      -8.520  -2.308  -6.960  1.00  0.00    -0.003 C 
ATOM     13  C   UNL     1      -8.108  -3.692  -7.460  1.00  0.00     0.004 C 
ENDBRANCH  11  12
ENDBRANCH  10  11
ENDBRANCH   9  10
ENDBRANCH   8   9
ENDBRANCH   1   8
TORSDOF 9
ENDMDL
MODEL 4
REMARK VINA RESULT:    -3.603     11.161     13.077
REMARK INTER + INTRA:          -6.137
REMARK INTER:                  -5.478
REMARK INTRA:                  -0.659
REMARK UNBOUND:                -0.637
REMARK SMILES CCCCCCCCCCC(=O)[O-]
REMARK SMILES IDX 7 1 8 2 9 3 10 4 11 5 12 6 13 7 6 8 5 9 4 10 3 11 2 12 1 13
REMARK H PARENT
REMARK Flexibility Score: inf
ROOT
ATOM      1  C   UNL     1      -8.010  -4.183  -3.770  1.00  0.00     0.000 C 
ENDROOT
BRANCH   1   2
ATOM      2  C   UNL     1      -9.300  -3.349  -3.728  1.00  0.00     0.000 C 
BRANCH   2   3
ATOM      3  C   UNL     1      -9.320  -2.237  -4.789  1.00  0.00     0.006 C 
BRANCH   3   4
ATOM      4  C   UNL     1      -8.099  -2.283  -5.715  1.00  0.00     0.053 C 
BRANCH   4   5
ATOM      5  C   UNL     1      -8.491  -2.778  -7.071  1.00  0.00     0.041 C 
ATOM      6  O   UNL     1      -9.338  -3.703  -7.187  1.00  0.00    -0.550 OA
ATOM      7  O   UNL     1      -7.884  -2.255  -8.206  1.00  0.00    -0.550 OA
ENDBRANCH   4   5
ENDBRANCH   3   4
ENDBRANCH   2   3
ENDBRANCH   1   2
BRANCH   1   8
ATOM      8  C   UNL     1      -8.279  -5.582  -4.338  1.00  0.00     0.000 C 
BRANCH   8   9
ATOM      9  C   UNL     1      -9.777  -5.921  -4.277  1.00  0.00    -0.000 C 
BRANCH   9  10
ATOM     10  C   UNL     1     -10.068  -7.380  -4.661  1.00  0.00    -0.000 C 
BRANCH  10  11
ATOM     11  C   UNL     1      -9.302  -8.386  -3.784  1.00  0.00    -0.000 C 
BRANCH  11  12
ATOM     12  C   UNL     1      -9.352  -9.814  -4.348  1.00  0.00    -0.003 C 
ATOM     13  C   UNL     1      -9.605  -9.846  -5.854  1.00  0.00     0.004 C 
ENDBRANCH  11  12
ENDBRANCH  10  11
ENDBRANCH   9  10
ENDBRANCH   8   9
ENDBRANCH   1   8
TORSDOF 9
ENDMDL
MODEL 5
REMARK VINA RESULT:    -3.591     15.244     16.761
REMARK INTER + INTRA:          -6.118
REMARK INTER:                  -5.404
REMARK INTRA:                  -0.714
REMARK UNBOUND:                -0.637
REMARK SMILES CCCCCCCCCCC(=O)[O-]
REMARK SMILES IDX 7 1 8 2 9 3 10 4 11 5 12 6 13 7 6 8 5 9 4 10 3 11 2 12 1 13
REMARK H PARENT
REMARK Flexibility Score: inf
ROOT
ATOM      1  C   UNL     1       5.877  -8.255  -8.046  1.00  0.00     0.000 C 
ENDROOT
BRANCH   1   2
ATOM      2  C   UNL     1       6.562  -8.894  -9.265  1.00  0.00     0.000 C 
BRANCH   2   3
ATOM      3  C   UNL     1       7.320  -7.869 -10.122  1.00  0.00     0.006 C 
BRANCH   3   4
ATOM      4  C   UNL     1       6.880  -6.426  -9.845  1.00  0.00     0.053 C 
BRANCH   4   5
ATOM      5  C   UNL     1       8.068  -5.565  -9.551  1.00  0.00     0.041 C 
ATOM      6  O   UNL     1       9.042  -6.030  -8.904  1.00  0.00    -0.550 OA
ATOM      7  O   UNL     1       8.077  -4.234  -9.947  1.00  0.00    -0.550 OA
ENDBRANCH   4   5
ENDBRANCH   3   4
ENDBRANCH   2   3
ENDBRANCH   1   2
BRANCH   1   8
ATOM      8  C   UNL     1       4.399  -8.658  -7.974  1.00  0.00     0.000 C 
BRANCH   8   9
ATOM      9  C   UNL     1       3.615  -8.087  -9.166  1.00  0.00    -0.000 C 
BRANCH   9  10
ATOM     10  C   UNL     1       2.549  -7.066  -8.736  1.00  0.00    -0.000 C 
BRANCH  10  11
ATOM     11  C   UNL     1       2.860  -5.643  -9.232  1.00  0.00    -0.000 C 
BRANCH  11  12
ATOM     12  C   UNL     1       1.887  -4.597  -8.666  1.00  0.00    -0.003 C 
ATOM     13  C   UNL     1       1.904  -4.542  -7.138  1.00  0.00     0.004 C 
ENDBRANCH  11  12
ENDBRANCH  10  11
ENDBRANCH   9  10
ENDBRANCH   8   9
ENDBRANCH   1   8
TORSDOF 9
ENDMDL
MODEL 6
REMARK VINA RESULT:    -3.574     14.443     16.242
REMARK INTER + INTRA:          -6.091
REMARK INTER:                  -5.733
REMARK INTRA:                  -0.358
REMARK UNBOUND:                -0.637
REMARK SMILES CCCCCCCCCCC(=O)[O-]
REMARK SMILES IDX 7 1 8 2 9 3 10 4 11 5 12 6 13 7 6 8 5 9 4 10 3 11 2 12 1 13
REMARK H PARENT
REMARK Flexibility Score: inf
ROOT
ATOM      1  C   UNL     1      -7.183  -4.195   8.895  1.00  0.00     0.000 C 
ENDROOT
BRANCH   1   2
ATOM      2  C   UNL     1      -8.530  -3.464   9.011  1.00  0.00     0.000 C 
BRANCH   2   3
ATOM      3  C   UNL     1      -8.421  -2.143   9.789  1.00  0.00     0.006 C 
BRANCH   3   4
ATOM      4  C   UNL     1      -8.498  -0.912   8.877  1.00  0.00     0.053 C 
BRANCH   4   5
ATOM      5  C   UNL     1      -7.202  -0.165   8.898  1.00  0.00     0.041 C 
ATOM      6  O   UNL     1      -6.110  -0.791   8.905  1.00  0.00    -0.550 OA
ATOM      7  O   UNL     1      -7.200   1.223   8.962  1.00  0.00    -0.550 OA
ENDBRANCH   4   5
ENDBRANCH   3   4
ENDBRANCH   2   3
ENDBRANCH   1   2
BRANCH   1   8
ATOM      8  C   UNL     1      -7.180  -5.477   9.738  1.00  0.00     0.000 C 
BRANCH   8   9
ATOM      9  C   UNL     1      -5.758  -6.042   9.872  1.00  0.00    -0.000 C 
BRANCH   9  10
ATOM     10  C   UNL     1      -5.267  -6.718   8.582  1.00  0.00    -0.000 C 
BRANCH  10  11
ATOM     11  C   UNL     1      -4.229  -7.822   8.850  1.00  0.00    -0.000 C 
BRANCH  11  12
ATOM     12  C   UNL     1      -3.621  -8.384   7.556  1.00  0.00    -0.003 C 
ATOM     13  C   UNL     1      -4.358  -7.911   6.303  1.00  0.00     0.004 C 
ENDBRANCH  11  12
ENDBRANCH  10  11
ENDBRANCH   9  10
ENDBRANCH   8   9
ENDBRANCH   1   8
TORSDOF 9
ENDMDL
MODEL 7
REMARK VINA RESULT:    -3.463     11.495     13.382
REMARK INTER + INTRA:          -5.923
REMARK INTER:                  -5.324
REMARK INTRA:                  -0.598
REMARK UNBOUND:                -0.637
REMARK SMILES CCCCCCCCCCC(=O)[O-]
REMARK SMILES IDX 7 1 8 2 9 3 10 4 11 5 12 6 13 7 6 8 5 9 4 10 3 11 2 12 1 13
REMARK H PARENT
REMARK Flexibility Score: inf
ROOT
ATOM      1  C   UNL     1      -8.243  -5.440  -4.461  1.00  0.00     0.000 C 
ENDROOT
BRANCH   1   2
ATOM      2  C   UNL     1      -7.847  -4.131  -3.760  1.00  0.00     0.000 C 
BRANCH   2   3
ATOM      3  C   UNL     1      -8.725  -2.943  -4.185  1.00  0.00     0.006 C 
BRANCH   3   4
ATOM      4  C   UNL     1      -8.152  -2.185  -5.389  1.00  0.00     0.053 C 
BRANCH   4   5
ATOM      5  C   UNL     1      -9.199  -2.010  -6.442  1.00  0.00     0.041 C 
ATOM      6  O   UNL     1      -9.970  -2.962  -6.734  1.00  0.00    -0.550 OA
ATOM      7  O   UNL     1      -9.292  -0.811  -7.138  1.00  0.00    -0.550 OA
ENDBRANCH   4   5
ENDBRANCH   3   4
ENDBRANCH   2   3
ENDBRANCH   1   2
BRANCH   1   8
ATOM      8  C   UNL     1      -9.750  -5.693  -4.339  1.00  0.00     0.000 C 
BRANCH   8   9
ATOM      9  C   UNL     1     -10.087  -7.161  -4.645  1.00  0.00    -0.000 C 
BRANCH   9  10
ATOM     10  C   UNL     1      -9.206  -8.145  -3.860  1.00  0.00    -0.000 C 
BRANCH  10  11
ATOM     11  C   UNL     1      -9.199  -9.555  -4.475  1.00  0.00    -0.000 C 
BRANCH  11  12
ATOM     12  C   UNL     1     -10.014  -9.633  -5.775  1.00  0.00    -0.003 C 
ATOM     13  C   UNL     1      -9.319 -10.458  -6.858  1.00  0.00     0.004 C 
ENDBRANCH  11  12
ENDBRANCH  10  11
ENDBRANCH   9  10
ENDBRANCH   8   9
ENDBRANCH   1   8
TORSDOF 9
ENDMDL
MODEL 8
REMARK VINA RESULT:    -3.410      3.009      6.161
REMARK INTER + INTRA:          -5.841
REMARK INTER:                  -5.333
REMARK INTRA:                  -0.508
REMARK UNBOUND:                -0.637
REMARK SMILES CCCCCCCCCCC(=O)[O-]
REMARK SMILES IDX 7 1 8 2 9 3 10 4 11 5 12 6 13 7 6 8 5 9 4 10 3 11 2 12 1 13
REMARK H PARENT
REMARK Flexibility Score: inf
ROOT
ATOM      1  C   UNL     1      -5.283   6.002  -3.691  1.00  0.00     0.000 C 
ENDROOT
BRANCH   1   2
ATOM      2  C   UNL     1      -5.064   5.959  -5.211  1.00  0.00     0.000 C 
BRANCH   2   3
ATOM      3  C   UNL     1      -6.165   5.177  -5.945  1.00  0.00     0.006 C 
BRANCH   3   4
ATOM      4  C   UNL     1      -5.623   3.946  -6.684  1.00  0.00     0.053 C 
BRANCH   4   5
ATOM      5  C   UNL     1      -4.869   4.362  -7.906  1.00  0.00     0.041 C 
ATOM      6  O   UNL     1      -3.618   4.230  -7.954  1.00  0.00    -0.550 OA
ATOM      7  O   UNL     1      -5.541   4.942  -8.975  1.00  0.00    -0.550 OA
ENDBRANCH   4   5
ENDBRANCH   3   4
ENDBRANCH   2   3
ENDBRANCH   1   2
BRANCH   1   8
ATOM      8  C   UNL     1      -4.302   6.972  -3.022  1.00  0.00     0.000 C 
BRANCH   8   9
ATOM      9  C   UNL     1      -4.613   7.124  -1.524  1.00  0.00    -0.000 C 
BRANCH   9  10
ATOM     10  C   UNL     1      -4.370   5.827  -0.737  1.00  0.00    -0.000 C 
BRANCH  10  11
ATOM     11  C   UNL     1      -3.060   5.861   0.070  1.00  0.00    -0.000 C 
BRANCH  11  12
ATOM     12  C   UNL     1      -1.971   4.966  -0.539  1.00  0.00    -0.003 C 
ATOM     13  C   UNL     1      -1.210   5.650  -1.674  1.00  0.00     0.004 C 
ENDBRANCH  11  12
ENDBRANCH  10  11
ENDBRANCH   9  10
ENDBRANCH   8   9
ENDBRANCH   1   8
TORSDOF 9
ENDMDL
MODEL 9
REMARK VINA RESULT:    -3.401     17.805     18.880
REMARK INTER + INTRA:          -5.828
REMARK INTER:                  -5.114
REMARK INTRA:                  -0.714
REMARK UNBOUND:                -0.637
REMARK SMILES CCCCCCCCCCC(=O)[O-]
REMARK SMILES IDX 7 1 8 2 9 3 10 4 11 5 12 6 13 7 6 8 5 9 4 10 3 11 2 12 1 13
REMARK H PARENT
REMARK Flexibility Score: inf
ROOT
ATOM      1  C   UNL     1      -4.203  -7.940   6.786  1.00  0.00     0.000 C 
ENDROOT
BRANCH   1   2
ATOM      2  C   UNL     1      -4.515  -7.676   8.267  1.00  0.00     0.000 C 
BRANCH   2   3
ATOM      3  C   UNL     1      -3.423  -8.213   9.206  1.00  0.00     0.006 C 
BRANCH   3   4
ATOM      4  C   UNL     1      -2.300  -8.937   8.453  1.00  0.00     0.053 C 
BRANCH   4   5
ATOM      5  C   UNL     1      -2.313 -10.398   8.775  1.00  0.00     0.041 C 
ATOM      6  O   UNL     1      -1.464 -10.879   9.571  1.00  0.00    -0.550 OA
ATOM      7  O   UNL     1      -3.231 -11.238   8.157  1.00  0.00    -0.550 OA
ENDBRANCH   4   5
ENDBRANCH   3   4
ENDBRANCH   2   3
ENDBRANCH   1   2
BRANCH   1   8
ATOM      8  C   UNL     1      -5.178  -8.965   6.194  1.00  0.00     0.000 C 
BRANCH   8   9
ATOM      9  C   UNL     1      -6.149  -9.482   7.267  1.00  0.00    -0.000 C 
BRANCH   9  10
ATOM     10  C   UNL     1      -6.936 -10.718   6.805  1.00  0.00    -0.000 C 
BRANCH  10  11
ATOM     11  C   UNL     1      -6.856 -10.936   5.284  1.00  0.00    -0.000 C 
BRANCH  11  12
ATOM     12  C   UNL     1      -6.352 -12.340   4.916  1.00  0.00    -0.003 C 
ATOM     13  C   UNL     1      -6.180 -12.529   3.409  1.00  0.00     0.004 C 
ENDBRANCH  11  12
ENDBRANCH  10  11
ENDBRANCH   9  10
ENDBRANCH   8   9
ENDBRANCH   1   8
TORSDOF 9
ENDMDL
