MODEL 1
REMARK VINA RESULT:    -5.310      0.000      0.000
REMARK INTER + INTRA:          -5.620
REMARK INTER:                  -5.620
REMARK INTRA:                   0.000
REMARK UNBOUND:                 0.000
REMARK SMILES O=c1ccc2cc(O)c(O)cc2o1
REMARK SMILES IDX 4 1 3 2 2 3 1 4 13 5 12 6 11 7 9 8 7 9 6 10 5 11 8 12 10 14
REMARK H PARENT 8 13 10 15
REMARK Flexibility Score: inf
ROOT
ATOM      1  C   UNL     1      10.737 -18.191   8.620  1.00  0.00     0.019 A 
ATOM      2  C   UNL     1       9.372 -17.936   8.484  1.00  0.00     0.094 A 
ATOM      3  C   UNL     1       8.961 -16.692   7.995  1.00  0.00     0.336 A 
ATOM      4  O   UNL     1       7.734 -16.442   7.865  1.00  0.00    -0.246 OA
ATOM      5  O   UNL     1       9.859 -15.767   7.665  1.00  0.00    -0.423 OA
ATOM      6  C   UNL     1      11.170 -15.969   7.780  1.00  0.00     0.142 A 
ATOM      7  C   UNL     1      12.067 -14.960   7.417  1.00  0.00     0.098 A 
ATOM      8  C   UNL     1      13.449 -15.168   7.536  1.00  0.00     0.161 A 
ATOM      9  C   UNL     1      13.935 -16.392   8.019  1.00  0.00     0.158 A 
ATOM     10  C   UNL     1      13.040 -17.409   8.384  1.00  0.00     0.062 A 
ATOM     11  C   UNL     1      11.658 -17.201   8.265  1.00  0.00     0.022 A 
ENDROOT
BRANCH   9  12
ATOM     12  O   UNL     1      15.310 -16.591   8.133  1.00  0.00    -0.504 OA
ATOM     13  H   UNL     1      15.968 -15.828   8.017  1.00  0.00     0.293 HD
ENDBRANCH   9  12
BRANCH   8  14
ATOM     14  O   UNL     1      14.346 -14.165   7.176  1.00  0.00    -0.504 OA
ATOM     15  H   UNL     1      14.729 -14.107   6.239  1.00  0.00     0.293 HD
ENDBRANCH   8  14
TORSDOF 2
ENDMDL
MODEL 2
REMARK VINA RESULT:    -5.295      1.321      4.585
REMARK INTER + INTRA:          -5.604
REMARK INTER:                  -5.604
REMARK INTRA:                   0.000
REMARK UNBOUND:                 0.000
REMARK SMILES O=c1ccc2cc(O)c(O)cc2o1
REMARK SMILES IDX 4 1 3 2 2 3 1 4 13 5 12 6 11 7 9 8 7 9 6 10 5 11 8 12 10 14
REMARK H PARENT 8 13 10 15
REMARK Flexibility Score: inf
ROOT
ATOM      1  C   UNL     1      13.347 -17.527   6.930  1.00  0.00     0.019 A 
ATOM      2  C   UNL     1      14.250 -16.469   7.028  1.00  0.00     0.094 A 
ATOM      3  C   UNL     1      13.776 -15.206   7.402  1.00  0.00     0.336 A 
ATOM      4  O   UNL     1      14.574 -14.238   7.496  1.00  0.00    -0.246 OA
ATOM      5  O   UNL     1      12.483 -15.020   7.658  1.00  0.00    -0.423 OA
ATOM      6  C   UNL     1      11.589 -16.003   7.576  1.00  0.00     0.142 A 
ATOM      7  C   UNL     1      10.243 -15.749   7.857  1.00  0.00     0.098 A 
ATOM      8  C   UNL     1       9.297 -16.780   7.772  1.00  0.00     0.161 A 
ATOM      9  C   UNL     1       9.699 -18.072   7.404  1.00  0.00     0.158 A 
ATOM     10  C   UNL     1      11.048 -18.334   7.121  1.00  0.00     0.062 A 
ATOM     11  C   UNL     1      11.994 -17.303   7.206  1.00  0.00     0.022 A 
ENDROOT
BRANCH   9  12
ATOM     12  O   UNL     1       8.752 -19.092   7.322  1.00  0.00    -0.504 OA
ATOM     13  H   UNL     1       8.899 -19.990   7.768  1.00  0.00     0.293 HD
ENDBRANCH   9  12
BRANCH   8  14
ATOM     14  O   UNL     1       7.955 -16.530   8.052  1.00  0.00    -0.504 OA
ATOM     15  H   UNL     1       7.216 -16.853   7.438  1.00  0.00     0.293 HD
ENDBRANCH   8  14
TORSDOF 2
ENDMDL
MODEL 3
REMARK VINA RESULT:    -5.270      1.281      1.423
REMARK INTER + INTRA:          -5.578
REMARK INTER:                  -5.578
REMARK INTRA:                   0.000
REMARK UNBOUND:                 0.000
REMARK SMILES O=c1ccc2cc(O)c(O)cc2o1
REMARK SMILES IDX 4 1 3 2 2 3 1 4 13 5 12 6 11 7 9 8 7 9 6 10 5 11 8 12 10 14
REMARK H PARENT 8 13 10 15
REMARK Flexibility Score: inf
ROOT
ATOM      1  C   UNL     1       9.458 -18.556   7.491  1.00  0.00     0.019 A 
ATOM      2  C   UNL     1       8.264 -17.986   7.932  1.00  0.00     0.094 A 
ATOM      3  C   UNL     1       8.254 -16.637   8.304  1.00  0.00     0.336 A 
ATOM      4  O   UNL     1       7.187 -16.103   8.705  1.00  0.00    -0.246 OA
ATOM      5  O   UNL     1       9.368 -15.911   8.237  1.00  0.00    -0.423 OA
ATOM      6  C   UNL     1      10.527 -16.417   7.822  1.00  0.00     0.142 A 
ATOM      7  C   UNL     1      11.666 -15.606   7.773  1.00  0.00     0.098 A 
ATOM      8  C   UNL     1      12.889 -16.134   7.336  1.00  0.00     0.161 A 
ATOM      9  C   UNL     1      12.975 -17.478   6.947  1.00  0.00     0.158 A 
ATOM     10  C   UNL     1      11.836 -18.297   6.995  1.00  0.00     0.062 A 
ATOM     11  C   UNL     1      10.613 -17.770   7.431  1.00  0.00     0.022 A 
ENDROOT
BRANCH   9  12
ATOM     12  O   UNL     1      14.196 -17.994   6.515  1.00  0.00    -0.504 OA
ATOM     13  H   UNL     1      14.941 -17.390   6.187  1.00  0.00     0.293 HD
ENDBRANCH   9  12
BRANCH   8  14
ATOM     14  O   UNL     1      14.025 -15.328   7.286  1.00  0.00    -0.504 OA
ATOM     15  H   UNL     1      14.897 -15.613   7.718  1.00  0.00     0.293 HD
ENDBRANCH   8  14
TORSDOF 2
ENDMDL
MODEL 4
REMARK VINA RESULT:    -4.979      1.526      4.741
REMARK INTER + INTRA:          -5.270
REMARK INTER:                  -5.270
REMARK INTRA:                   0.000
REMARK UNBOUND:                 0.000
REMARK SMILES O=c1ccc2cc(O)c(O)cc2o1
REMARK SMILES IDX 4 1 3 2 2 3 1 4 13 5 12 6 11 7 9 8 7 9 6 10 5 11 8 12 10 14
REMARK H PARENT 8 13 10 15
REMARK Flexibility Score: inf
ROOT
ATOM      1  C   UNL     1      12.477 -18.687   6.880  1.00  0.00     0.019 A 
ATOM      2  C   UNL     1      13.667 -18.032   7.200  1.00  0.00     0.094 A 
ATOM      3  C   UNL     1      13.606 -16.757   7.772  1.00  0.00     0.336 A 
ATOM      4  O   UNL     1      14.668 -16.149   8.068  1.00  0.00    -0.246 OA
ATOM      5  O   UNL     1      12.431 -16.179   8.007  1.00  0.00    -0.423 OA
ATOM      6  C   UNL     1      11.273 -16.768   7.716  1.00  0.00     0.142 A 
ATOM      7  C   UNL     1      10.068 -16.113   7.986  1.00  0.00     0.098 A 
ATOM      8  C   UNL     1       8.846 -16.729   7.682  1.00  0.00     0.161 A 
ATOM      9  C   UNL     1       8.828 -18.008   7.107  1.00  0.00     0.158 A 
ATOM     10  C   UNL     1      10.034 -18.672   6.835  1.00  0.00     0.062 A 
ATOM     11  C   UNL     1      11.257 -18.056   7.138  1.00  0.00     0.022 A 
ENDROOT
BRANCH   9  12
ATOM     12  O   UNL     1       7.609 -18.614   6.809  1.00  0.00    -0.504 OA
ATOM     13  H   UNL     1       6.799 -18.500   7.408  1.00  0.00     0.293 HD
ENDBRANCH   9  12
BRANCH   8  14
ATOM     14  O   UNL     1       7.643 -16.078   7.950  1.00  0.00    -0.504 OA
ATOM     15  H   UNL     1       6.815 -16.243   7.389  1.00  0.00     0.293 HD
ENDBRANCH   8  14
TORSDOF 2
ENDMDL
MODEL 5
REMARK VINA RESULT:    -4.942      1.682      2.467
REMARK INTER + INTRA:          -5.231
REMARK INTER:                  -5.231
REMARK INTRA:                   0.000
REMARK UNBOUND:                 0.000
REMARK SMILES O=c1ccc2cc(O)c(O)cc2o1
REMARK SMILES IDX 4 1 3 2 2 3 1 4 13 5 12 6 11 7 9 8 7 9 6 10 5 11 8 12 10 14
REMARK H PARENT 8 13 10 15
REMARK Flexibility Score: inf
ROOT
ATOM      1  C   UNL     1       9.217 -16.132   8.245  1.00  0.00     0.019 A 
ATOM      2  C   UNL     1       8.127 -17.001   8.209  1.00  0.00     0.094 A 
ATOM      3  C   UNL     1       8.313 -18.301   7.728  1.00  0.00     0.336 A 
ATOM      4  O   UNL     1       7.341 -19.101   7.686  1.00  0.00    -0.246 OA
ATOM      5  O   UNL     1       9.512 -18.701   7.311  1.00  0.00    -0.423 OA
ATOM      6  C   UNL     1      10.577 -17.904   7.329  1.00  0.00     0.142 A 
ATOM      7  C   UNL     1      11.813 -18.379   6.879  1.00  0.00     0.098 A 
ATOM      8  C   UNL     1      12.939 -17.543   6.896  1.00  0.00     0.161 A 
ATOM      9  C   UNL     1      12.829 -16.226   7.365  1.00  0.00     0.158 A 
ATOM     10  C   UNL     1      11.591 -15.744   7.819  1.00  0.00     0.062 A 
ATOM     11  C   UNL     1      10.465 -16.579   7.802  1.00  0.00     0.022 A 
ENDROOT
BRANCH   9  12
ATOM     12  O   UNL     1      13.953 -15.402   7.379  1.00  0.00    -0.504 OA
ATOM     13  H   UNL     1      14.769 -15.628   7.936  1.00  0.00     0.293 HD
ENDBRANCH   9  12
BRANCH   8  14
ATOM     14  O   UNL     1      14.172 -18.013   6.449  1.00  0.00    -0.504 OA
ATOM     15  H   UNL     1      14.240 -18.702   5.707  1.00  0.00     0.293 HD
ENDBRANCH   8  14
TORSDOF 2
ENDMDL
MODEL 6
REMARK VINA RESULT:    -4.939      1.822      5.047
REMARK INTER + INTRA:          -5.228
REMARK INTER:                  -5.228
REMARK INTRA:                   0.000
REMARK UNBOUND:                 0.000
REMARK SMILES O=c1ccc2cc(O)c(O)cc2o1
REMARK SMILES IDX 4 1 3 2 2 3 1 4 13 5 12 6 11 7 9 8 7 9 6 10 5 11 8 12 10 14
REMARK H PARENT 8 13 10 15
REMARK Flexibility Score: inf
ROOT
ATOM      1  C   UNL     1      12.370 -16.111   8.370  1.00  0.00     0.019 A 
ATOM      2  C   UNL     1      13.556 -16.778   8.063  1.00  0.00     0.094 A 
ATOM      3  C   UNL     1      13.491 -18.001   7.387  1.00  0.00     0.336 A 
ATOM      4  O   UNL     1      14.550 -18.618   7.101  1.00  0.00    -0.246 OA
ATOM      5  O   UNL     1      12.314 -18.519   7.044  1.00  0.00    -0.423 OA
ATOM      6  C   UNL     1      11.160 -17.917   7.319  1.00  0.00     0.142 A 
ATOM      7  C   UNL     1       9.953 -18.509   6.934  1.00  0.00     0.098 A 
ATOM      8  C   UNL     1       8.734 -17.878   7.220  1.00  0.00     0.161 A 
ATOM      9  C   UNL     1       8.721 -16.648   7.895  1.00  0.00     0.158 A 
ATOM     10  C   UNL     1       9.929 -16.049   8.283  1.00  0.00     0.062 A 
ATOM     11  C   UNL     1      11.148 -16.679   7.997  1.00  0.00     0.022 A 
ENDROOT
BRANCH   9  12
ATOM     12  O   UNL     1       7.505 -16.028   8.175  1.00  0.00    -0.504 OA
ATOM     13  H   UNL     1       7.228 -15.170   7.713  1.00  0.00     0.293 HD
ENDBRANCH   9  12
BRANCH   8  14
ATOM     14  O   UNL     1       7.530 -18.466   6.837  1.00  0.00    -0.504 OA
ATOM     15  H   UNL     1       6.974 -19.008   7.489  1.00  0.00     0.293 HD
ENDBRANCH   8  14
TORSDOF 2
ENDMDL
MODEL 7
REMARK VINA RESULT:    -4.344      2.383      3.948
REMARK INTER + INTRA:          -4.598
REMARK INTER:                  -4.598
REMARK INTRA:                   0.000
REMARK UNBOUND:                 0.000
REMARK SMILES O=c1ccc2cc(O)c(O)cc2o1
REMARK SMILES IDX 4 1 3 2 2 3 1 4 13 5 12 6 11 7 9 8 7 9 6 10 5 11 8 12 10 14
REMARK H PARENT 8 13 10 15
REMARK Flexibility Score: inf
ROOT
ATOM      1  C   UNL     1       7.261 -16.417   8.399  1.00  0.00     0.019 A 
ATOM      2  C   UNL     1       6.169 -17.122   8.904  1.00  0.00     0.094 A 
ATOM      3  C   UNL     1       6.332 -18.470   9.244  1.00  0.00     0.336 A 
ATOM      4  O   UNL     1       5.359 -19.125   9.701  1.00  0.00    -0.246 OA
ATOM      5  O   UNL     1       7.511 -19.067   9.086  1.00  0.00    -0.423 OA
ATOM      6  C   UNL     1       8.577 -18.430   8.607  1.00  0.00     0.142 A 
ATOM      7  C   UNL     1       9.791 -19.109   8.464  1.00  0.00     0.098 A 
ATOM      8  C   UNL     1      10.917 -18.443   7.960  1.00  0.00     0.161 A 
ATOM      9  C   UNL     1      10.829 -17.091   7.599  1.00  0.00     0.158 A 
ATOM     10  C   UNL     1       9.614 -16.404   7.741  1.00  0.00     0.062 A 
ATOM     11  C   UNL     1       8.488 -17.069   8.244  1.00  0.00     0.022 A 
ENDROOT
BRANCH   9  12
ATOM     12  O   UNL     1      11.954 -16.436   7.099  1.00  0.00    -0.504 OA
ATOM     13  H   UNL     1      12.409 -16.739   6.245  1.00  0.00     0.293 HD
ENDBRANCH   9  12
BRANCH   8  14
ATOM     14  O   UNL     1      12.128 -19.117   7.816  1.00  0.00    -0.504 OA
ATOM     15  H   UNL     1      12.984 -18.764   8.230  1.00  0.00     0.293 HD
ENDBRANCH   8  14
TORSDOF 2
ENDMDL
MODEL 8
REMARK VINA RESULT:    -3.948      2.482      5.759
REMARK INTER + INTRA:          -4.178
REMARK INTER:                  -4.178
REMARK INTRA:                   0.000
REMARK UNBOUND:                 0.000
REMARK SMILES O=c1ccc2cc(O)c(O)cc2o1
REMARK SMILES IDX 4 1 3 2 2 3 1 4 13 5 12 6 11 7 9 8 7 9 6 10 5 11 8 12 10 14
REMARK H PARENT 8 13 10 15
REMARK Flexibility Score: inf
ROOT
ATOM      1  C   UNL     1      10.505 -16.338   8.023  1.00  0.00     0.019 A 
ATOM      2  C   UNL     1      11.652 -16.904   7.467  1.00  0.00     0.094 A 
ATOM      3  C   UNL     1      11.552 -18.139   6.817  1.00  0.00     0.336 A 
ATOM      4  O   UNL     1      12.576 -18.667   6.310  1.00  0.00    -0.246 OA
ATOM      5  O   UNL     1      10.380 -18.762   6.730  1.00  0.00    -0.423 OA
ATOM      6  C   UNL     1       9.262 -18.257   7.246  1.00  0.00     0.142 A 
ATOM      7  C   UNL     1       8.057 -18.957   7.124  1.00  0.00     0.098 A 
ATOM      8  C   UNL     1       6.876 -18.429   7.666  1.00  0.00     0.161 A 
ATOM      9  C   UNL     1       6.899 -17.195   8.332  1.00  0.00     0.158 A 
ATOM     10  C   UNL     1       8.105 -16.488   8.457  1.00  0.00     0.062 A 
ATOM     11  C   UNL     1       9.286 -17.015   7.916  1.00  0.00     0.022 A 
ENDROOT
BRANCH   9  12
ATOM     12  O   UNL     1       5.720 -16.678   8.867  1.00  0.00    -0.504 OA
ATOM     13  H   UNL     1       5.658 -16.395   9.838  1.00  0.00     0.293 HD
ENDBRANCH   9  12
BRANCH   8  14
ATOM     14  O   UNL     1       5.674 -19.125   7.545  1.00  0.00    -0.504 OA
ATOM     15  H   UNL     1       5.184 -19.187   6.660  1.00  0.00     0.293 HD
ENDBRANCH   8  14
TORSDOF 2
ENDMDL
