MODEL 1
REMARK VINA RESULT:    -5.360      0.000      0.000
REMARK INTER + INTRA:          -5.861
REMARK INTER:                  -5.830
REMARK INTRA:                  -0.031
REMARK UNBOUND:                -0.031
REMARK SMILES CC1(C)[C@@H]2CC=C(CO)[C@H]1C2
REMARK SMILES IDX 8 1 7 2 1 3 2 4 4 5 3 6 10 7 5 8 11 9 6 10 9 11
REMARK H PARENT 9 12
REMARK Flexibility Score: inf
ROOT
ATOM      1  C   UNL     1     -24.118  -1.882 -13.674  1.00  0.00     0.187 C 
ENDROOT
BRANCH   1   2
ATOM      2  C   UNL     1     -23.148  -0.762 -13.916  1.00  0.00    -0.045 C 
ATOM      3  C   UNL     1     -20.485  -1.187 -15.130  1.00  0.00     0.012 C 
ATOM      4  C   UNL     1     -21.420  -0.038 -15.600  1.00  0.00    -0.026 C 
ATOM      5  C   UNL     1     -21.485   1.264 -14.753  1.00  0.00    -0.000 C 
ATOM      6  C   UNL     1     -21.125   0.250 -17.094  1.00  0.00     0.012 C 
ATOM      7  C   UNL     1     -22.941  -0.162 -15.314  1.00  0.00     0.023 C 
ATOM      8  C   UNL     1     -21.429   0.922 -13.224  1.00  0.00     0.031 C 
ATOM      9  C   UNL     1     -22.984   1.365 -15.104  1.00  0.00     0.013 C 
ATOM     10  C   UNL     1     -22.424  -0.209 -12.898  1.00  0.00    -0.025 C 
ENDBRANCH   1   2
BRANCH   1  11
ATOM     11  O   UNL     1     -23.513  -2.860 -12.875  1.00  0.00    -0.392 OA
ATOM     12  H   UNL     1     -23.727  -3.731 -13.298  1.00  0.00     0.211 HD
ENDBRANCH   1  11
TORSDOF 2
ENDMDL
MODEL 2
REMARK VINA RESULT:    -5.227      2.106      3.442
REMARK INTER + INTRA:          -5.716
REMARK INTER:                  -5.693
REMARK INTRA:                  -0.023
REMARK UNBOUND:                -0.031
REMARK SMILES CC1(C)[C@@H]2CC=C(CO)[C@H]1C2
REMARK SMILES IDX 8 1 7 2 1 3 2 4 4 5 3 6 10 7 5 8 11 9 6 10 9 11
REMARK H PARENT 9 12
REMARK Flexibility Score: inf
ROOT
ATOM      1  C   UNL     1     -20.815   0.216 -17.112  1.00  0.00     0.187 C 
ENDROOT
BRANCH   1   2
ATOM      2  C   UNL     1     -21.557   0.162 -15.808  1.00  0.00    -0.045 C 
ATOM      3  C   UNL     1     -21.252   2.218 -13.706  1.00  0.00     0.012 C 
ATOM      4  C   UNL     1     -22.652   1.706 -14.146  1.00  0.00    -0.026 C 
ATOM      5  C   UNL     1     -23.162   0.351 -13.580  1.00  0.00    -0.000 C 
ATOM      6  C   UNL     1     -23.676   2.850 -13.937  1.00  0.00     0.012 C 
ATOM      7  C   UNL     1     -22.787   1.042 -15.543  1.00  0.00     0.023 C 
ATOM      8  C   UNL     1     -21.982  -0.678 -13.488  1.00  0.00     0.031 C 
ATOM      9  C   UNL     1     -23.839   0.089 -14.941  1.00  0.00     0.013 C 
ATOM     10  C   UNL     1     -21.188  -0.693 -14.809  1.00  0.00    -0.025 C 
ENDBRANCH   1   2
BRANCH   1  11
ATOM     11  O   UNL     1     -20.064  -0.955 -17.271  1.00  0.00    -0.392 OA
ATOM     12  H   UNL     1     -19.275  -0.859 -16.678  1.00  0.00     0.211 HD
ENDBRANCH   1  11
TORSDOF 2
ENDMDL
MODEL 3
REMARK VINA RESULT:    -5.058      2.233      3.410
REMARK INTER + INTRA:          -5.533
REMARK INTER:                  -5.509
REMARK INTRA:                  -0.023
REMARK UNBOUND:                -0.031
REMARK SMILES CC1(C)[C@@H]2CC=C(CO)[C@H]1C2
REMARK SMILES IDX 8 1 7 2 1 3 2 4 4 5 3 6 10 7 5 8 11 9 6 10 9 11
REMARK H PARENT 9 12
REMARK Flexibility Score: inf
ROOT
ATOM      1  C   UNL     1     -21.164   2.731 -13.275  1.00  0.00     0.187 C 
ENDROOT
BRANCH   1   2
ATOM      2  C   UNL     1     -21.838   1.553 -13.918  1.00  0.00    -0.045 C 
ATOM      3  C   UNL     1     -21.122   0.576 -16.614  1.00  0.00     0.012 C 
ATOM      4  C   UNL     1     -21.295  -0.398 -15.415  1.00  0.00    -0.026 C 
ATOM      5  C   UNL     1     -22.733  -0.815 -14.996  1.00  0.00    -0.000 C 
ATOM      6  C   UNL     1     -20.375  -1.623 -15.646  1.00  0.00     0.012 C 
ATOM      7  C   UNL     1     -21.166   0.174 -13.978  1.00  0.00     0.023 C 
ATOM      8  C   UNL     1     -23.711   0.405 -15.119  1.00  0.00     0.031 C 
ATOM      9  C   UNL     1     -22.255  -0.821 -13.530  1.00  0.00     0.013 C 
ATOM     10  C   UNL     1     -23.090   1.650 -14.454  1.00  0.00    -0.025 C 
ENDBRANCH   1   2
BRANCH   1  11
ATOM     11  O   UNL     1     -22.131   3.662 -12.875  1.00  0.00    -0.392 OA
ATOM     12  H   UNL     1     -21.678   4.272 -12.237  1.00  0.00     0.211 HD
ENDBRANCH   1  11
TORSDOF 2
ENDMDL
MODEL 4
REMARK VINA RESULT:    -4.925      1.799      2.709
REMARK INTER + INTRA:          -5.389
REMARK INTER:                  -5.323
REMARK INTRA:                  -0.065
REMARK UNBOUND:                -0.031
REMARK SMILES CC1(C)[C@@H]2CC=C(CO)[C@H]1C2
REMARK SMILES IDX 8 1 7 2 1 3 2 4 4 5 3 6 10 7 5 8 11 9 6 10 9 11
REMARK H PARENT 9 12
REMARK Flexibility Score: inf
ROOT
ATOM      1  C   UNL     1     -20.064  -0.828 -12.890  1.00  0.00     0.187 C 
ENDROOT
BRANCH   1   2
ATOM      2  C   UNL     1     -21.168   0.104 -13.297  1.00  0.00    -0.045 C 
ATOM      3  C   UNL     1     -21.838   0.653 -16.124  1.00  0.00     0.012 C 
ATOM      4  C   UNL     1     -22.938   0.337 -15.073  1.00  0.00    -0.026 C 
ATOM      5  C   UNL     1     -23.408   1.473 -14.121  1.00  0.00    -0.000 C 
ATOM      6  C   UNL     1     -24.125  -0.344 -15.800  1.00  0.00     0.012 C 
ATOM      7  C   UNL     1     -22.528  -0.419 -13.781  1.00  0.00     0.023 C 
ATOM      8  C   UNL     1     -22.189   2.357 -13.686  1.00  0.00     0.031 C 
ATOM      9  C   UNL     1     -23.573   0.414 -13.011  1.00  0.00     0.013 C 
ATOM     10  C   UNL     1     -21.021   1.460 -13.229  1.00  0.00    -0.025 C 
ENDBRANCH   1   2
BRANCH   1  11
ATOM     11  O   UNL     1     -19.681  -1.607 -13.989  1.00  0.00    -0.392 OA
ATOM     12  H   UNL     1     -20.522  -1.884 -14.436  1.00  0.00     0.211 HD
ENDBRANCH   1  11
TORSDOF 2
ENDMDL
MODEL 5
REMARK VINA RESULT:    -4.846      1.933      3.569
REMARK INTER + INTRA:          -5.302
REMARK INTER:                  -5.258
REMARK INTRA:                  -0.044
REMARK UNBOUND:                -0.031
REMARK SMILES CC1(C)[C@@H]2CC=C(CO)[C@H]1C2
REMARK SMILES IDX 8 1 7 2 1 3 2 4 4 5 3 6 10 7 5 8 11 9 6 10 9 11
REMARK H PARENT 9 12
REMARK Flexibility Score: inf
ROOT
ATOM      1  C   UNL     1     -20.803  -0.092 -17.000  1.00  0.00     0.187 C 
ENDROOT
BRANCH   1   2
ATOM      2  C   UNL     1     -21.309   0.055 -15.594  1.00  0.00    -0.045 C 
ATOM      3  C   UNL     1     -24.124  -0.452 -14.846  1.00  0.00     0.012 C 
ATOM      4  C   UNL     1     -22.945  -1.024 -14.011  1.00  0.00    -0.026 C 
ATOM      5  C   UNL     1     -22.223  -0.087 -13.002  1.00  0.00    -0.000 C 
ATOM      6  C   UNL     1     -23.412  -2.345 -13.351  1.00  0.00     0.012 C 
ATOM      7  C   UNL     1     -21.559  -1.165 -14.695  1.00  0.00     0.023 C 
ATOM      8  C   UNL     1     -22.087   1.356 -13.601  1.00  0.00     0.031 C 
ATOM      9  C   UNL     1     -20.903  -0.809 -13.346  1.00  0.00     0.013 C 
ATOM     10  C   UNL     1     -21.545   1.281 -15.042  1.00  0.00    -0.025 C 
ENDBRANCH   1   2
BRANCH   1  11
ATOM     11  O   UNL     1     -19.953  -1.202 -17.077  1.00  0.00    -0.392 OA
ATOM     12  H   UNL     1     -19.237  -0.956 -17.717  1.00  0.00     0.211 HD
ENDBRANCH   1  11
TORSDOF 2
ENDMDL
MODEL 6
REMARK VINA RESULT:    -4.119      1.176      2.717
REMARK INTER + INTRA:          -4.511
REMARK INTER:                  -4.449
REMARK INTRA:                  -0.062
REMARK UNBOUND:                -0.031
REMARK SMILES CC1(C)[C@@H]2CC=C(CO)[C@H]1C2
REMARK SMILES IDX 8 1 7 2 1 3 2 4 4 5 3 6 10 7 5 8 11 9 6 10 9 11
REMARK H PARENT 9 12
REMARK Flexibility Score: inf
ROOT
ATOM      1  C   UNL     1     -22.735  -1.984 -12.977  1.00  0.00     0.187 C 
ENDROOT
BRANCH   1   2
ATOM      2  C   UNL     1     -22.271  -0.735 -13.668  1.00  0.00    -0.045 C 
ATOM      3  C   UNL     1     -24.125   1.124 -15.029  1.00  0.00     0.012 C 
ATOM      4  C   UNL     1     -23.016   1.638 -14.068  1.00  0.00    -0.026 C 
ATOM      5  C   UNL     1     -21.562   1.754 -14.604  1.00  0.00    -0.000 C 
ATOM      6  C   UNL     1     -23.508   2.956 -13.419  1.00  0.00     0.012 C 
ATOM      7  C   UNL     1     -22.430   0.650 -13.024  1.00  0.00     0.023 C 
ATOM      8  C   UNL     1     -21.233   0.548 -15.551  1.00  0.00     0.031 C 
ATOM      9  C   UNL     1     -21.061   1.336 -13.206  1.00  0.00     0.013 C 
ATOM     10  C   UNL     1     -21.662  -0.776 -14.890  1.00  0.00    -0.025 C 
ENDBRANCH   1   2
BRANCH   1  11
ATOM     11  O   UNL     1     -24.121  -2.115 -13.129  1.00  0.00    -0.392 OA
ATOM     12  H   UNL     1     -24.515  -1.924 -12.239  1.00  0.00     0.211 HD
ENDBRANCH   1  11
TORSDOF 2
ENDMDL
MODEL 7
REMARK VINA RESULT:    -3.941      1.910      3.214
REMARK INTER + INTRA:          -4.318
REMARK INTER:                  -4.269
REMARK INTRA:                  -0.049
REMARK UNBOUND:                -0.031
REMARK SMILES CC1(C)[C@@H]2CC=C(CO)[C@H]1C2
REMARK SMILES IDX 8 1 7 2 1 3 2 4 4 5 3 6 10 7 5 8 11 9 6 10 9 11
REMARK H PARENT 9 12
REMARK Flexibility Score: inf
ROOT
ATOM      1  C   UNL     1     -20.657  -1.011 -12.929  1.00  0.00     0.187 C 
ENDROOT
BRANCH   1   2
ATOM      2  C   UNL     1     -21.855  -0.694 -13.777  1.00  0.00    -0.045 C 
ATOM      3  C   UNL     1     -24.021   1.105 -12.876  1.00  0.00     0.012 C 
ATOM      4  C   UNL     1     -23.396   1.230 -14.294  1.00  0.00    -0.026 C 
ATOM      5  C   UNL     1     -23.865   0.247 -15.403  1.00  0.00    -0.000 C 
ATOM      6  C   UNL     1     -23.498   2.709 -14.743  1.00  0.00     0.012 C 
ATOM      7  C   UNL     1     -21.980   0.639 -14.530  1.00  0.00     0.023 C 
ATOM      8  C   UNL     1     -24.085  -1.186 -14.804  1.00  0.00     0.031 C 
ATOM      9  C   UNL     1     -22.424   0.253 -15.955  1.00  0.00     0.013 C 
ATOM     10  C   UNL     1     -22.874  -1.588 -13.938  1.00  0.00    -0.025 C 
ENDBRANCH   1   2
BRANCH   1  11
ATOM     11  O   UNL     1     -19.768   0.071 -12.953  1.00  0.00    -0.392 OA
ATOM     12  H   UNL     1     -19.446   0.183 -12.021  1.00  0.00     0.211 HD
ENDBRANCH   1  11
TORSDOF 2
ENDMDL
MODEL 8
REMARK VINA RESULT:    -3.570      9.289     10.831
REMARK INTER + INTRA:          -3.914
REMARK INTER:                  -3.870
REMARK INTRA:                  -0.044
REMARK UNBOUND:                -0.031
REMARK SMILES CC1(C)[C@@H]2CC=C(CO)[C@H]1C2
REMARK SMILES IDX 8 1 7 2 1 3 2 4 4 5 3 6 10 7 5 8 11 9 6 10 9 11
REMARK H PARENT 9 12
REMARK Flexibility Score: inf
ROOT
ATOM      1  C   UNL     1     -13.653   1.091 -19.041  1.00  0.00     0.187 C 
ENDROOT
BRANCH   1   2
ATOM      2  C   UNL     1     -13.810   2.412 -19.737  1.00  0.00    -0.045 C 
ATOM      3  C   UNL     1     -16.266   4.046 -19.531  1.00  0.00     0.012 C 
ATOM      4  C   UNL     1     -14.853   4.674 -19.366  1.00  0.00    -0.026 C 
ATOM      5  C   UNL     1     -14.030   5.001 -20.643  1.00  0.00    -0.000 C 
ATOM      6  C   UNL     1     -14.971   5.894 -18.418  1.00  0.00     0.012 C 
ATOM      7  C   UNL     1     -13.673   3.742 -18.982  1.00  0.00     0.023 C 
ATOM      8  C   UNL     1     -14.230   3.880 -21.721  1.00  0.00     0.031 C 
ATOM      9  C   UNL     1     -12.755   4.610 -19.866  1.00  0.00     0.013 C 
ATOM     10  C   UNL     1     -14.057   2.490 -21.078  1.00  0.00    -0.025 C 
ENDBRANCH   1   2
BRANCH   1  11
ATOM     11  O   UNL     1     -12.599   1.169 -18.122  1.00  0.00    -0.392 OA
ATOM     12  H   UNL     1     -12.989   0.946 -17.238  1.00  0.00     0.211 HD
ENDBRANCH   1  11
TORSDOF 2
ENDMDL
MODEL 9
REMARK VINA RESULT:    -3.382      9.489     10.699
REMARK INTER + INTRA:          -3.710
REMARK INTER:                  -3.687
REMARK INTRA:                  -0.023
REMARK UNBOUND:                -0.031
REMARK SMILES CC1(C)[C@@H]2CC=C(CO)[C@H]1C2
REMARK SMILES IDX 8 1 7 2 1 3 2 4 4 5 3 6 10 7 5 8 11 9 6 10 9 11
REMARK H PARENT 9 12
REMARK Flexibility Score: inf
ROOT
ATOM      1  C   UNL     1     -12.888   0.838 -17.722  1.00  0.00     0.187 C 
ENDROOT
BRANCH   1   2
ATOM      2  C   UNL     1     -13.389   1.304 -19.058  1.00  0.00    -0.045 C 
ATOM      3  C   UNL     1     -15.294   3.545 -19.359  1.00  0.00     0.012 C 
ATOM      4  C   UNL     1     -14.021   3.435 -20.244  1.00  0.00    -0.026 C 
ATOM      5  C   UNL     1     -14.043   2.471 -21.463  1.00  0.00    -0.000 C 
ATOM      6  C   UNL     1     -13.577   4.866 -20.637  1.00  0.00     0.012 C 
ATOM      7  C   UNL     1     -12.838   2.572 -19.729  1.00  0.00     0.023 C 
ATOM      8  C   UNL     1     -14.823   1.159 -21.106  1.00  0.00     0.031 C 
ATOM      9  C   UNL     1     -12.557   2.162 -21.188  1.00  0.00     0.013 C 
ATOM     10  C   UNL     1     -14.338   0.608 -19.750  1.00  0.00    -0.025 C 
ENDBRANCH   1   2
BRANCH   1  11
ATOM     11  O   UNL     1     -12.904  -0.562 -17.680  1.00  0.00    -0.392 OA
ATOM     12  H   UNL     1     -12.936  -0.865 -18.624  1.00  0.00     0.211 HD
ENDBRANCH   1  11
TORSDOF 2
ENDMDL
