MODEL 1
REMARK VINA RESULT:    -3.597      0.000      0.000
REMARK INTER + INTRA:          -5.023
REMARK INTER:                  -4.648
REMARK INTRA:                  -0.375
REMARK UNBOUND:                -0.375
REMARK SMILES CCCCCCC(=O)[O-]
REMARK SMILES IDX 5 1 6 2 7 3 8 4 9 5 4 6 3 7 2 8 1 9
REMARK H PARENT
REMARK Flexibility Score: inf
ROOT
ATOM      1  C   UNL     1       5.879   0.795  15.734  1.00  0.00     0.006 C 
ENDROOT
BRANCH   1   2
ATOM      2  C   UNL     1       4.845   1.921  15.598  1.00  0.00     0.053 C 
BRANCH   2   3
ATOM      3  C   UNL     1       3.776   1.823  16.643  1.00  0.00     0.041 C 
ATOM      4  O   UNL     1       2.572   1.670  16.308  1.00  0.00    -0.550 OA
ATOM      5  O   UNL     1       4.109   1.929  17.988  1.00  0.00    -0.550 OA
ENDBRANCH   2   3
ENDBRANCH   1   2
BRANCH   1   6
ATOM      6  C   UNL     1       5.266  -0.591  15.467  1.00  0.00     0.000 C 
BRANCH   6   7
ATOM      7  C   UNL     1       5.739  -1.650  16.475  1.00  0.00    -0.000 C 
BRANCH   7   8
ATOM      8  C   UNL     1       5.138  -1.448  17.873  1.00  0.00    -0.003 C 
ATOM      9  C   UNL     1       6.224  -1.134  18.898  1.00  0.00     0.004 C 
ENDBRANCH   7   8
ENDBRANCH   6   7
ENDBRANCH   1   6
TORSDOF 5
ENDMDL
MODEL 2
REMARK VINA RESULT:    -3.571      2.168      2.964
REMARK INTER + INTRA:          -4.990
REMARK INTER:                  -4.668
REMARK INTRA:                  -0.323
REMARK UNBOUND:                -0.375
REMARK SMILES CCCCCCC(=O)[O-]
REMARK SMILES IDX 5 1 6 2 7 3 8 4 9 5 4 6 3 7 2 8 1 9
REMARK H PARENT
REMARK Flexibility Score: inf
ROOT
ATOM      1  C   UNL     1       2.913   1.595  16.213  1.00  0.00     0.006 C 
ENDROOT
BRANCH   1   2
ATOM      2  C   UNL     1       2.905   0.658  14.998  1.00  0.00     0.053 C 
BRANCH   2   3
ATOM      3  C   UNL     1       1.880  -0.425  15.137  1.00  0.00     0.041 C 
ATOM      4  O   UNL     1       0.658  -0.169  14.969  1.00  0.00    -0.550 OA
ATOM      5  O   UNL     1       2.272  -1.713  15.481  1.00  0.00    -0.550 OA
ENDBRANCH   2   3
ENDBRANCH   1   2
BRANCH   1   6
ATOM      6  C   UNL     1       4.336   2.047  16.589  1.00  0.00     0.000 C 
BRANCH   6   7
ATOM      7  C   UNL     1       5.354   0.898  16.535  1.00  0.00    -0.000 C 
BRANCH   7   8
ATOM      8  C   UNL     1       5.480   0.155  17.874  1.00  0.00    -0.003 C 
ATOM      9  C   UNL     1       5.146  -1.324  17.714  1.00  0.00     0.004 C 
ENDBRANCH   7   8
ENDBRANCH   6   7
ENDBRANCH   1   6
TORSDOF 5
ENDMDL
MODEL 3
REMARK VINA RESULT:    -3.563      2.165      4.314
REMARK INTER + INTRA:          -4.980
REMARK INTER:                  -4.758
REMARK INTRA:                  -0.222
REMARK UNBOUND:                -0.375
REMARK SMILES CCCCCCC(=O)[O-]
REMARK SMILES IDX 5 1 6 2 7 3 8 4 9 5 4 6 3 7 2 8 1 9
REMARK H PARENT
REMARK Flexibility Score: inf
ROOT
ATOM      1  C   UNL     1       4.323   1.674  17.336  1.00  0.00     0.006 C 
ENDROOT
BRANCH   1   2
ATOM      2  C   UNL     1       5.365   0.560  17.171  1.00  0.00     0.053 C 
BRANCH   2   3
ATOM      3  C   UNL     1       5.501  -0.263  18.416  1.00  0.00     0.041 C 
ATOM      4  O   UNL     1       6.185  -1.320  18.407  1.00  0.00    -0.550 OA
ATOM      5  O   UNL     1       4.846   0.124  19.579  1.00  0.00    -0.550 OA
ENDBRANCH   2   3
ENDBRANCH   1   2
BRANCH   1   6
ATOM      6  C   UNL     1       3.273   1.659  16.211  1.00  0.00     0.000 C 
BRANCH   6   7
ATOM      7  C   UNL     1       3.905   1.545  14.815  1.00  0.00    -0.000 C 
BRANCH   7   8
ATOM      8  C   UNL     1       4.134   2.912  14.154  1.00  0.00    -0.003 C 
ATOM      9  C   UNL     1       3.060   3.911  14.572  1.00  0.00     0.004 C 
ENDBRANCH   7   8
ENDBRANCH   6   7
ENDBRANCH   1   6
TORSDOF 5
ENDMDL
MODEL 4
REMARK VINA RESULT:    -3.543      2.219      3.530
REMARK INTER + INTRA:          -4.955
REMARK INTER:                  -4.700
REMARK INTRA:                  -0.254
REMARK UNBOUND:                -0.375
REMARK SMILES CCCCCCC(=O)[O-]
REMARK SMILES IDX 5 1 6 2 7 3 8 4 9 5 4 6 3 7 2 8 1 9
REMARK H PARENT
REMARK Flexibility Score: inf
ROOT
ATOM      1  C   UNL     1       4.640   1.999  15.279  1.00  0.00     0.006 C 
ENDROOT
BRANCH   1   2
ATOM      2  C   UNL     1       5.677   1.148  16.025  1.00  0.00     0.053 C 
BRANCH   2   3
ATOM      3  C   UNL     1       5.231   0.823  17.418  1.00  0.00     0.041 C 
ATOM      4  O   UNL     1       4.323   1.499  17.969  1.00  0.00    -0.550 OA
ATOM      5  O   UNL     1       5.840  -0.212  18.118  1.00  0.00    -0.550 OA
ENDBRANCH   2   3
ENDBRANCH   1   2
BRANCH   1   6
ATOM      6  C   UNL     1       4.253   1.385  13.922  1.00  0.00     0.000 C 
BRANCH   6   7
ATOM      7  C   UNL     1       3.210   0.265  14.055  1.00  0.00    -0.000 C 
BRANCH   7   8
ATOM      8  C   UNL     1       2.145   0.571  15.119  1.00  0.00    -0.003 C 
ATOM      9  C   UNL     1       0.845  -0.173  14.824  1.00  0.00     0.004 C 
ENDBRANCH   7   8
ENDBRANCH   6   7
ENDBRANCH   1   6
TORSDOF 5
ENDMDL
MODEL 5
REMARK VINA RESULT:    -3.484      2.321      3.788
REMARK INTER + INTRA:          -4.877
REMARK INTER:                  -4.468
REMARK INTRA:                  -0.409
REMARK UNBOUND:                -0.375
REMARK SMILES CCCCCCC(=O)[O-]
REMARK SMILES IDX 5 1 6 2 7 3 8 4 9 5 4 6 3 7 2 8 1 9
REMARK H PARENT
REMARK Flexibility Score: inf
ROOT
ATOM      1  C   UNL     1       4.000   1.694  16.916  1.00  0.00     0.006 C 
ENDROOT
BRANCH   1   2
ATOM      2  C   UNL     1       5.338   0.951  16.801  1.00  0.00     0.053 C 
BRANCH   2   3
ATOM      3  C   UNL     1       5.285  -0.394  17.458  1.00  0.00     0.041 C 
ATOM      4  O   UNL     1       4.578  -1.313  16.968  1.00  0.00    -0.550 OA
ATOM      5  O   UNL     1       5.997  -0.623  18.630  1.00  0.00    -0.550 OA
ENDBRANCH   2   3
ENDBRANCH   1   2
BRANCH   1   6
ATOM      6  C   UNL     1       3.286   1.818  15.558  1.00  0.00     0.000 C 
BRANCH   6   7
ATOM      7  C   UNL     1       2.169   0.778  15.380  1.00  0.00    -0.000 C 
BRANCH   7   8
ATOM      8  C   UNL     1       2.428  -0.175  14.204  1.00  0.00    -0.003 C 
ATOM      9  C   UNL     1       3.734   0.170  13.495  1.00  0.00     0.004 C 
ENDBRANCH   7   8
ENDBRANCH   6   7
ENDBRANCH   1   6
TORSDOF 5
ENDMDL
MODEL 6
REMARK VINA RESULT:    -3.459      1.937      2.542
REMARK INTER + INTRA:          -4.845
REMARK INTER:                  -4.638
REMARK INTRA:                  -0.207
REMARK UNBOUND:                -0.375
REMARK SMILES CCCCCCC(=O)[O-]
REMARK SMILES IDX 5 1 6 2 7 3 8 4 9 5 4 6 3 7 2 8 1 9
REMARK H PARENT
REMARK Flexibility Score: inf
ROOT
ATOM      1  C   UNL     1       4.013   1.876  17.032  1.00  0.00     0.006 C 
ENDROOT
BRANCH   1   2
ATOM      2  C   UNL     1       3.127   1.745  15.785  1.00  0.00     0.053 C 
BRANCH   2   3
ATOM      3  C   UNL     1       3.465   2.776  14.752  1.00  0.00     0.041 C 
ATOM      4  O   UNL     1       4.436   2.598  13.971  1.00  0.00    -0.550 OA
ATOM      5  O   UNL     1       2.722   3.947  14.671  1.00  0.00    -0.550 OA
ENDBRANCH   2   3
ENDBRANCH   1   2
BRANCH   1   6
ATOM      6  C   UNL     1       5.190   0.884  17.016  1.00  0.00     0.000 C 
BRANCH   6   7
ATOM      7  C   UNL     1       5.305   0.084  18.322  1.00  0.00    -0.000 C 
BRANCH   7   8
ATOM      8  C   UNL     1       5.682  -1.386  18.085  1.00  0.00    -0.003 C 
ATOM      9  C   UNL     1       5.723  -1.709  16.594  1.00  0.00     0.004 C 
ENDBRANCH   7   8
ENDBRANCH   6   7
ENDBRANCH   1   6
TORSDOF 5
ENDMDL
MODEL 7
REMARK VINA RESULT:    -3.446      1.910      3.914
REMARK INTER + INTRA:          -4.829
REMARK INTER:                  -4.550
REMARK INTRA:                  -0.279
REMARK UNBOUND:                -0.375
REMARK SMILES CCCCCCC(=O)[O-]
REMARK SMILES IDX 5 1 6 2 7 3 8 4 9 5 4 6 3 7 2 8 1 9
REMARK H PARENT
REMARK Flexibility Score: inf
ROOT
ATOM      1  C   UNL     1       5.668   0.280  15.036  1.00  0.00     0.006 C 
ENDROOT
BRANCH   1   2
ATOM      2  C   UNL     1       5.863   1.188  16.258  1.00  0.00     0.053 C 
BRANCH   2   3
ATOM      3  C   UNL     1       4.988   0.777  17.402  1.00  0.00     0.041 C 
ATOM      4  O   UNL     1       4.967  -0.422  17.786  1.00  0.00    -0.550 OA
ATOM      5  O   UNL     1       4.173   1.714  18.025  1.00  0.00    -0.550 OA
ENDBRANCH   2   3
ENDBRANCH   1   2
BRANCH   1   6
ATOM      6  C   UNL     1       5.824   1.048  13.711  1.00  0.00     0.000 C 
BRANCH   6   7
ATOM      7  C   UNL     1       4.504   1.671  13.230  1.00  0.00    -0.000 C 
BRANCH   7   8
ATOM      8  C   UNL     1       4.459   3.193  13.430  1.00  0.00    -0.003 C 
ATOM      9  C   UNL     1       3.484   3.572  14.540  1.00  0.00     0.004 C 
ENDBRANCH   7   8
ENDBRANCH   6   7
ENDBRANCH   1   6
TORSDOF 5
ENDMDL
MODEL 8
REMARK VINA RESULT:    -3.375      1.838      2.605
REMARK INTER + INTRA:          -4.737
REMARK INTER:                  -4.342
REMARK INTRA:                  -0.395
REMARK UNBOUND:                -0.375
REMARK SMILES CCCCCCC(=O)[O-]
REMARK SMILES IDX 5 1 6 2 7 3 8 4 9 5 4 6 3 7 2 8 1 9
REMARK H PARENT
REMARK Flexibility Score: inf
ROOT
ATOM      1  C   UNL     1       4.335   0.484  14.217  1.00  0.00     0.006 C 
ENDROOT
BRANCH   1   2
ATOM      2  C   UNL     1       3.137  -0.441  14.474  1.00  0.00     0.053 C 
BRANCH   2   3
ATOM      3  C   UNL     1       2.015   0.279  15.156  1.00  0.00     0.041 C 
ATOM      4  O   UNL     1       2.256   1.227  15.949  1.00  0.00    -0.550 OA
ATOM      5  O   UNL     1       0.701  -0.116  14.934  1.00  0.00    -0.550 OA
ENDBRANCH   2   3
ENDBRANCH   1   2
BRANCH   1   6
ATOM      6  C   UNL     1       5.569   0.080  15.044  1.00  0.00     0.000 C 
BRANCH   6   7
ATOM      7  C   UNL     1       5.770   0.970  16.280  1.00  0.00    -0.000 C 
BRANCH   7   8
ATOM      8  C   UNL     1       5.236   0.326  17.568  1.00  0.00    -0.003 C 
ATOM      9  C   UNL     1       5.453  -1.184  17.557  1.00  0.00     0.004 C 
ENDBRANCH   7   8
ENDBRANCH   6   7
ENDBRANCH   1   6
TORSDOF 5
ENDMDL
MODEL 9
REMARK VINA RESULT:    -3.343      2.349      4.430
REMARK INTER + INTRA:          -4.696
REMARK INTER:                  -4.298
REMARK INTRA:                  -0.398
REMARK UNBOUND:                -0.375
REMARK SMILES CCCCCCC(=O)[O-]
REMARK SMILES IDX 5 1 6 2 7 3 8 4 9 5 4 6 3 7 2 8 1 9
REMARK H PARENT
REMARK Flexibility Score: inf
ROOT
ATOM      1  C   UNL     1       4.297   1.966  16.951  1.00  0.00     0.006 C 
ENDROOT
BRANCH   1   2
ATOM      2  C   UNL     1       5.063   0.671  17.255  1.00  0.00     0.053 C 
BRANCH   2   3
ATOM      3  C   UNL     1       5.455  -0.051  16.003  1.00  0.00     0.041 C 
ATOM      4  O   UNL     1       6.168   0.521  15.137  1.00  0.00    -0.550 OA
ATOM      5  O   UNL     1       5.007  -1.348  15.780  1.00  0.00    -0.550 OA
ENDBRANCH   2   3
ENDBRANCH   1   2
BRANCH   1   6
ATOM      6  C   UNL     1       3.038   1.711  16.103  1.00  0.00     0.000 C 
BRANCH   6   7
ATOM      7  C   UNL     1       2.865   2.742  14.977  1.00  0.00    -0.000 C 
BRANCH   7   8
ATOM      8  C   UNL     1       4.177   3.457  14.621  1.00  0.00    -0.003 C 
ATOM      9  C   UNL     1       4.661   3.055  13.231  1.00  0.00     0.004 C 
ENDBRANCH   7   8
ENDBRANCH   6   7
ENDBRANCH   1   6
TORSDOF 5
ENDMDL
