MODEL 1
REMARK VINA RESULT:    -3.006      0.000      0.000
REMARK INTER + INTRA:          -1.400
REMARK INTER:                  -3.182
REMARK INTRA:                   1.782
REMARK UNBOUND:                 1.782
REMARK SMILES CC1=C[C@H]2C(=C(C)CC[C@H]2C(C)C)CC1
REMARK SMILES IDX 1 1 2 2 3 3 4 4 10 5 9 6 8 7 6 8 5 9 14 10 15 11 7 12 11 13
REMARK SMILES IDX 12 14 13 15
REMARK H PARENT
REMARK Flexibility Score: inf
ROOT
ATOM      1  C   UNL     1       4.627   8.576  11.916  1.00  0.00     0.039 C 
ATOM      2  C   UNL     1       3.800   9.796  11.612  1.00  0.00    -0.076 C 
ATOM      3  C   UNL     1       4.418  10.934  11.237  1.00  0.00    -0.020 C 
ATOM      4  C   UNL     1       3.674  12.202  10.875  1.00  0.00     0.041 C 
ATOM      5  C   UNL     1       4.201  13.462  11.617  1.00  0.00     0.003 C 
ATOM      6  C   UNL     1       3.526  14.661  10.913  1.00  0.00     0.009 C 
ATOM      7  C   UNL     1       1.994  14.613  11.048  1.00  0.00     0.031 C 
ATOM      8  C   UNL     1       1.388  13.220  10.931  1.00  0.00    -0.073 C 
ATOM      9  C   UNL     1       2.158  12.092  10.968  1.00  0.00    -0.064 C 
ATOM     10  C   UNL     1       1.570  10.697  10.879  1.00  0.00     0.036 C 
ATOM     11  C   UNL     1       2.307   9.763  11.837  1.00  0.00     0.035 C 
ATOM     12  C   UNL     1      -0.120  13.147  10.889  1.00  0.00     0.039 C 
ENDROOT
BRANCH   5  13
ATOM     13  C   UNL     1       3.973  13.465  13.178  1.00  0.00    -0.013 C 
ATOM     14  C   UNL     1       2.832  12.513  13.591  1.00  0.00     0.007 C 
ATOM     15  C   UNL     1       3.652  14.869  13.726  1.00  0.00     0.007 C 
ENDBRANCH   5  13
TORSDOF 1
ENDMDL
MODEL 2
REMARK VINA RESULT:    -1.899      1.301      4.446
REMARK INTER + INTRA:          -0.228
REMARK INTER:                  -2.723
REMARK INTRA:                   2.495
REMARK UNBOUND:                 1.782
REMARK SMILES CC1=C[C@H]2C(=C(C)CC[C@H]2C(C)C)CC1
REMARK SMILES IDX 1 1 2 2 3 3 4 4 10 5 9 6 8 7 6 8 5 9 14 10 15 11 7 12 11 13
REMARK SMILES IDX 12 14 13 15
REMARK H PARENT
REMARK Flexibility Score: inf
ROOT
ATOM      1  C   UNL     1       4.591  16.058  10.888  1.00  0.00     0.039 C 
ATOM      2  C   UNL     1       4.034  14.924  11.704  1.00  0.00    -0.076 C 
ATOM      3  C   UNL     1       3.999  13.684  11.174  1.00  0.00    -0.020 C 
ATOM      4  C   UNL     1       3.494  12.472  11.928  1.00  0.00     0.041 C 
ATOM      5  C   UNL     1       2.443  11.645  11.136  1.00  0.00     0.003 C 
ATOM      6  C   UNL     1       2.275  10.331  11.932  1.00  0.00     0.009 C 
ATOM      7  C   UNL     1       1.736  10.588  13.349  1.00  0.00     0.031 C 
ATOM      8  C   UNL     1       2.303  11.826  14.033  1.00  0.00    -0.073 C 
ATOM      9  C   UNL     1       3.023  12.763  13.346  1.00  0.00    -0.064 C 
ATOM     10  C   UNL     1       3.573  14.014  14.004  1.00  0.00     0.036 C 
ATOM     11  C   UNL     1       3.424  15.204  13.058  1.00  0.00     0.035 C 
ATOM     12  C   UNL     1       1.930  12.022  15.482  1.00  0.00     0.039 C 
ENDROOT
BRANCH   5  13
ATOM     13  C   UNL     1       1.071  12.379  10.875  1.00  0.00    -0.013 C 
ATOM     14  C   UNL     1       1.233  13.913  10.876  1.00  0.00     0.007 C 
ATOM     15  C   UNL     1      -0.005  12.008  11.914  1.00  0.00     0.007 C 
ENDBRANCH   5  13
TORSDOF 1
ENDMDL
MODEL 3
REMARK VINA RESULT:    -1.848      3.263      7.096
REMARK INTER + INTRA:          -0.175
REMARK INTER:                  -0.313
REMARK INTRA:                   0.138
REMARK UNBOUND:                 1.782
REMARK SMILES CC1=C[C@H]2C(=C(C)CC[C@H]2C(C)C)CC1
REMARK SMILES IDX 1 1 2 2 3 3 4 4 10 5 9 6 8 7 6 8 5 9 14 10 15 11 7 12 11 13
REMARK SMILES IDX 12 14 13 15
REMARK H PARENT
REMARK Flexibility Score: inf
ROOT
ATOM      1  C   UNL     1       2.800   9.827  10.875  1.00  0.00     0.039 C 
ATOM      2  C   UNL     1       4.104   9.397  11.489  1.00  0.00    -0.076 C 
ATOM      3  C   UNL     1       4.775   8.357  10.953  1.00  0.00    -0.020 C 
ATOM      4  C   UNL     1       6.110   7.872  11.474  1.00  0.00     0.041 C 
ATOM      5  C   UNL     1       6.154   6.340  11.735  1.00  0.00     0.003 C 
ATOM      6  C   UNL     1       7.645   6.010  11.976  1.00  0.00     0.009 C 
ATOM      7  C   UNL     1       8.196   6.738  13.214  1.00  0.00     0.031 C 
ATOM      8  C   UNL     1       7.693   8.165  13.391  1.00  0.00    -0.073 C 
ATOM      9  C   UNL     1       6.646   8.657  12.664  1.00  0.00    -0.064 C 
ATOM     10  C   UNL     1       6.114  10.065  12.845  1.00  0.00     0.036 C 
ATOM     11  C   UNL     1       4.589  10.059  12.758  1.00  0.00     0.035 C 
ATOM     12  C   UNL     1       8.336   8.970  14.495  1.00  0.00     0.039 C 
ENDROOT
BRANCH   5  13
ATOM     13  C   UNL     1       5.221   5.832  12.901  1.00  0.00    -0.013 C 
ATOM     14  C   UNL     1       5.966   4.876  13.854  1.00  0.00     0.007 C 
ATOM     15  C   UNL     1       3.963   5.111  12.380  1.00  0.00     0.007 C 
ENDBRANCH   5  13
TORSDOF 1
ENDMDL
MODEL 4
REMARK VINA RESULT:    -1.520      1.311      4.349
REMARK INTER + INTRA:           0.173
REMARK INTER:                  -1.450
REMARK INTRA:                   1.623
REMARK UNBOUND:                 1.782
REMARK SMILES CC1=C[C@H]2C(=C(C)CC[C@H]2C(C)C)CC1
REMARK SMILES IDX 1 1 2 2 3 3 4 4 10 5 9 6 8 7 6 8 5 9 14 10 15 11 7 12 11 13
REMARK SMILES IDX 12 14 13 15
REMARK H PARENT
REMARK Flexibility Score: inf
ROOT
ATOM      1  C   UNL     1       3.308  16.408  11.167  1.00  0.00     0.039 C 
ATOM      2  C   UNL     1       3.192  14.908  11.184  1.00  0.00    -0.076 C 
ATOM      3  C   UNL     1       2.001  14.336  10.919  1.00  0.00    -0.020 C 
ATOM      4  C   UNL     1       1.790  12.837  10.876  1.00  0.00     0.041 C 
ATOM      5  C   UNL     1       0.587  12.356  11.734  1.00  0.00     0.003 C 
ATOM      6  C   UNL     1       0.368  10.879  11.335  1.00  0.00     0.009 C 
ATOM      7  C   UNL     1       1.592  10.011  11.670  1.00  0.00     0.031 C 
ATOM      8  C   UNL     1       2.937  10.678  11.410  1.00  0.00    -0.073 C 
ATOM      9  C   UNL     1       3.041  12.016  11.156  1.00  0.00    -0.064 C 
ATOM     10  C   UNL     1       4.373  12.703  10.922  1.00  0.00     0.036 C 
ATOM     11  C   UNL     1       4.378  14.070  11.603  1.00  0.00     0.035 C 
ATOM     12  C   UNL     1       4.159   9.805  11.565  1.00  0.00     0.039 C 
ENDROOT
BRANCH   5  13
ATOM     13  C   UNL     1       0.756  12.549  13.291  1.00  0.00    -0.013 C 
ATOM     14  C   UNL     1       2.223  12.375  13.733  1.00  0.00     0.007 C 
ATOM     15  C   UNL     1      -0.112  11.569  14.105  1.00  0.00     0.007 C 
ENDBRANCH   5  13
TORSDOF 1
ENDMDL
