MODEL 1
REMARK VINA RESULT:    -7.190      0.000      0.000
REMARK INTER + INTRA:          -8.717
REMARK INTER:                  -8.451
REMARK INTRA:                  -0.266
REMARK UNBOUND:                -0.266
REMARK SMILES O=c1cc(-c2ccc(O)c(O)c2)oc2cc(O)cc(O)c12
REMARK SMILES IDX 4 1 3 2 2 3 1 4 21 5 19 6 18 7 16 8 15 9 14 10 13 11 5 12
REMARK SMILES IDX 6 13 7 14 8 15 12 16 10 17 9 18 11 20 20 22 17 24
REMARK H PARENT 9 19 11 21 20 23 17 25
REMARK Flexibility Score: inf
ROOT
ATOM      1  C   UNL     1       5.613  14.441  18.340  1.00  0.00     0.138 A 
ATOM      2  C   UNL     1       5.830  13.207  17.713  1.00  0.00     0.100 A 
ATOM      3  C   UNL     1       5.471  13.039  16.375  1.00  0.00     0.197 A 
ATOM      4  O   UNL     1       5.627  11.902  15.858  1.00  0.00    -0.289 OA
ATOM      5  C   UNL     1       4.925  14.125  15.651  1.00  0.00     0.107 A 
ATOM      6  C   UNL     1       4.552  14.082  14.274  1.00  0.00     0.134 A 
ATOM      7  C   UNL     1       3.929  15.193  13.691  1.00  0.00     0.093 A 
ATOM      8  C   UNL     1       3.718  16.366  14.420  1.00  0.00     0.123 A 
ATOM      9  C   UNL     1       4.123  16.436  15.751  1.00  0.00     0.094 A 
ATOM     10  C   UNL     1       4.715  15.332  16.371  1.00  0.00     0.146 A 
ATOM     11  O   UNL     1       5.070  15.437  17.648  1.00  0.00    -0.456 OA
ENDROOT
BRANCH   1  12
ATOM     12  C   UNL     1       5.980  14.676  19.759  1.00  0.00     0.021 A 
ATOM     13  C   UNL     1       7.313  14.978  20.088  1.00  0.00     0.016 A 
ATOM     14  C   UNL     1       7.683  15.212  21.414  1.00  0.00     0.051 A 
ATOM     15  C   UNL     1       6.726  15.157  22.435  1.00  0.00     0.157 A 
ATOM     16  C   UNL     1       5.020  14.636  20.789  1.00  0.00     0.062 A 
ATOM     17  C   UNL     1       5.389  14.871  22.120  1.00  0.00     0.158 A 
BRANCH  15  18
ATOM     18  O   UNL     1       7.099  15.388  23.758  1.00  0.00    -0.504 OA
ATOM     19  H   UNL     1       6.419  15.648  24.464  1.00  0.00     0.293 HD
ENDBRANCH  15  18
BRANCH  17  20
ATOM     20  O   UNL     1       4.409  14.820  23.112  1.00  0.00    -0.504 OA
ATOM     21  H   UNL     1       3.595  15.423  23.096  1.00  0.00     0.293 HD
ENDBRANCH  17  20
ENDBRANCH   1  12
BRANCH   6  22
ATOM     22  O   UNL     1       4.789  12.991  13.432  1.00  0.00    -0.507 OA
ATOM     23  H   UNL     1       5.257  13.038  12.539  1.00  0.00     0.293 HD
ENDBRANCH   6  22
BRANCH   8  24
ATOM     24  O   UNL     1       3.111  17.471  13.828  1.00  0.00    -0.508 OA
ATOM     25  H   UNL     1       3.655  18.252  13.481  1.00  0.00     0.293 HD
ENDBRANCH   8  24
TORSDOF 5
ENDMDL
MODEL 2
REMARK VINA RESULT:    -7.173      1.251      3.138
REMARK INTER + INTRA:          -8.698
REMARK INTER:                  -8.434
REMARK INTRA:                  -0.264
REMARK UNBOUND:                -0.266
REMARK SMILES O=c1cc(-c2ccc(O)c(O)c2)oc2cc(O)cc(O)c12
REMARK SMILES IDX 4 1 3 2 2 3 1 4 21 5 19 6 18 7 16 8 15 9 14 10 13 11 5 12
REMARK SMILES IDX 6 13 7 14 8 15 12 16 10 17 9 18 11 20 20 22 17 24
REMARK H PARENT 9 19 11 21 20 23 17 25
REMARK Flexibility Score: inf
ROOT
ATOM      1  C   UNL     1       5.266  15.884  18.685  1.00  0.00     0.138 A 
ATOM      2  C   UNL     1       4.693  17.117  18.344  1.00  0.00     0.100 A 
ATOM      3  C   UNL     1       4.197  17.317  17.055  1.00  0.00     0.197 A 
ATOM      4  O   UNL     1       3.741  18.452  16.765  1.00  0.00    -0.289 OA
ATOM      5  C   UNL     1       4.243  16.261  16.113  1.00  0.00     0.107 A 
ATOM      6  C   UNL     1       3.738  16.337  14.780  1.00  0.00     0.134 A 
ATOM      7  C   UNL     1       3.929  15.259  13.906  1.00  0.00     0.093 A 
ATOM      8  C   UNL     1       4.555  14.086  14.335  1.00  0.00     0.123 A 
ATOM      9  C   UNL     1       5.007  13.983  15.648  1.00  0.00     0.094 A 
ATOM     10  C   UNL     1       4.863  15.054  16.534  1.00  0.00     0.146 A 
ATOM     11  O   UNL     1       5.325  14.919  17.773  1.00  0.00    -0.456 OA
ENDROOT
BRANCH   1  12
ATOM     12  C   UNL     1       5.805  15.616  20.042  1.00  0.00     0.021 A 
ATOM     13  C   UNL     1       4.960  15.076  21.027  1.00  0.00     0.016 A 
ATOM     14  C   UNL     1       5.444  14.807  22.309  1.00  0.00     0.051 A 
ATOM     15  C   UNL     1       6.783  15.065  22.628  1.00  0.00     0.157 A 
ATOM     16  C   UNL     1       7.154  15.860  20.365  1.00  0.00     0.062 A 
ATOM     17  C   UNL     1       7.641  15.590  21.650  1.00  0.00     0.158 A 
BRANCH  15  18
ATOM     18  O   UNL     1       7.262  14.797  23.909  1.00  0.00    -0.504 OA
ATOM     19  H   UNL     1       8.096  15.248  24.269  1.00  0.00     0.293 HD
ENDBRANCH  15  18
BRANCH  17  20
ATOM     20  O   UNL     1       8.983  15.847  21.932  1.00  0.00    -0.504 OA
ATOM     21  H   UNL     1       9.272  16.630  22.506  1.00  0.00     0.293 HD
ENDBRANCH  17  20
ENDBRANCH   1  12
BRANCH   6  22
ATOM     22  O   UNL     1       3.026  17.429  14.272  1.00  0.00    -0.507 OA
ATOM     23  H   UNL     1       3.418  18.161  13.700  1.00  0.00     0.293 HD
ENDBRANCH   6  22
BRANCH   8  24
ATOM     24  O   UNL     1       4.727  13.013  13.463  1.00  0.00    -0.508 OA
ATOM     25  H   UNL     1       5.437  13.026  12.740  1.00  0.00     0.293 HD
ENDBRANCH   8  24
TORSDOF 5
ENDMDL
MODEL 3
REMARK VINA RESULT:    -6.925      1.690      2.592
REMARK INTER + INTRA:          -8.406
REMARK INTER:                  -8.142
REMARK INTRA:                  -0.265
REMARK UNBOUND:                -0.266
REMARK SMILES O=c1cc(-c2ccc(O)c(O)c2)oc2cc(O)cc(O)c12
REMARK SMILES IDX 4 1 3 2 2 3 1 4 21 5 19 6 18 7 16 8 15 9 14 10 13 11 5 12
REMARK SMILES IDX 6 13 7 14 8 15 12 16 10 17 9 18 11 20 20 22 17 24
REMARK H PARENT 9 19 11 21 20 23 17 25
REMARK Flexibility Score: inf
ROOT
ATOM      1  C   UNL     1       5.452  15.891  18.615  1.00  0.00     0.138 A 
ATOM      2  C   UNL     1       5.429  14.909  17.615  1.00  0.00     0.100 A 
ATOM      3  C   UNL     1       4.960  15.231  16.340  1.00  0.00     0.197 A 
ATOM      4  O   UNL     1       4.899  14.313  15.482  1.00  0.00    -0.289 OA
ATOM      5  C   UNL     1       4.545  16.554  16.056  1.00  0.00     0.107 A 
ATOM      6  C   UNL     1       4.080  17.007  14.786  1.00  0.00     0.134 A 
ATOM      7  C   UNL     1       3.602  18.318  14.652  1.00  0.00     0.093 A 
ATOM      8  C   UNL     1       3.628  19.208  15.728  1.00  0.00     0.123 A 
ATOM      9  C   UNL     1       4.127  18.791  16.959  1.00  0.00     0.094 A 
ATOM     10  C   UNL     1       4.577  17.480  17.135  1.00  0.00     0.146 A 
ATOM     11  O   UNL     1       5.028  17.119  18.332  1.00  0.00    -0.456 OA
ENDROOT
BRANCH   1  12
ATOM     12  C   UNL     1       5.944  15.605  19.985  1.00  0.00     0.021 A 
ATOM     13  C   UNL     1       5.062  15.066  20.937  1.00  0.00     0.016 A 
ATOM     14  C   UNL     1       5.501  14.780  22.232  1.00  0.00     0.051 A 
ATOM     15  C   UNL     1       6.832  15.018  22.596  1.00  0.00     0.157 A 
ATOM     16  C   UNL     1       7.285  15.830  20.354  1.00  0.00     0.062 A 
ATOM     17  C   UNL     1       7.728  15.542  21.651  1.00  0.00     0.158 A 
BRANCH  15  18
ATOM     18  O   UNL     1       7.267  14.734  23.889  1.00  0.00    -0.504 OA
ATOM     19  H   UNL     1       6.719  14.991  24.702  1.00  0.00     0.293 HD
ENDBRANCH  15  18
BRANCH  17  20
ATOM     20  O   UNL     1       9.063  15.781  21.978  1.00  0.00    -0.504 OA
ATOM     21  H   UNL     1       9.770  15.938  21.271  1.00  0.00     0.293 HD
ENDBRANCH  17  20
ENDBRANCH   1  12
BRANCH   6  22
ATOM     22  O   UNL     1       4.085  16.227  13.625  1.00  0.00    -0.507 OA
ATOM     23  H   UNL     1       3.673  16.495  12.744  1.00  0.00     0.293 HD
ENDBRANCH   6  22
BRANCH   8  24
ATOM     24  O   UNL     1       3.165  20.513  15.581  1.00  0.00    -0.508 OA
ATOM     25  H   UNL     1       3.799  21.304  15.585  1.00  0.00     0.293 HD
ENDBRANCH   8  24
TORSDOF 5
ENDMDL
MODEL 4
REMARK VINA RESULT:    -6.896      2.481      7.233
REMARK INTER + INTRA:          -8.372
REMARK INTER:                  -8.098
REMARK INTRA:                  -0.274
REMARK UNBOUND:                -0.266
REMARK SMILES O=c1cc(-c2ccc(O)c(O)c2)oc2cc(O)cc(O)c12
REMARK SMILES IDX 4 1 3 2 2 3 1 4 21 5 19 6 18 7 16 8 15 9 14 10 13 11 5 12
REMARK SMILES IDX 6 13 7 14 8 15 12 16 10 17 9 18 11 20 20 22 17 24
REMARK H PARENT 9 19 11 21 20 23 17 25
REMARK Flexibility Score: inf
ROOT
ATOM      1  C   UNL     1       4.337  16.644  18.244  1.00  0.00     0.138 A 
ATOM      2  C   UNL     1       3.334  15.912  18.893  1.00  0.00     0.100 A 
ATOM      3  C   UNL     1       3.601  15.318  20.128  1.00  0.00     0.197 A 
ATOM      4  O   UNL     1       2.697  14.621  20.657  1.00  0.00    -0.289 OA
ATOM      5  C   UNL     1       4.870  15.489  20.731  1.00  0.00     0.107 A 
ATOM      6  C   UNL     1       5.246  14.958  22.002  1.00  0.00     0.134 A 
ATOM      7  C   UNL     1       6.564  15.110  22.451  1.00  0.00     0.093 A 
ATOM      8  C   UNL     1       7.503  15.823  21.702  1.00  0.00     0.123 A 
ATOM      9  C   UNL     1       7.133  16.388  20.485  1.00  0.00     0.094 A 
ATOM     10  C   UNL     1       5.836  16.223  19.992  1.00  0.00     0.146 A 
ATOM     11  O   UNL     1       5.531  16.764  18.817  1.00  0.00    -0.456 OA
ENDROOT
BRANCH   1  12
ATOM     12  C   UNL     1       4.107  17.300  16.932  1.00  0.00     0.021 A 
ATOM     13  C   UNL     1       4.456  18.651  16.765  1.00  0.00     0.016 A 
ATOM     14  C   UNL     1       4.257  19.290  15.539  1.00  0.00     0.051 A 
ATOM     15  C   UNL     1       3.714  18.588  14.456  1.00  0.00     0.157 A 
ATOM     16  C   UNL     1       3.574  16.596  15.834  1.00  0.00     0.062 A 
ATOM     17  C   UNL     1       3.375  17.235  14.604  1.00  0.00     0.158 A 
BRANCH  15  18
ATOM     18  O   UNL     1       3.515  19.229  13.234  1.00  0.00    -0.504 OA
ATOM     19  H   UNL     1       3.650  18.747  12.353  1.00  0.00     0.293 HD
ENDBRANCH  15  18
BRANCH  17  20
ATOM     20  O   UNL     1       2.844  16.504  13.541  1.00  0.00    -0.504 OA
ATOM     21  H   UNL     1       3.264  15.640  13.219  1.00  0.00     0.293 HD
ENDBRANCH  17  20
ENDBRANCH   1  12
BRANCH   6  22
ATOM     22  O   UNL     1       4.367  14.299  22.867  1.00  0.00    -0.507 OA
ATOM     23  H   UNL     1       3.413  14.055  22.649  1.00  0.00     0.293 HD
ENDBRANCH   6  22
BRANCH   8  24
ATOM     24  O   UNL     1       8.807  15.981  22.165  1.00  0.00    -0.508 OA
ATOM     25  H   UNL     1       9.277  16.879  22.130  1.00  0.00     0.293 HD
ENDBRANCH   8  24
TORSDOF 5
ENDMDL
MODEL 5
REMARK VINA RESULT:    -6.744      1.877      6.948
REMARK INTER + INTRA:          -8.194
REMARK INTER:                  -7.899
REMARK INTRA:                  -0.295
REMARK UNBOUND:                -0.266
REMARK SMILES O=c1cc(-c2ccc(O)c(O)c2)oc2cc(O)cc(O)c12
REMARK SMILES IDX 4 1 3 2 2 3 1 4 21 5 19 6 18 7 16 8 15 9 14 10 13 11 5 12
REMARK SMILES IDX 6 13 7 14 8 15 12 16 10 17 9 18 11 20 20 22 17 24
REMARK H PARENT 9 19 11 21 20 23 17 25
REMARK Flexibility Score: inf
ROOT
ATOM      1  C   UNL     1       4.363  15.673  15.659  1.00  0.00     0.138 A 
ATOM      2  C   UNL     1       4.753  14.380  15.282  1.00  0.00     0.100 A 
ATOM      3  C   UNL     1       5.006  13.421  16.263  1.00  0.00     0.197 A 
ATOM      4  O   UNL     1       5.408  12.288  15.894  1.00  0.00    -0.289 OA
ATOM      5  C   UNL     1       4.833  13.748  17.629  1.00  0.00     0.107 A 
ATOM      6  C   UNL     1       5.028  12.843  18.715  1.00  0.00     0.134 A 
ATOM      7  C   UNL     1       4.922  13.311  20.032  1.00  0.00     0.093 A 
ATOM      8  C   UNL     1       4.570  14.636  20.301  1.00  0.00     0.123 A 
ATOM      9  C   UNL     1       4.328  15.514  19.248  1.00  0.00     0.094 A 
ATOM     10  C   UNL     1       4.460  15.088  17.923  1.00  0.00     0.146 A 
ATOM     11  O   UNL     1       4.238  15.965  16.950  1.00  0.00    -0.456 OA
ENDROOT
BRANCH   1  12
ATOM     12  C   UNL     1       4.078  16.730  14.658  1.00  0.00     0.021 A 
ATOM     13  C   UNL     1       4.010  18.072  15.070  1.00  0.00     0.016 A 
ATOM     14  C   UNL     1       3.751  19.088  14.147  1.00  0.00     0.051 A 
ATOM     15  C   UNL     1       3.564  18.782  12.794  1.00  0.00     0.157 A 
ATOM     16  C   UNL     1       3.902  16.431  13.292  1.00  0.00     0.062 A 
ATOM     17  C   UNL     1       3.644  17.448  12.365  1.00  0.00     0.158 A 
BRANCH  15  18
ATOM     18  O   UNL     1       3.304  19.798  11.875  1.00  0.00    -0.504 OA
ATOM     19  H   UNL     1       3.560  19.709  10.898  1.00  0.00     0.293 HD
ENDBRANCH  15  18
BRANCH  17  20
ATOM     20  O   UNL     1       3.473  17.111  11.022  1.00  0.00    -0.504 OA
ATOM     21  H   UNL     1       2.607  16.722  10.670  1.00  0.00     0.293 HD
ENDBRANCH  17  20
ENDBRANCH   1  12
BRANCH   6  22
ATOM     22  O   UNL     1       5.304  11.481  18.561  1.00  0.00    -0.507 OA
ATOM     23  H   UNL     1       5.009  10.754  19.194  1.00  0.00     0.293 HD
ENDBRANCH   6  22
BRANCH   8  24
ATOM     24  O   UNL     1       4.452  15.087  21.613  1.00  0.00    -0.508 OA
ATOM     25  H   UNL     1       3.878  14.600  22.291  1.00  0.00     0.293 HD
ENDBRANCH   8  24
TORSDOF 5
ENDMDL
MODEL 6
REMARK VINA RESULT:    -6.690      1.998      7.278
REMARK INTER + INTRA:          -8.129
REMARK INTER:                  -7.857
REMARK INTRA:                  -0.272
REMARK UNBOUND:                -0.266
REMARK SMILES O=c1cc(-c2ccc(O)c(O)c2)oc2cc(O)cc(O)c12
REMARK SMILES IDX 4 1 3 2 2 3 1 4 21 5 19 6 18 7 16 8 15 9 14 10 13 11 5 12
REMARK SMILES IDX 6 13 7 14 8 15 12 16 10 17 9 18 11 20 20 22 17 24
REMARK H PARENT 9 19 11 21 20 23 17 25
REMARK Flexibility Score: inf
ROOT
ATOM      1  C   UNL     1       5.251  16.392  17.648  1.00  0.00     0.138 A 
ATOM      2  C   UNL     1       6.387  17.075  18.106  1.00  0.00     0.100 A 
ATOM      3  C   UNL     1       6.826  16.886  19.418  1.00  0.00     0.197 A 
ATOM      4  O   UNL     1       7.814  17.556  19.814  1.00  0.00    -0.289 OA
ATOM      5  C   UNL     1       6.143  15.979  20.264  1.00  0.00     0.107 A 
ATOM      6  C   UNL     1       6.518  15.680  21.608  1.00  0.00     0.134 A 
ATOM      7  C   UNL     1       5.706  14.840  22.381  1.00  0.00     0.093 A 
ATOM      8  C   UNL     1       4.565  14.242  21.840  1.00  0.00     0.123 A 
ATOM      9  C   UNL     1       4.218  14.488  20.514  1.00  0.00     0.094 A 
ATOM     10  C   UNL     1       4.988  15.350  19.727  1.00  0.00     0.146 A 
ATOM     11  O   UNL     1       4.610  15.570  18.473  1.00  0.00    -0.456 OA
ENDROOT
BRANCH   1  12
ATOM     12  C   UNL     1       4.744  16.553  16.263  1.00  0.00     0.021 A 
ATOM     13  C   UNL     1       4.533  15.413  15.468  1.00  0.00     0.016 A 
ATOM     14  C   UNL     1       4.049  15.535  14.164  1.00  0.00     0.051 A 
ATOM     15  C   UNL     1       3.757  16.798  13.634  1.00  0.00     0.157 A 
ATOM     16  C   UNL     1       4.435  17.819  15.728  1.00  0.00     0.062 A 
ATOM     17  C   UNL     1       3.948  17.944  14.421  1.00  0.00     0.158 A 
BRANCH  15  18
ATOM     18  O   UNL     1       3.275  16.917  12.331  1.00  0.00    -0.504 OA
ATOM     19  H   UNL     1       3.830  16.631  11.532  1.00  0.00     0.293 HD
ENDBRANCH  15  18
BRANCH  17  20
ATOM     20  O   UNL     1       3.656  19.215  13.927  1.00  0.00    -0.504 OA
ATOM     21  H   UNL     1       3.041  19.854  14.416  1.00  0.00     0.293 HD
ENDBRANCH  17  20
ENDBRANCH   1  12
BRANCH   6  22
ATOM     22  O   UNL     1       7.680  16.158  22.223  1.00  0.00    -0.507 OA
ATOM     23  H   UNL     1       8.595  16.174  21.800  1.00  0.00     0.293 HD
ENDBRANCH   6  22
BRANCH   8  24
ATOM     24  O   UNL     1       3.773  13.396  22.612  1.00  0.00    -0.508 OA
ATOM     25  H   UNL     1       3.145  13.758  23.321  1.00  0.00     0.293 HD
ENDBRANCH   8  24
TORSDOF 5
ENDMDL
MODEL 7
REMARK VINA RESULT:    -6.503      3.819      5.699
REMARK INTER + INTRA:          -7.910
REMARK INTER:                  -7.626
REMARK INTRA:                  -0.284
REMARK UNBOUND:                -0.266
REMARK SMILES O=c1cc(-c2ccc(O)c(O)c2)oc2cc(O)cc(O)c12
REMARK SMILES IDX 4 1 3 2 2 3 1 4 21 5 19 6 18 7 16 8 15 9 14 10 13 11 5 12
REMARK SMILES IDX 6 13 7 14 8 15 12 16 10 17 9 18 11 20 20 22 17 24
REMARK H PARENT 9 19 11 21 20 23 17 25
REMARK Flexibility Score: inf
ROOT
ATOM      1  C   UNL     1       3.763  12.690  20.795  1.00  0.00     0.138 A 
ATOM      2  C   UNL     1       3.293  12.867  19.486  1.00  0.00     0.100 A 
ATOM      3  C   UNL     1       3.785  13.919  18.712  1.00  0.00     0.197 A 
ATOM      4  O   UNL     1       3.302  14.083  17.562  1.00  0.00    -0.289 OA
ATOM      5  C   UNL     1       4.778  14.777  19.240  1.00  0.00     0.107 A 
ATOM      6  C   UNL     1       5.378  15.862  18.532  1.00  0.00     0.134 A 
ATOM      7  C   UNL     1       6.280  16.704  19.194  1.00  0.00     0.093 A 
ATOM      8  C   UNL     1       6.649  16.465  20.521  1.00  0.00     0.123 A 
ATOM      9  C   UNL     1       6.109  15.380  21.205  1.00  0.00     0.094 A 
ATOM     10  C   UNL     1       5.178  14.542  20.583  1.00  0.00     0.146 A 
ATOM     11  O   UNL     1       4.673  13.529  21.279  1.00  0.00    -0.456 OA
ENDROOT
BRANCH   1  12
ATOM     12  C   UNL     1       3.278  11.586  21.661  1.00  0.00     0.021 A 
ATOM     13  C   UNL     1       3.110  11.812  23.038  1.00  0.00     0.016 A 
ATOM     14  C   UNL     1       2.648  10.793  23.874  1.00  0.00     0.051 A 
ATOM     15  C   UNL     1       2.336   9.534  23.348  1.00  0.00     0.157 A 
ATOM     16  C   UNL     1       2.949  10.321  21.136  1.00  0.00     0.062 A 
ATOM     17  C   UNL     1       2.484   9.299  21.972  1.00  0.00     0.158 A 
BRANCH  15  18
ATOM     18  O   UNL     1       1.877   8.518  24.185  1.00  0.00    -0.504 OA
ATOM     19  H   UNL     1       1.909   8.607  25.195  1.00  0.00     0.293 HD
ENDBRANCH  15  18
BRANCH  17  20
ATOM     20  O   UNL     1       2.171   8.059  21.415  1.00  0.00    -0.504 OA
ATOM     21  H   UNL     1       2.668   7.214  21.669  1.00  0.00     0.293 HD
ENDBRANCH  17  20
ENDBRANCH   1  12
BRANCH   6  22
ATOM     22  O   UNL     1       5.142  16.143  17.182  1.00  0.00    -0.507 OA
ATOM     23  H   UNL     1       5.816  16.029  16.440  1.00  0.00     0.293 HD
ENDBRANCH   6  22
BRANCH   8  24
ATOM     24  O   UNL     1       7.559  17.299  21.165  1.00  0.00    -0.508 OA
ATOM     25  H   UNL     1       8.116  17.974  20.653  1.00  0.00     0.293 HD
ENDBRANCH   8  24
TORSDOF 5
ENDMDL
MODEL 8
REMARK VINA RESULT:    -6.484      3.585      4.979
REMARK INTER + INTRA:          -7.888
REMARK INTER:                  -7.596
REMARK INTRA:                  -0.292
REMARK UNBOUND:                -0.266
REMARK SMILES O=c1cc(-c2ccc(O)c(O)c2)oc2cc(O)cc(O)c12
REMARK SMILES IDX 4 1 3 2 2 3 1 4 21 5 19 6 18 7 16 8 15 9 14 10 13 11 5 12
REMARK SMILES IDX 6 13 7 14 8 15 12 16 10 17 9 18 11 20 20 22 17 24
REMARK H PARENT 9 19 11 21 20 23 17 25
REMARK Flexibility Score: inf
ROOT
ATOM      1  C   UNL     1       4.310  15.131  16.374  1.00  0.00     0.138 A 
ATOM      2  C   UNL     1       4.288  16.275  17.185  1.00  0.00     0.100 A 
ATOM      3  C   UNL     1       4.120  17.532  16.603  1.00  0.00     0.197 A 
ATOM      4  O   UNL     1       4.161  18.541  17.352  1.00  0.00    -0.289 OA
ATOM      5  C   UNL     1       3.936  17.641  15.203  1.00  0.00     0.107 A 
ATOM      6  C   UNL     1       3.722  18.865  14.503  1.00  0.00     0.134 A 
ATOM      7  C   UNL     1       3.653  18.858  13.104  1.00  0.00     0.093 A 
ATOM      8  C   UNL     1       3.731  17.663  12.384  1.00  0.00     0.123 A 
ATOM      9  C   UNL     1       3.890  16.456  13.061  1.00  0.00     0.094 A 
ATOM     10  C   UNL     1       3.999  16.434  14.455  1.00  0.00     0.146 A 
ATOM     11  O   UNL     1       4.168  15.263  15.059  1.00  0.00    -0.456 OA
ENDROOT
BRANCH   1  12
ATOM     12  C   UNL     1       4.483  13.770  16.940  1.00  0.00     0.021 A 
ATOM     13  C   UNL     1       3.724  13.387  18.060  1.00  0.00     0.016 A 
ATOM     14  C   UNL     1       3.861  12.110  18.608  1.00  0.00     0.051 A 
ATOM     15  C   UNL     1       4.751  11.189  18.041  1.00  0.00     0.157 A 
ATOM     16  C   UNL     1       5.366  12.835  16.367  1.00  0.00     0.062 A 
ATOM     17  C   UNL     1       5.503  11.553  16.914  1.00  0.00     0.158 A 
BRANCH  15  18
ATOM     18  O   UNL     1       4.887   9.915  18.591  1.00  0.00    -0.504 OA
ATOM     19  H   UNL     1       4.412   9.654  19.448  1.00  0.00     0.293 HD
ENDBRANCH  15  18
BRANCH  17  20
ATOM     20  O   UNL     1       6.390  10.655  16.318  1.00  0.00    -0.504 OA
ATOM     21  H   UNL     1       6.599   9.753  16.729  1.00  0.00     0.293 HD
ENDBRANCH  17  20
ENDBRANCH   1  12
BRANCH   6  22
ATOM     22  O   UNL     1       3.549  20.105  15.126  1.00  0.00    -0.507 OA
ATOM     23  H   UNL     1       2.692  20.427  15.549  1.00  0.00     0.293 HD
ENDBRANCH   6  22
BRANCH   8  24
ATOM     24  O   UNL     1       3.646  17.664  10.994  1.00  0.00    -0.508 OA
ATOM     25  H   UNL     1       4.429  17.943  10.415  1.00  0.00     0.293 HD
ENDBRANCH   8  24
TORSDOF 5
ENDMDL
MODEL 9
REMARK VINA RESULT:    -6.329      3.641      4.979
REMARK INTER + INTRA:          -7.705
REMARK INTER:                  -7.388
REMARK INTRA:                  -0.317
REMARK UNBOUND:                -0.266
REMARK SMILES O=c1cc(-c2ccc(O)c(O)c2)oc2cc(O)cc(O)c12
REMARK SMILES IDX 4 1 3 2 2 3 1 4 21 5 19 6 18 7 16 8 15 9 14 10 13 11 5 12
REMARK SMILES IDX 6 13 7 14 8 15 12 16 10 17 9 18 11 20 20 22 17 24
REMARK H PARENT 9 19 11 21 20 23 17 25
REMARK Flexibility Score: inf
ROOT
ATOM      1  C   UNL     1       3.516  12.720  20.006  1.00  0.00     0.138 A 
ATOM      2  C   UNL     1       3.623  14.077  20.343  1.00  0.00     0.100 A 
ATOM      3  C   UNL     1       3.995  15.004  19.369  1.00  0.00     0.197 A 
ATOM      4  O   UNL     1       4.136  16.204  19.717  1.00  0.00    -0.289 OA
ATOM      5  C   UNL     1       4.228  14.574  18.040  1.00  0.00     0.107 A 
ATOM      6  C   UNL     1       4.581  15.432  16.956  1.00  0.00     0.134 A 
ATOM      7  C   UNL     1       4.884  14.877  15.706  1.00  0.00     0.093 A 
ATOM      8  C   UNL     1       4.790  13.501  15.486  1.00  0.00     0.123 A 
ATOM      9  C   UNL     1       4.398  12.659  16.524  1.00  0.00     0.094 A 
ATOM     10  C   UNL     1       4.124  13.178  17.793  1.00  0.00     0.146 A 
ATOM     11  O   UNL     1       3.771  12.337  18.759  1.00  0.00    -0.456 OA
ENDROOT
BRANCH   1  12
ATOM     12  C   UNL     1       3.120  11.693  21.001  1.00  0.00     0.021 A 
ATOM     13  C   UNL     1       3.010  12.050  22.356  1.00  0.00     0.016 A 
ATOM     14  C   UNL     1       2.632  11.104  23.312  1.00  0.00     0.051 A 
ATOM     15  C   UNL     1       2.347   9.787  22.930  1.00  0.00     0.157 A 
ATOM     16  C   UNL     1       2.819  10.370  20.622  1.00  0.00     0.062 A 
ATOM     17  C   UNL     1       2.438   9.421  21.578  1.00  0.00     0.158 A 
BRANCH  15  18
ATOM     18  O   UNL     1       1.971   8.846  23.886  1.00  0.00    -0.504 OA
ATOM     19  H   UNL     1       1.000   8.703  24.139  1.00  0.00     0.293 HD
ENDBRANCH  15  18
BRANCH  17  20
ATOM     20  O   UNL     1       2.150   8.120  21.163  1.00  0.00    -0.504 OA
ATOM     21  H   UNL     1       1.359   7.603  21.527  1.00  0.00     0.293 HD
ENDBRANCH  17  20
ENDBRANCH   1  12
BRANCH   6  22
ATOM     22  O   UNL     1       4.627  16.827  17.044  1.00  0.00    -0.507 OA
ATOM     23  H   UNL     1       5.313  17.354  17.562  1.00  0.00     0.293 HD
ENDBRANCH   6  22
BRANCH   8  24
ATOM     24  O   UNL     1       5.078  12.960  14.235  1.00  0.00    -0.508 OA
ATOM     25  H   UNL     1       5.291  13.550  13.439  1.00  0.00     0.293 HD
ENDBRANCH   8  24
TORSDOF 5
ENDMDL
