MODEL 1
REMARK VINA RESULT:    -3.474      0.000      0.000
REMARK INTER + INTRA:          -4.470
REMARK INTER:                  -4.388
REMARK INTRA:                  -0.083
REMARK UNBOUND:                -0.083
REMARK SMILES CCCCCCO
REMARK SMILES IDX 4 1 3 2 2 3 1 4 5 5 6 6 7 7
REMARK H PARENT 7 8
REMARK Flexibility Score: inf
ROOT
ATOM      1  C   UNL     1      -1.019  21.347  26.111  1.00  0.00     0.002 C 
ENDROOT
BRANCH   1   2
ATOM      2  C   UNL     1      -1.846  21.230  27.404  1.00  0.00    -0.000 C 
BRANCH   2   3
ATOM      3  C   UNL     1      -3.338  21.520  27.188  1.00  0.00    -0.003 C 
ATOM      4  C   UNL     1      -3.771  22.768  27.951  1.00  0.00     0.004 C 
ENDBRANCH   2   3
ENDBRANCH   1   2
BRANCH   1   5
ATOM      5  C   UNL     1      -0.231  22.661  25.960  1.00  0.00     0.028 C 
BRANCH   5   6
ATOM      6  C   UNL     1      -0.036  23.079  24.501  1.00  0.00     0.156 C 
BRANCH   6   7
ATOM      7  O   UNL     1       1.329  23.054  24.190  1.00  0.00    -0.396 OA
ATOM      8  H   UNL     1       1.592  23.998  24.030  1.00  0.00     0.210 HD
ENDBRANCH   6   7
ENDBRANCH   5   6
ENDBRANCH   1   5
TORSDOF 5
ENDMDL
MODEL 2
REMARK VINA RESULT:    -3.397      0.586      1.195
REMARK INTER + INTRA:          -4.373
REMARK INTER:                  -4.261
REMARK INTRA:                  -0.112
REMARK UNBOUND:                -0.083
REMARK SMILES CCCCCCO
REMARK SMILES IDX 4 1 3 2 2 3 1 4 5 5 6 6 7 7
REMARK H PARENT 7 8
REMARK Flexibility Score: inf
ROOT
ATOM      1  C   UNL     1      -0.462  22.630  26.123  1.00  0.00     0.002 C 
ENDROOT
BRANCH   1   2
ATOM      2  C   UNL     1      -1.128  21.247  26.237  1.00  0.00    -0.000 C 
BRANCH   2   3
ATOM      3  C   UNL     1      -1.972  21.093  27.511  1.00  0.00    -0.003 C 
ATOM      4  C   UNL     1      -3.172  22.036  27.491  1.00  0.00     0.004 C 
ENDBRANCH   2   3
ENDBRANCH   1   2
BRANCH   1   5
ATOM      5  C   UNL     1      -0.753  23.385  24.813  1.00  0.00     0.028 C 
BRANCH   5   6
ATOM      6  C   UNL     1       0.172  22.973  23.666  1.00  0.00     0.156 C 
BRANCH   6   7
ATOM      7  O   UNL     1       1.504  23.070  24.087  1.00  0.00    -0.396 OA
ATOM      8  H   UNL     1       1.977  23.592  23.387  1.00  0.00     0.210 HD
ENDBRANCH   6   7
ENDBRANCH   5   6
ENDBRANCH   1   5
TORSDOF 5
ENDMDL
MODEL 3
REMARK VINA RESULT:    -3.283      8.651      9.644
REMARK INTER + INTRA:          -4.230
REMARK INTER:                  -4.121
REMARK INTRA:                  -0.108
REMARK UNBOUND:                -0.083
REMARK SMILES CCCCCCO
REMARK SMILES IDX 4 1 3 2 2 3 1 4 5 5 6 6 7 7
REMARK H PARENT 7 8
REMARK Flexibility Score: inf
ROOT
ATOM      1  C   UNL     1       2.717  25.563  19.048  1.00  0.00     0.002 C 
ENDROOT
BRANCH   1   2
ATOM      2  C   UNL     1       1.348  26.101  19.500  1.00  0.00    -0.000 C 
BRANCH   2   3
ATOM      3  C   UNL     1       0.902  27.339  18.710  1.00  0.00    -0.003 C 
ATOM      4  C   UNL     1       0.833  28.570  19.610  1.00  0.00     0.004 C 
ENDBRANCH   2   3
ENDBRANCH   1   2
BRANCH   1   5
ATOM      5  C   UNL     1       3.153  26.001  17.637  1.00  0.00     0.028 C 
BRANCH   5   6
ATOM      6  C   UNL     1       4.670  25.958  17.438  1.00  0.00     0.156 C 
BRANCH   6   7
ATOM      7  O   UNL     1       5.257  25.257  18.499  1.00  0.00    -0.396 OA
ATOM      8  H   UNL     1       6.187  25.596  18.572  1.00  0.00     0.210 HD
ENDBRANCH   6   7
ENDBRANCH   5   6
ENDBRANCH   1   5
TORSDOF 5
ENDMDL
MODEL 4
REMARK VINA RESULT:    -3.191      5.123      7.112
REMARK INTER + INTRA:          -4.113
REMARK INTER:                  -4.065
REMARK INTRA:                  -0.048
REMARK UNBOUND:                -0.083
REMARK SMILES CCCCCCO
REMARK SMILES IDX 4 1 3 2 2 3 1 4 5 5 6 6 7 7
REMARK H PARENT 7 8
REMARK Flexibility Score: inf
ROOT
ATOM      1  C   UNL     1       1.211  25.313  19.968  1.00  0.00     0.002 C 
ENDROOT
BRANCH   1   2
ATOM      2  C   UNL     1       0.482  24.078  20.528  1.00  0.00    -0.000 C 
BRANCH   2   3
ATOM      3  C   UNL     1       0.293  24.136  22.050  1.00  0.00    -0.003 C 
ATOM      4  C   UNL     1      -0.180  22.791  22.596  1.00  0.00     0.004 C 
ENDBRANCH   2   3
ENDBRANCH   1   2
BRANCH   1   5
ATOM      5  C   UNL     1       2.747  25.258  20.062  1.00  0.00     0.028 C 
BRANCH   5   6
ATOM      6  C   UNL     1       3.438  25.478  18.715  1.00  0.00     0.156 C 
BRANCH   6   7
ATOM      7  O   UNL     1       4.788  25.125  18.824  1.00  0.00    -0.396 OA
ATOM      8  H   UNL     1       5.306  25.944  18.604  1.00  0.00     0.210 HD
ENDBRANCH   6   7
ENDBRANCH   5   6
ENDBRANCH   1   5
TORSDOF 5
ENDMDL
MODEL 5
REMARK VINA RESULT:    -3.047      1.432      2.477
REMARK INTER + INTRA:          -3.931
REMARK INTER:                  -3.851
REMARK INTRA:                  -0.080
REMARK UNBOUND:                -0.083
REMARK SMILES CCCCCCO
REMARK SMILES IDX 4 1 3 2 2 3 1 4 5 5 6 6 7 7
REMARK H PARENT 7 8
REMARK Flexibility Score: inf
ROOT
ATOM      1  C   UNL     1       0.377  23.081  24.753  1.00  0.00     0.002 C 
ENDROOT
BRANCH   1   2
ATOM      2  C   UNL     1      -0.303  22.650  26.065  1.00  0.00    -0.000 C 
BRANCH   2   3
ATOM      3  C   UNL     1      -1.021  21.298  25.950  1.00  0.00    -0.003 C 
ATOM      4  C   UNL     1      -1.903  21.039  27.168  1.00  0.00     0.004 C 
ENDBRANCH   2   3
ENDBRANCH   1   2
BRANCH   1   5
ATOM      5  C   UNL     1      -0.327  22.603  23.470  1.00  0.00     0.028 C 
BRANCH   5   6
ATOM      6  C   UNL     1      -0.155  23.571  22.297  1.00  0.00     0.156 C 
BRANCH   6   7
ATOM      7  O   UNL     1       1.047  24.274  22.449  1.00  0.00    -0.396 OA
ATOM      8  H   UNL     1       1.383  24.447  21.530  1.00  0.00     0.210 HD
ENDBRANCH   6   7
ENDBRANCH   5   6
ENDBRANCH   1   5
TORSDOF 5
ENDMDL
MODEL 6
REMARK VINA RESULT:    -3.018      2.625      4.270
REMARK INTER + INTRA:          -3.895
REMARK INTER:                  -3.820
REMARK INTRA:                  -0.075
REMARK UNBOUND:                -0.083
REMARK SMILES CCCCCCO
REMARK SMILES IDX 4 1 3 2 2 3 1 4 5 5 6 6 7 7
REMARK H PARENT 7 8
REMARK Flexibility Score: inf
ROOT
ATOM      1  C   UNL     1      -1.644  22.044  26.898  1.00  0.00     0.002 C 
ENDROOT
BRANCH   1   2
ATOM      2  C   UNL     1      -0.645  21.678  25.785  1.00  0.00    -0.000 C 
BRANCH   2   3
ATOM      3  C   UNL     1       0.213  22.869  25.337  1.00  0.00    -0.003 C 
ATOM      4  C   UNL     1       0.182  23.028  23.819  1.00  0.00     0.004 C 
ENDBRANCH   2   3
ENDBRANCH   1   2
BRANCH   1   5
ATOM      5  C   UNL     1      -2.662  20.942  27.245  1.00  0.00     0.028 C 
BRANCH   5   6
ATOM      6  C   UNL     1      -2.737  19.841  26.186  1.00  0.00     0.156 C 
BRANCH   6   7
ATOM      7  O   UNL     1      -2.383  18.616  26.765  1.00  0.00    -0.396 OA
ATOM      8  H   UNL     1      -1.437  18.454  26.511  1.00  0.00     0.210 HD
ENDBRANCH   6   7
ENDBRANCH   5   6
ENDBRANCH   1   5
TORSDOF 5
ENDMDL
MODEL 7
REMARK VINA RESULT:    -2.977      1.886      2.526
REMARK INTER + INTRA:          -3.843
REMARK INTER:                  -3.670
REMARK INTRA:                  -0.173
REMARK UNBOUND:                -0.083
REMARK SMILES CCCCCCO
REMARK SMILES IDX 4 1 3 2 2 3 1 4 5 5 6 6 7 7
REMARK H PARENT 7 8
REMARK Flexibility Score: inf
ROOT
ATOM      1  C   UNL     1      -0.733  23.102  24.912  1.00  0.00     0.002 C 
ENDROOT
BRANCH   1   2
ATOM      2  C   UNL     1      -0.635  22.635  26.376  1.00  0.00    -0.000 C 
BRANCH   2   3
ATOM      3  C   UNL     1      -1.974  22.129  26.931  1.00  0.00    -0.003 C 
ATOM      4  C   UNL     1      -1.884  20.657  27.323  1.00  0.00     0.004 C 
ENDBRANCH   2   3
ENDBRANCH   1   2
BRANCH   1   5
ATOM      5  C   UNL     1      -1.771  22.350  24.058  1.00  0.00     0.028 C 
BRANCH   5   6
ATOM      6  C   UNL     1      -1.151  21.253  23.190  1.00  0.00     0.156 C 
BRANCH   6   7
ATOM      7  O   UNL     1      -0.737  20.194  24.007  1.00  0.00    -0.396 OA
ATOM      8  H   UNL     1       0.209  20.383  24.245  1.00  0.00     0.210 HD
ENDBRANCH   6   7
ENDBRANCH   5   6
ENDBRANCH   1   5
TORSDOF 5
ENDMDL
MODEL 8
REMARK VINA RESULT:    -2.965      7.204      9.072
REMARK INTER + INTRA:          -3.827
REMARK INTER:                  -3.756
REMARK INTRA:                  -0.071
REMARK UNBOUND:                -0.083
REMARK SMILES CCCCCCO
REMARK SMILES IDX 4 1 3 2 2 3 1 4 5 5 6 6 7 7
REMARK H PARENT 7 8
REMARK Flexibility Score: inf
ROOT
ATOM      1  C   UNL     1       2.659  25.220  19.265  1.00  0.00     0.002 C 
ENDROOT
BRANCH   1   2
ATOM      2  C   UNL     1       1.692  26.406  19.429  1.00  0.00    -0.000 C 
BRANCH   2   3
ATOM      3  C   UNL     1       0.341  25.995  20.031  1.00  0.00    -0.003 C 
ATOM      4  C   UNL     1       0.503  24.822  20.995  1.00  0.00     0.004 C 
ENDBRANCH   2   3
ENDBRANCH   1   2
BRANCH   1   5
ATOM      5  C   UNL     1       3.964  25.545  18.514  1.00  0.00     0.028 C 
BRANCH   5   6
ATOM      6  C   UNL     1       3.724  26.115  17.114  1.00  0.00     0.156 C 
BRANCH   6   7
ATOM      7  O   UNL     1       4.908  26.032  16.371  1.00  0.00    -0.396 OA
ATOM      8  H   UNL     1       5.328  26.931  16.421  1.00  0.00     0.210 HD
ENDBRANCH   6   7
ENDBRANCH   5   6
ENDBRANCH   1   5
TORSDOF 5
ENDMDL
MODEL 9
REMARK VINA RESULT:    -2.925      4.267      7.142
REMARK INTER + INTRA:          -3.777
REMARK INTER:                  -3.699
REMARK INTRA:                  -0.078
REMARK UNBOUND:                -0.083
REMARK SMILES CCCCCCO
REMARK SMILES IDX 4 1 3 2 2 3 1 4 5 5 6 6 7 7
REMARK H PARENT 7 8
REMARK Flexibility Score: inf
ROOT
ATOM      1  C   UNL     1       0.364  24.374  20.752  1.00  0.00     0.002 C 
ENDROOT
BRANCH   1   2
ATOM      2  C   UNL     1       0.219  25.788  20.160  1.00  0.00    -0.000 C 
BRANCH   2   3
ATOM      3  C   UNL     1       1.548  26.359  19.647  1.00  0.00    -0.003 C 
ATOM      4  C   UNL     1       2.663  25.321  19.734  1.00  0.00     0.004 C 
ENDBRANCH   2   3
ENDBRANCH   1   2
BRANCH   1   5
ATOM      5  C   UNL     1       0.167  24.285  22.277  1.00  0.00     0.028 C 
BRANCH   5   6
ATOM      6  C   UNL     1      -0.137  22.865  22.760  1.00  0.00     0.156 C 
BRANCH   6   7
ATOM      7  O   UNL     1       0.728  22.538  23.811  1.00  0.00    -0.396 OA
ATOM      8  H   UNL     1       0.178  22.561  24.638  1.00  0.00     0.210 HD
ENDBRANCH   6   7
ENDBRANCH   5   6
ENDBRANCH   1   5
TORSDOF 5
ENDMDL
