MODEL 1
REMARK VINA RESULT:    -5.776      0.000      0.000
REMARK INTER + INTRA:          -6.455
REMARK INTER:                  -6.283
REMARK INTRA:                  -0.172
REMARK UNBOUND:                -0.172
REMARK SMILES C=C(C)[C@H]1CC[C@@H](C)C[C@@H]1O
REMARK SMILES IDX 8 1 7 2 6 3 5 4 4 5 10 6 9 7 11 8 2 10 1 11 3 12
REMARK H PARENT 11 9
REMARK Flexibility Score: inf
ROOT
ATOM      1  C   UNL     1     137.573 125.896 135.124  1.00  0.00     0.008 C 
ATOM      2  C   UNL     1     136.037 125.973 135.105  1.00  0.00    -0.012 C 
ATOM      3  C   UNL     1     135.509 126.772 133.897  1.00  0.00     0.004 C 
ATOM      4  C   UNL     1     135.732 128.283 134.051  1.00  0.00     0.011 C 
ATOM      5  C   UNL     1     135.120 128.806 135.365  1.00  0.00     0.043 C 
ATOM      6  C   UNL     1     135.686 128.041 136.589  1.00  0.00     0.121 C 
ATOM      7  C   UNL     1     135.466 126.527 136.428  1.00  0.00     0.035 C 
ENDROOT
BRANCH   6   8
ATOM      8  O   UNL     1     135.034 128.462 137.760  1.00  0.00    -0.392 OA
ATOM      9  H   UNL     1     135.320 127.852 138.489  1.00  0.00     0.210 HD
ENDBRANCH   6   8
BRANCH   5  10
ATOM     10  C   UNL     1     135.321 130.312 135.494  1.00  0.00    -0.075 C 
ATOM     11  C   UNL     1     136.523 130.875 135.281  1.00  0.00     0.008 C 
ATOM     12  C   UNL     1     134.164 131.200 135.871  1.00  0.00     0.039 C 
ENDBRANCH   5  10
TORSDOF 2
ENDMDL
MODEL 2
REMARK VINA RESULT:    -5.632      1.245      4.058
REMARK INTER + INTRA:          -6.298
REMARK INTER:                  -6.131
REMARK INTRA:                  -0.167
REMARK UNBOUND:                -0.172
REMARK SMILES C=C(C)[C@H]1CC[C@@H](C)C[C@@H]1O
REMARK SMILES IDX 8 1 7 2 6 3 5 4 4 5 10 6 9 7 11 8 2 10 1 11 3 12
REMARK H PARENT 11 9
REMARK Flexibility Score: inf
ROOT
ATOM      1  C   UNL     1     133.449 131.445 135.786  1.00  0.00     0.008 C 
ATOM      2  C   UNL     1     134.478 130.836 136.753  1.00  0.00    -0.012 C 
ATOM      3  C   UNL     1     135.899 130.820 136.156  1.00  0.00     0.004 C 
ATOM      4  C   UNL     1     136.066 129.750 135.068  1.00  0.00     0.011 C 
ATOM      5  C   UNL     1     135.675 128.354 135.594  1.00  0.00     0.043 C 
ATOM      6  C   UNL     1     134.228 128.351 136.149  1.00  0.00     0.121 C 
ATOM      7  C   UNL     1     134.063 129.429 137.234  1.00  0.00     0.035 C 
ENDROOT
BRANCH   6   8
ATOM      8  O   UNL     1     133.935 127.100 136.718  1.00  0.00    -0.392 OA
ATOM      9  H   UNL     1     134.416 127.054 137.585  1.00  0.00     0.210 HD
ENDBRANCH   6   8
BRANCH   5  10
ATOM     10  C   UNL     1     135.872 127.295 134.515  1.00  0.00    -0.075 C 
ATOM     11  C   UNL     1     135.416 127.481 133.264  1.00  0.00     0.008 C 
ATOM     12  C   UNL     1     136.584 126.008 134.841  1.00  0.00     0.039 C 
ENDBRANCH   5  10
TORSDOF 2
ENDMDL
MODEL 3
REMARK VINA RESULT:    -5.316      4.656      5.786
REMARK INTER + INTRA:          -5.954
REMARK INTER:                  -5.805
REMARK INTRA:                  -0.150
REMARK UNBOUND:                -0.172
REMARK SMILES C=C(C)[C@H]1CC[C@@H](C)C[C@@H]1O
REMARK SMILES IDX 8 1 7 2 6 3 5 4 4 5 10 6 9 7 11 8 2 10 1 11 3 12
REMARK H PARENT 11 9
REMARK Flexibility Score: inf
ROOT
ATOM      1  C   UNL     1     129.386 127.138 138.118  1.00  0.00     0.008 C 
ATOM      2  C   UNL     1     130.650 127.259 138.984  1.00  0.00    -0.012 C 
ATOM      3  C   UNL     1     130.500 128.325 140.088  1.00  0.00     0.004 C 
ATOM      4  C   UNL     1     130.563 129.755 139.533  1.00  0.00     0.011 C 
ATOM      5  C   UNL     1     131.853 129.983 138.720  1.00  0.00     0.043 C 
ATOM      6  C   UNL     1     131.984 128.945 137.577  1.00  0.00     0.121 C 
ATOM      7  C   UNL     1     131.915 127.513 138.136  1.00  0.00     0.035 C 
ENDROOT
BRANCH   6   8
ATOM      8  O   UNL     1     133.217 129.106 136.923  1.00  0.00    -0.392 OA
ATOM      9  H   UNL     1     133.802 128.360 137.214  1.00  0.00     0.210 HD
ENDBRANCH   6   8
BRANCH   5  10
ATOM     10  C   UNL     1     131.919 131.414 138.199  1.00  0.00    -0.075 C 
ATOM     11  C   UNL     1     132.649 132.351 138.828  1.00  0.00     0.008 C 
ATOM     12  C   UNL     1     131.156 131.803 136.960  1.00  0.00     0.039 C 
ENDBRANCH   5  10
TORSDOF 2
ENDMDL
MODEL 4
REMARK VINA RESULT:    -5.281      2.365      4.943
REMARK INTER + INTRA:          -5.916
REMARK INTER:                  -5.738
REMARK INTRA:                  -0.178
REMARK UNBOUND:                -0.172
REMARK SMILES C=C(C)[C@H]1CC[C@@H](C)C[C@@H]1O
REMARK SMILES IDX 8 1 7 2 6 3 5 4 4 5 10 6 9 7 11 8 2 10 1 11 3 12
REMARK H PARENT 11 9
REMARK Flexibility Score: inf
ROOT
ATOM      1  C   UNL     1     131.542 130.182 138.687  1.00  0.00     0.008 C 
ATOM      2  C   UNL     1     132.004 131.565 138.200  1.00  0.00    -0.012 C 
ATOM      3  C   UNL     1     131.934 131.694 136.665  1.00  0.00     0.004 C 
ATOM      4  C   UNL     1     133.047 130.907 135.959  1.00  0.00     0.011 C 
ATOM      5  C   UNL     1     134.438 131.317 136.482  1.00  0.00     0.043 C 
ATOM      6  C   UNL     1     134.532 131.140 138.019  1.00  0.00     0.121 C 
ATOM      7  C   UNL     1     133.412 131.925 138.723  1.00  0.00     0.035 C 
ENDROOT
BRANCH   6   8
ATOM      8  O   UNL     1     135.768 131.620 138.482  1.00  0.00    -0.392 OA
ATOM      9  H   UNL     1     136.319 130.829 138.719  1.00  0.00     0.210 HD
ENDBRANCH   6   8
BRANCH   5  10
ATOM     10  C   UNL     1     135.537 130.551 135.754  1.00  0.00    -0.075 C 
ATOM     11  C   UNL     1     135.482 129.215 135.617  1.00  0.00     0.008 C 
ATOM     12  C   UNL     1     136.716 131.288 135.175  1.00  0.00     0.039 C 
ENDBRANCH   5  10
TORSDOF 2
ENDMDL
MODEL 5
REMARK VINA RESULT:    -5.111      4.489      6.270
REMARK INTER + INTRA:          -5.731
REMARK INTER:                  -5.557
REMARK INTRA:                  -0.174
REMARK UNBOUND:                -0.172
REMARK SMILES C=C(C)[C@H]1CC[C@@H](C)C[C@@H]1O
REMARK SMILES IDX 8 1 7 2 6 3 5 4 4 5 10 6 9 7 11 8 2 10 1 11 3 12
REMARK H PARENT 11 9
REMARK Flexibility Score: inf
ROOT
ATOM      1  C   UNL     1     130.662 129.975 139.632  1.00  0.00     0.008 C 
ATOM      2  C   UNL     1     130.469 128.504 140.039  1.00  0.00    -0.012 C 
ATOM      3  C   UNL     1     131.672 127.956 140.833  1.00  0.00     0.004 C 
ATOM      4  C   UNL     1     132.896 127.705 139.941  1.00  0.00     0.011 C 
ATOM      5  C   UNL     1     132.547 126.776 138.762  1.00  0.00     0.043 C 
ATOM      6  C   UNL     1     131.371 127.347 137.929  1.00  0.00     0.121 C 
ATOM      7  C   UNL     1     130.148 127.603 138.827  1.00  0.00     0.035 C 
ENDROOT
BRANCH   6   8
ATOM      8  O   UNL     1     131.004 126.431 136.929  1.00  0.00    -0.392 OA
ATOM      9  H   UNL     1     131.584 126.609 136.143  1.00  0.00     0.210 HD
ENDBRANCH   6   8
BRANCH   5  10
ATOM     10  C   UNL     1     133.776 126.509 137.901  1.00  0.00    -0.075 C 
ATOM     11  C   UNL     1     134.443 125.345 137.980  1.00  0.00     0.008 C 
ATOM     12  C   UNL     1     134.270 127.561 136.941  1.00  0.00     0.039 C 
ENDBRANCH   5  10
TORSDOF 2
ENDMDL
MODEL 6
REMARK VINA RESULT:    -5.058      4.364      5.528
REMARK INTER + INTRA:          -5.674
REMARK INTER:                  -5.522
REMARK INTRA:                  -0.152
REMARK UNBOUND:                -0.172
REMARK SMILES C=C(C)[C@H]1CC[C@@H](C)C[C@@H]1O
REMARK SMILES IDX 8 1 7 2 6 3 5 4 4 5 10 6 9 7 11 8 2 10 1 11 3 12
REMARK H PARENT 11 9
REMARK Flexibility Score: inf
ROOT
ATOM      1  C   UNL     1     131.208 127.513 140.614  1.00  0.00     0.008 C 
ATOM      2  C   UNL     1     130.258 128.297 139.693  1.00  0.00    -0.012 C 
ATOM      3  C   UNL     1     130.255 127.744 138.254  1.00  0.00     0.004 C 
ATOM      4  C   UNL     1     131.535 128.101 137.486  1.00  0.00     0.011 C 
ATOM      5  C   UNL     1     131.782 129.623 137.490  1.00  0.00     0.043 C 
ATOM      6  C   UNL     1     131.838 130.177 138.936  1.00  0.00     0.121 C 
ATOM      7  C   UNL     1     130.556 129.812 139.704  1.00  0.00     0.035 C 
ENDROOT
BRANCH   6   8
ATOM      8  O   UNL     1     131.955 131.577 138.909  1.00  0.00    -0.392 OA
ATOM      9  H   UNL     1     131.083 131.949 139.201  1.00  0.00     0.210 HD
ENDBRANCH   6   8
BRANCH   5  10
ATOM     10  C   UNL     1     133.039 129.969 136.700  1.00  0.00    -0.075 C 
ATOM     11  C   UNL     1     134.175 129.267 136.855  1.00  0.00     0.008 C 
ATOM     12  C   UNL     1     133.028 131.119 135.726  1.00  0.00     0.039 C 
ENDBRANCH   5  10
TORSDOF 2
ENDMDL
MODEL 7
REMARK VINA RESULT:    -5.046      3.854      5.840
REMARK INTER + INTRA:          -5.660
REMARK INTER:                  -5.466
REMARK INTRA:                  -0.194
REMARK UNBOUND:                -0.172
REMARK SMILES C=C(C)[C@H]1CC[C@@H](C)C[C@@H]1O
REMARK SMILES IDX 8 1 7 2 6 3 5 4 4 5 10 6 9 7 11 8 2 10 1 11 3 12
REMARK H PARENT 11 9
REMARK Flexibility Score: inf
ROOT
ATOM      1  C   UNL     1     134.013 131.429 138.322  1.00  0.00     0.008 C 
ATOM      2  C   UNL     1     133.169 131.106 137.078  1.00  0.00    -0.012 C 
ATOM      3  C   UNL     1     131.661 131.309 137.329  1.00  0.00     0.004 C 
ATOM      4  C   UNL     1     131.060 130.205 138.209  1.00  0.00     0.011 C 
ATOM      5  C   UNL     1     131.335 128.808 137.617  1.00  0.00     0.043 C 
ATOM      6  C   UNL     1     132.853 128.577 137.410  1.00  0.00     0.121 C 
ATOM      7  C   UNL     1     133.454 129.689 136.533  1.00  0.00     0.035 C 
ENDROOT
BRANCH   6   8
ATOM      8  O   UNL     1     133.068 127.345 136.773  1.00  0.00    -0.392 OA
ATOM      9  H   UNL     1     134.050 127.209 136.722  1.00  0.00     0.210 HD
ENDBRANCH   6   8
BRANCH   5  10
ATOM     10  C   UNL     1     130.708 127.721 138.483  1.00  0.00    -0.075 C 
ATOM     11  C   UNL     1     129.759 126.903 137.996  1.00  0.00     0.008 C 
ATOM     12  C   UNL     1     131.145 127.548 139.914  1.00  0.00     0.039 C 
ENDBRANCH   5  10
TORSDOF 2
ENDMDL
MODEL 8
REMARK VINA RESULT:    -5.030      1.836      4.393
REMARK INTER + INTRA:          -5.643
REMARK INTER:                  -5.450
REMARK INTRA:                  -0.193
REMARK UNBOUND:                -0.172
REMARK SMILES C=C(C)[C@H]1CC[C@@H](C)C[C@@H]1O
REMARK SMILES IDX 8 1 7 2 6 3 5 4 4 5 10 6 9 7 11 8 2 10 1 11 3 12
REMARK H PARENT 11 9
REMARK Flexibility Score: inf
ROOT
ATOM      1  C   UNL     1     134.606 131.060 138.557  1.00  0.00     0.008 C 
ATOM      2  C   UNL     1     134.049 131.375 137.159  1.00  0.00    -0.012 C 
ATOM      3  C   UNL     1     133.084 130.281 136.658  1.00  0.00     0.004 C 
ATOM      4  C   UNL     1     133.817 128.999 136.241  1.00  0.00     0.011 C 
ATOM      5  C   UNL     1     134.906 129.295 135.190  1.00  0.00     0.043 C 
ATOM      6  C   UNL     1     135.909 130.356 135.708  1.00  0.00     0.121 C 
ATOM      7  C   UNL     1     135.170 131.637 136.131  1.00  0.00     0.035 C 
ENDROOT
BRANCH   6   8
ATOM      8  O   UNL     1     136.824 130.685 134.695  1.00  0.00    -0.392 OA
ATOM      9  H   UNL     1     137.288 129.847 134.436  1.00  0.00     0.210 HD
ENDBRANCH   6   8
BRANCH   5  10
ATOM     10  C   UNL     1     135.607 128.011 134.762  1.00  0.00    -0.075 C 
ATOM     11  C   UNL     1     135.412 127.484 133.541  1.00  0.00     0.008 C 
ATOM     12  C   UNL     1     136.537 127.303 135.713  1.00  0.00     0.039 C 
ENDBRANCH   5  10
TORSDOF 2
ENDMDL
MODEL 9
REMARK VINA RESULT:    -4.970      4.714      6.706
REMARK INTER + INTRA:          -5.578
REMARK INTER:                  -5.399
REMARK INTRA:                  -0.179
REMARK UNBOUND:                -0.172
REMARK SMILES C=C(C)[C@H]1CC[C@@H](C)C[C@@H]1O
REMARK SMILES IDX 8 1 7 2 6 3 5 4 4 5 10 6 9 7 11 8 2 10 1 11 3 12
REMARK H PARENT 11 9
REMARK Flexibility Score: inf
ROOT
ATOM      1  C   UNL     1     134.530 131.874 138.812  1.00  0.00     0.008 C 
ATOM      2  C   UNL     1     133.146 132.199 139.399  1.00  0.00    -0.012 C 
ATOM      3  C   UNL     1     132.758 131.239 140.541  1.00  0.00     0.004 C 
ATOM      4  C   UNL     1     132.380 129.842 140.029  1.00  0.00     0.011 C 
ATOM      5  C   UNL     1     131.260 129.919 138.973  1.00  0.00     0.043 C 
ATOM      6  C   UNL     1     131.664 130.843 137.796  1.00  0.00     0.121 C 
ATOM      7  C   UNL     1     132.049 132.240 138.313  1.00  0.00     0.035 C 
ENDROOT
BRANCH   6   8
ATOM      8  O   UNL     1     130.588 130.981 136.904  1.00  0.00    -0.392 OA
ATOM      9  H   UNL     1     130.013 131.712 137.250  1.00  0.00     0.210 HD
ENDBRANCH   6   8
BRANCH   5  10
ATOM     10  C   UNL     1     130.871 128.525 138.494  1.00  0.00    -0.075 C 
ATOM     11  C   UNL     1     129.734 127.938 138.906  1.00  0.00     0.008 C 
ATOM     12  C   UNL     1     131.768 127.775 137.543  1.00  0.00     0.039 C 
ENDBRANCH   5  10
TORSDOF 2
ENDMDL
