MODEL 1
REMARK VINA RESULT:    -4.450      0.000      0.000
REMARK INTER + INTRA:          -5.410
REMARK INTER:                  -5.360
REMARK INTRA:                  -0.049
REMARK UNBOUND:                -0.049
REMARK SMILES [NH3+][C@@H](Cc1cnc[nH]1)C(=O)[O-]
REMARK SMILES IDX 3 1 2 2 1 3 9 7 10 8 11 9 4 10 5 11 8 12 6 13 7 14
REMARK H PARENT 1 4 1 5 1 6 8 15
REMARK Flexibility Score: inf
ROOT
ATOM      1  C   UNL     1     -20.724 -16.415 -13.386  1.00  0.00     0.127 C 
ENDROOT
BRANCH   1   2
ATOM      2  C   UNL     1     -22.036 -15.635 -13.170  1.00  0.00     0.233 C 
BRANCH   2   3
ATOM      3  N   UNL     1     -22.479 -15.706 -11.771  1.00  0.00    -0.350 N 
ATOM      4  H   UNL     1     -23.145 -16.504 -11.650  1.00  0.00     0.345 HD
ATOM      5  H   UNL     1     -22.982 -14.828 -11.510  1.00  0.00     0.345 HD
ATOM      6  H   UNL     1     -21.663 -15.839 -11.130  1.00  0.00     0.345 HD
ENDBRANCH   2   3
BRANCH   2   7
ATOM      7  C   UNL     1     -23.104 -16.181 -14.079  1.00  0.00     0.099 C 
ATOM      8  O   UNL     1     -23.760 -15.405 -14.824  1.00  0.00    -0.544 OA
ATOM      9  O   UNL     1     -23.362 -17.546 -14.115  1.00  0.00    -0.544 OA
ENDBRANCH   2   7
ENDBRANCH   1   2
BRANCH   1  10
ATOM     10  C   UNL     1     -19.525 -15.597 -13.007  1.00  0.00     0.041 A 
ATOM     11  C   UNL     1     -19.515 -14.262 -12.671  1.00  0.00     0.134 A 
ATOM     12  N   UNL     1     -18.263 -16.053 -13.000  1.00  0.00    -0.348 N 
ATOM     13  N   UNL     1     -18.244 -13.875 -12.444  1.00  0.00    -0.245 NA
ATOM     14  C   UNL     1     -17.511 -14.991 -12.653  1.00  0.00     0.196 A 
ATOM     15  H   UNL     1     -17.932 -17.016 -13.225  1.00  0.00     0.167 HD
ENDBRANCH   1  10
TORSDOF 4
ENDMDL
MODEL 2
REMARK VINA RESULT:    -4.319      2.663      4.405
REMARK INTER + INTRA:          -5.252
REMARK INTER:                  -5.117
REMARK INTRA:                  -0.135
REMARK UNBOUND:                -0.049
REMARK SMILES [NH3+][C@@H](Cc1cnc[nH]1)C(=O)[O-]
REMARK SMILES IDX 3 1 2 2 1 3 9 7 10 8 11 9 4 10 5 11 8 12 6 13 7 14
REMARK H PARENT 1 4 1 5 1 6 8 15
REMARK Flexibility Score: inf
ROOT
ATOM      1  C   UNL     1     -21.069 -13.875 -14.210  1.00  0.00     0.127 C 
ENDROOT
BRANCH   1   2
ATOM      2  C   UNL     1     -20.761 -14.657 -12.918  1.00  0.00     0.233 C 
BRANCH   2   3
ATOM      3  N   UNL     1     -19.545 -14.155 -12.264  1.00  0.00    -0.350 N 
ATOM      4  H   UNL     1     -19.349 -13.177 -12.581  1.00  0.00     0.345 HD
ATOM      5  H   UNL     1     -18.725 -14.747 -12.529  1.00  0.00     0.345 HD
ATOM      6  H   UNL     1     -19.653 -14.163 -11.224  1.00  0.00     0.345 HD
ENDBRANCH   2   3
BRANCH   2   7
ATOM      7  C   UNL     1     -20.611 -16.120 -13.236  1.00  0.00     0.099 C 
ATOM      8  O   UNL     1     -19.465 -16.622 -13.385  1.00  0.00    -0.544 OA
ATOM      9  O   UNL     1     -21.733 -16.932 -13.348  1.00  0.00    -0.544 OA
ENDBRANCH   2   7
ENDBRANCH   1   2
BRANCH   1  10
ATOM     10  C   UNL     1     -22.386 -14.283 -14.803  1.00  0.00     0.041 A 
ATOM     11  C   UNL     1     -23.634 -14.038 -14.278  1.00  0.00     0.134 A 
ATOM     12  N   UNL     1     -22.524 -15.011 -15.922  1.00  0.00    -0.348 N 
ATOM     13  N   UNL     1     -24.565 -14.605 -15.072  1.00  0.00    -0.245 NA
ATOM     14  C   UNL     1     -23.852 -15.187 -16.061  1.00  0.00     0.196 A 
ATOM     15  H   UNL     1     -21.769 -15.373 -16.545  1.00  0.00     0.167 HD
ENDBRANCH   1  10
TORSDOF 4
ENDMDL
MODEL 3
REMARK VINA RESULT:    -4.312      2.942      4.456
REMARK INTER + INTRA:          -5.243
REMARK INTER:                  -5.148
REMARK INTRA:                  -0.096
REMARK UNBOUND:                -0.049
REMARK SMILES [NH3+][C@@H](Cc1cnc[nH]1)C(=O)[O-]
REMARK SMILES IDX 3 1 2 2 1 3 9 7 10 8 11 9 4 10 5 11 8 12 6 13 7 14
REMARK H PARENT 1 4 1 5 1 6 8 15
REMARK Flexibility Score: inf
ROOT
ATOM      1  C   UNL     1     -21.361 -15.372 -13.176  1.00  0.00     0.127 C 
ENDROOT
BRANCH   1   2
ATOM      2  C   UNL     1     -21.179 -14.038 -12.425  1.00  0.00     0.233 C 
BRANCH   2   3
ATOM      3  N   UNL     1     -19.819 -13.908 -11.884  1.00  0.00    -0.350 N 
ATOM      4  H   UNL     1     -19.860 -13.822 -10.842  1.00  0.00     0.345 HD
ATOM      5  H   UNL     1     -19.365 -13.044 -12.258  1.00  0.00     0.345 HD
ATOM      6  H   UNL     1     -19.238 -14.740 -12.137  1.00  0.00     0.345 HD
ENDBRANCH   2   3
BRANCH   2   7
ATOM      7  C   UNL     1     -22.189 -13.941 -11.314  1.00  0.00     0.099 C 
ATOM      8  O   UNL     1     -23.419 -13.875 -11.580  1.00  0.00    -0.544 OA
ATOM      9  O   UNL     1     -21.775 -13.943  -9.988  1.00  0.00    -0.544 OA
ENDBRANCH   2   7
ENDBRANCH   1   2
BRANCH   1  10
ATOM     10  C   UNL     1     -22.339 -15.242 -14.307  1.00  0.00     0.041 A 
ATOM     11  C   UNL     1     -22.488 -14.158 -15.142  1.00  0.00     0.134 A 
ATOM     12  N   UNL     1     -23.262 -16.162 -14.626  1.00  0.00    -0.348 N 
ATOM     13  N   UNL     1     -23.502 -14.397 -15.998  1.00  0.00    -0.245 NA
ATOM     14  C   UNL     1     -23.947 -15.625 -15.654  1.00  0.00     0.196 A 
ATOM     15  H   UNL     1     -23.422 -17.087 -14.172  1.00  0.00     0.167 HD
ENDBRANCH   1  10
TORSDOF 4
ENDMDL
MODEL 4
REMARK VINA RESULT:    -4.311      1.943      2.773
REMARK INTER + INTRA:          -5.243
REMARK INTER:                  -5.132
REMARK INTRA:                  -0.111
REMARK UNBOUND:                -0.049
REMARK SMILES [NH3+][C@@H](Cc1cnc[nH]1)C(=O)[O-]
REMARK SMILES IDX 3 1 2 2 1 3 9 7 10 8 11 9 4 10 5 11 8 12 6 13 7 14
REMARK H PARENT 1 4 1 5 1 6 8 15
REMARK Flexibility Score: inf
ROOT
ATOM      1  C   UNL     1     -21.895 -16.831 -13.709  1.00  0.00     0.127 C 
ENDROOT
BRANCH   1   2
ATOM      2  C   UNL     1     -23.386 -16.868 -14.099  1.00  0.00     0.233 C 
BRANCH   2   3
ATOM      3  N   UNL     1     -23.708 -18.073 -14.876  1.00  0.00    -0.350 N 
ATOM      4  H   UNL     1     -24.215 -17.804 -15.752  1.00  0.00     0.345 HD
ATOM      5  H   UNL     1     -24.336 -18.699 -14.323  1.00  0.00     0.345 HD
ATOM      6  H   UNL     1     -22.838 -18.594 -15.131  1.00  0.00     0.345 HD
ENDBRANCH   2   3
BRANCH   2   7
ATOM      7  C   UNL     1     -23.733 -15.635 -14.889  1.00  0.00     0.099 C 
ATOM      8  O   UNL     1     -23.870 -15.701 -16.139  1.00  0.00    -0.544 OA
ATOM      9  O   UNL     1     -23.923 -14.420 -14.242  1.00  0.00    -0.544 OA
ENDBRANCH   2   7
ENDBRANCH   1   2
BRANCH   1  10
ATOM     10  C   UNL     1     -21.584 -15.662 -12.822  1.00  0.00     0.041 A 
ATOM     11  C   UNL     1     -20.575 -14.743 -13.000  1.00  0.00     0.134 A 
ATOM     12  N   UNL     1     -22.224 -15.384 -11.676  1.00  0.00    -0.348 N 
ATOM     13  N   UNL     1     -20.583 -13.875 -11.968  1.00  0.00    -0.245 NA
ATOM     14  C   UNL     1     -21.600 -14.296 -11.184  1.00  0.00     0.196 A 
ATOM     15  H   UNL     1     -23.024 -15.900 -11.251  1.00  0.00     0.167 HD
ENDBRANCH   1  10
TORSDOF 4
ENDMDL
MODEL 5
REMARK VINA RESULT:    -4.253      2.840      4.756
REMARK INTER + INTRA:          -5.173
REMARK INTER:                  -5.019
REMARK INTRA:                  -0.154
REMARK UNBOUND:                -0.049
REMARK SMILES [NH3+][C@@H](Cc1cnc[nH]1)C(=O)[O-]
REMARK SMILES IDX 3 1 2 2 1 3 9 7 10 8 11 9 4 10 5 11 8 12 6 13 7 14
REMARK H PARENT 1 4 1 5 1 6 8 15
REMARK Flexibility Score: inf
ROOT
ATOM      1  C   UNL     1     -21.755 -16.123 -13.010  1.00  0.00     0.127 C 
ENDROOT
BRANCH   1   2
ATOM      2  C   UNL     1     -20.404 -15.465 -13.353  1.00  0.00     0.233 C 
BRANCH   2   3
ATOM      3  N   UNL     1     -19.312 -16.448 -13.355  1.00  0.00    -0.350 N 
ATOM      4  H   UNL     1     -19.694 -17.402 -13.555  1.00  0.00     0.345 HD
ATOM      5  H   UNL     1     -18.855 -16.478 -12.415  1.00  0.00     0.345 HD
ATOM      6  H   UNL     1     -18.596 -16.207 -14.079  1.00  0.00     0.345 HD
ENDBRANCH   2   3
BRANCH   2   7
ATOM      7  C   UNL     1     -20.110 -14.368 -12.365  1.00  0.00     0.099 C 
ATOM      8  O   UNL     1     -18.953 -13.875 -12.291  1.00  0.00    -0.544 OA
ATOM      9  O   UNL     1     -21.117 -13.879 -11.541  1.00  0.00    -0.544 OA
ENDBRANCH   2   7
ENDBRANCH   1   2
BRANCH   1  10
ATOM     10  C   UNL     1     -22.823 -15.740 -13.991  1.00  0.00     0.041 A 
ATOM     11  C   UNL     1     -23.382 -14.492 -14.150  1.00  0.00     0.134 A 
ATOM     12  N   UNL     1     -23.433 -16.595 -14.825  1.00  0.00    -0.348 N 
ATOM     13  N   UNL     1     -24.342 -14.557 -15.094  1.00  0.00    -0.245 NA
ATOM     14  C   UNL     1     -24.344 -15.851 -15.481  1.00  0.00     0.196 A 
ATOM     15  H   UNL     1     -23.251 -17.616 -14.937  1.00  0.00     0.167 HD
ENDBRANCH   1  10
TORSDOF 4
ENDMDL
MODEL 6
REMARK VINA RESULT:    -4.199      1.459      1.613
REMARK INTER + INTRA:          -5.107
REMARK INTER:                  -5.042
REMARK INTRA:                  -0.066
REMARK UNBOUND:                -0.049
REMARK SMILES [NH3+][C@@H](Cc1cnc[nH]1)C(=O)[O-]
REMARK SMILES IDX 3 1 2 2 1 3 9 7 10 8 11 9 4 10 5 11 8 12 6 13 7 14
REMARK H PARENT 1 4 1 5 1 6 8 15
REMARK Flexibility Score: inf
ROOT
ATOM      1  C   UNL     1     -21.988 -15.664 -13.570  1.00  0.00     0.127 C 
ENDROOT
BRANCH   1   2
ATOM      2  C   UNL     1     -22.804 -14.524 -14.210  1.00  0.00     0.233 C 
BRANCH   2   3
ATOM      3  N   UNL     1     -23.711 -13.901 -13.237  1.00  0.00    -0.350 N 
ATOM      4  H   UNL     1     -24.194 -13.082 -13.675  1.00  0.00     0.345 HD
ATOM      5  H   UNL     1     -23.170 -13.550 -12.415  1.00  0.00     0.345 HD
ATOM      6  H   UNL     1     -24.431 -14.586 -12.908  1.00  0.00     0.345 HD
ENDBRANCH   2   3
BRANCH   2   7
ATOM      7  C   UNL     1     -23.588 -15.057 -15.379  1.00  0.00     0.099 C 
ATOM      8  O   UNL     1     -23.474 -14.524 -16.515  1.00  0.00    -0.544 OA
ATOM      9  O   UNL     1     -24.427 -16.153 -15.218  1.00  0.00    -0.544 OA
ENDBRANCH   2   7
ENDBRANCH   1   2
BRANCH   1  10
ATOM     10  C   UNL     1     -20.633 -15.194 -13.127  1.00  0.00     0.041 A 
ATOM     11  C   UNL     1     -20.287 -13.912 -12.767  1.00  0.00     0.134 A 
ATOM     12  N   UNL     1     -19.538 -15.967 -13.077  1.00  0.00    -0.348 N 
ATOM     13  N   UNL     1     -18.970 -13.875 -12.481  1.00  0.00    -0.245 NA
ATOM     14  C   UNL     1     -18.549 -15.143 -12.680  1.00  0.00     0.196 A 
ATOM     15  H   UNL     1     -19.463 -16.982 -13.305  1.00  0.00     0.167 HD
ENDBRANCH   1  10
TORSDOF 4
ENDMDL
MODEL 7
REMARK VINA RESULT:    -3.417      2.505      3.347
REMARK INTER + INTRA:          -4.165
REMARK INTER:                  -3.935
REMARK INTRA:                  -0.231
REMARK UNBOUND:                -0.049
REMARK SMILES [NH3+][C@@H](Cc1cnc[nH]1)C(=O)[O-]
REMARK SMILES IDX 3 1 2 2 1 3 9 7 10 8 11 9 4 10 5 11 8 12 6 13 7 14
REMARK H PARENT 1 4 1 5 1 6 8 15
REMARK Flexibility Score: inf
ROOT
ATOM      1  C   UNL     1     -23.173 -14.082 -13.425  1.00  0.00     0.127 C 
ENDROOT
BRANCH   1   2
ATOM      2  C   UNL     1     -22.347 -14.868 -14.462  1.00  0.00     0.233 C 
BRANCH   2   3
ATOM      3  N   UNL     1     -22.940 -14.777 -15.803  1.00  0.00    -0.350 N 
ATOM      4  H   UNL     1     -22.419 -14.072 -16.374  1.00  0.00     0.345 HD
ATOM      5  H   UNL     1     -23.934 -14.460 -15.734  1.00  0.00     0.345 HD
ATOM      6  H   UNL     1     -22.906 -15.703 -16.288  1.00  0.00     0.345 HD
ENDBRANCH   2   3
BRANCH   2   7
ATOM      7  C   UNL     1     -22.244 -16.309 -14.039  1.00  0.00     0.099 C 
ATOM      8  O   UNL     1     -21.148 -16.771 -13.624  1.00  0.00    -0.544 OA
ATOM      9  O   UNL     1     -23.362 -17.134 -14.087  1.00  0.00    -0.544 OA
ENDBRANCH   2   7
ENDBRANCH   1   2
BRANCH   1  10
ATOM     10  C   UNL     1     -22.482 -14.025 -12.095  1.00  0.00     0.041 A 
ATOM     11  C   UNL     1     -23.085 -13.967 -10.859  1.00  0.00     0.134 A 
ATOM     12  N   UNL     1     -21.152 -13.961 -11.929  1.00  0.00    -0.348 N 
ATOM     13  N   UNL     1     -22.133 -13.875  -9.908  1.00  0.00    -0.245 NA
ATOM     14  C   UNL     1     -20.971 -13.875 -10.597  1.00  0.00     0.196 A 
ATOM     15  H   UNL     1     -20.416 -13.967 -12.669  1.00  0.00     0.167 HD
ENDBRANCH   1  10
TORSDOF 4
ENDMDL
MODEL 8
REMARK VINA RESULT:    -2.906      2.386      3.393
REMARK INTER + INTRA:          -3.550
REMARK INTER:                  -3.359
REMARK INTRA:                  -0.191
REMARK UNBOUND:                -0.049
REMARK SMILES [NH3+][C@@H](Cc1cnc[nH]1)C(=O)[O-]
REMARK SMILES IDX 3 1 2 2 1 3 9 7 10 8 11 9 4 10 5 11 8 12 6 13 7 14
REMARK H PARENT 1 4 1 5 1 6 8 15
REMARK Flexibility Score: inf
ROOT
ATOM      1  C   UNL     1     -23.371 -13.989 -14.502  1.00  0.00     0.127 C 
ENDROOT
BRANCH   1   2
ATOM      2  C   UNL     1     -23.012 -15.249 -15.314  1.00  0.00     0.233 C 
BRANCH   2   3
ATOM      3  N   UNL     1     -23.175 -15.022 -16.757  1.00  0.00    -0.350 N 
ATOM      4  H   UNL     1     -24.153 -14.710 -16.959  1.00  0.00     0.345 HD
ATOM      5  H   UNL     1     -23.008 -15.911 -17.280  1.00  0.00     0.345 HD
ATOM      6  H   UNL     1     -22.506 -14.292 -17.095  1.00  0.00     0.345 HD
ENDBRANCH   2   3
BRANCH   2   7
ATOM      7  C   UNL     1     -23.875 -16.399 -14.871  1.00  0.00     0.099 C 
ATOM      8  O   UNL     1     -25.070 -16.482 -15.262  1.00  0.00    -0.544 OA
ATOM      9  O   UNL     1     -23.355 -17.388 -14.045  1.00  0.00    -0.544 OA
ENDBRANCH   2   7
ENDBRANCH   1   2
BRANCH   1  10
ATOM     10  C   UNL     1     -22.587 -13.912 -13.225  1.00  0.00     0.041 A 
ATOM     11  C   UNL     1     -21.216 -13.900 -13.103  1.00  0.00     0.134 A 
ATOM     12  N   UNL     1     -23.129 -13.903 -11.997  1.00  0.00    -0.348 N 
ATOM     13  N   UNL     1     -20.891 -13.875 -11.795  1.00  0.00    -0.245 NA
ATOM     14  C   UNL     1     -22.080 -13.877 -11.153  1.00  0.00     0.196 A 
ATOM     15  H   UNL     1     -24.142 -13.922 -11.748  1.00  0.00     0.167 HD
ENDBRANCH   1  10
TORSDOF 4
ENDMDL
MODEL 9
REMARK VINA RESULT:    -1.787      2.789      4.551
REMARK INTER + INTRA:          -2.202
REMARK INTER:                  -1.970
REMARK INTRA:                  -0.232
REMARK UNBOUND:                -0.049
REMARK SMILES [NH3+][C@@H](Cc1cnc[nH]1)C(=O)[O-]
REMARK SMILES IDX 3 1 2 2 1 3 9 7 10 8 11 9 4 10 5 11 8 12 6 13 7 14
REMARK H PARENT 1 4 1 5 1 6 8 15
REMARK Flexibility Score: inf
ROOT
ATOM      1  C   UNL     1     -23.087 -14.352 -12.897  1.00  0.00     0.127 C 
ENDROOT
BRANCH   1   2
ATOM      2  C   UNL     1     -22.189 -15.394 -12.202  1.00  0.00     0.233 C 
BRANCH   2   3
ATOM      3  N   UNL     1     -22.022 -15.093 -10.774  1.00  0.00    -0.350 N 
ATOM      4  H   UNL     1     -22.000 -14.057 -10.630  1.00  0.00     0.345 HD
ATOM      5  H   UNL     1     -21.116 -15.482 -10.429  1.00  0.00     0.345 HD
ATOM      6  H   UNL     1     -22.807 -15.500 -10.215  1.00  0.00     0.345 HD
ENDBRANCH   2   3
BRANCH   2   7
ATOM      7  C   UNL     1     -20.846 -15.437 -12.882  1.00  0.00     0.099 C 
ATOM      8  O   UNL     1     -20.432 -16.508 -13.400  1.00  0.00    -0.544 OA
ATOM      9  O   UNL     1     -20.063 -14.292 -12.958  1.00  0.00    -0.544 OA
ENDBRANCH   2   7
ENDBRANCH   1   2
BRANCH   1  10
ATOM     10  C   UNL     1     -23.333 -14.703 -14.335  1.00  0.00     0.041 A 
ATOM     11  C   UNL     1     -23.165 -13.875 -15.422  1.00  0.00     0.134 A 
ATOM     12  N   UNL     1     -23.818 -15.879 -14.759  1.00  0.00    -0.348 N 
ATOM     13  N   UNL     1     -23.537 -14.533 -16.538  1.00  0.00    -0.245 NA
ATOM     14  C   UNL     1     -23.927 -15.749 -16.095  1.00  0.00     0.196 A 
ATOM     15  H   UNL     1     -24.067 -16.712 -14.182  1.00  0.00     0.167 HD
ENDBRANCH   1  10
TORSDOF 4
ENDMDL
