MODEL 1
REMARK VINA RESULT:    -4.640      0.000      0.000
REMARK INTER + INTRA:          -5.761
REMARK INTER:                  -5.589
REMARK INTRA:                  -0.172
REMARK UNBOUND:                -0.172
REMARK SMILES O=c1c(O)c(-c2ccc(O)cc2O)oc2cc(O)cc(O)c12
REMARK SMILES IDX 5 1 3 2 2 3 1 4 22 5 20 6 19 7 17 8 16 9 15 10 14 11 6 12
REMARK SMILES IDX 8 13 7 14 9 15 11 16 12 17 10 18 13 20 4 22 21 24 18 26
REMARK H PARENT 10 19 13 21 4 23 21 25 18 27
REMARK Flexibility Score: inf
ROOT
ATOM      1  C   UNL     1     -47.010  95.381  22.264  1.00  0.00     0.184 A 
ATOM      2  C   UNL     1     -47.517  94.160  22.733  1.00  0.00     0.208 A 
ATOM      3  C   UNL     1     -47.606  93.947  24.117  1.00  0.00     0.238 A 
ATOM      4  O   UNL     1     -48.124  92.876  24.531  1.00  0.00    -0.285 OA
ATOM      5  C   UNL     1     -47.147  94.942  25.014  1.00  0.00     0.111 A 
ATOM      6  C   UNL     1     -47.149  94.817  26.437  1.00  0.00     0.134 A 
ATOM      7  C   UNL     1     -46.777  95.912  27.227  1.00  0.00     0.093 A 
ATOM      8  C   UNL     1     -46.341  97.105  26.646  1.00  0.00     0.123 A 
ATOM      9  C   UNL     1     -46.282  97.218  25.259  1.00  0.00     0.094 A 
ATOM     10  C   UNL     1     -46.683  96.158  24.444  1.00  0.00     0.146 A 
ATOM     11  O   UNL     1     -46.629  96.315  23.127  1.00  0.00    -0.451 OA
ENDROOT
BRANCH   1  12
ATOM     12  C   UNL     1     -46.904  95.667  20.818  1.00  0.00     0.063 A 
ATOM     13  C   UNL     1     -46.227  94.948  18.593  1.00  0.00     0.047 A 
ATOM     14  C   UNL     1     -46.290  94.727  19.971  1.00  0.00     0.020 A 
ATOM     15  C   UNL     1     -46.780  96.104  18.041  1.00  0.00     0.119 A 
ATOM     16  C   UNL     1     -47.397  97.047  18.873  1.00  0.00     0.093 A 
ATOM     17  C   UNL     1     -47.458  96.842  20.257  1.00  0.00     0.130 A 
BRANCH  15  18
ATOM     18  O   UNL     1     -46.713  96.308  16.664  1.00  0.00    -0.508 OA
ATOM     19  H   UNL     1     -47.412  95.925  16.038  1.00  0.00     0.293 HD
ENDBRANCH  15  18
BRANCH  17  20
ATOM     20  O   UNL     1     -48.055  97.830  21.045  1.00  0.00    -0.507 OA
ATOM     21  H   UNL     1     -48.377  97.663  21.989  1.00  0.00     0.293 HD
ENDBRANCH  17  20
ENDBRANCH   1  12
BRANCH   2  22
ATOM     22  O   UNL     1     -47.915  93.174  21.826  1.00  0.00    -0.502 OA
ATOM     23  H   UNL     1     -47.289  92.792  21.129  1.00  0.00     0.293 HD
ENDBRANCH   2  22
BRANCH   6  24
ATOM     24  O   UNL     1     -47.480  93.642  27.118  1.00  0.00    -0.507 OA
ATOM     25  H   UNL     1     -47.681  93.584  28.105  1.00  0.00     0.293 HD
ENDBRANCH   6  24
BRANCH   8  26
ATOM     26  O   UNL     1     -45.956  98.183  27.439  1.00  0.00    -0.508 OA
ATOM     27  H   UNL     1     -46.615  98.657  28.046  1.00  0.00     0.293 HD
ENDBRANCH   8  26
TORSDOF 6
ENDMDL
MODEL 2
REMARK VINA RESULT:    -4.356      1.345      3.170
REMARK INTER + INTRA:          -5.419
REMARK INTER:                  -5.158
REMARK INTRA:                  -0.262
REMARK UNBOUND:                -0.172
REMARK SMILES O=c1c(O)c(-c2ccc(O)cc2O)oc2cc(O)cc(O)c12
REMARK SMILES IDX 5 1 3 2 2 3 1 4 22 5 20 6 19 7 17 8 16 9 15 10 14 11 6 12
REMARK SMILES IDX 8 13 7 14 9 15 11 16 12 17 10 18 13 20 4 22 21 24 18 26
REMARK H PARENT 10 19 13 21 4 23 21 25 18 27
REMARK Flexibility Score: inf
ROOT
ATOM      1  C   UNL     1     -47.082  95.690  22.487  1.00  0.00     0.184 A 
ATOM      2  C   UNL     1     -46.454  96.898  22.828  1.00  0.00     0.208 A 
ATOM      3  C   UNL     1     -46.283  97.217  24.185  1.00  0.00     0.238 A 
ATOM      4  O   UNL     1     -45.659  98.269  24.484  1.00  0.00    -0.285 OA
ATOM      5  C   UNL     1     -46.782  96.342  25.182  1.00  0.00     0.111 A 
ATOM      6  C   UNL     1     -46.703  96.585  26.587  1.00  0.00     0.134 A 
ATOM      7  C   UNL     1     -47.128  95.596  27.483  1.00  0.00     0.093 A 
ATOM      8  C   UNL     1     -47.688  94.401  27.025  1.00  0.00     0.123 A 
ATOM      9  C   UNL     1     -47.820  94.179  25.656  1.00  0.00     0.094 A 
ATOM     10  C   UNL     1     -47.371  95.129  24.738  1.00  0.00     0.146 A 
ATOM     11  O   UNL     1     -47.499  94.868  23.442  1.00  0.00    -0.451 OA
ENDROOT
BRANCH   1  12
ATOM     12  C   UNL     1     -47.278  95.296  21.077  1.00  0.00     0.063 A 
ATOM     13  C   UNL     1     -48.125  95.832  18.859  1.00  0.00     0.047 A 
ATOM     14  C   UNL     1     -47.974  96.157  20.209  1.00  0.00     0.020 A 
ATOM     15  C   UNL     1     -47.579  94.651  18.354  1.00  0.00     0.119 A 
ATOM     16  C   UNL     1     -46.881  93.787  19.208  1.00  0.00     0.093 A 
ATOM     17  C   UNL     1     -46.731  94.095  20.565  1.00  0.00     0.130 A 
BRANCH  15  18
ATOM     18  O   UNL     1     -47.734  94.344  17.004  1.00  0.00    -0.508 OA
ATOM     19  H   UNL     1     -48.432  93.680  16.690  1.00  0.00     0.293 HD
ENDBRANCH  15  18
BRANCH  17  20
ATOM     20  O   UNL     1     -46.055  93.182  21.379  1.00  0.00    -0.507 OA
ATOM     21  H   UNL     1     -45.927  93.318  22.373  1.00  0.00     0.293 HD
ENDBRANCH  17  20
ENDBRANCH   1  12
BRANCH   2  22
ATOM     22  O   UNL     1     -46.017  97.767  21.825  1.00  0.00    -0.502 OA
ATOM     23  H   UNL     1     -45.591  97.437  20.969  1.00  0.00     0.293 HD
ENDBRANCH   2  22
BRANCH   6  24
ATOM     24  O   UNL     1     -46.245  97.779  27.151  1.00  0.00    -0.507 OA
ATOM     25  H   UNL     1     -45.287  98.097  27.130  1.00  0.00     0.293 HD
ENDBRANCH   6  24
BRANCH   8  26
ATOM     26  O   UNL     1     -48.124  93.430  27.923  1.00  0.00    -0.508 OA
ATOM     27  H   UNL     1     -47.475  92.799  28.379  1.00  0.00     0.293 HD
ENDBRANCH   8  26
TORSDOF 6
ENDMDL
MODEL 3
REMARK VINA RESULT:    -3.882      2.271      3.774
REMARK INTER + INTRA:          -4.849
REMARK INTER:                  -4.592
REMARK INTRA:                  -0.257
REMARK UNBOUND:                -0.172
REMARK SMILES O=c1c(O)c(-c2ccc(O)cc2O)oc2cc(O)cc(O)c12
REMARK SMILES IDX 5 1 3 2 2 3 1 4 22 5 20 6 19 7 17 8 16 9 15 10 14 11 6 12
REMARK SMILES IDX 8 13 7 14 9 15 11 16 12 17 10 18 13 20 4 22 21 24 18 26
REMARK H PARENT 10 19 13 21 4 23 21 25 18 27
REMARK Flexibility Score: inf
ROOT
ATOM      1  C   UNL     1     -46.495  95.408  25.434  1.00  0.00     0.184 A 
ATOM      2  C   UNL     1     -47.084  94.282  26.030  1.00  0.00     0.208 A 
ATOM      3  C   UNL     1     -46.617  93.851  27.282  1.00  0.00     0.238 A 
ATOM      4  O   UNL     1     -47.194  92.882  27.841  1.00  0.00    -0.285 OA
ATOM      5  C   UNL     1     -45.538  94.528  27.901  1.00  0.00     0.111 A 
ATOM      6  C   UNL     1     -44.953  94.153  29.149  1.00  0.00     0.134 A 
ATOM      7  C   UNL     1     -43.965  94.965  29.720  1.00  0.00     0.093 A 
ATOM      8  C   UNL     1     -43.494  96.101  29.058  1.00  0.00     0.123 A 
ATOM      9  C   UNL     1     -44.018  96.444  27.814  1.00  0.00     0.094 A 
ATOM     10  C   UNL     1     -45.032  95.677  27.236  1.00  0.00     0.146 A 
ATOM     11  O   UNL     1     -45.516  96.050  26.058  1.00  0.00    -0.451 OA
ENDROOT
BRANCH   1  12
ATOM     12  C   UNL     1     -46.954  95.915  24.124  1.00  0.00     0.063 A 
ATOM     13  C   UNL     1     -47.881  97.734  22.800  1.00  0.00     0.047 A 
ATOM     14  C   UNL     1     -47.491  97.211  24.035  1.00  0.00     0.020 A 
ATOM     15  C   UNL     1     -47.735  96.975  21.637  1.00  0.00     0.119 A 
ATOM     16  C   UNL     1     -47.200  95.683  21.713  1.00  0.00     0.093 A 
ATOM     17  C   UNL     1     -46.814  95.143  22.946  1.00  0.00     0.130 A 
BRANCH  15  18
ATOM     18  O   UNL     1     -48.125  97.513  20.413  1.00  0.00    -0.508 OA
ATOM     19  H   UNL     1     -47.871  97.071  19.536  1.00  0.00     0.293 HD
ENDBRANCH  15  18
BRANCH  17  20
ATOM     20  O   UNL     1     -46.317  93.838  22.969  1.00  0.00    -0.507 OA
ATOM     21  H   UNL     1     -46.727  93.101  23.528  1.00  0.00     0.293 HD
ENDBRANCH  17  20
ENDBRANCH   1  12
BRANCH   2  22
ATOM     22  O   UNL     1     -48.113  93.601  25.373  1.00  0.00    -0.502 OA
ATOM     23  H   UNL     1     -48.819  94.080  24.828  1.00  0.00     0.293 HD
ENDBRANCH   2  22
BRANCH   6  24
ATOM     24  O   UNL     1     -45.286  92.990  29.851  1.00  0.00    -0.507 OA
ATOM     25  H   UNL     1     -45.136  92.051  29.514  1.00  0.00     0.293 HD
ENDBRANCH   6  24
BRANCH   8  26
ATOM     26  O   UNL     1     -42.498  96.892  29.625  1.00  0.00    -0.508 OA
ATOM     27  H   UNL     1     -42.464  97.068  30.623  1.00  0.00     0.293 HD
ENDBRANCH   8  26
TORSDOF 6
ENDMDL
MODEL 4
REMARK VINA RESULT:    -3.812      1.286      6.396
REMARK INTER + INTRA:          -4.764
REMARK INTER:                  -4.815
REMARK INTRA:                   0.051
REMARK UNBOUND:                -0.172
REMARK SMILES O=c1c(O)c(-c2ccc(O)cc2O)oc2cc(O)cc(O)c12
REMARK SMILES IDX 5 1 3 2 2 3 1 4 22 5 20 6 19 7 17 8 16 9 15 10 14 11 6 12
REMARK SMILES IDX 8 13 7 14 9 15 11 16 12 17 10 18 13 20 4 22 21 24 18 26
REMARK H PARENT 10 19 13 21 4 23 21 25 18 27
REMARK Flexibility Score: inf
ROOT
ATOM      1  C   UNL     1     -47.081  96.002  23.047  1.00  0.00     0.184 A 
ATOM      2  C   UNL     1     -47.359  94.635  22.898  1.00  0.00     0.208 A 
ATOM      3  C   UNL     1     -47.541  94.114  21.606  1.00  0.00     0.238 A 
ATOM      4  O   UNL     1     -47.724  92.876  21.474  1.00  0.00    -0.285 OA
ATOM      5  C   UNL     1     -47.485  94.978  20.485  1.00  0.00     0.111 A 
ATOM      6  C   UNL     1     -47.697  94.569  19.133  1.00  0.00     0.134 A 
ATOM      7  C   UNL     1     -47.504  95.488  18.095  1.00  0.00     0.093 A 
ATOM      8  C   UNL     1     -47.170  96.818  18.363  1.00  0.00     0.123 A 
ATOM      9  C   UNL     1     -47.015  97.241  19.681  1.00  0.00     0.094 A 
ATOM     10  C   UNL     1     -47.164  96.339  20.736  1.00  0.00     0.146 A 
ATOM     11  O   UNL     1     -46.989  96.780  21.976  1.00  0.00    -0.451 OA
ENDROOT
BRANCH   1  12
ATOM     12  C   UNL     1     -46.867  96.603  24.380  1.00  0.00     0.063 A 
ATOM     13  C   UNL     1     -47.397  96.652  26.755  1.00  0.00     0.047 A 
ATOM     14  C   UNL     1     -47.618  96.139  25.475  1.00  0.00     0.020 A 
ATOM     15  C   UNL     1     -46.420  97.628  26.963  1.00  0.00     0.119 A 
ATOM     16  C   UNL     1     -45.664  98.095  25.880  1.00  0.00     0.093 A 
ATOM     17  C   UNL     1     -45.883  97.597  24.590  1.00  0.00     0.130 A 
BRANCH  15  18
ATOM     18  O   UNL     1     -46.207  98.126  28.246  1.00  0.00    -0.508 OA
ATOM     19  H   UNL     1     -45.800  99.041  28.397  1.00  0.00     0.293 HD
ENDBRANCH  15  18
BRANCH  17  20
ATOM     20  O   UNL     1     -45.124  98.123  23.542  1.00  0.00    -0.507 OA
ATOM     21  H   UNL     1     -44.135  98.321  23.622  1.00  0.00     0.293 HD
ENDBRANCH  17  20
ENDBRANCH   1  12
BRANCH   2  22
ATOM     22  O   UNL     1     -47.460  93.814  24.024  1.00  0.00    -0.502 OA
ATOM     23  H   UNL     1     -48.350  93.560  24.433  1.00  0.00     0.293 HD
ENDBRANCH   2  22
BRANCH   6  24
ATOM     24  O   UNL     1     -48.120  93.289  18.761  1.00  0.00    -0.507 OA
ATOM     25  H   UNL     1     -48.873  93.095  18.117  1.00  0.00     0.293 HD
ENDBRANCH   6  24
BRANCH   8  26
ATOM     26  O   UNL     1     -46.997  97.730  17.324  1.00  0.00    -0.508 OA
ATOM     27  H   UNL     1     -47.065  97.448  16.353  1.00  0.00     0.293 HD
ENDBRANCH   8  26
TORSDOF 6
ENDMDL
MODEL 5
REMARK VINA RESULT:    -2.468      2.272      7.181
REMARK INTER + INTRA:          -3.145
REMARK INTER:                  -2.745
REMARK INTRA:                  -0.401
REMARK UNBOUND:                -0.172
REMARK SMILES O=c1c(O)c(-c2ccc(O)cc2O)oc2cc(O)cc(O)c12
REMARK SMILES IDX 5 1 3 2 2 3 1 4 22 5 20 6 19 7 17 8 16 9 15 10 14 11 6 12
REMARK SMILES IDX 8 13 7 14 9 15 11 16 12 17 10 18 13 20 4 22 21 24 18 26
REMARK H PARENT 10 19 13 21 4 23 21 25 18 27
REMARK Flexibility Score: inf
ROOT
ATOM      1  C   UNL     1     -45.620  96.069  25.373  1.00  0.00     0.184 A 
ATOM      2  C   UNL     1     -45.974  97.370  24.983  1.00  0.00     0.208 A 
ATOM      3  C   UNL     1     -46.710  97.549  23.801  1.00  0.00     0.238 A 
ATOM      4  O   UNL     1     -47.082  98.712  23.493  1.00  0.00    -0.285 OA
ATOM      5  C   UNL     1     -47.044  96.428  23.003  1.00  0.00     0.111 A 
ATOM      6  C   UNL     1     -47.749  96.496  21.762  1.00  0.00     0.134 A 
ATOM      7  C   UNL     1     -48.124  95.312  21.116  1.00  0.00     0.093 A 
ATOM      8  C   UNL     1     -47.763  94.064  21.631  1.00  0.00     0.123 A 
ATOM      9  C   UNL     1     -47.026  93.989  22.810  1.00  0.00     0.094 A 
ATOM     10  C   UNL     1     -46.671  95.151  23.498  1.00  0.00     0.146 A 
ATOM     11  O   UNL     1     -45.985  95.032  24.629  1.00  0.00    -0.451 OA
ENDROOT
BRANCH   1  12
ATOM     12  C   UNL     1     -44.857  95.818  26.614  1.00  0.00     0.063 A 
ATOM     13  C   UNL     1     -42.709  95.663  27.746  1.00  0.00     0.047 A 
ATOM     14  C   UNL     1     -43.451  95.843  26.577  1.00  0.00     0.020 A 
ATOM     15  C   UNL     1     -43.356  95.462  28.967  1.00  0.00     0.119 A 
ATOM     16  C   UNL     1     -44.755  95.438  29.016  1.00  0.00     0.093 A 
ATOM     17  C   UNL     1     -45.512  95.606  27.850  1.00  0.00     0.130 A 
BRANCH  15  18
ATOM     18  O   UNL     1     -42.600  95.289  30.125  1.00  0.00    -0.508 OA
ATOM     19  H   UNL     1     -41.647  95.628  30.190  1.00  0.00     0.293 HD
ENDBRANCH  15  18
BRANCH  17  20
ATOM     20  O   UNL     1     -46.903  95.540  27.951  1.00  0.00    -0.507 OA
ATOM     21  H   UNL     1     -47.422  94.675  27.866  1.00  0.00     0.293 HD
ENDBRANCH  17  20
ENDBRANCH   1  12
BRANCH   2  22
ATOM     22  O   UNL     1     -45.587  98.463  25.763  1.00  0.00    -0.502 OA
ATOM     23  H   UNL     1     -45.070  99.245  25.383  1.00  0.00     0.293 HD
ENDBRANCH   2  22
BRANCH   6  24
ATOM     24  O   UNL     1     -48.080  97.690  21.115  1.00  0.00    -0.507 OA
ATOM     25  H   UNL     1     -49.009  97.945  20.814  1.00  0.00     0.293 HD
ENDBRANCH   6  24
BRANCH   8  26
ATOM     26  O   UNL     1     -48.125  92.892  20.971  1.00  0.00    -0.508 OA
ATOM     27  H   UNL     1     -49.096  92.622  20.862  1.00  0.00     0.293 HD
ENDBRANCH   8  26
TORSDOF 6
ENDMDL
MODEL 6
REMARK VINA RESULT:    -2.227      2.141      4.063
REMARK INTER + INTRA:          -2.854
REMARK INTER:                  -2.923
REMARK INTRA:                   0.069
REMARK UNBOUND:                -0.172
REMARK SMILES O=c1c(O)c(-c2ccc(O)cc2O)oc2cc(O)cc(O)c12
REMARK SMILES IDX 5 1 3 2 2 3 1 4 22 5 20 6 19 7 17 8 16 9 15 10 14 11 6 12
REMARK SMILES IDX 8 13 7 14 9 15 11 16 12 17 10 18 13 20 4 22 21 24 18 26
REMARK H PARENT 10 19 13 21 4 23 21 25 18 27
REMARK Flexibility Score: inf
ROOT
ATOM      1  C   UNL     1     -46.115  95.398  24.276  1.00  0.00     0.184 A 
ATOM      2  C   UNL     1     -45.886  96.759  24.533  1.00  0.00     0.208 A 
ATOM      3  C   UNL     1     -45.359  97.136  25.778  1.00  0.00     0.238 A 
ATOM      4  O   UNL     1     -45.092  98.351  25.977  1.00  0.00    -0.285 OA
ATOM      5  C   UNL     1     -45.108  96.151  26.764  1.00  0.00     0.111 A 
ATOM      6  C   UNL     1     -44.615  96.424  28.077  1.00  0.00     0.134 A 
ATOM      7  C   UNL     1     -44.296  95.360  28.929  1.00  0.00     0.093 A 
ATOM      8  C   UNL     1     -44.514  94.035  28.542  1.00  0.00     0.123 A 
ATOM      9  C   UNL     1     -45.048  93.761  27.285  1.00  0.00     0.094 A 
ATOM     10  C   UNL     1     -45.339  94.799  26.397  1.00  0.00     0.146 A 
ATOM     11  O   UNL     1     -45.829  94.492  25.202  1.00  0.00    -0.451 OA
ENDROOT
BRANCH   1  12
ATOM     12  C   UNL     1     -46.657  94.940  22.979  1.00  0.00     0.063 A 
ATOM     13  C   UNL     1     -48.085  95.353  21.052  1.00  0.00     0.047 A 
ATOM     14  C   UNL     1     -47.599  95.737  22.304  1.00  0.00     0.020 A 
ATOM     15  C   UNL     1     -47.633  94.175  20.453  1.00  0.00     0.119 A 
ATOM     16  C   UNL     1     -46.693  93.375  21.115  1.00  0.00     0.093 A 
ATOM     17  C   UNL     1     -46.206  93.743  22.374  1.00  0.00     0.130 A 
BRANCH  15  18
ATOM     18  O   UNL     1     -48.124  93.809  19.202  1.00  0.00    -0.508 OA
ATOM     19  H   UNL     1     -47.503  93.531  18.451  1.00  0.00     0.293 HD
ENDBRANCH  15  18
BRANCH  17  20
ATOM     20  O   UNL     1     -45.295  92.891  23.004  1.00  0.00    -0.507 OA
ATOM     21  H   UNL     1     -44.549  93.225  23.601  1.00  0.00     0.293 HD
ENDBRANCH  17  20
ENDBRANCH   1  12
BRANCH   2  22
ATOM     22  O   UNL     1     -46.191  97.715  23.560  1.00  0.00    -0.502 OA
ATOM     23  H   UNL     1     -46.030  97.556  22.574  1.00  0.00     0.293 HD
ENDBRANCH   2  22
BRANCH   6  24
ATOM     24  O   UNL     1     -44.445  97.710  28.597  1.00  0.00    -0.507 OA
ATOM     25  H   UNL     1     -45.196  98.347  28.818  1.00  0.00     0.293 HD
ENDBRANCH   6  24
BRANCH   8  26
ATOM     26  O   UNL     1     -44.212  92.984  29.403  1.00  0.00    -0.508 OA
ATOM     27  H   UNL     1     -44.631  92.068  29.291  1.00  0.00     0.293 HD
ENDBRANCH   8  26
TORSDOF 6
ENDMDL
