MODEL 1
REMARK VINA RESULT:    -3.993      0.000      0.000
REMARK INTER + INTRA:          -9.401
REMARK INTER:                  -7.028
REMARK INTRA:                  -2.373
REMARK UNBOUND:                -2.373
REMARK SMILES CCCCCCC=CCCCCCCCC(=O)[O-]
REMARK SMILES IDX 10 1 11 2 12 3 13 4 14 5 15 6 16 7 17 8 18 9 9 10 8 11 7 12
REMARK SMILES IDX 6 13 5 14 4 15 3 16 2 17 1 18
REMARK H PARENT
REMARK Flexibility Score: inf
ROOT
ATOM      1  C   UNL     1    -101.989  24.739  15.403  1.00  0.00     0.004 C 
ENDROOT
BRANCH   1   2
ATOM      2  C   UNL     1    -102.405  24.506  13.941  1.00  0.00     0.000 C 
BRANCH   2   3
ATOM      3  C   UNL     1    -103.106  23.154  13.735  1.00  0.00     0.000 C 
BRANCH   3   4
ATOM      4  C   UNL     1    -103.246  22.781  12.249  1.00  0.00     0.000 C 
BRANCH   4   5
ATOM      5  C   UNL     1    -104.228  21.621  12.024  1.00  0.00     0.006 C 
BRANCH   5   6
ATOM      6  C   UNL     1    -105.020  21.265  13.288  1.00  0.00     0.053 C 
BRANCH   6   7
ATOM      7  C   UNL     1    -105.138  19.779  13.429  1.00  0.00     0.041 C 
ATOM      8  O   UNL     1    -105.765  19.283  14.402  1.00  0.00    -0.550 OA
ATOM      9  O   UNL     1    -104.601  18.945  12.457  1.00  0.00    -0.550 OA
ENDBRANCH   6   7
ENDBRANCH   5   6
ENDBRANCH   4   5
ENDBRANCH   3   4
ENDBRANCH   2   3
ENDBRANCH   1   2
BRANCH   1  10
ATOM     10  C   UNL     1    -102.496  23.627  16.332  1.00  0.00     0.027 C 
BRANCH  10  11
ATOM     11  C   UNL     1    -103.312  24.188  17.472  1.00  0.00    -0.031 C 
ATOM     12  C   UNL     1    -104.653  24.111  17.576  1.00  0.00    -0.031 C 
BRANCH  12  13
ATOM     13  C   UNL     1    -105.552  23.407  16.593  1.00  0.00     0.027 C 
BRANCH  13  14
ATOM     14  C   UNL     1    -106.557  24.382  15.968  1.00  0.00     0.004 C 
BRANCH  14  15
ATOM     15  C   UNL     1    -105.880  25.261  14.907  1.00  0.00     0.000 C 
BRANCH  15  16
ATOM     16  C   UNL     1    -106.037  26.767  15.184  1.00  0.00    -0.000 C 
BRANCH  16  17
ATOM     17  C   UNL     1    -104.740  27.587  15.060  1.00  0.00    -0.003 C 
ATOM     18  C   UNL     1    -103.968  27.691  16.375  1.00  0.00     0.004 C 
ENDBRANCH  16  17
ENDBRANCH  15  16
ENDBRANCH  14  15
ENDBRANCH  13  14
ENDBRANCH  12  13
ENDBRANCH  10  11
ENDBRANCH   1  10
TORSDOF 13
ENDMDL
MODEL 2
REMARK VINA RESULT:    -3.826      4.328      7.116
REMARK INTER + INTRA:          -9.107
REMARK INTER:                  -7.962
REMARK INTRA:                  -1.145
REMARK UNBOUND:                -2.373
REMARK SMILES CCCCCCC=CCCCCCCCC(=O)[O-]
REMARK SMILES IDX 10 1 11 2 12 3 13 4 14 5 15 6 16 7 17 8 18 9 9 10 8 11 7 12
REMARK SMILES IDX 6 13 5 14 4 15 3 16 2 17 1 18
REMARK H PARENT
REMARK Flexibility Score: inf
ROOT
ATOM      1  C   UNL     1    -105.299  19.997  13.240  1.00  0.00     0.004 C 
ENDROOT
BRANCH   1   2
ATOM      2  C   UNL     1    -104.600  20.339  11.913  1.00  0.00     0.000 C 
BRANCH   2   3
ATOM      3  C   UNL     1    -103.846  21.676  11.970  1.00  0.00     0.000 C 
BRANCH   3   4
ATOM      4  C   UNL     1    -104.309  22.567  13.135  1.00  0.00     0.000 C 
BRANCH   4   5
ATOM      5  C   UNL     1    -103.134  23.115  13.961  1.00  0.00     0.006 C 
BRANCH   5   6
ATOM      6  C   UNL     1    -103.150  22.616  15.411  1.00  0.00     0.053 C 
BRANCH   6   7
ATOM      7  C   UNL     1    -102.408  23.567  16.298  1.00  0.00     0.041 C 
ATOM      8  O   UNL     1    -102.605  24.807  16.203  1.00  0.00    -0.550 OA
ATOM      9  O   UNL     1    -101.539  23.079  17.265  1.00  0.00    -0.550 OA
ENDBRANCH   6   7
ENDBRANCH   5   6
ENDBRANCH   4   5
ENDBRANCH   3   4
ENDBRANCH   2   3
ENDBRANCH   1   2
BRANCH   1  10
ATOM     10  C   UNL     1    -104.696  18.752  13.905  1.00  0.00     0.027 C 
BRANCH  10  11
ATOM     11  C   UNL     1    -104.045  19.091  15.226  1.00  0.00    -0.031 C 
ATOM     12  C   UNL     1    -103.728  18.200  16.185  1.00  0.00    -0.031 C 
BRANCH  12  13
ATOM     13  C   UNL     1    -103.927  16.711  16.072  1.00  0.00     0.027 C 
BRANCH  13  14
ATOM     14  C   UNL     1    -104.628  16.152  17.317  1.00  0.00     0.004 C 
BRANCH  14  15
ATOM     15  C   UNL     1    -104.983  17.280  18.297  1.00  0.00     0.000 C 
BRANCH  15  16
ATOM     16  C   UNL     1    -105.624  16.765  19.598  1.00  0.00    -0.000 C 
BRANCH  16  17
ATOM     17  C   UNL     1    -106.916  17.492  20.016  1.00  0.00    -0.003 C 
ATOM     18  C   UNL     1    -108.184  16.772  19.558  1.00  0.00     0.004 C 
ENDBRANCH  16  17
ENDBRANCH  15  16
ENDBRANCH  14  15
ENDBRANCH  13  14
ENDBRANCH  12  13
ENDBRANCH  10  11
ENDBRANCH   1  10
TORSDOF 13
ENDMDL
MODEL 3
REMARK VINA RESULT:    -3.822      1.860      3.135
REMARK INTER + INTRA:          -9.100
REMARK INTER:                  -7.012
REMARK INTRA:                  -2.088
REMARK UNBOUND:                -2.373
REMARK SMILES CCCCCCC=CCCCCCCCC(=O)[O-]
REMARK SMILES IDX 10 1 11 2 12 3 13 4 14 5 15 6 16 7 17 8 18 9 9 10 8 11 7 12
REMARK SMILES IDX 6 13 5 14 4 15 3 16 2 17 1 18
REMARK H PARENT
REMARK Flexibility Score: inf
ROOT
ATOM      1  C   UNL     1    -102.918  23.165  12.668  1.00  0.00     0.004 C 
ENDROOT
BRANCH   1   2
ATOM      2  C   UNL     1    -103.877  21.966  12.575  1.00  0.00     0.000 C 
BRANCH   2   3
ATOM      3  C   UNL     1    -104.723  21.787  13.844  1.00  0.00     0.000 C 
BRANCH   3   4
ATOM      4  C   UNL     1    -104.045  20.879  14.884  1.00  0.00     0.000 C 
BRANCH   4   5
ATOM      5  C   UNL     1    -104.873  19.623  15.199  1.00  0.00     0.006 C 
BRANCH   5   6
ATOM      6  C   UNL     1    -104.233  18.342  14.650  1.00  0.00     0.053 C 
BRANCH   6   7
ATOM      7  C   UNL     1    -103.415  17.671  15.710  1.00  0.00     0.041 C 
ATOM      8  O   UNL     1    -103.942  17.351  16.808  1.00  0.00    -0.550 OA
ATOM      9  O   UNL     1    -102.086  17.353  15.465  1.00  0.00    -0.550 OA
ENDBRANCH   6   7
ENDBRANCH   5   6
ENDBRANCH   4   5
ENDBRANCH   3   4
ENDBRANCH   2   3
ENDBRANCH   1   2
BRANCH   1  10
ATOM     10  C   UNL     1    -103.415  24.225  13.660  1.00  0.00     0.027 C 
BRANCH  10  11
ATOM     11  C   UNL     1    -102.264  24.900  14.369  1.00  0.00    -0.031 C 
ATOM     12  C   UNL     1    -101.905  24.677  15.648  1.00  0.00    -0.031 C 
BRANCH  12  13
ATOM     13  C   UNL     1    -102.564  23.679  16.564  1.00  0.00     0.027 C 
BRANCH  13  14
ATOM     14  C   UNL     1    -103.566  24.367  17.500  1.00  0.00     0.004 C 
BRANCH  14  15
ATOM     15  C   UNL     1    -105.004  23.941  17.171  1.00  0.00     0.000 C 
BRANCH  15  16
ATOM     16  C   UNL     1    -105.758  24.978  16.319  1.00  0.00    -0.000 C 
BRANCH  16  17
ATOM     17  C   UNL     1    -105.188  26.407  16.384  1.00  0.00    -0.003 C 
ATOM     18  C   UNL     1    -105.473  27.223  15.124  1.00  0.00     0.004 C 
ENDBRANCH  16  17
ENDBRANCH  15  16
ENDBRANCH  14  15
ENDBRANCH  13  14
ENDBRANCH  12  13
ENDBRANCH  10  11
ENDBRANCH   1  10
TORSDOF 13
ENDMDL
MODEL 4
REMARK VINA RESULT:    -3.692      3.677      6.363
REMARK INTER + INTRA:          -8.871
REMARK INTER:                  -6.861
REMARK INTRA:                  -2.010
REMARK UNBOUND:                -2.373
REMARK SMILES CCCCCCC=CCCCCCCCC(=O)[O-]
REMARK SMILES IDX 10 1 11 2 12 3 13 4 14 5 15 6 16 7 17 8 18 9 9 10 8 11 7 12
REMARK SMILES IDX 6 13 5 14 4 15 3 16 2 17 1 18
REMARK H PARENT
REMARK Flexibility Score: inf
ROOT
ATOM      1  C   UNL     1    -104.875  18.841  15.707  1.00  0.00     0.004 C 
ENDROOT
BRANCH   1   2
ATOM      2  C   UNL     1    -103.585  18.035  15.483  1.00  0.00     0.000 C 
BRANCH   2   3
ATOM      3  C   UNL     1    -103.521  16.770  16.352  1.00  0.00     0.000 C 
BRANCH   3   4
ATOM      4  C   UNL     1    -104.915  16.269  16.770  1.00  0.00     0.000 C 
BRANCH   4   5
ATOM      5  C   UNL     1    -104.985  15.903  18.262  1.00  0.00     0.006 C 
BRANCH   5   6
ATOM      6  C   UNL     1    -105.462  17.071  19.133  1.00  0.00     0.053 C 
BRANCH   6   7
ATOM      7  C   UNL     1    -106.899  17.380  18.852  1.00  0.00     0.041 C 
ATOM      8  O   UNL     1    -107.786  16.508  19.052  1.00  0.00    -0.550 OA
ATOM      9  O   UNL     1    -107.265  18.648  18.420  1.00  0.00    -0.550 OA
ENDBRANCH   6   7
ENDBRANCH   5   6
ENDBRANCH   4   5
ENDBRANCH   3   4
ENDBRANCH   2   3
ENDBRANCH   1   2
BRANCH   1  10
ATOM     10  C   UNL     1    -105.610  19.130  14.391  1.00  0.00     0.027 C 
BRANCH  10  11
ATOM     11  C   UNL     1    -104.796  18.695  13.196  1.00  0.00    -0.031 C 
ATOM     12  C   UNL     1    -104.516  19.465  12.127  1.00  0.00    -0.031 C 
BRANCH  12  13
ATOM     13  C   UNL     1    -104.932  20.905  11.973  1.00  0.00     0.027 C 
BRANCH  13  14
ATOM     14  C   UNL     1    -103.713  21.834  11.961  1.00  0.00     0.004 C 
BRANCH  14  15
ATOM     15  C   UNL     1    -103.817  22.889  13.071  1.00  0.00     0.000 C 
BRANCH  15  16
ATOM     16  C   UNL     1    -103.541  22.316  14.473  1.00  0.00    -0.000 C 
BRANCH  16  17
ATOM     17  C   UNL     1    -104.661  22.552  15.502  1.00  0.00    -0.003 C 
ATOM     18  C   UNL     1    -105.974  23.007  14.865  1.00  0.00     0.004 C 
ENDBRANCH  16  17
ENDBRANCH  15  16
ENDBRANCH  14  15
ENDBRANCH  13  14
ENDBRANCH  12  13
ENDBRANCH  10  11
ENDBRANCH   1  10
TORSDOF 13
ENDMDL
MODEL 5
REMARK VINA RESULT:    -3.649      3.858      6.852
REMARK INTER + INTRA:          -8.795
REMARK INTER:                  -7.473
REMARK INTRA:                  -1.322
REMARK UNBOUND:                -2.373
REMARK SMILES CCCCCCC=CCCCCCCCC(=O)[O-]
REMARK SMILES IDX 10 1 11 2 12 3 13 4 14 5 15 6 16 7 17 8 18 9 9 10 8 11 7 12
REMARK SMILES IDX 6 13 5 14 4 15 3 16 2 17 1 18
REMARK H PARENT
REMARK Flexibility Score: inf
ROOT
ATOM      1  C   UNL     1    -104.905  21.353  11.951  1.00  0.00     0.004 C 
ENDROOT
BRANCH   1   2
ATOM      2  C   UNL     1    -103.499  21.970  11.876  1.00  0.00     0.000 C 
BRANCH   2   3
ATOM      3  C   UNL     1    -103.446  23.390  12.461  1.00  0.00     0.000 C 
BRANCH   3   4
ATOM      4  C   UNL     1    -104.726  23.763  13.227  1.00  0.00     0.000 C 
BRANCH   4   5
ATOM      5  C   UNL     1    -104.474  23.970  14.729  1.00  0.00     0.006 C 
BRANCH   5   6
ATOM      6  C   UNL     1    -103.275  23.163  15.242  1.00  0.00     0.053 C 
BRANCH   6   7
ATOM      7  C   UNL     1    -102.563  23.917  16.322  1.00  0.00     0.041 C 
ATOM      8  O   UNL     1    -101.536  24.593  16.050  1.00  0.00    -0.550 OA
ATOM      9  O   UNL     1    -103.063  23.914  17.617  1.00  0.00    -0.550 OA
ENDBRANCH   6   7
ENDBRANCH   5   6
ENDBRANCH   4   5
ENDBRANCH   3   4
ENDBRANCH   2   3
ENDBRANCH   1   2
BRANCH   1  10
ATOM     10  C   UNL     1    -104.913  20.028  12.725  1.00  0.00     0.027 C 
BRANCH  10  11
ATOM     11  C   UNL     1    -105.146  20.251  14.201  1.00  0.00    -0.031 C 
ATOM     12  C   UNL     1    -104.676  19.464  15.187  1.00  0.00    -0.031 C 
BRANCH  12  13
ATOM     13  C   UNL     1    -103.799  18.256  14.978  1.00  0.00     0.027 C 
BRANCH  13  14
ATOM     14  C   UNL     1    -103.492  17.559  16.309  1.00  0.00     0.004 C 
BRANCH  14  15
ATOM     15  C   UNL     1    -104.360  16.305  16.483  1.00  0.00     0.000 C 
BRANCH  15  16
ATOM     16  C   UNL     1    -104.779  16.062  17.944  1.00  0.00    -0.000 C 
BRANCH  16  17
ATOM     17  C   UNL     1    -105.348  17.296  18.669  1.00  0.00    -0.003 C 
ATOM     18  C   UNL     1    -105.941  16.965  20.039  1.00  0.00     0.004 C 
ENDBRANCH  16  17
ENDBRANCH  15  16
ENDBRANCH  14  15
ENDBRANCH  13  14
ENDBRANCH  12  13
ENDBRANCH  10  11
ENDBRANCH   1  10
TORSDOF 13
ENDMDL
MODEL 6
REMARK VINA RESULT:    -3.636      3.985      7.127
REMARK INTER + INTRA:          -8.773
REMARK INTER:                  -7.676
REMARK INTRA:                  -1.096
REMARK UNBOUND:                -2.373
REMARK SMILES CCCCCCC=CCCCCCCCC(=O)[O-]
REMARK SMILES IDX 10 1 11 2 12 3 13 4 14 5 15 6 16 7 17 8 18 9 9 10 8 11 7 12
REMARK SMILES IDX 6 13 5 14 4 15 3 16 2 17 1 18
REMARK H PARENT
REMARK Flexibility Score: inf
ROOT
ATOM      1  C   UNL     1    -104.259  21.486  12.150  1.00  0.00     0.004 C 
ENDROOT
BRANCH   1   2
ATOM      2  C   UNL     1    -103.492  22.421  13.100  1.00  0.00     0.000 C 
BRANCH   2   3
ATOM      3  C   UNL     1    -104.062  22.412  14.526  1.00  0.00     0.000 C 
BRANCH   3   4
ATOM      4  C   UNL     1    -102.965  22.487  15.602  1.00  0.00     0.000 C 
BRANCH   4   5
ATOM      5  C   UNL     1    -102.427  23.914  15.796  1.00  0.00     0.006 C 
BRANCH   5   6
ATOM      6  C   UNL     1    -103.301  24.749  16.740  1.00  0.00     0.053 C 
BRANCH   6   7
ATOM      7  C   UNL     1    -103.828  25.958  16.031  1.00  0.00     0.041 C 
ATOM      8  O   UNL     1    -103.631  27.107  16.506  1.00  0.00    -0.550 OA
ATOM      9  O   UNL     1    -104.489  25.818  14.818  1.00  0.00    -0.550 OA
ENDBRANCH   6   7
ENDBRANCH   5   6
ENDBRANCH   4   5
ENDBRANCH   3   4
ENDBRANCH   2   3
ENDBRANCH   1   2
BRANCH   1  10
ATOM     10  C   UNL     1    -105.245  20.582  12.903  1.00  0.00     0.027 C 
BRANCH  10  11
ATOM     11  C   UNL     1    -104.909  19.121  12.715  1.00  0.00    -0.031 C 
ATOM     12  C   UNL     1    -104.537  18.279  13.699  1.00  0.00    -0.031 C 
BRANCH  12  13
ATOM     13  C   UNL     1    -104.442  18.649  15.156  1.00  0.00     0.027 C 
BRANCH  13  14
ATOM     14  C   UNL     1    -103.384  17.803  15.873  1.00  0.00     0.004 C 
BRANCH  14  15
ATOM     15  C   UNL     1    -104.041  16.814  16.847  1.00  0.00     0.000 C 
BRANCH  15  16
ATOM     16  C   UNL     1    -104.881  17.509  17.933  1.00  0.00    -0.000 C 
BRANCH  16  17
ATOM     17  C   UNL     1    -105.308  16.602  19.102  1.00  0.00    -0.003 C 
ATOM     18  C   UNL     1    -106.548  17.112  19.835  1.00  0.00     0.004 C 
ENDBRANCH  16  17
ENDBRANCH  15  16
ENDBRANCH  14  15
ENDBRANCH  13  14
ENDBRANCH  12  13
ENDBRANCH  10  11
ENDBRANCH   1  10
TORSDOF 13
ENDMDL
MODEL 7
REMARK VINA RESULT:    -3.566      1.184      2.653
REMARK INTER + INTRA:          -8.649
REMARK INTER:                  -6.433
REMARK INTRA:                  -2.216
REMARK UNBOUND:                -2.373
REMARK SMILES CCCCCCC=CCCCCCCCC(=O)[O-]
REMARK SMILES IDX 10 1 11 2 12 3 13 4 14 5 15 6 16 7 17 8 18 9 9 10 8 11 7 12
REMARK SMILES IDX 6 13 5 14 4 15 3 16 2 17 1 18
REMARK H PARENT
REMARK Flexibility Score: inf
ROOT
ATOM      1  C   UNL     1    -103.462  22.768  14.173  1.00  0.00     0.004 C 
ENDROOT
BRANCH   1   2
ATOM      2  C   UNL     1    -103.284  22.839  12.647  1.00  0.00     0.000 C 
BRANCH   2   3
ATOM      3  C   UNL     1    -103.991  21.688  11.916  1.00  0.00     0.000 C 
BRANCH   3   4
ATOM      4  C   UNL     1    -105.509  21.674  12.165  1.00  0.00     0.000 C 
BRANCH   4   5
ATOM      5  C   UNL     1    -105.959  20.455  12.987  1.00  0.00     0.006 C 
BRANCH   5   6
ATOM      6  C   UNL     1    -104.879  19.370  13.070  1.00  0.00     0.053 C 
BRANCH   6   7
ATOM      7  C   UNL     1    -104.570  19.050  14.500  1.00  0.00     0.041 C 
ATOM      8  O   UNL     1    -103.807  18.089  14.784  1.00  0.00    -0.550 OA
ATOM      9  O   UNL     1    -105.083  19.846  15.516  1.00  0.00    -0.550 OA
ENDBRANCH   6   7
ENDBRANCH   5   6
ENDBRANCH   4   5
ENDBRANCH   3   4
ENDBRANCH   2   3
ENDBRANCH   1   2
BRANCH   1  10
ATOM     10  C   UNL     1    -102.710  23.895  14.895  1.00  0.00     0.027 C 
BRANCH  10  11
ATOM     11  C   UNL     1    -103.094  23.969  16.354  1.00  0.00    -0.031 C 
ATOM     12  C   UNL     1    -103.519  25.080  16.988  1.00  0.00    -0.031 C 
BRANCH  12  13
ATOM     13  C   UNL     1    -103.726  26.419  16.329  1.00  0.00     0.027 C 
BRANCH  13  14
ATOM     14  C   UNL     1    -105.216  26.773  16.254  1.00  0.00     0.004 C 
BRANCH  14  15
ATOM     15  C   UNL     1    -105.729  26.676  14.810  1.00  0.00     0.000 C 
BRANCH  15  16
ATOM     16  C   UNL     1    -106.213  25.263  14.439  1.00  0.00    -0.000 C 
BRANCH  16  17
ATOM     17  C   UNL     1    -107.090  24.578  15.503  1.00  0.00    -0.003 C 
ATOM     18  C   UNL     1    -106.700  23.121  15.754  1.00  0.00     0.004 C 
ENDBRANCH  16  17
ENDBRANCH  15  16
ENDBRANCH  14  15
ENDBRANCH  13  14
ENDBRANCH  12  13
ENDBRANCH  10  11
ENDBRANCH   1  10
TORSDOF 13
ENDMDL
MODEL 8
REMARK VINA RESULT:    -3.523      2.130      4.163
REMARK INTER + INTRA:          -8.573
REMARK INTER:                  -6.868
REMARK INTRA:                  -1.706
REMARK UNBOUND:                -2.373
REMARK SMILES CCCCCCC=CCCCCCCCC(=O)[O-]
REMARK SMILES IDX 10 1 11 2 12 3 13 4 14 5 15 6 16 7 17 8 18 9 9 10 8 11 7 12
REMARK SMILES IDX 6 13 5 14 4 15 3 16 2 17 1 18
REMARK H PARENT
REMARK Flexibility Score: inf
ROOT
ATOM      1  C   UNL     1    -103.871  22.120  12.085  1.00  0.00     0.004 C 
ENDROOT
BRANCH   1   2
ATOM      2  C   UNL     1    -104.613  20.789  11.880  1.00  0.00     0.000 C 
BRANCH   2   3
ATOM      3  C   UNL     1    -105.056  20.150  13.204  1.00  0.00     0.000 C 
BRANCH   3   4
ATOM      4  C   UNL     1    -104.643  18.672  13.315  1.00  0.00     0.000 C 
BRANCH   4   5
ATOM      5  C   UNL     1    -105.303  17.964  14.509  1.00  0.00     0.006 C 
BRANCH   5   6
ATOM      6  C   UNL     1    -104.848  18.535  15.858  1.00  0.00     0.053 C 
BRANCH   6   7
ATOM      7  C   UNL     1    -104.392  17.434  16.764  1.00  0.00     0.041 C 
ATOM      8  O   UNL     1    -103.676  16.500  16.315  1.00  0.00    -0.550 OA
ATOM      9  O   UNL     1    -104.713  17.468  18.114  1.00  0.00    -0.550 OA
ENDBRANCH   6   7
ENDBRANCH   5   6
ENDBRANCH   4   5
ENDBRANCH   3   4
ENDBRANCH   2   3
ENDBRANCH   1   2
BRANCH   1  10
ATOM     10  C   UNL     1    -103.517  22.362  13.559  1.00  0.00     0.027 C 
BRANCH  10  11
ATOM     11  C   UNL     1    -103.097  23.793  13.799  1.00  0.00    -0.031 C 
ATOM     12  C   UNL     1    -102.649  24.283  14.972  1.00  0.00    -0.031 C 
BRANCH  12  13
ATOM     13  C   UNL     1    -102.448  23.467  16.222  1.00  0.00     0.027 C 
BRANCH  13  14
ATOM     14  C   UNL     1    -103.161  24.107  17.419  1.00  0.00     0.004 C 
BRANCH  14  15
ATOM     15  C   UNL     1    -104.595  24.512  17.050  1.00  0.00     0.000 C 
BRANCH  15  16
ATOM     16  C   UNL     1    -105.632  23.427  17.391  1.00  0.00    -0.000 C 
BRANCH  16  17
ATOM     17  C   UNL     1    -106.292  22.755  16.173  1.00  0.00    -0.003 C 
ATOM     18  C   UNL     1    -106.598  23.735  15.040  1.00  0.00     0.004 C 
ENDBRANCH  16  17
ENDBRANCH  15  16
ENDBRANCH  14  15
ENDBRANCH  13  14
ENDBRANCH  12  13
ENDBRANCH  10  11
ENDBRANCH   1  10
TORSDOF 13
ENDMDL
MODEL 9
REMARK VINA RESULT:    -3.522      1.272      2.033
REMARK INTER + INTRA:          -8.571
REMARK INTER:                  -6.892
REMARK INTRA:                  -1.679
REMARK UNBOUND:                -2.373
REMARK SMILES CCCCCCC=CCCCCCCCC(=O)[O-]
REMARK SMILES IDX 10 1 11 2 12 3 13 4 14 5 15 6 16 7 17 8 18 9 9 10 8 11 7 12
REMARK SMILES IDX 6 13 5 14 4 15 3 16 2 17 1 18
REMARK H PARENT
REMARK Flexibility Score: inf
ROOT
ATOM      1  C   UNL     1    -102.864  23.500  14.240  1.00  0.00     0.004 C 
ENDROOT
BRANCH   1   2
ATOM      2  C   UNL     1    -104.088  23.080  13.408  1.00  0.00     0.000 C 
BRANCH   2   3
ATOM      3  C   UNL     1    -103.700  22.471  12.053  1.00  0.00     0.000 C 
BRANCH   3   4
ATOM      4  C   UNL     1    -104.228  21.037  11.876  1.00  0.00     0.000 C 
BRANCH   4   5
ATOM      5  C   UNL     1    -104.777  20.446  13.185  1.00  0.00     0.006 C 
BRANCH   5   6
ATOM      6  C   UNL     1    -104.854  18.915  13.154  1.00  0.00     0.053 C 
BRANCH   6   7
ATOM      7  C   UNL     1    -104.698  18.357  14.534  1.00  0.00     0.041 C 
ATOM      8  O   UNL     1    -103.585  17.905  14.913  1.00  0.00    -0.550 OA
ATOM      9  O   UNL     1    -105.767  18.384  15.419  1.00  0.00    -0.550 OA
ENDBRANCH   6   7
ENDBRANCH   5   6
ENDBRANCH   4   5
ENDBRANCH   3   4
ENDBRANCH   2   3
ENDBRANCH   1   2
BRANCH   1  10
ATOM     10  C   UNL     1    -102.862  22.852  15.631  1.00  0.00     0.027 C 
BRANCH  10  11
ATOM     11  C   UNL     1    -102.594  23.871  16.714  1.00  0.00    -0.031 C 
ATOM     12  C   UNL     1    -103.541  24.517  17.421  1.00  0.00    -0.031 C 
BRANCH  12  13
ATOM     13  C   UNL     1    -105.024  24.292  17.277  1.00  0.00     0.027 C 
BRANCH  13  14
ATOM     14  C   UNL     1    -105.607  25.154  16.151  1.00  0.00     0.004 C 
BRANCH  14  15
ATOM     15  C   UNL     1    -105.370  26.646  16.426  1.00  0.00     0.000 C 
BRANCH  15  16
ATOM     16  C   UNL     1    -104.508  27.326  15.347  1.00  0.00    -0.000 C 
BRANCH  16  17
ATOM     17  C   UNL     1    -104.991  27.109  13.900  1.00  0.00    -0.003 C 
ATOM     18  C   UNL     1    -103.852  26.804  12.928  1.00  0.00     0.004 C 
ENDBRANCH  16  17
ENDBRANCH  15  16
ENDBRANCH  14  15
ENDBRANCH  13  14
ENDBRANCH  12  13
ENDBRANCH  10  11
ENDBRANCH   1  10
TORSDOF 13
ENDMDL
