MODEL 1
REMARK VINA RESULT:    -7.257      0.000      0.000
REMARK INTER + INTRA:          -9.785
REMARK INTER:                  -9.166
REMARK INTRA:                  -0.619
REMARK UNBOUND:                -0.619
REMARK SMILES O=C(C=Cc1ccc(O)cc1)c1ccc(O)cc1O
REMARK SMILES IDX 4 1 3 2 5 3 6 4 7 5 8 6 11 7 10 8 9 9 2 11 1 12 12 13 18 14
REMARK SMILES IDX 13 15 17 16 14 17 15 18 19 19 16 21
REMARK H PARENT 9 10 19 20 16 22
REMARK Flexibility Score: inf
ROOT
ATOM      1  C   UNL     1     -11.439  -0.442  -9.999  1.00  0.00     0.012 C 
ATOM      2  C   UNL     1     -10.623  -1.118  -9.177  1.00  0.00     0.053 C 
ENDROOT
BRANCH   1   3
ATOM      3  C   UNL     1     -12.100   0.835  -9.636  1.00  0.00    -0.025 A 
ATOM      4  C   UNL     1     -13.498   1.010  -9.702  1.00  0.00     0.012 A 
ATOM      5  C   UNL     1     -14.076   2.231  -9.337  1.00  0.00     0.047 A 
ATOM      6  C   UNL     1     -13.275   3.285  -8.893  1.00  0.00     0.115 A 
ATOM      7  C   UNL     1     -11.306   1.898  -9.173  1.00  0.00     0.012 A 
ATOM      8  C   UNL     1     -11.887   3.116  -8.810  1.00  0.00     0.047 A 
BRANCH   6   9
ATOM      9  O   UNL     1     -13.866   4.495  -8.535  1.00  0.00    -0.508 OA
ATOM     10  H   UNL     1     -14.138   5.178  -9.233  1.00  0.00     0.293 HD
ENDBRANCH   6   9
ENDBRANCH   1   3
BRANCH   2  11
ATOM     11  C   UNL     1      -9.994  -2.398  -9.569  1.00  0.00     0.189 C 
ATOM     12  O   UNL     1      -9.122  -2.417 -10.480  1.00  0.00    -0.289 OA
BRANCH  11  13
ATOM     13  C   UNL     1     -10.408  -3.676  -8.942  1.00  0.00     0.064 A 
ATOM     14  C   UNL     1      -9.569  -4.370  -8.042  1.00  0.00     0.130 A 
ATOM     15  C   UNL     1     -11.659  -4.225  -9.273  1.00  0.00     0.020 A 
ATOM     16  C   UNL     1     -10.009  -5.570  -7.462  1.00  0.00     0.093 A 
ATOM     17  C   UNL     1     -12.085  -5.423  -8.695  1.00  0.00     0.047 A 
ATOM     18  C   UNL     1     -11.262  -6.096  -7.784  1.00  0.00     0.119 A 
BRANCH  14  19
ATOM     19  O   UNL     1      -8.295  -3.888  -7.743  1.00  0.00    -0.507 OA
ATOM     20  H   UNL     1      -8.108  -2.896  -7.654  1.00  0.00     0.293 HD
ENDBRANCH  14  19
BRANCH  18  21
ATOM     21  O   UNL     1     -11.678  -7.289  -7.199  1.00  0.00    -0.508 OA
ATOM     22  H   UNL     1     -12.178  -7.994  -7.729  1.00  0.00     0.293 HD
ENDBRANCH  18  21
ENDBRANCH  11  13
ENDBRANCH   2  11
TORSDOF 6
ENDMDL
MODEL 2
REMARK VINA RESULT:    -7.206      1.278      1.802
REMARK INTER + INTRA:          -9.721
REMARK INTER:                  -9.053
REMARK INTRA:                  -0.668
REMARK UNBOUND:                -0.619
REMARK SMILES O=C(C=Cc1ccc(O)cc1)c1ccc(O)cc1O
REMARK SMILES IDX 4 1 3 2 5 3 6 4 7 5 8 6 11 7 10 8 9 9 2 11 1 12 12 13 18 14
REMARK SMILES IDX 13 15 17 16 14 17 15 18 19 19 16 21
REMARK H PARENT 9 10 19 20 16 22
REMARK Flexibility Score: inf
ROOT
ATOM      1  C   UNL     1     -11.755  -1.543 -10.008  1.00  0.00     0.012 C 
ATOM      2  C   UNL     1     -10.724  -1.987  -9.275  1.00  0.00     0.053 C 
ENDROOT
BRANCH   1   3
ATOM      3  C   UNL     1     -12.366  -0.201  -9.842  1.00  0.00    -0.025 A 
ATOM      4  C   UNL     1     -13.748   0.027 -10.008  1.00  0.00     0.012 A 
ATOM      5  C   UNL     1     -14.279   1.309  -9.829  1.00  0.00     0.047 A 
ATOM      6  C   UNL     1     -13.447   2.373  -9.473  1.00  0.00     0.115 A 
ATOM      7  C   UNL     1     -11.541   0.874  -9.469  1.00  0.00     0.012 A 
ATOM      8  C   UNL     1     -12.076   2.153  -9.292  1.00  0.00     0.047 A 
BRANCH   6   9
ATOM      9  O   UNL     1     -13.992   3.644  -9.300  1.00  0.00    -0.508 OA
ATOM     10  H   UNL     1     -13.437   4.481  -9.441  1.00  0.00     0.293 HD
ENDBRANCH   6   9
ENDBRANCH   1   3
BRANCH   2  11
ATOM     11  C   UNL     1     -10.151  -3.338  -9.458  1.00  0.00     0.189 C 
ATOM     12  O   UNL     1      -9.493  -3.606 -10.500  1.00  0.00    -0.289 OA
BRANCH  11  13
ATOM     13  C   UNL     1     -10.379  -4.407  -8.457  1.00  0.00     0.064 A 
ATOM     14  C   UNL     1     -10.936  -5.656  -8.813  1.00  0.00     0.130 A 
ATOM     15  C   UNL     1     -10.055  -4.161  -7.110  1.00  0.00     0.020 A 
ATOM     16  C   UNL     1     -11.120  -6.643  -7.833  1.00  0.00     0.093 A 
ATOM     17  C   UNL     1     -10.248  -5.149  -6.142  1.00  0.00     0.047 A 
ATOM     18  C   UNL     1     -10.777  -6.394  -6.501  1.00  0.00     0.119 A 
BRANCH  14  19
ATOM     19  O   UNL     1     -11.329  -5.908 -10.126  1.00  0.00    -0.507 OA
ATOM     20  H   UNL     1     -10.718  -5.718 -10.912  1.00  0.00     0.293 HD
ENDBRANCH  14  19
BRANCH  18  21
ATOM     21  O   UNL     1     -10.969  -7.387  -5.545  1.00  0.00    -0.508 OA
ATOM     22  H   UNL     1     -11.643  -8.132  -5.682  1.00  0.00     0.293 HD
ENDBRANCH  18  21
ENDBRANCH  11  13
ENDBRANCH   2  11
TORSDOF 6
ENDMDL
MODEL 3
REMARK VINA RESULT:    -6.799      1.668      7.466
REMARK INTER + INTRA:          -9.206
REMARK INTER:                  -8.924
REMARK INTRA:                  -0.282
REMARK UNBOUND:                -0.619
REMARK SMILES O=C(C=Cc1ccc(O)cc1)c1ccc(O)cc1O
REMARK SMILES IDX 4 1 3 2 5 3 6 4 7 5 8 6 11 7 10 8 9 9 2 11 1 12 12 13 18 14
REMARK SMILES IDX 13 15 17 16 14 17 15 18 19 19 16 21
REMARK H PARENT 9 10 19 20 16 22
REMARK Flexibility Score: inf
ROOT
ATOM      1  C   UNL     1      -9.978  -3.115  -8.533  1.00  0.00     0.012 C 
ATOM      2  C   UNL     1     -10.847  -2.688  -9.461  1.00  0.00     0.053 C 
ENDROOT
BRANCH   1   3
ATOM      3  C   UNL     1     -10.070  -4.436  -7.865  1.00  0.00    -0.025 A 
ATOM      4  C   UNL     1      -9.952  -5.651  -8.570  1.00  0.00     0.012 A 
ATOM      5  C   UNL     1     -10.033  -6.873  -7.894  1.00  0.00     0.047 A 
ATOM      6  C   UNL     1     -10.222  -6.900  -6.510  1.00  0.00     0.115 A 
ATOM      7  C   UNL     1     -10.244  -4.476  -6.471  1.00  0.00     0.012 A 
ATOM      8  C   UNL     1     -10.325  -5.698  -5.799  1.00  0.00     0.047 A 
BRANCH   6   9
ATOM      9  O   UNL     1     -10.303  -8.125  -5.851  1.00  0.00    -0.508 OA
ATOM     10  H   UNL     1      -9.778  -8.304  -5.002  1.00  0.00     0.293 HD
ENDBRANCH   6   9
ENDBRANCH   1   3
BRANCH   2  11
ATOM     11  C   UNL     1     -10.732  -1.356 -10.094  1.00  0.00     0.189 C 
ATOM     12  O   UNL     1      -9.674  -1.040 -10.706  1.00  0.00    -0.289 OA
BRANCH  11  13
ATOM     13  C   UNL     1     -11.822  -0.359  -9.981  1.00  0.00     0.064 A 
ATOM     14  C   UNL     1     -13.122  -0.616 -10.474  1.00  0.00     0.130 A 
ATOM     15  C   UNL     1     -11.550   0.888  -9.390  1.00  0.00     0.020 A 
ATOM     16  C   UNL     1     -14.126   0.353 -10.331  1.00  0.00     0.093 A 
ATOM     17  C   UNL     1     -12.556   1.847  -9.258  1.00  0.00     0.047 A 
ATOM     18  C   UNL     1     -13.848   1.581  -9.725  1.00  0.00     0.119 A 
BRANCH  14  19
ATOM     19  O   UNL     1     -13.409  -1.815 -11.125  1.00  0.00    -0.507 OA
ATOM     20  H   UNL     1     -13.927  -1.838 -11.995  1.00  0.00     0.293 HD
ENDBRANCH  14  19
BRANCH  18  21
ATOM     21  O   UNL     1     -14.860   2.529  -9.595  1.00  0.00    -0.508 OA
ATOM     22  H   UNL     1     -14.715   3.392  -9.083  1.00  0.00     0.293 HD
ENDBRANCH  18  21
ENDBRANCH  11  13
ENDBRANCH   2  11
TORSDOF 6
ENDMDL
MODEL 4
REMARK VINA RESULT:    -6.532      1.946      2.671
REMARK INTER + INTRA:          -8.870
REMARK INTER:                  -8.243
REMARK INTRA:                  -0.626
REMARK UNBOUND:                -0.619
REMARK SMILES O=C(C=Cc1ccc(O)cc1)c1ccc(O)cc1O
REMARK SMILES IDX 4 1 3 2 5 3 6 4 7 5 8 6 11 7 10 8 9 9 2 11 1 12 12 13 18 14
REMARK SMILES IDX 13 15 17 16 14 17 15 18 19 19 16 21
REMARK H PARENT 9 10 19 20 16 22
REMARK Flexibility Score: inf
ROOT
ATOM      1  C   UNL     1     -13.083  -0.290 -10.141  1.00  0.00     0.012 C 
ATOM      2  C   UNL     1     -13.728  -1.355  -9.645  1.00  0.00     0.053 C 
ENDROOT
BRANCH   1   3
ATOM      3  C   UNL     1     -13.247   1.089  -9.618  1.00  0.00    -0.025 A 
ATOM      4  C   UNL     1     -14.504   1.620  -9.263  1.00  0.00     0.012 A 
ATOM      5  C   UNL     1     -14.607   2.922  -8.763  1.00  0.00     0.047 A 
ATOM      6  C   UNL     1     -13.463   3.706  -8.600  1.00  0.00     0.115 A 
ATOM      7  C   UNL     1     -12.101   1.881  -9.435  1.00  0.00     0.012 A 
ATOM      8  C   UNL     1     -12.208   3.182  -8.935  1.00  0.00     0.047 A 
BRANCH   6   9
ATOM      9  O   UNL     1     -13.582   5.002  -8.101  1.00  0.00    -0.508 OA
ATOM     10  H   UNL     1     -14.404   5.297  -7.587  1.00  0.00     0.293 HD
ENDBRANCH   6   9
ENDBRANCH   1   3
BRANCH   2  11
ATOM     11  C   UNL     1     -13.551  -2.714 -10.203  1.00  0.00     0.189 C 
ATOM     12  O   UNL     1     -14.312  -3.119 -11.124  1.00  0.00    -0.289 OA
BRANCH  11  13
ATOM     13  C   UNL     1     -12.522  -3.634  -9.664  1.00  0.00     0.064 A 
ATOM     14  C   UNL     1     -12.861  -4.887  -9.107  1.00  0.00     0.130 A 
ATOM     15  C   UNL     1     -11.173  -3.237  -9.684  1.00  0.00     0.020 A 
ATOM     16  C   UNL     1     -11.851  -5.732  -8.622  1.00  0.00     0.093 A 
ATOM     17  C   UNL     1     -10.176  -4.082  -9.193  1.00  0.00     0.047 A 
ATOM     18  C   UNL     1     -10.512  -5.334  -8.665  1.00  0.00     0.119 A 
BRANCH  14  19
ATOM     19  O   UNL     1     -14.194  -5.284  -9.011  1.00  0.00    -0.507 OA
ATOM     20  H   UNL     1     -14.467  -6.121  -8.509  1.00  0.00     0.293 HD
ENDBRANCH  14  19
BRANCH  18  21
ATOM     21  O   UNL     1      -9.525  -6.187  -8.176  1.00  0.00    -0.508 OA
ATOM     22  H   UNL     1      -8.606  -6.232  -8.600  1.00  0.00     0.293 HD
ENDBRANCH  18  21
ENDBRANCH  11  13
ENDBRANCH   2  11
TORSDOF 6
ENDMDL
MODEL 5
REMARK VINA RESULT:    -6.371     17.434     19.844
REMARK INTER + INTRA:          -8.665
REMARK INTER:                  -8.049
REMARK INTRA:                  -0.616
REMARK UNBOUND:                -0.619
REMARK SMILES O=C(C=Cc1ccc(O)cc1)c1ccc(O)cc1O
REMARK SMILES IDX 4 1 3 2 5 3 6 4 7 5 8 6 11 7 10 8 9 9 2 11 1 12 12 13 18 14
REMARK SMILES IDX 13 15 17 16 14 17 15 18 19 19 16 21
REMARK H PARENT 9 10 19 20 16 22
REMARK Flexibility Score: inf
ROOT
ATOM      1  C   UNL     1      -9.794   8.243   6.111  1.00  0.00     0.012 C 
ATOM      2  C   UNL     1     -10.398   9.440   6.114  1.00  0.00     0.053 C 
ENDROOT
BRANCH   1   3
ATOM      3  C   UNL     1     -10.464   6.982   6.515  1.00  0.00    -0.025 A 
ATOM      4  C   UNL     1      -9.814   5.992   7.281  1.00  0.00     0.012 A 
ATOM      5  C   UNL     1     -10.492   4.824   7.648  1.00  0.00     0.047 A 
ATOM      6  C   UNL     1     -11.823   4.633   7.269  1.00  0.00     0.115 A 
ATOM      7  C   UNL     1     -11.807   6.786   6.153  1.00  0.00     0.012 A 
ATOM      8  C   UNL     1     -12.480   5.618   6.522  1.00  0.00     0.047 A 
BRANCH   6   9
ATOM      9  O   UNL     1     -12.483   3.464   7.641  1.00  0.00    -0.508 OA
ATOM     10  H   UNL     1     -13.495   3.403   7.634  1.00  0.00     0.293 HD
ENDBRANCH   6   9
ENDBRANCH   1   3
BRANCH   2  11
ATOM     11  C   UNL     1      -9.693  10.679   5.720  1.00  0.00     0.189 C 
ATOM     12  O   UNL     1     -10.254  11.503   4.947  1.00  0.00    -0.289 OA
BRANCH  11  13
ATOM     13  C   UNL     1      -8.309  10.950   6.177  1.00  0.00     0.064 A 
ATOM     14  C   UNL     1      -7.185  10.616   5.390  1.00  0.00     0.130 A 
ATOM     15  C   UNL     1      -8.109  11.532   7.442  1.00  0.00     0.020 A 
ATOM     16  C   UNL     1      -5.894  10.904   5.858  1.00  0.00     0.093 A 
ATOM     17  C   UNL     1      -6.820  11.810   7.901  1.00  0.00     0.047 A 
ATOM     18  C   UNL     1      -5.709  11.501   7.108  1.00  0.00     0.119 A 
BRANCH  14  19
ATOM     19  O   UNL     1      -7.344   9.977   4.160  1.00  0.00    -0.507 OA
ATOM     20  H   UNL     1      -8.259   9.834   3.748  1.00  0.00     0.293 HD
ENDBRANCH  14  19
BRANCH  18  21
ATOM     21  O   UNL     1      -4.419  11.776   7.554  1.00  0.00    -0.508 OA
ATOM     22  H   UNL     1      -3.716  12.163   6.935  1.00  0.00     0.293 HD
ENDBRANCH  18  21
ENDBRANCH  11  13
ENDBRANCH   2  11
TORSDOF 6
ENDMDL
MODEL 6
REMARK VINA RESULT:    -6.354     17.552     19.912
REMARK INTER + INTRA:          -8.644
REMARK INTER:                  -8.092
REMARK INTRA:                  -0.552
REMARK UNBOUND:                -0.619
REMARK SMILES O=C(C=Cc1ccc(O)cc1)c1ccc(O)cc1O
REMARK SMILES IDX 4 1 3 2 5 3 6 4 7 5 8 6 11 7 10 8 9 9 2 11 1 12 12 13 18 14
REMARK SMILES IDX 13 15 17 16 14 17 15 18 19 19 16 21
REMARK H PARENT 9 10 19 20 16 22
REMARK Flexibility Score: inf
ROOT
ATOM      1  C   UNL     1      -9.769   8.213   6.172  1.00  0.00     0.012 C 
ATOM      2  C   UNL     1     -10.384   9.378   5.923  1.00  0.00     0.053 C 
ENDROOT
BRANCH   1   3
ATOM      3  C   UNL     1     -10.480   6.983   6.600  1.00  0.00    -0.025 A 
ATOM      4  C   UNL     1     -11.828   6.733   6.270  1.00  0.00     0.012 A 
ATOM      5  C   UNL     1     -12.451   5.552   6.686  1.00  0.00     0.047 A 
ATOM      6  C   UNL     1     -11.741   4.603   7.425  1.00  0.00     0.115 A 
ATOM      7  C   UNL     1      -9.771   6.014   7.329  1.00  0.00     0.012 A 
ATOM      8  C   UNL     1     -10.397   4.835   7.744  1.00  0.00     0.047 A 
BRANCH   6   9
ATOM      9  O   UNL     1     -12.376   3.432   7.833  1.00  0.00    -0.508 OA
ATOM     10  H   UNL     1     -11.857   2.665   8.245  1.00  0.00     0.293 HD
ENDBRANCH   6   9
ENDBRANCH   1   3
BRANCH   2  11
ATOM     11  C   UNL     1      -9.639  10.589   5.514  1.00  0.00     0.189 C 
ATOM     12  O   UNL     1     -10.172  11.418   4.725  1.00  0.00    -0.289 OA
BRANCH  11  13
ATOM     13  C   UNL     1      -8.251  10.825   5.975  1.00  0.00     0.064 A 
ATOM     14  C   UNL     1      -7.971  11.503   7.182  1.00  0.00     0.130 A 
ATOM     15  C   UNL     1      -7.181  10.385   5.174  1.00  0.00     0.020 A 
ATOM     16  C   UNL     1      -6.641  11.691   7.586  1.00  0.00     0.093 A 
ATOM     17  C   UNL     1      -5.860  10.582   5.582  1.00  0.00     0.047 A 
ATOM     18  C   UNL     1      -5.586  11.232   6.791  1.00  0.00     0.119 A 
BRANCH  14  19
ATOM     19  O   UNL     1      -9.006  12.012   7.967  1.00  0.00    -0.507 OA
ATOM     20  H   UNL     1      -9.295  12.981   7.905  1.00  0.00     0.293 HD
ENDBRANCH  14  19
BRANCH  18  21
ATOM     21  O   UNL     1      -4.273  11.430   7.209  1.00  0.00    -0.508 OA
ATOM     22  H   UNL     1      -4.055  11.690   8.165  1.00  0.00     0.293 HD
ENDBRANCH  18  21
ENDBRANCH  11  13
ENDBRANCH   2  11
TORSDOF 6
ENDMDL
MODEL 7
REMARK VINA RESULT:    -6.200      1.572      2.284
REMARK INTER + INTRA:          -8.450
REMARK INTER:                  -8.062
REMARK INTRA:                  -0.388
REMARK UNBOUND:                -0.619
REMARK SMILES O=C(C=Cc1ccc(O)cc1)c1ccc(O)cc1O
REMARK SMILES IDX 4 1 3 2 5 3 6 4 7 5 8 6 11 7 10 8 9 9 2 11 1 12 12 13 18 14
REMARK SMILES IDX 13 15 17 16 14 17 15 18 19 19 16 21
REMARK H PARENT 9 10 19 20 16 22
REMARK Flexibility Score: inf
ROOT
ATOM      1  C   UNL     1     -12.914  -0.127 -10.219  1.00  0.00     0.012 C 
ATOM      2  C   UNL     1     -13.019  -1.260  -9.509  1.00  0.00     0.053 C 
ENDROOT
BRANCH   1   3
ATOM      3  C   UNL     1     -13.023   1.228  -9.625  1.00  0.00    -0.025 A 
ATOM      4  C   UNL     1     -11.899   2.052  -9.409  1.00  0.00     0.012 A 
ATOM      5  C   UNL     1     -12.053   3.329  -8.858  1.00  0.00     0.047 A 
ATOM      6  C   UNL     1     -13.324   3.804  -8.526  1.00  0.00     0.115 A 
ATOM      7  C   UNL     1     -14.297   1.723  -9.302  1.00  0.00     0.012 A 
ATOM      8  C   UNL     1     -14.447   2.999  -8.751  1.00  0.00     0.047 A 
BRANCH   6   9
ATOM      9  O   UNL     1     -13.460   5.077  -7.977  1.00  0.00    -0.508 OA
ATOM     10  H   UNL     1     -14.345   5.573  -8.003  1.00  0.00     0.293 HD
ENDBRANCH   6   9
ENDBRANCH   1   3
BRANCH   2  11
ATOM     11  C   UNL     1     -12.922  -2.595 -10.139  1.00  0.00     0.189 C 
ATOM     12  O   UNL     1     -13.670  -2.887 -11.112  1.00  0.00    -0.289 OA
BRANCH  11  13
ATOM     13  C   UNL     1     -11.991  -3.622  -9.614  1.00  0.00     0.064 A 
ATOM     14  C   UNL     1     -10.589  -3.480  -9.716  1.00  0.00     0.130 A 
ATOM     15  C   UNL     1     -12.519  -4.783  -9.020  1.00  0.00     0.020 A 
ATOM     16  C   UNL     1      -9.747  -4.472  -9.191  1.00  0.00     0.093 A 
ATOM     17  C   UNL     1     -11.672  -5.767  -8.506  1.00  0.00     0.047 A 
ATOM     18  C   UNL     1     -10.283  -5.612  -8.586  1.00  0.00     0.119 A 
BRANCH  14  19
ATOM     19  O   UNL     1     -10.033  -2.374 -10.358  1.00  0.00    -0.507 OA
ATOM     20  H   UNL     1      -9.471  -1.695  -9.858  1.00  0.00     0.293 HD
ENDBRANCH  14  19
BRANCH  18  21
ATOM     21  O   UNL     1      -9.430  -6.585  -8.074  1.00  0.00    -0.508 OA
ATOM     22  H   UNL     1      -9.688  -7.565  -8.066  1.00  0.00     0.293 HD
ENDBRANCH  18  21
ENDBRANCH  11  13
ENDBRANCH   2  11
TORSDOF 6
ENDMDL
MODEL 8
REMARK VINA RESULT:    -6.125     15.539     17.718
REMARK INTER + INTRA:          -8.356
REMARK INTER:                  -7.592
REMARK INTRA:                  -0.764
REMARK UNBOUND:                -0.619
REMARK SMILES O=C(C=Cc1ccc(O)cc1)c1ccc(O)cc1O
REMARK SMILES IDX 4 1 3 2 5 3 6 4 7 5 8 6 11 7 10 8 9 9 2 11 1 12 12 13 18 14
REMARK SMILES IDX 13 15 17 16 14 17 15 18 19 19 16 21
REMARK H PARENT 9 10 19 20 16 22
REMARK Flexibility Score: inf
ROOT
ATOM      1  C   UNL     1      -9.058   7.640   5.873  1.00  0.00     0.012 C 
ATOM      2  C   UNL     1      -9.822   7.200   6.884  1.00  0.00     0.053 C 
ENDROOT
BRANCH   1   3
ATOM      3  C   UNL     1      -8.145   8.806   5.978  1.00  0.00    -0.025 A 
ATOM      4  C   UNL     1      -7.725   9.542   4.851  1.00  0.00     0.012 A 
ATOM      5  C   UNL     1      -6.873  10.641   5.002  1.00  0.00     0.047 A 
ATOM      6  C   UNL     1      -6.439  11.027   6.272  1.00  0.00     0.115 A 
ATOM      7  C   UNL     1      -7.715   9.213   7.252  1.00  0.00     0.012 A 
ATOM      8  C   UNL     1      -6.864  10.312   7.399  1.00  0.00     0.047 A 
BRANCH   6   9
ATOM      9  O   UNL     1      -5.590  12.124   6.406  1.00  0.00    -0.508 OA
ATOM     10  H   UNL     1      -5.561  12.858   5.707  1.00  0.00     0.293 HD
ENDBRANCH   6   9
ENDBRANCH   1   3
BRANCH   2  11
ATOM     11  C   UNL     1     -10.732   6.044   6.737  1.00  0.00     0.189 C 
ATOM     12  O   UNL     1     -10.634   5.063   7.524  1.00  0.00    -0.289 OA
BRANCH  11  13
ATOM     13  C   UNL     1     -11.732   5.992   5.644  1.00  0.00     0.064 A 
ATOM     14  C   UNL     1     -11.667   5.020   4.620  1.00  0.00     0.130 A 
ATOM     15  C   UNL     1     -12.759   6.952   5.611  1.00  0.00     0.020 A 
ATOM     16  C   UNL     1     -12.644   5.001   3.613  1.00  0.00     0.093 A 
ATOM     17  C   UNL     1     -13.723   6.927   4.601  1.00  0.00     0.047 A 
ATOM     18  C   UNL     1     -13.671   5.949   3.602  1.00  0.00     0.119 A 
BRANCH  14  19
ATOM     19  O   UNL     1     -10.624   4.095   4.585  1.00  0.00    -0.507 OA
ATOM     20  H   UNL     1      -9.910   4.069   5.303  1.00  0.00     0.293 HD
ENDBRANCH  14  19
BRANCH  18  21
ATOM     21  O   UNL     1     -14.629   5.913   2.592  1.00  0.00    -0.508 OA
ATOM     22  H   UNL     1     -15.427   6.538   2.597  1.00  0.00     0.293 HD
ENDBRANCH  18  21
ENDBRANCH  11  13
ENDBRANCH   2  11
TORSDOF 6
ENDMDL
