MODEL 1
REMARK VINA RESULT:    -4.107      0.000      0.000
REMARK INTER + INTRA:          -4.747
REMARK INTER:                  -4.588
REMARK INTRA:                  -0.159
REMARK UNBOUND:                -0.159
REMARK SMILES COc1cc2ccc(=O)oc2cc1OC
REMARK SMILES IDX 3 1 13 2 12 3 11 4 5 5 4 6 6 7 7 8 8 9 9 10 10 11 2 12 1 13
REMARK SMILES IDX 14 14 15 15
REMARK H PARENT
REMARK Flexibility Score: inf
ROOT
ATOM      1  C   UNL     1       7.691   3.952  18.487  1.00  0.00     0.161 A 
ATOM      2  C   UNL     1       7.272   4.572  19.677  1.00  0.00     0.164 A 
ATOM      3  C   UNL     1       6.056   4.187  20.274  1.00  0.00     0.098 A 
ATOM      4  C   UNL     1       5.264   3.195  19.692  1.00  0.00     0.142 A 
ATOM      5  C   UNL     1       5.684   2.573  18.498  1.00  0.00     0.022 A 
ATOM      6  C   UNL     1       6.893   2.951  17.900  1.00  0.00     0.062 A 
ATOM      7  C   UNL     1       4.869   1.584  17.940  1.00  0.00     0.019 A 
ATOM      8  C   UNL     1       3.675   1.242  18.573  1.00  0.00     0.094 A 
ATOM      9  C   UNL     1       3.322   1.901  19.755  1.00  0.00     0.336 A 
ATOM     10  O   UNL     1       2.248   1.608  20.342  1.00  0.00    -0.246 OA
ATOM     11  O   UNL     1       4.115   2.839  20.264  1.00  0.00    -0.423 OA
ENDROOT
BRANCH   1  12
ATOM     12  O   UNL     1       8.909   4.360  17.919  1.00  0.00    -0.493 OA
ATOM     13  C   UNL     1       9.032   5.321  16.876  1.00  0.00     0.278 C 
ENDBRANCH   1  12
BRANCH   2  14
ATOM     14  O   UNL     1       8.093   5.565  20.234  1.00  0.00    -0.493 OA
ATOM     15  C   UNL     1       7.851   6.965  20.130  1.00  0.00     0.278 C 
ENDBRANCH   2  14
TORSDOF 2
ENDMDL
MODEL 2
REMARK VINA RESULT:    -3.753      1.655      2.045
REMARK INTER + INTRA:          -4.351
REMARK INTER:                  -4.195
REMARK INTRA:                  -0.157
REMARK UNBOUND:                -0.159
REMARK SMILES COc1cc2ccc(=O)oc2cc1OC
REMARK SMILES IDX 3 1 13 2 12 3 11 4 5 5 4 6 6 7 7 8 8 9 9 10 10 11 2 12 1 13
REMARK SMILES IDX 14 14 15 15
REMARK H PARENT
REMARK Flexibility Score: inf
ROOT
ATOM      1  C   UNL     1       6.565   2.511  18.116  1.00  0.00     0.161 A 
ATOM      2  C   UNL     1       6.080   3.307  19.168  1.00  0.00     0.164 A 
ATOM      3  C   UNL     1       4.803   3.052  19.706  1.00  0.00     0.098 A 
ATOM      4  C   UNL     1       4.017   2.014  19.201  1.00  0.00     0.142 A 
ATOM      5  C   UNL     1       4.503   1.215  18.146  1.00  0.00     0.022 A 
ATOM      6  C   UNL     1       5.772   1.464  17.608  1.00  0.00     0.062 A 
ATOM      7  C   UNL     1       3.692   0.184  17.663  1.00  0.00     0.019 A 
ATOM      8  C   UNL     1       2.437  -0.025  18.232  1.00  0.00     0.094 A 
ATOM      9  C   UNL     1       2.020   0.807  19.276  1.00  0.00     0.336 A 
ATOM     10  O   UNL     1       0.890   0.637  19.803  1.00  0.00    -0.246 OA
ATOM     11  O   UNL     1       2.811   1.781  19.717  1.00  0.00    -0.423 OA
ENDROOT
BRANCH   1  12
ATOM     12  O   UNL     1       7.842   2.794  17.604  1.00  0.00    -0.493 OA
ATOM     13  C   UNL     1       9.011   2.029  17.882  1.00  0.00     0.278 C 
ENDBRANCH   1  12
BRANCH   2  14
ATOM     14  O   UNL     1       6.897   4.342  19.651  1.00  0.00    -0.493 OA
ATOM     15  C   UNL     1       7.760   4.231  20.778  1.00  0.00     0.278 C 
ENDBRANCH   2  14
TORSDOF 2
ENDMDL
MODEL 3
REMARK VINA RESULT:    -3.654      1.737      5.159
REMARK INTER + INTRA:          -4.241
REMARK INTER:                  -4.083
REMARK INTRA:                  -0.158
REMARK UNBOUND:                -0.159
REMARK SMILES COc1cc2ccc(=O)oc2cc1OC
REMARK SMILES IDX 3 1 13 2 12 3 11 4 5 5 4 6 6 7 7 8 8 9 9 10 10 11 2 12 1 13
REMARK SMILES IDX 14 14 15 15
REMARK H PARENT
REMARK Flexibility Score: inf
ROOT
ATOM      1  C   UNL     1       7.066   3.032  17.780  1.00  0.00     0.161 A 
ATOM      2  C   UNL     1       6.008   3.546  18.550  1.00  0.00     0.164 A 
ATOM      3  C   UNL     1       6.239   4.630  19.420  1.00  0.00     0.098 A 
ATOM      4  C   UNL     1       7.511   5.196  19.522  1.00  0.00     0.142 A 
ATOM      5  C   UNL     1       8.573   4.681  18.751  1.00  0.00     0.022 A 
ATOM      6  C   UNL     1       8.349   3.604  17.884  1.00  0.00     0.062 A 
ATOM      7  C   UNL     1       9.835   5.269  18.876  1.00  0.00     0.019 A 
ATOM      8  C   UNL     1      10.008   6.340  19.752  1.00  0.00     0.094 A 
ATOM      9  C   UNL     1       8.909   6.799  20.486  1.00  0.00     0.336 A 
ATOM     10  O   UNL     1       9.043   7.763  21.282  1.00  0.00    -0.246 OA
ATOM     11  O   UNL     1       7.719   6.220  20.348  1.00  0.00    -0.423 OA
ENDROOT
BRANCH   1  12
ATOM     12  O   UNL     1       6.800   1.951  16.924  1.00  0.00    -0.493 OA
ATOM     13  C   UNL     1       7.066   0.587  17.238  1.00  0.00     0.278 C 
ENDBRANCH   1  12
BRANCH   2  14
ATOM     14  O   UNL     1       4.742   2.952  18.422  1.00  0.00    -0.493 OA
ATOM     15  C   UNL     1       4.113   2.168  19.431  1.00  0.00     0.278 C 
ENDBRANCH   2  14
TORSDOF 2
ENDMDL
MODEL 4
REMARK VINA RESULT:    -3.560      1.305      2.592
REMARK INTER + INTRA:          -4.135
REMARK INTER:                  -3.985
REMARK INTRA:                  -0.150
REMARK UNBOUND:                -0.159
REMARK SMILES COc1cc2ccc(=O)oc2cc1OC
REMARK SMILES IDX 3 1 13 2 12 3 11 4 5 5 4 6 6 7 7 8 8 9 9 10 10 11 2 12 1 13
REMARK SMILES IDX 14 14 15 15
REMARK H PARENT
REMARK Flexibility Score: inf
ROOT
ATOM      1  C   UNL     1       7.299   4.440  19.622  1.00  0.00     0.161 A 
ATOM      2  C   UNL     1       7.852   3.852  18.471  1.00  0.00     0.164 A 
ATOM      3  C   UNL     1       7.145   2.840  17.794  1.00  0.00     0.098 A 
ATOM      4  C   UNL     1       5.897   2.416  18.258  1.00  0.00     0.142 A 
ATOM      5  C   UNL     1       5.341   3.006  19.413  1.00  0.00     0.022 A 
ATOM      6  C   UNL     1       6.040   4.013  20.089  1.00  0.00     0.062 A 
ATOM      7  C   UNL     1       4.091   2.560  19.852  1.00  0.00     0.019 A 
ATOM      8  C   UNL     1       3.434   1.555  19.144  1.00  0.00     0.094 A 
ATOM      9  C   UNL     1       4.046   1.016  18.007  1.00  0.00     0.336 A 
ATOM     10  O   UNL     1       3.471   0.108  17.354  1.00  0.00    -0.246 OA
ATOM     11  O   UNL     1       5.237   1.458  17.611  1.00  0.00    -0.423 OA
ENDROOT
BRANCH   1  12
ATOM     12  O   UNL     1       8.032   5.446  20.272  1.00  0.00    -0.493 OA
ATOM     13  C   UNL     1       7.869   6.842  20.039  1.00  0.00     0.278 C 
ENDBRANCH   1  12
BRANCH   2  14
ATOM     14  O   UNL     1       9.108   4.302  18.033  1.00  0.00    -0.493 OA
ATOM     15  C   UNL     1       9.309   5.214  16.959  1.00  0.00     0.278 C 
ENDBRANCH   2  14
TORSDOF 2
ENDMDL
MODEL 5
REMARK VINA RESULT:    -3.412     14.015     15.643
REMARK INTER + INTRA:          -3.970
REMARK INTER:                  -3.863
REMARK INTRA:                  -0.107
REMARK UNBOUND:                -0.159
REMARK SMILES COc1cc2ccc(=O)oc2cc1OC
REMARK SMILES IDX 3 1 13 2 12 3 11 4 5 5 4 6 6 7 7 8 8 9 9 10 10 11 2 12 1 13
REMARK SMILES IDX 14 14 15 15
REMARK H PARENT
REMARK Flexibility Score: inf
ROOT
ATOM      1  C   UNL     1       6.301  18.715  19.644  1.00  0.00     0.161 A 
ATOM      2  C   UNL     1       6.262  17.877  18.516  1.00  0.00     0.164 A 
ATOM      3  C   UNL     1       5.087  17.799  17.743  1.00  0.00     0.098 A 
ATOM      4  C   UNL     1       3.960  18.548  18.090  1.00  0.00     0.142 A 
ATOM      5  C   UNL     1       3.998  19.388  19.222  1.00  0.00     0.022 A 
ATOM      6  C   UNL     1       5.164  19.470  19.994  1.00  0.00     0.062 A 
ATOM      7  C   UNL     1       2.854  20.125  19.544  1.00  0.00     0.019 A 
ATOM      8  C   UNL     1       1.718  20.010  18.744  1.00  0.00     0.094 A 
ATOM      9  C   UNL     1       1.753  19.157  17.637  1.00  0.00     0.336 A 
ATOM     10  O   UNL     1       0.738  19.038  16.902  1.00  0.00    -0.246 OA
ATOM     11  O   UNL     1       2.854  18.467  17.353  1.00  0.00    -0.423 OA
ENDROOT
BRANCH   1  12
ATOM     12  O   UNL     1       7.488  18.768  20.391  1.00  0.00    -0.493 OA
ATOM     13  C   UNL     1       7.611  19.383  21.670  1.00  0.00     0.278 C 
ENDBRANCH   1  12
BRANCH   2  14
ATOM     14  O   UNL     1       7.412  17.139  18.196  1.00  0.00    -0.493 OA
ATOM     15  C   UNL     1       7.922  16.969  16.877  1.00  0.00     0.278 C 
ENDBRANCH   2  14
TORSDOF 2
ENDMDL
MODEL 6
REMARK VINA RESULT:    -3.340     14.538     15.751
REMARK INTER + INTRA:          -3.889
REMARK INTER:                  -3.782
REMARK INTRA:                  -0.107
REMARK UNBOUND:                -0.159
REMARK SMILES COc1cc2ccc(=O)oc2cc1OC
REMARK SMILES IDX 3 1 13 2 12 3 11 4 5 5 4 6 6 7 7 8 8 9 9 10 10 11 2 12 1 13
REMARK SMILES IDX 14 14 15 15
REMARK H PARENT
REMARK Flexibility Score: inf
ROOT
ATOM      1  C   UNL     1       5.772  18.395  18.174  1.00  0.00     0.161 A 
ATOM      2  C   UNL     1       5.562  19.517  18.995  1.00  0.00     0.164 A 
ATOM      3  C   UNL     1       4.272  20.074  19.101  1.00  0.00     0.098 A 
ATOM      4  C   UNL     1       3.202  19.520  18.396  1.00  0.00     0.142 A 
ATOM      5  C   UNL     1       3.411  18.395  17.572  1.00  0.00     0.022 A 
ATOM      6  C   UNL     1       4.691  17.836  17.463  1.00  0.00     0.062 A 
ATOM      7  C   UNL     1       2.320  17.863  16.879  1.00  0.00     0.019 A 
ATOM      8  C   UNL     1       1.065  18.455  17.020  1.00  0.00     0.094 A 
ATOM      9  C   UNL     1       0.931  19.569  17.855  1.00  0.00     0.336 A 
ATOM     10  O   UNL     1      -0.192  20.118  17.996  1.00  0.00    -0.246 OA
ATOM     11  O   UNL     1       1.987  20.055  18.502  1.00  0.00    -0.423 OA
ENDROOT
BRANCH   1  12
ATOM     12  O   UNL     1       7.070  17.865  18.092  1.00  0.00    -0.493 OA
ATOM     13  C   UNL     1       7.730  17.532  16.875  1.00  0.00     0.278 C 
ENDBRANCH   1  12
BRANCH   2  14
ATOM     14  O   UNL     1       6.661  20.048  19.689  1.00  0.00    -0.493 OA
ATOM     15  C   UNL     1       7.019  19.699  21.022  1.00  0.00     0.278 C 
ENDBRANCH   2  14
TORSDOF 2
ENDMDL
MODEL 7
REMARK VINA RESULT:    -3.336      1.559      5.610
REMARK INTER + INTRA:          -3.886
REMARK INTER:                  -3.764
REMARK INTRA:                  -0.121
REMARK UNBOUND:                -0.159
REMARK SMILES COc1cc2ccc(=O)oc2cc1OC
REMARK SMILES IDX 3 1 13 2 12 3 11 4 5 5 4 6 6 7 7 8 8 9 9 10 10 11 2 12 1 13
REMARK SMILES IDX 14 14 15 15
REMARK H PARENT
REMARK Flexibility Score: inf
ROOT
ATOM      1  C   UNL     1       5.229   2.542  19.071  1.00  0.00     0.161 A 
ATOM      2  C   UNL     1       5.891   2.282  17.858  1.00  0.00     0.164 A 
ATOM      3  C   UNL     1       6.961   3.105  17.456  1.00  0.00     0.098 A 
ATOM      4  C   UNL     1       7.369   4.176  18.254  1.00  0.00     0.142 A 
ATOM      5  C   UNL     1       6.706   4.437  19.471  1.00  0.00     0.022 A 
ATOM      6  C   UNL     1       5.641   3.622  19.876  1.00  0.00     0.062 A 
ATOM      7  C   UNL     1       7.138   5.517  20.247  1.00  0.00     0.019 A 
ATOM      8  C   UNL     1       8.203   6.299  19.801  1.00  0.00     0.094 A 
ATOM      9  C   UNL     1       8.814   5.981  18.584  1.00  0.00     0.336 A 
ATOM     10  O   UNL     1       9.776   6.673  18.163  1.00  0.00    -0.246 OA
ATOM     11  O   UNL     1       8.382   4.948  17.864  1.00  0.00    -0.423 OA
ENDROOT
BRANCH   1  12
ATOM     12  O   UNL     1       4.166   1.702  19.441  1.00  0.00    -0.493 OA
ATOM     13  C   UNL     1       3.031   2.119  20.193  1.00  0.00     0.278 C 
ENDBRANCH   1  12
BRANCH   2  14
ATOM     14  O   UNL     1       5.454   1.198  17.081  1.00  0.00    -0.493 OA
ATOM     15  C   UNL     1       6.136  -0.048  16.978  1.00  0.00     0.278 C 
ENDBRANCH   2  14
TORSDOF 2
ENDMDL
MODEL 8
REMARK VINA RESULT:    -3.221      3.495      5.647
REMARK INTER + INTRA:          -3.757
REMARK INTER:                  -3.645
REMARK INTRA:                  -0.113
REMARK UNBOUND:                -0.159
REMARK SMILES COc1cc2ccc(=O)oc2cc1OC
REMARK SMILES IDX 3 1 13 2 12 3 11 4 5 5 4 6 6 7 7 8 8 9 9 10 10 11 2 12 1 13
REMARK SMILES IDX 14 14 15 15
REMARK H PARENT
REMARK Flexibility Score: inf
ROOT
ATOM      1  C   UNL     1       9.342   2.779  20.971  1.00  0.00     0.161 A 
ATOM      2  C   UNL     1       9.006   2.405  19.658  1.00  0.00     0.164 A 
ATOM      3  C   UNL     1       8.567   3.382  18.743  1.00  0.00     0.098 A 
ATOM      4  C   UNL     1       8.464   4.720  19.132  1.00  0.00     0.142 A 
ATOM      5  C   UNL     1       8.800   5.096  20.449  1.00  0.00     0.022 A 
ATOM      6  C   UNL     1       9.237   4.128  21.362  1.00  0.00     0.062 A 
ATOM      7  C   UNL     1       8.685   6.442  20.807  1.00  0.00     0.019 A 
ATOM      8  C   UNL     1       8.245   7.368  19.862  1.00  0.00     0.094 A 
ATOM      9  C   UNL     1       7.929   6.923  18.574  1.00  0.00     0.336 A 
ATOM     10  O   UNL     1       7.530   7.741  17.706  1.00  0.00    -0.246 OA
ATOM     11  O   UNL     1       8.047   5.636  18.259  1.00  0.00    -0.423 OA
ENDROOT
BRANCH   1  12
ATOM     12  O   UNL     1       9.775   1.779  21.856  1.00  0.00    -0.493 OA
ATOM     13  C   UNL     1       9.530   1.781  23.259  1.00  0.00     0.278 C 
ENDBRANCH   1  12
BRANCH   2  14
ATOM     14  O   UNL     1       9.122   1.052  19.302  1.00  0.00    -0.493 OA
ATOM     15  C   UNL     1       8.107   0.300  18.644  1.00  0.00     0.278 C 
ENDBRANCH   2  14
TORSDOF 2
ENDMDL
MODEL 9
REMARK VINA RESULT:    -1.830      1.539      5.085
REMARK INTER + INTRA:          -2.204
REMARK INTER:                  -2.431
REMARK INTRA:                   0.227
REMARK UNBOUND:                -0.159
REMARK SMILES COc1cc2ccc(=O)oc2cc1OC
REMARK SMILES IDX 3 1 13 2 12 3 11 4 5 5 4 6 6 7 7 8 8 9 9 10 10 11 2 12 1 13
REMARK SMILES IDX 14 14 15 15
REMARK H PARENT
REMARK Flexibility Score: inf
ROOT
ATOM      1  C   UNL     1       4.886   1.160  17.990  1.00  0.00     0.161 A 
ATOM      2  C   UNL     1       4.234   1.722  19.101  1.00  0.00     0.164 A 
ATOM      3  C   UNL     1       4.741   2.899  19.687  1.00  0.00     0.098 A 
ATOM      4  C   UNL     1       5.886   3.510  19.171  1.00  0.00     0.142 A 
ATOM      5  C   UNL     1       6.540   2.946  18.057  1.00  0.00     0.022 A 
ATOM      6  C   UNL     1       6.040   1.777  17.470  1.00  0.00     0.062 A 
ATOM      7  C   UNL     1       7.684   3.582  17.564  1.00  0.00     0.019 A 
ATOM      8  C   UNL     1       8.142   4.744  18.182  1.00  0.00     0.094 A 
ATOM      9  C   UNL     1       7.442   5.246  19.284  1.00  0.00     0.336 A 
ATOM     10  O   UNL     1       7.839   6.294  19.858  1.00  0.00    -0.246 OA
ATOM     11  O   UNL     1       6.357   4.622  19.733  1.00  0.00    -0.423 OA
ENDROOT
BRANCH   1  12
ATOM     12  O   UNL     1       4.353  -0.013  17.431  1.00  0.00    -0.493 OA
ATOM     13  C   UNL     1       3.042  -0.125  16.887  1.00  0.00     0.278 C 
ENDBRANCH   1  12
BRANCH   2  14
ATOM     14  O   UNL     1       3.086   1.081  19.594  1.00  0.00    -0.493 OA
ATOM     15  C   UNL     1       2.244   1.606  20.615  1.00  0.00     0.278 C 
ENDBRANCH   2  14
TORSDOF 2
ENDMDL
