MODEL 1
REMARK VINA RESULT:    -4.634      0.000      0.000
REMARK INTER + INTRA:          -5.390
REMARK INTER:                  -5.311
REMARK INTRA:                  -0.079
REMARK UNBOUND:                -0.079
REMARK SMILES COc1cc(C(=O)[O-])ccc1O
REMARK SMILES IDX 5 1 9 2 4 3 10 4 3 5 11 6 6 7 7 8 8 9 2 10 1 11 12 12
REMARK H PARENT 12 13
REMARK Flexibility Score: inf
ROOT
ATOM      1  C   UNL     1      46.490   7.756  20.812  1.00  0.00     0.001 A 
ATOM      2  C   UNL     1      45.359   8.563  21.018  1.00  0.00     0.014 A 
ATOM      3  C   UNL     1      46.723   7.218  19.534  1.00  0.00     0.060 A 
ATOM      4  C   UNL     1      44.477   8.826  19.967  1.00  0.00     0.051 A 
ATOM      5  C   UNL     1      45.836   7.481  18.470  1.00  0.00     0.161 A 
ATOM      6  C   UNL     1      44.712   8.288  18.696  1.00  0.00     0.157 A 
ENDROOT
BRANCH   1   7
ATOM      7  C   UNL     1      47.426   7.476  21.924  1.00  0.00     0.072 C 
ATOM      8  O   UNL     1      47.954   6.340  22.046  1.00  0.00    -0.545 OA
ATOM      9  O   UNL     1      47.735   8.465  22.852  1.00  0.00    -0.545 OA
ENDBRANCH   1   7
BRANCH   5  10
ATOM     10  O   UNL     1      46.036   6.961  17.182  1.00  0.00    -0.493 OA
ATOM     11  C   UNL     1      47.111   6.102  16.816  1.00  0.00     0.278 C 
ENDBRANCH   5  10
BRANCH   6  12
ATOM     12  O   UNL     1      43.831   8.551  17.648  1.00  0.00    -0.504 OA
ATOM     13  H   UNL     1      43.085   7.908  17.409  1.00  0.00     0.293 HD
ENDBRANCH   6  12
TORSDOF 3
ENDMDL
MODEL 2
REMARK VINA RESULT:    -4.561      1.234      1.502
REMARK INTER + INTRA:          -5.306
REMARK INTER:                  -5.225
REMARK INTRA:                  -0.081
REMARK UNBOUND:                -0.079
REMARK SMILES COc1cc(C(=O)[O-])ccc1O
REMARK SMILES IDX 5 1 9 2 4 3 10 4 3 5 11 6 6 7 7 8 8 9 2 10 1 11 12 12
REMARK H PARENT 12 13
REMARK Flexibility Score: inf
ROOT
ATOM      1  C   UNL     1      46.003   7.760  19.540  1.00  0.00     0.001 A 
ATOM      2  C   UNL     1      44.823   8.500  19.359  1.00  0.00     0.014 A 
ATOM      3  C   UNL     1      46.525   7.030  18.458  1.00  0.00     0.060 A 
ATOM      4  C   UNL     1      44.178   8.510  18.121  1.00  0.00     0.051 A 
ATOM      5  C   UNL     1      45.877   7.037  17.206  1.00  0.00     0.161 A 
ATOM      6  C   UNL     1      44.700   7.782  17.046  1.00  0.00     0.157 A 
ENDROOT
BRANCH   1   7
ATOM      7  C   UNL     1      46.689   7.748  20.852  1.00  0.00     0.072 C 
ATOM      8  O   UNL     1      47.482   6.817  21.152  1.00  0.00    -0.545 OA
ATOM      9  O   UNL     1      46.466   8.765  21.773  1.00  0.00    -0.545 OA
ENDBRANCH   1   7
BRANCH   5  10
ATOM     10  O   UNL     1      46.368   6.320  16.104  1.00  0.00    -0.493 OA
ATOM     11  C   UNL     1      47.547   5.520  16.122  1.00  0.00     0.278 C 
ENDBRANCH   5  10
BRANCH   6  12
ATOM     12  O   UNL     1      44.055   7.792  15.811  1.00  0.00    -0.504 OA
ATOM     13  H   UNL     1      43.546   8.606  15.484  1.00  0.00     0.293 HD
ENDBRANCH   6  12
TORSDOF 3
ENDMDL
MODEL 3
REMARK VINA RESULT:    -4.545      1.751      4.345
REMARK INTER + INTRA:          -5.288
REMARK INTER:                  -5.203
REMARK INTRA:                  -0.084
REMARK UNBOUND:                -0.079
REMARK SMILES COc1cc(C(=O)[O-])ccc1O
REMARK SMILES IDX 5 1 9 2 4 3 10 4 3 5 11 6 6 7 7 8 8 9 2 10 1 11 12 12
REMARK H PARENT 12 13
REMARK Flexibility Score: inf
ROOT
ATOM      1  C   UNL     1      46.287   6.850  16.984  1.00  0.00     0.001 A 
ATOM      2  C   UNL     1      45.096   7.480  16.588  1.00  0.00     0.014 A 
ATOM      3  C   UNL     1      46.758   7.039  18.295  1.00  0.00     0.060 A 
ATOM      4  C   UNL     1      44.389   8.282  17.485  1.00  0.00     0.051 A 
ATOM      5  C   UNL     1      46.048   7.848  19.204  1.00  0.00     0.161 A 
ATOM      6  C   UNL     1      44.860   8.468  18.790  1.00  0.00     0.157 A 
ENDROOT
BRANCH   1   7
ATOM      7  C   UNL     1      47.039   5.998  16.034  1.00  0.00     0.072 C 
ATOM      8  O   UNL     1      47.846   5.128  16.454  1.00  0.00    -0.545 OA
ATOM      9  O   UNL     1      46.864   6.149  14.663  1.00  0.00    -0.545 OA
ENDBRANCH   1   7
BRANCH   5  10
ATOM     10  O   UNL     1      46.487   8.059  20.521  1.00  0.00    -0.493 OA
ATOM     11  C   UNL     1      47.213   7.108  21.292  1.00  0.00     0.278 C 
ENDBRANCH   5  10
BRANCH   6  12
ATOM     12  O   UNL     1      44.154   9.270  19.685  1.00  0.00    -0.504 OA
ATOM     13  H   UNL     1      43.160   9.145  19.840  1.00  0.00     0.293 HD
ENDBRANCH   6  12
TORSDOF 3
ENDMDL
MODEL 4
REMARK VINA RESULT:    -4.519      1.281      4.123
REMARK INTER + INTRA:          -5.258
REMARK INTER:                  -5.175
REMARK INTRA:                  -0.083
REMARK UNBOUND:                -0.079
REMARK SMILES COc1cc(C(=O)[O-])ccc1O
REMARK SMILES IDX 5 1 9 2 4 3 10 4 3 5 11 6 6 7 7 8 8 9 2 10 1 11 12 12
REMARK H PARENT 12 13
REMARK Flexibility Score: inf
ROOT
ATOM      1  C   UNL     1      45.980   7.311  18.247  1.00  0.00     0.001 A 
ATOM      2  C   UNL     1      44.867   8.168  18.276  1.00  0.00     0.014 A 
ATOM      3  C   UNL     1      46.746   7.146  19.414  1.00  0.00     0.060 A 
ATOM      4  C   UNL     1      44.527   8.846  19.447  1.00  0.00     0.051 A 
ATOM      5  C   UNL     1      46.406   7.828  20.600  1.00  0.00     0.161 A 
ATOM      6  C   UNL     1      45.292   8.679  20.608  1.00  0.00     0.157 A 
ENDROOT
BRANCH   1   7
ATOM      7  C   UNL     1      46.343   6.591  17.005  1.00  0.00     0.072 C 
ATOM      8  O   UNL     1      47.330   5.809  16.983  1.00  0.00    -0.545 OA
ATOM      9  O   UNL     1      45.599   6.770  15.844  1.00  0.00    -0.545 OA
ENDBRANCH   1   7
BRANCH   5  10
ATOM     10  O   UNL     1      47.147   7.688  21.784  1.00  0.00    -0.493 OA
ATOM     11  C   UNL     1      48.003   6.587  22.075  1.00  0.00     0.278 C 
ENDBRANCH   5  10
BRANCH   6  12
ATOM     12  O   UNL     1      44.951   9.357  21.778  1.00  0.00    -0.504 OA
ATOM     13  H   UNL     1      45.210   9.001  22.691  1.00  0.00     0.293 HD
ENDBRANCH   6  12
TORSDOF 3
ENDMDL
MODEL 5
REMARK VINA RESULT:    -4.391      2.051      3.309
REMARK INTER + INTRA:          -5.112
REMARK INTER:                  -5.016
REMARK INTRA:                  -0.096
REMARK UNBOUND:                -0.079
REMARK SMILES COc1cc(C(=O)[O-])ccc1O
REMARK SMILES IDX 5 1 9 2 4 3 10 4 3 5 11 6 6 7 7 8 8 9 2 10 1 11 12 12
REMARK H PARENT 12 13
REMARK Flexibility Score: inf
ROOT
ATOM      1  C   UNL     1      46.408   8.771  22.657  1.00  0.00     0.001 A 
ATOM      2  C   UNL     1      47.312   7.695  22.666  1.00  0.00     0.014 A 
ATOM      3  C   UNL     1      45.681   9.044  21.485  1.00  0.00     0.060 A 
ATOM      4  C   UNL     1      47.485   6.909  21.525  1.00  0.00     0.051 A 
ATOM      5  C   UNL     1      45.853   8.253  20.332  1.00  0.00     0.161 A 
ATOM      6  C   UNL     1      46.760   7.184  20.360  1.00  0.00     0.157 A 
ENDROOT
BRANCH   1   7
ATOM      7  C   UNL     1      46.223   9.606  23.865  1.00  0.00     0.072 C 
ATOM      8  O   UNL     1      46.773  10.735  23.955  1.00  0.00    -0.545 OA
ATOM      9  O   UNL     1      45.438   9.155  24.921  1.00  0.00    -0.545 OA
ENDBRANCH   1   7
BRANCH   5  10
ATOM     10  O   UNL     1      45.145   8.496  19.144  1.00  0.00    -0.493 OA
ATOM     11  C   UNL     1      45.479   9.506  18.198  1.00  0.00     0.278 C 
ENDBRANCH   5  10
BRANCH   6  12
ATOM     12  O   UNL     1      46.934   6.399  19.222  1.00  0.00    -0.504 OA
ATOM     13  H   UNL     1      47.346   6.775  18.375  1.00  0.00     0.293 HD
ENDBRANCH   6  12
TORSDOF 3
ENDMDL
MODEL 6
REMARK VINA RESULT:    -4.384      2.991      4.376
REMARK INTER + INTRA:          -5.104
REMARK INTER:                  -5.004
REMARK INTRA:                  -0.100
REMARK UNBOUND:                -0.079
REMARK SMILES COc1cc(C(=O)[O-])ccc1O
REMARK SMILES IDX 5 1 9 2 4 3 10 4 3 5 11 6 6 7 7 8 8 9 2 10 1 11 12 12
REMARK H PARENT 12 13
REMARK Flexibility Score: inf
ROOT
ATOM      1  C   UNL     1      44.714   8.975  23.881  1.00  0.00     0.001 A 
ATOM      2  C   UNL     1      43.916   9.192  22.745  1.00  0.00     0.014 A 
ATOM      3  C   UNL     1      46.028   8.504  23.713  1.00  0.00     0.060 A 
ATOM      4  C   UNL     1      44.422   8.943  21.468  1.00  0.00     0.051 A 
ATOM      5  C   UNL     1      46.543   8.251  22.426  1.00  0.00     0.161 A 
ATOM      6  C   UNL     1      45.731   8.474  21.305  1.00  0.00     0.157 A 
ENDROOT
BRANCH   1   7
ATOM      7  C   UNL     1      44.180   9.238  25.236  1.00  0.00     0.072 C 
ATOM      8  O   UNL     1      44.932   9.182  26.244  1.00  0.00    -0.545 OA
ATOM      9  O   UNL     1      42.836   9.550  25.415  1.00  0.00    -0.545 OA
ENDBRANCH   1   7
BRANCH   5  10
ATOM     10  O   UNL     1      47.849   7.780  22.221  1.00  0.00    -0.493 OA
ATOM     11  C   UNL     1      48.240   6.414  22.320  1.00  0.00     0.278 C 
ENDBRANCH   5  10
BRANCH   6  12
ATOM     12  O   UNL     1      46.235   8.225  20.030  1.00  0.00    -0.504 OA
ATOM     13  H   UNL     1      46.896   7.475  19.857  1.00  0.00     0.293 HD
ENDBRANCH   6  12
TORSDOF 3
ENDMDL
MODEL 7
REMARK VINA RESULT:    -4.363      1.463      4.932
REMARK INTER + INTRA:          -5.080
REMARK INTER:                  -4.981
REMARK INTRA:                  -0.099
REMARK UNBOUND:                -0.079
REMARK SMILES COc1cc(C(=O)[O-])ccc1O
REMARK SMILES IDX 5 1 9 2 4 3 10 4 3 5 11 6 6 7 7 8 8 9 2 10 1 11 12 12
REMARK H PARENT 12 13
REMARK Flexibility Score: inf
ROOT
ATOM      1  C   UNL     1      45.016   8.684  18.968  1.00  0.00     0.001 A 
ATOM      2  C   UNL     1      45.873   7.724  18.405  1.00  0.00     0.014 A 
ATOM      3  C   UNL     1      45.019   8.870  20.361  1.00  0.00     0.060 A 
ATOM      4  C   UNL     1      46.716   6.966  19.218  1.00  0.00     0.051 A 
ATOM      5  C   UNL     1      45.869   8.107  21.187  1.00  0.00     0.161 A 
ATOM      6  C   UNL     1      46.717   7.154  20.605  1.00  0.00     0.157 A 
ENDROOT
BRANCH   1   7
ATOM      7  C   UNL     1      44.120   9.490  18.107  1.00  0.00     0.072 C 
ATOM      8  O   UNL     1      43.429  10.422  18.596  1.00  0.00    -0.545 OA
ATOM      9  O   UNL     1      44.029   9.227  16.744  1.00  0.00    -0.545 OA
ENDBRANCH   1   7
BRANCH   5  10
ATOM     10  O   UNL     1      45.900   8.265  22.581  1.00  0.00    -0.493 OA
ATOM     11  C   UNL     1      46.653   9.262  23.264  1.00  0.00     0.278 C 
ENDBRANCH   5  10
BRANCH   6  12
ATOM     12  O   UNL     1      47.559   6.396  21.417  1.00  0.00    -0.504 OA
ATOM     13  H   UNL     1      47.461   5.389  21.490  1.00  0.00     0.293 HD
ENDBRANCH   6  12
TORSDOF 3
ENDMDL
MODEL 8
REMARK VINA RESULT:    -4.363      2.735      4.196
REMARK INTER + INTRA:          -5.080
REMARK INTER:                  -4.990
REMARK INTRA:                  -0.090
REMARK UNBOUND:                -0.079
REMARK SMILES COc1cc(C(=O)[O-])ccc1O
REMARK SMILES IDX 5 1 9 2 4 3 10 4 3 5 11 6 6 7 7 8 8 9 2 10 1 11 12 12
REMARK H PARENT 12 13
REMARK Flexibility Score: inf
ROOT
ATOM      1  C   UNL     1      44.845   8.498  17.956  1.00  0.00     0.001 A 
ATOM      2  C   UNL     1      45.820   8.114  18.892  1.00  0.00     0.014 A 
ATOM      3  C   UNL     1      44.822   7.872  16.697  1.00  0.00     0.060 A 
ATOM      4  C   UNL     1      46.753   7.124  18.576  1.00  0.00     0.051 A 
ATOM      5  C   UNL     1      45.761   6.872  16.374  1.00  0.00     0.161 A 
ATOM      6  C   UNL     1      46.726   6.503  17.322  1.00  0.00     0.157 A 
ENDROOT
BRANCH   1   7
ATOM      7  C   UNL     1      43.856   9.547  18.289  1.00  0.00     0.072 C 
ATOM      8  O   UNL     1      43.095  10.015  17.402  1.00  0.00    -0.545 OA
ATOM      9  O   UNL     1      43.754  10.033  19.588  1.00  0.00    -0.545 OA
ENDBRANCH   1   7
BRANCH   5  10
ATOM     10  O   UNL     1      45.768   6.225  15.128  1.00  0.00    -0.493 OA
ATOM     11  C   UNL     1      44.604   5.750  14.459  1.00  0.00     0.278 C 
ENDBRANCH   5  10
BRANCH   6  12
ATOM     12  O   UNL     1      47.658   5.515  17.007  1.00  0.00    -0.504 OA
ATOM     13  H   UNL     1      47.513   4.877  16.232  1.00  0.00     0.293 HD
ENDBRANCH   6  12
TORSDOF 3
ENDMDL
MODEL 9
REMARK VINA RESULT:    -4.242      2.390      3.994
REMARK INTER + INTRA:          -4.941
REMARK INTER:                  -4.843
REMARK INTRA:                  -0.098
REMARK UNBOUND:                -0.079
REMARK SMILES COc1cc(C(=O)[O-])ccc1O
REMARK SMILES IDX 5 1 9 2 4 3 10 4 3 5 11 6 6 7 7 8 8 9 2 10 1 11 12 12
REMARK H PARENT 12 13
REMARK Flexibility Score: inf
ROOT
ATOM      1  C   UNL     1      45.604   7.736  18.004  1.00  0.00     0.001 A 
ATOM      2  C   UNL     1      46.711   6.872  17.971  1.00  0.00     0.014 A 
ATOM      3  C   UNL     1      44.850   7.927  16.833  1.00  0.00     0.060 A 
ATOM      4  C   UNL     1      47.058   6.212  16.791  1.00  0.00     0.051 A 
ATOM      5  C   UNL     1      45.196   7.262  15.639  1.00  0.00     0.161 A 
ATOM      6  C   UNL     1      46.305   6.404  15.626  1.00  0.00     0.157 A 
ENDROOT
BRANCH   1   7
ATOM      7  C   UNL     1      45.235   8.438  19.254  1.00  0.00     0.072 C 
ATOM      8  O   UNL     1      44.201   9.154  19.306  1.00  0.00    -0.545 OA
ATOM      9  O   UNL     1      46.027   8.316  20.391  1.00  0.00    -0.545 OA
ENDBRANCH   1   7
BRANCH   5  10
ATOM     10  O   UNL     1      44.467   7.428  14.451  1.00  0.00    -0.493 OA
ATOM     11  C   UNL     1      43.278   6.715  14.127  1.00  0.00     0.278 C 
ENDBRANCH   5  10
BRANCH   6  12
ATOM     12  O   UNL     1      46.652   5.745  14.448  1.00  0.00    -0.504 OA
ATOM     13  H   UNL     1      46.646   4.733  14.385  1.00  0.00     0.293 HD
ENDBRANCH   6  12
TORSDOF 3
ENDMDL
