MODEL 1
REMARK VINA RESULT:    -6.136      0.000      0.000
REMARK INTER + INTRA:         -12.223
REMARK INTER:                  -9.724
REMARK INTRA:                  -2.500
REMARK UNBOUND:                -2.500
REMARK SMILES C[C@H]1O[C@H](O[C@H]2[C@@H](Oc3cc(O)c4c(c3)O[C@@H](c3ccc(O)cc3)CC4=O)O[C@@H](CO)[C@H](O)[C@H]2O)[C@H](O)[C@H](O)[C@@H]1O
REMARK SMILES IDX 6 1 34 2 32 3 29 4 28 5 7 6 5 7 4 8 1 9 2 10 40 11 3 12
REMARK SMILES IDX 38 13 36 14 41 15 39 17 37 19 35 21 8 23 9 24 10 25 15 26
REMARK SMILES IDX 11 27 14 28 13 29 16 30 26 31 17 32 27 33 25 34 12 35 18 37
REMARK SMILES IDX 19 38 24 39 20 40 23 41 21 42 22 43 33 45 30 47 31 48
REMARK H PARENT 41 16 39 18 37 20 35 22 12 36 22 44 33 46 31 49
REMARK Flexibility Score: inf
ROOT
ATOM      1  C   UNL     1      44.021  13.911  41.463  1.00  0.00     0.221 C 
ATOM      2  C   UNL     1      45.016  14.607  42.461  1.00  0.00     0.181 C 
ATOM      3  C   UNL     1      44.563  16.030  42.910  1.00  0.00     0.177 C 
ATOM      4  C   UNL     1      43.871  16.783  41.744  1.00  0.00     0.179 C 
ATOM      5  O   UNL     1      44.180  16.226  40.477  1.00  0.00    -0.332 OA
ATOM      6  C   UNL     1      43.779  14.872  40.256  1.00  0.00     0.339 C 
ENDROOT
BRANCH   1   7
ATOM      7  O   UNL     1      42.771  13.329  41.891  1.00  0.00    -0.337 OA
BRANCH   7   8
ATOM      8  C   UNL     1      42.568  11.938  41.704  1.00  0.00     0.282 C 
ATOM      9  C   UNL     1      42.906   9.985  38.854  1.00  0.00     0.041 C 
ATOM     10  C   UNL     1      43.249  10.105  40.340  1.00  0.00     0.150 C 
ATOM     11  C   UNL     1      42.209   9.322  41.212  1.00  0.00     0.174 C 
ATOM     12  O   UNL     1      43.403  11.489  40.655  1.00  0.00    -0.344 OA
ATOM     13  C   UNL     1      42.338   9.693  42.720  1.00  0.00     0.179 C 
ATOM     14  C   UNL     1      42.908  11.117  42.950  1.00  0.00     0.202 C 
BRANCH  11  15
ATOM     15  O   UNL     1      42.275   7.928  41.015  1.00  0.00    -0.388 OA
ATOM     16  H   UNL     1      43.223   7.672  40.864  1.00  0.00     0.211 HD
ENDBRANCH  11  15
BRANCH  13  17
ATOM     17  O   UNL     1      43.062   8.734  43.455  1.00  0.00    -0.387 OA
ATOM     18  H   UNL     1      42.630   8.626  44.340  1.00  0.00     0.211 HD
ENDBRANCH  13  17
BRANCH  14  19
ATOM     19  O   UNL     1      44.306  11.081  43.110  1.00  0.00    -0.385 OA
ATOM     20  H   UNL     1      44.662  11.944  42.777  1.00  0.00     0.211 HD
ENDBRANCH  14  19
ENDBRANCH   7   8
ENDBRANCH   1   7
BRANCH   2  21
ATOM     21  O   UNL     1      45.333  13.795  43.561  1.00  0.00    -0.387 OA
ATOM     22  H   UNL     1      46.121  13.247  43.302  1.00  0.00     0.211 HD
ENDBRANCH   2  21
BRANCH   6  23
ATOM     23  O   UNL     1      42.429  14.782  39.750  1.00  0.00    -0.462 OA
BRANCH  23  24
ATOM     24  C   UNL     1      42.071  14.733  38.384  1.00  0.00     0.130 A 
ATOM     25  C   UNL     1      42.412  15.809  37.548  1.00  0.00     0.093 A 
ATOM     26  C   UNL     1      41.488  13.600  37.795  1.00  0.00     0.094 A 
ATOM     27  C   UNL     1      42.407  15.662  36.148  1.00  0.00     0.133 A 
ATOM     28  C   UNL     1      41.728  13.348  36.450  1.00  0.00     0.138 A 
ATOM     29  C   UNL     1      42.169  14.374  35.586  1.00  0.00     0.102 A 
ATOM     30  O   UNL     1      41.712  12.024  36.015  1.00  0.00    -0.484 OA
ATOM     31  C   UNL     1      42.547  13.979  34.196  1.00  0.00     0.174 C 
ATOM     32  C   UNL     1      42.612  11.633  34.980  1.00  0.00     0.211 C 
ATOM     33  O   UNL     1      43.086  14.797  33.399  1.00  0.00    -0.294 OA
ATOM     34  C   UNL     1      42.384  12.536  33.762  1.00  0.00     0.131 C 
BRANCH  27  35
ATOM     35  O   UNL     1      42.672  16.799  35.372  1.00  0.00    -0.507 OA
ATOM     36  H   UNL     1      43.127  16.745  34.466  1.00  0.00     0.293 HD
ENDBRANCH  27  35
BRANCH  32  37
ATOM     37  C   UNL     1      42.498  10.161  34.682  1.00  0.00    -0.007 A 
ATOM     38  C   UNL     1      41.897   9.310  35.620  1.00  0.00     0.011 A 
ATOM     39  C   UNL     1      42.911   9.635  33.449  1.00  0.00     0.011 A 
ATOM     40  C   UNL     1      41.656   7.979  35.319  1.00  0.00     0.046 A 
ATOM     41  C   UNL     1      42.677   8.289  33.144  1.00  0.00     0.046 A 
ATOM     42  C   UNL     1      42.026   7.465  34.068  1.00  0.00     0.115 A 
BRANCH  42  43
ATOM     43  O   UNL     1      41.756   6.136  33.737  1.00  0.00    -0.508 OA
ATOM     44  H   UNL     1      42.292   5.640  33.030  1.00  0.00     0.293 HD
ENDBRANCH  42  43
ENDBRANCH  32  37
ENDBRANCH  23  24
ENDBRANCH   6  23
BRANCH   3  45
ATOM     45  O   UNL     1      45.702  16.730  43.342  1.00  0.00    -0.387 OA
ATOM     46  H   UNL     1      45.380  17.454  43.943  1.00  0.00     0.211 HD
ENDBRANCH   3  45
BRANCH   4  47
ATOM     47  C   UNL     1      42.358  17.016  41.971  1.00  0.00     0.191 C 
BRANCH  47  48
ATOM     48  O   UNL     1      41.862  16.140  42.948  1.00  0.00    -0.394 OA
ATOM     49  H   UNL     1      40.872  16.138  42.901  1.00  0.00     0.210 HD
ENDBRANCH  47  48
ENDBRANCH   4  47
TORSDOF 14
ENDMDL
MODEL 2
REMARK VINA RESULT:    -5.991      1.327      2.027
REMARK INTER + INTRA:         -11.993
REMARK INTER:                  -9.748
REMARK INTRA:                  -2.245
REMARK UNBOUND:                -2.500
REMARK SMILES C[C@H]1O[C@H](O[C@H]2[C@@H](Oc3cc(O)c4c(c3)O[C@@H](c3ccc(O)cc3)CC4=O)O[C@@H](CO)[C@H](O)[C@H]2O)[C@H](O)[C@H](O)[C@@H]1O
REMARK SMILES IDX 6 1 34 2 32 3 29 4 28 5 7 6 5 7 4 8 1 9 2 10 40 11 3 12
REMARK SMILES IDX 38 13 36 14 41 15 39 17 37 19 35 21 8 23 9 24 10 25 15 26
REMARK SMILES IDX 11 27 14 28 13 29 16 30 26 31 17 32 27 33 25 34 12 35 18 37
REMARK SMILES IDX 19 38 24 39 20 40 23 41 21 42 22 43 33 45 30 47 31 48
REMARK H PARENT 41 16 39 18 37 20 35 22 12 36 22 44 33 46 31 49
REMARK Flexibility Score: inf
ROOT
ATOM      1  C   UNL     1      44.111  15.047  40.263  1.00  0.00     0.221 C 
ATOM      2  C   UNL     1      45.107  15.626  41.331  1.00  0.00     0.181 C 
ATOM      3  C   UNL     1      44.595  16.921  42.032  1.00  0.00     0.177 C 
ATOM      4  C   UNL     1      43.811  17.815  41.037  1.00  0.00     0.179 C 
ATOM      5  O   UNL     1      44.095  17.500  39.684  1.00  0.00    -0.332 OA
ATOM      6  C   UNL     1      43.761  16.181  39.247  1.00  0.00     0.339 C 
ENDROOT
BRANCH   1   7
ATOM      7  O   UNL     1      42.916  14.324  40.627  1.00  0.00    -0.337 OA
BRANCH   7   8
ATOM      8  C   UNL     1      42.968  12.907  40.687  1.00  0.00     0.282 C 
ATOM      9  C   UNL     1      42.760  10.771  43.415  1.00  0.00     0.041 C 
ATOM     10  C   UNL     1      42.246  11.055  42.002  1.00  0.00     0.150 C 
ATOM     11  C   UNL     1      43.060  10.236  40.943  1.00  0.00     0.174 C 
ATOM     12  O   UNL     1      42.226  12.469  41.808  1.00  0.00    -0.344 OA
ATOM     13  C   UNL     1      42.785  10.746  39.496  1.00  0.00     0.179 C 
ATOM     14  C   UNL     1      42.371  12.240  39.446  1.00  0.00     0.202 C 
BRANCH  11  15
ATOM     15  O   UNL     1      42.847   8.847  41.051  1.00  0.00    -0.388 OA
ATOM     16  H   UNL     1      42.840   8.599  42.012  1.00  0.00     0.211 HD
ENDBRANCH  11  15
BRANCH  13  17
ATOM     17  O   UNL     1      41.859   9.941  38.804  1.00  0.00    -0.387 OA
ATOM     18  H   UNL     1      42.309   9.562  38.007  1.00  0.00     0.211 HD
ENDBRANCH  13  17
BRANCH  14  19
ATOM     19  O   UNL     1      40.970  12.376  39.478  1.00  0.00    -0.385 OA
ATOM     20  H   UNL     1      40.722  13.014  38.761  1.00  0.00     0.211 HD
ENDBRANCH  14  19
ENDBRANCH   7   8
ENDBRANCH   1   7
BRANCH   2  21
ATOM     21  O   UNL     1      45.518  14.662  42.264  1.00  0.00    -0.387 OA
ATOM     22  H   UNL     1      44.732  14.084  42.454  1.00  0.00     0.211 HD
ENDBRANCH   2  21
BRANCH   6  23
ATOM     23  O   UNL     1      42.397  16.092  38.779  1.00  0.00    -0.462 OA
BRANCH  23  24
ATOM     24  C   UNL     1      42.006  15.926  37.432  1.00  0.00     0.130 A 
ATOM     25  C   UNL     1      42.242  16.968  36.518  1.00  0.00     0.093 A 
ATOM     26  C   UNL     1      41.495  14.718  36.936  1.00  0.00     0.094 A 
ATOM     27  C   UNL     1      42.209  16.728  35.131  1.00  0.00     0.133 A 
ATOM     28  C   UNL     1      41.716  14.395  35.603  1.00  0.00     0.138 A 
ATOM     29  C   UNL     1      42.054  15.391  34.661  1.00  0.00     0.102 A 
ATOM     30  O   UNL     1      41.789  13.048  35.254  1.00  0.00    -0.484 OA
ATOM     31  C   UNL     1      42.422  14.934  33.287  1.00  0.00     0.174 C 
ATOM     32  C   UNL     1      42.687  12.656  34.217  1.00  0.00     0.211 C 
ATOM     33  O   UNL     1      42.874  15.735  32.422  1.00  0.00    -0.294 OA
ATOM     34  C   UNL     1      42.356  13.457  32.952  1.00  0.00     0.131 C 
BRANCH  27  35
ATOM     35  O   UNL     1      42.365  17.827  34.276  1.00  0.00    -0.507 OA
ATOM     36  H   UNL     1      41.690  18.584  34.232  1.00  0.00     0.293 HD
ENDBRANCH  27  35
BRANCH  32  37
ATOM     37  C   UNL     1      42.677  11.163  34.018  1.00  0.00    -0.007 A 
ATOM     38  C   UNL     1      42.375  10.324  35.099  1.00  0.00     0.011 A 
ATOM     39  C   UNL     1      42.887  10.598  32.752  1.00  0.00     0.011 A 
ATOM     40  C   UNL     1      42.224   8.958  34.917  1.00  0.00     0.046 A 
ATOM     41  C   UNL     1      42.745   9.218  32.565  1.00  0.00     0.046 A 
ATOM     42  C   UNL     1      42.388   8.398  33.641  1.00  0.00     0.115 A 
BRANCH  42  43
ATOM     43  O   UNL     1      42.204   7.031  33.436  1.00  0.00    -0.508 OA
ATOM     44  H   UNL     1      42.318   6.355  34.187  1.00  0.00     0.293 HD
ENDBRANCH  42  43
ENDBRANCH  32  37
ENDBRANCH  23  24
ENDBRANCH   6  23
BRANCH   3  45
ATOM     45  O   UNL     1      45.711  17.609  42.540  1.00  0.00    -0.387 OA
ATOM     46  H   UNL     1      46.490  16.998  42.443  1.00  0.00     0.211 HD
ENDBRANCH   3  45
BRANCH   4  47
ATOM     47  C   UNL     1      42.299  17.910  41.352  1.00  0.00     0.191 C 
BRANCH  47  48
ATOM     48  O   UNL     1      41.841  16.728  41.951  1.00  0.00    -0.394 OA
ATOM     49  H   UNL     1      40.860  16.664  41.823  1.00  0.00     0.210 HD
ENDBRANCH  47  48
ENDBRANCH   4  47
TORSDOF 14
ENDMDL
MODEL 3
REMARK VINA RESULT:    -5.722      1.852      4.923
REMARK INTER + INTRA:         -11.566
REMARK INTER:                 -10.432
REMARK INTRA:                  -1.134
REMARK UNBOUND:                -2.500
REMARK SMILES C[C@H]1O[C@H](O[C@H]2[C@@H](Oc3cc(O)c4c(c3)O[C@@H](c3ccc(O)cc3)CC4=O)O[C@@H](CO)[C@H](O)[C@H]2O)[C@H](O)[C@H](O)[C@@H]1O
REMARK SMILES IDX 6 1 34 2 32 3 29 4 28 5 7 6 5 7 4 8 1 9 2 10 40 11 3 12
REMARK SMILES IDX 38 13 36 14 41 15 39 17 37 19 35 21 8 23 9 24 10 25 15 26
REMARK SMILES IDX 11 27 14 28 13 29 16 30 26 31 17 32 27 33 25 34 12 35 18 37
REMARK SMILES IDX 19 38 24 39 20 40 23 41 21 42 22 43 33 45 30 47 31 48
REMARK H PARENT 41 16 39 18 37 20 35 22 12 36 22 44 33 46 31 49
REMARK Flexibility Score: inf
ROOT
ATOM      1  C   UNL     1      41.364  13.892  40.366  1.00  0.00     0.221 C 
ATOM      2  C   UNL     1      41.067  13.179  41.735  1.00  0.00     0.181 C 
ATOM      3  C   UNL     1      41.833  11.833  41.922  1.00  0.00     0.177 C 
ATOM      4  C   UNL     1      41.942  11.068  40.578  1.00  0.00     0.179 C 
ATOM      5  O   UNL     1      40.994  11.512  39.621  1.00  0.00    -0.332 OA
ATOM      6  C   UNL     1      41.086  12.878  39.210  1.00  0.00     0.339 C 
ENDROOT
BRANCH   1   7
ATOM      7  O   UNL     1      42.592  14.607  40.112  1.00  0.00    -0.337 OA
BRANCH   7   8
ATOM      8  C   UNL     1      43.327  15.112  41.215  1.00  0.00     0.282 C 
ATOM      9  C   UNL     1      45.056  13.433  43.714  1.00  0.00     0.041 C 
ATOM     10  C   UNL     1      45.121  14.564  42.686  1.00  0.00     0.150 C 
ATOM     11  C   UNL     1      44.740  15.933  43.346  1.00  0.00     0.174 C 
ATOM     12  O   UNL     1      44.341  14.186  41.552  1.00  0.00    -0.344 OA
ATOM     13  C   UNL     1      44.480  17.030  42.270  1.00  0.00     0.179 C 
ATOM     14  C   UNL     1      44.003  16.450  40.913  1.00  0.00     0.202 C 
BRANCH  11  15
ATOM     15  O   UNL     1      45.686  16.358  44.301  1.00  0.00    -0.388 OA
ATOM     16  H   UNL     1      46.078  17.219  43.999  1.00  0.00     0.211 HD
ENDBRANCH  11  15
BRANCH  13  17
ATOM     17  O   UNL     1      45.583  17.889  42.095  1.00  0.00    -0.387 OA
ATOM     18  H   UNL     1      46.297  17.388  41.624  1.00  0.00     0.211 HD
ENDBRANCH  13  17
BRANCH  14  19
ATOM     19  O   UNL     1      45.092  16.232  40.048  1.00  0.00    -0.385 OA
ATOM     20  H   UNL     1      44.910  15.393  39.554  1.00  0.00     0.211 HD
ENDBRANCH  14  19
ENDBRANCH   7   8
ENDBRANCH   1   7
BRANCH   2  21
ATOM     21  O   UNL     1      41.243  14.031  42.836  1.00  0.00    -0.387 OA
ATOM     22  H   UNL     1      40.804  13.598  43.615  1.00  0.00     0.211 HD
ENDBRANCH   2  21
BRANCH   6  23
ATOM     23  O   UNL     1      41.997  13.052  38.102  1.00  0.00    -0.462 OA
BRANCH  23  24
ATOM     24  C   UNL     1      41.747  12.652  36.771  1.00  0.00     0.130 A 
ATOM     25  C   UNL     1      42.365  13.351  35.719  1.00  0.00     0.093 A 
ATOM     26  C   UNL     1      40.998  11.509  36.451  1.00  0.00     0.094 A 
ATOM     27  C   UNL     1      42.443  12.789  34.431  1.00  0.00     0.133 A 
ATOM     28  C   UNL     1      41.291  10.824  35.279  1.00  0.00     0.138 A 
ATOM     29  C   UNL     1      41.997  11.450  34.229  1.00  0.00     0.102 A 
ATOM     30  O   UNL     1      41.044   9.453  35.238  1.00  0.00    -0.484 OA
ATOM     31  C   UNL     1      42.399  10.595  33.072  1.00  0.00     0.174 C 
ATOM     32  C   UNL     1      41.927   8.621  34.489  1.00  0.00     0.211 C 
ATOM     33  O   UNL     1      43.153  11.030  32.158  1.00  0.00    -0.294 OA
ATOM     34  C   UNL     1      41.984   9.137  33.046  1.00  0.00     0.131 C 
BRANCH  27  35
ATOM     35  O   UNL     1      42.993  13.575  33.409  1.00  0.00    -0.507 OA
ATOM     36  H   UNL     1      43.948  13.917  33.440  1.00  0.00     0.293 HD
ENDBRANCH  27  35
BRANCH  32  37
ATOM     37  C   UNL     1      41.544   7.169  34.606  1.00  0.00    -0.007 A 
ATOM     38  C   UNL     1      41.704   6.321  33.501  1.00  0.00     0.011 A 
ATOM     39  C   UNL     1      41.102   6.630  35.822  1.00  0.00     0.011 A 
ATOM     40  C   UNL     1      41.489   4.956  33.617  1.00  0.00     0.046 A 
ATOM     41  C   UNL     1      40.875   5.254  35.942  1.00  0.00     0.046 A 
ATOM     42  C   UNL     1      41.093   4.411  34.847  1.00  0.00     0.115 A 
BRANCH  42  43
ATOM     43  O   UNL     1      40.908   3.035  34.988  1.00  0.00    -0.508 OA
ATOM     44  H   UNL     1      41.693   2.388  35.012  1.00  0.00     0.293 HD
ENDBRANCH  42  43
ENDBRANCH  32  37
ENDBRANCH  23  24
ENDBRANCH   6  23
BRANCH   3  45
ATOM     45  O   UNL     1      41.135  11.067  42.871  1.00  0.00    -0.387 OA
ATOM     46  H   UNL     1      41.501  10.144  42.815  1.00  0.00     0.211 HD
ENDBRANCH   3  45
BRANCH   4  47
ATOM     47  C   UNL     1      43.388  10.984  40.031  1.00  0.00     0.191 C 
BRANCH  47  48
ATOM     48  O   UNL     1      43.550   9.844  39.230  1.00  0.00    -0.394 OA
ATOM     49  H   UNL     1      44.274  10.014  38.575  1.00  0.00     0.210 HD
ENDBRANCH  47  48
ENDBRANCH   4  47
TORSDOF 14
ENDMDL
MODEL 4
REMARK VINA RESULT:    -5.312      1.795      9.213
REMARK INTER + INTRA:         -10.917
REMARK INTER:                  -8.551
REMARK INTRA:                  -2.367
REMARK UNBOUND:                -2.500
REMARK SMILES C[C@H]1O[C@H](O[C@H]2[C@@H](Oc3cc(O)c4c(c3)O[C@@H](c3ccc(O)cc3)CC4=O)O[C@@H](CO)[C@H](O)[C@H]2O)[C@H](O)[C@H](O)[C@@H]1O
REMARK SMILES IDX 6 1 34 2 32 3 29 4 28 5 7 6 5 7 4 8 1 9 2 10 40 11 3 12
REMARK SMILES IDX 38 13 36 14 41 15 39 17 37 19 35 21 8 23 9 24 10 25 15 26
REMARK SMILES IDX 11 27 14 28 13 29 16 30 26 31 17 32 27 33 25 34 12 35 18 37
REMARK SMILES IDX 19 38 24 39 20 40 23 41 21 42 22 43 33 45 30 47 31 48
REMARK H PARENT 41 16 39 18 37 20 35 22 12 36 22 44 33 46 31 49
REMARK Flexibility Score: inf
ROOT
ATOM      1  C   UNL     1      43.084  12.271  35.568  1.00  0.00     0.221 C 
ATOM      2  C   UNL     1      43.871  12.116  34.216  1.00  0.00     0.181 C 
ATOM      3  C   UNL     1      43.294  11.015  33.275  1.00  0.00     0.177 C 
ATOM      4  C   UNL     1      42.777   9.804  34.094  1.00  0.00     0.179 C 
ATOM      5  O   UNL     1      43.314   9.765  35.406  1.00  0.00    -0.332 OA
ATOM      6  C   UNL     1      43.008  10.871  36.258  1.00  0.00     0.339 C 
ENDROOT
BRANCH   1   7
ATOM      7  O   UNL     1      41.804  12.933  35.651  1.00  0.00    -0.337 OA
BRANCH   7   8
ATOM      8  C   UNL     1      41.747  14.240  36.200  1.00  0.00     0.282 C 
ATOM      9  C   UNL     1      43.817  15.789  38.517  1.00  0.00     0.041 C 
ATOM     10  C   UNL     1      43.119  15.935  37.163  1.00  0.00     0.150 C 
ATOM     11  C   UNL     1      41.750  16.678  37.324  1.00  0.00     0.174 C 
ATOM     12  O   UNL     1      43.055  14.647  36.551  1.00  0.00    -0.344 OA
ATOM     13  C   UNL     1      40.878  16.551  36.038  1.00  0.00     0.179 C 
ATOM     14  C   UNL     1      41.188  15.271  35.218  1.00  0.00     0.202 C 
BRANCH  11  15
ATOM     15  O   UNL     1      41.905  18.025  37.712  1.00  0.00    -0.388 OA
ATOM     16  H   UNL     1      41.014  18.392  37.950  1.00  0.00     0.211 HD
ENDBRANCH  11  15
BRANCH  13  17
ATOM     17  O   UNL     1      40.941  17.700  35.225  1.00  0.00    -0.387 OA
ATOM     18  H   UNL     1      41.247  17.427  34.322  1.00  0.00     0.211 HD
ENDBRANCH  13  17
BRANCH  14  19
ATOM     19  O   UNL     1      42.150  15.529  34.223  1.00  0.00    -0.385 OA
ATOM     20  H   UNL     1      43.016  15.179  34.556  1.00  0.00     0.211 HD
ENDBRANCH  14  19
ENDBRANCH   7   8
ENDBRANCH   1   7
BRANCH   2  21
ATOM     21  O   UNL     1      44.032  13.338  33.544  1.00  0.00    -0.387 OA
ATOM     22  H   UNL     1      43.225  13.471  32.981  1.00  0.00     0.211 HD
ENDBRANCH   2  21
BRANCH   6  23
ATOM     23  O   UNL     1      41.766  10.681  36.971  1.00  0.00    -0.462 OA
BRANCH  23  24
ATOM     24  C   UNL     1      41.643  10.515  38.368  1.00  0.00     0.130 A 
ATOM     25  C   UNL     1      41.610   9.216  38.902  1.00  0.00     0.093 A 
ATOM     26  C   UNL     1      41.669  11.595  39.263  1.00  0.00     0.094 A 
ATOM     27  C   UNL     1      41.851   8.996  40.272  1.00  0.00     0.133 A 
ATOM     28  C   UNL     1      42.168  11.390  40.544  1.00  0.00     0.138 A 
ATOM     29  C   UNL     1      42.249  10.092  41.092  1.00  0.00     0.102 A 
ATOM     30  O   UNL     1      42.763  12.466  41.199  1.00  0.00    -0.484 OA
ATOM     31  C   UNL     1      42.935   9.950  42.411  1.00  0.00     0.174 C 
ATOM     32  C   UNL     1      43.872  12.214  42.061  1.00  0.00     0.211 C 
ATOM     33  O   UNL     1      43.182   8.816  42.910  1.00  0.00    -0.294 OA
ATOM     34  C   UNL     1      43.448  11.188  43.119  1.00  0.00     0.131 C 
BRANCH  27  35
ATOM     35  O   UNL     1      41.716   7.687  40.755  1.00  0.00    -0.507 OA
ATOM     36  H   UNL     1      40.976   7.065  40.445  1.00  0.00     0.293 HD
ENDBRANCH  27  35
BRANCH  32  37
ATOM     37  C   UNL     1      44.423  13.493  42.634  1.00  0.00    -0.007 A 
ATOM     38  C   UNL     1      44.264  14.692  41.926  1.00  0.00     0.011 A 
ATOM     39  C   UNL     1      45.025  13.523  43.900  1.00  0.00     0.011 A 
ATOM     40  C   UNL     1      44.638  15.903  42.487  1.00  0.00     0.046 A 
ATOM     41  C   UNL     1      45.413  14.741  44.467  1.00  0.00     0.046 A 
ATOM     42  C   UNL     1      45.197  15.937  43.773  1.00  0.00     0.115 A 
BRANCH  42  43
ATOM     43  O   UNL     1      45.545  17.152  44.365  1.00  0.00    -0.508 OA
ATOM     44  H   UNL     1      46.182  17.805  43.916  1.00  0.00     0.293 HD
ENDBRANCH  42  43
ENDBRANCH  32  37
ENDBRANCH  23  24
ENDBRANCH   6  23
BRANCH   3  45
ATOM     45  O   UNL     1      44.317  10.616  32.398  1.00  0.00    -0.387 OA
ATOM     46  H   UNL     1      45.167  10.666  32.911  1.00  0.00     0.211 HD
ENDBRANCH   3  45
BRANCH   4  47
ATOM     47  C   UNL     1      41.239   9.636  34.044  1.00  0.00     0.191 C 
BRANCH  47  48
ATOM     48  O   UNL     1      40.875   8.309  34.314  1.00  0.00    -0.394 OA
ATOM     49  H   UNL     1      40.643   7.862  33.461  1.00  0.00     0.210 HD
ENDBRANCH  47  48
ENDBRANCH   4  47
TORSDOF 14
ENDMDL
MODEL 5
REMARK VINA RESULT:    -4.994      1.687      5.904
REMARK INTER + INTRA:         -10.414
REMARK INTER:                  -8.478
REMARK INTRA:                  -1.936
REMARK UNBOUND:                -2.500
REMARK SMILES C[C@H]1O[C@H](O[C@H]2[C@@H](Oc3cc(O)c4c(c3)O[C@@H](c3ccc(O)cc3)CC4=O)O[C@@H](CO)[C@H](O)[C@H]2O)[C@H](O)[C@H](O)[C@@H]1O
REMARK SMILES IDX 6 1 34 2 32 3 29 4 28 5 7 6 5 7 4 8 1 9 2 10 40 11 3 12
REMARK SMILES IDX 38 13 36 14 41 15 39 17 37 19 35 21 8 23 9 24 10 25 15 26
REMARK SMILES IDX 11 27 14 28 13 29 16 30 26 31 17 32 27 33 25 34 12 35 18 37
REMARK SMILES IDX 19 38 24 39 20 40 23 41 21 42 22 43 33 45 30 47 31 48
REMARK H PARENT 41 16 39 18 37 20 35 22 12 36 22 44 33 46 31 49
REMARK Flexibility Score: inf
ROOT
ATOM      1  C   UNL     1      42.129  14.665  41.687  1.00  0.00     0.221 C 
ATOM      2  C   UNL     1      41.739  16.098  42.201  1.00  0.00     0.181 C 
ATOM      3  C   UNL     1      42.935  16.900  42.799  1.00  0.00     0.177 C 
ATOM      4  C   UNL     1      43.899  15.960  43.569  1.00  0.00     0.179 C 
ATOM      5  O   UNL     1      43.291  14.729  43.924  1.00  0.00    -0.332 OA
ATOM      6  C   UNL     1      42.842  13.901  42.849  1.00  0.00     0.339 C 
ENDROOT
BRANCH   1   7
ATOM      7  O   UNL     1      42.836  14.449  40.448  1.00  0.00    -0.337 OA
BRANCH   7   8
ATOM      8  C   UNL     1      42.657  15.378  39.390  1.00  0.00     0.282 C 
ATOM      9  C   UNL     1      44.672  18.008  38.353  1.00  0.00     0.041 C 
ATOM     10  C   UNL     1      43.874  16.784  37.899  1.00  0.00     0.150 C 
ATOM     11  C   UNL     1      42.439  17.202  37.432  1.00  0.00     0.174 C 
ATOM     12  O   UNL     1      43.927  15.804  38.936  1.00  0.00    -0.344 OA
ATOM     13  C   UNL     1      41.506  15.963  37.279  1.00  0.00     0.179 C 
ATOM     14  C   UNL     1      41.914  14.779  38.195  1.00  0.00     0.202 C 
BRANCH  11  15
ATOM     15  O   UNL     1      42.455  17.985  36.259  1.00  0.00    -0.388 OA
ATOM     16  H   UNL     1      43.323  17.848  35.797  1.00  0.00     0.211 HD
ENDBRANCH  11  15
BRANCH  13  17
ATOM     17  O   UNL     1      41.376  15.545  35.940  1.00  0.00    -0.387 OA
ATOM     18  H   UNL     1      41.221  14.566  35.932  1.00  0.00     0.211 HD
ENDBRANCH  13  17
BRANCH  14  19
ATOM     19  O   UNL     1      42.770  13.890  37.518  1.00  0.00    -0.385 OA
ATOM     20  H   UNL     1      43.549  14.416  37.203  1.00  0.00     0.211 HD
ENDBRANCH  14  19
ENDBRANCH   7   8
ENDBRANCH   1   7
BRANCH   2  21
ATOM     21  O   UNL     1      41.047  16.847  41.235  1.00  0.00    -0.387 OA
ATOM     22  H   UNL     1      41.584  17.664  41.059  1.00  0.00     0.211 HD
ENDBRANCH   2  21
BRANCH   6  23
ATOM     23  O   UNL     1      43.884  13.025  42.367  1.00  0.00    -0.462 OA
BRANCH  23  24
ATOM     24  C   UNL     1      43.700  11.684  41.962  1.00  0.00     0.130 A 
ATOM     25  C   UNL     1      43.051  10.790  42.830  1.00  0.00     0.093 A 
ATOM     26  C   UNL     1      44.035  11.229  40.678  1.00  0.00     0.094 A 
ATOM     27  C   UNL     1      42.529   9.574  42.350  1.00  0.00     0.133 A 
ATOM     28  C   UNL     1      43.308  10.180  40.129  1.00  0.00     0.138 A 
ATOM     29  C   UNL     1      42.557   9.310  40.950  1.00  0.00     0.102 A 
ATOM     30  O   UNL     1      43.180  10.120  38.743  1.00  0.00    -0.484 OA
ATOM     31  C   UNL     1      41.688   8.307  40.264  1.00  0.00     0.174 C 
ATOM     32  C   UNL     1      41.962   9.627  38.189  1.00  0.00     0.211 C 
ATOM     33  O   UNL     1      40.875   7.586  40.908  1.00  0.00    -0.294 OA
ATOM     34  C   UNL     1      41.699   8.224  38.750  1.00  0.00     0.131 C 
BRANCH  27  35
ATOM     35  O   UNL     1      41.971   8.690  43.284  1.00  0.00    -0.507 OA
ATOM     36  H   UNL     1      41.286   8.985  43.972  1.00  0.00     0.293 HD
ENDBRANCH  27  35
BRANCH  32  37
ATOM     37  C   UNL     1      41.978   9.691  36.684  1.00  0.00    -0.007 A 
ATOM     38  C   UNL     1      41.987   8.502  35.942  1.00  0.00     0.011 A 
ATOM     39  C   UNL     1      41.907  10.917  36.008  1.00  0.00     0.011 A 
ATOM     40  C   UNL     1      41.865   8.526  34.561  1.00  0.00     0.046 A 
ATOM     41  C   UNL     1      41.793  10.947  34.614  1.00  0.00     0.046 A 
ATOM     42  C   UNL     1      41.747   9.751  33.889  1.00  0.00     0.115 A 
BRANCH  42  43
ATOM     43  O   UNL     1      41.587   9.790  32.503  1.00  0.00    -0.508 OA
ATOM     44  H   UNL     1      42.208   9.283  31.878  1.00  0.00     0.293 HD
ENDBRANCH  42  43
ENDBRANCH  32  37
ENDBRANCH  23  24
ENDBRANCH   6  23
BRANCH   3  45
ATOM     45  O   UNL     1      42.412  17.881  43.657  1.00  0.00    -0.387 OA
ATOM     46  H   UNL     1      42.289  17.448  44.543  1.00  0.00     0.211 HD
ENDBRANCH   3  45
BRANCH   4  47
ATOM     47  C   UNL     1      45.281  15.801  42.890  1.00  0.00     0.191 C 
BRANCH  47  48
ATOM     48  O   UNL     1      45.244  16.281  41.572  1.00  0.00    -0.394 OA
ATOM     49  H   UNL     1      46.054  16.829  41.410  1.00  0.00     0.210 HD
ENDBRANCH  47  48
ENDBRANCH   4  47
TORSDOF 14
ENDMDL
MODEL 6
REMARK VINA RESULT:    -4.709      1.967      7.934
REMARK INTER + INTRA:          -9.961
REMARK INTER:                  -8.668
REMARK INTRA:                  -1.293
REMARK UNBOUND:                -2.500
REMARK SMILES C[C@H]1O[C@H](O[C@H]2[C@@H](Oc3cc(O)c4c(c3)O[C@@H](c3ccc(O)cc3)CC4=O)O[C@@H](CO)[C@H](O)[C@H]2O)[C@H](O)[C@H](O)[C@@H]1O
REMARK SMILES IDX 6 1 34 2 32 3 29 4 28 5 7 6 5 7 4 8 1 9 2 10 40 11 3 12
REMARK SMILES IDX 38 13 36 14 41 15 39 17 37 19 35 21 8 23 9 24 10 25 15 26
REMARK SMILES IDX 11 27 14 28 13 29 16 30 26 31 17 32 27 33 25 34 12 35 18 37
REMARK SMILES IDX 19 38 24 39 20 40 23 41 21 42 22 43 33 45 30 47 31 48
REMARK H PARENT 41 16 39 18 37 20 35 22 12 36 22 44 33 46 31 49
REMARK Flexibility Score: inf
ROOT
ATOM      1  C   UNL     1      41.519   9.673  35.637  1.00  0.00     0.221 C 
ATOM      2  C   UNL     1      41.387   8.793  34.342  1.00  0.00     0.181 C 
ATOM      3  C   UNL     1      42.527   9.027  33.304  1.00  0.00     0.177 C 
ATOM      4  C   UNL     1      42.948  10.519  33.272  1.00  0.00     0.179 C 
ATOM      5  O   UNL     1      41.963  11.374  33.830  1.00  0.00    -0.332 OA
ATOM      6  C   UNL     1      41.641  11.170  35.207  1.00  0.00     0.339 C 
ENDROOT
BRANCH   1   7
ATOM      7  O   UNL     1      42.470   9.380  36.683  1.00  0.00    -0.337 OA
BRANCH   7   8
ATOM      8  C   UNL     1      41.996   9.229  38.012  1.00  0.00     0.282 C 
ATOM      9  C   UNL     1      41.375   6.353  39.855  1.00  0.00     0.041 C 
ATOM     10  C   UNL     1      42.045   7.729  39.864  1.00  0.00     0.150 C 
ATOM     11  C   UNL     1      41.100   8.800  40.506  1.00  0.00     0.174 C 
ATOM     12  O   UNL     1      42.497   8.016  38.540  1.00  0.00    -0.344 OA
ATOM     13  C   UNL     1      41.611  10.246  40.234  1.00  0.00     0.179 C 
ATOM     14  C   UNL     1      42.452  10.360  38.935  1.00  0.00     0.202 C 
BRANCH  11  15
ATOM     15  O   UNL     1      40.883   8.578  41.881  1.00  0.00    -0.388 OA
ATOM     16  H   UNL     1      40.940   9.448  42.357  1.00  0.00     0.211 HD
ENDBRANCH  11  15
BRANCH  13  17
ATOM     17  O   UNL     1      42.302  10.793  41.333  1.00  0.00    -0.387 OA
ATOM     18  H   UNL     1      43.039  11.359  40.989  1.00  0.00     0.211 HD
ENDBRANCH  13  17
BRANCH  14  19
ATOM     19  O   UNL     1      43.825  10.208  39.209  1.00  0.00    -0.385 OA
ATOM     20  H   UNL     1      43.906   9.952  40.163  1.00  0.00     0.211 HD
ENDBRANCH  14  19
ENDBRANCH   7   8
ENDBRANCH   1   7
BRANCH   2  21
ATOM     21  O   UNL     1      41.223   7.429  34.631  1.00  0.00    -0.387 OA
ATOM     22  H   UNL     1      40.253   7.277  34.782  1.00  0.00     0.211 HD
ENDBRANCH   2  21
BRANCH   6  23
ATOM     23  O   UNL     1      42.510  11.920  36.085  1.00  0.00    -0.462 OA
BRANCH  23  24
ATOM     24  C   UNL     1      42.687  13.321  36.056  1.00  0.00     0.130 A 
ATOM     25  C   UNL     1      41.807  14.106  35.291  1.00  0.00     0.093 A 
ATOM     26  C   UNL     1      43.635  13.981  36.853  1.00  0.00     0.094 A 
ATOM     27  C   UNL     1      41.709  15.494  35.507  1.00  0.00     0.133 A 
ATOM     28  C   UNL     1      43.371  15.280  37.268  1.00  0.00     0.138 A 
ATOM     29  C   UNL     1      42.423  16.079  36.593  1.00  0.00     0.102 A 
ATOM     30  O   UNL     1      43.919  15.710  38.475  1.00  0.00    -0.484 OA
ATOM     31  C   UNL     1      42.095  17.405  37.198  1.00  0.00     0.174 C 
ATOM     32  C   UNL     1      43.167  16.614  39.284  1.00  0.00     0.211 C 
ATOM     33  O   UNL     1      41.159  18.125  36.749  1.00  0.00    -0.294 OA
ATOM     34  C   UNL     1      42.826  17.854  38.448  1.00  0.00     0.131 C 
BRANCH  27  35
ATOM     35  O   UNL     1      40.879  16.230  34.651  1.00  0.00    -0.507 OA
ATOM     36  H   UNL     1      39.879  16.318  34.805  1.00  0.00     0.293 HD
ENDBRANCH  27  35
BRANCH  32  37
ATOM     37  C   UNL     1      43.883  16.922  40.572  1.00  0.00    -0.007 A 
ATOM     38  C   UNL     1      43.322  17.837  41.473  1.00  0.00     0.011 A 
ATOM     39  C   UNL     1      45.063  16.252  40.926  1.00  0.00     0.011 A 
ATOM     40  C   UNL     1      43.885  18.038  42.724  1.00  0.00     0.046 A 
ATOM     41  C   UNL     1      45.641  16.459  42.183  1.00  0.00     0.046 A 
ATOM     42  C   UNL     1      45.039  17.333  43.095  1.00  0.00     0.115 A 
BRANCH  42  43
ATOM     43  O   UNL     1      45.596  17.498  44.364  1.00  0.00    -0.508 OA
ATOM     44  H   UNL     1      45.496  16.793  45.089  1.00  0.00     0.293 HD
ENDBRANCH  42  43
ENDBRANCH  32  37
ENDBRANCH  23  24
ENDBRANCH   6  23
BRANCH   3  45
ATOM     45  O   UNL     1      42.056   8.620  32.045  1.00  0.00    -0.387 OA
ATOM     46  H   UNL     1      41.922   7.636  32.096  1.00  0.00     0.211 HD
ENDBRANCH   3  45
BRANCH   4  47
ATOM     47  C   UNL     1      44.374  10.771  33.818  1.00  0.00     0.191 C 
BRANCH  47  48
ATOM     48  O   UNL     1      45.236  11.175  32.788  1.00  0.00    -0.394 OA
ATOM     49  H   UNL     1      45.584  12.079  32.998  1.00  0.00     0.210 HD
ENDBRANCH  47  48
ENDBRANCH   4  47
TORSDOF 14
ENDMDL
MODEL 7
REMARK VINA RESULT:    -4.656      1.561      4.893
REMARK INTER + INTRA:          -9.878
REMARK INTER:                  -8.485
REMARK INTRA:                  -1.393
REMARK UNBOUND:                -2.500
REMARK SMILES C[C@H]1O[C@H](O[C@H]2[C@@H](Oc3cc(O)c4c(c3)O[C@@H](c3ccc(O)cc3)CC4=O)O[C@@H](CO)[C@H](O)[C@H]2O)[C@H](O)[C@H](O)[C@@H]1O
REMARK SMILES IDX 6 1 34 2 32 3 29 4 28 5 7 6 5 7 4 8 1 9 2 10 40 11 3 12
REMARK SMILES IDX 38 13 36 14 41 15 39 17 37 19 35 21 8 23 9 24 10 25 15 26
REMARK SMILES IDX 11 27 14 28 13 29 16 30 26 31 17 32 27 33 25 34 12 35 18 37
REMARK SMILES IDX 19 38 24 39 20 40 23 41 21 42 22 43 33 45 30 47 31 48
REMARK H PARENT 41 16 39 18 37 20 35 22 12 36 22 44 33 46 31 49
REMARK Flexibility Score: inf
ROOT
ATOM      1  C   UNL     1      41.701  12.322  42.893  1.00  0.00     0.221 C 
ATOM      2  C   UNL     1      41.517  10.885  43.502  1.00  0.00     0.181 C 
ATOM      3  C   UNL     1      42.206   9.758  42.674  1.00  0.00     0.177 C 
ATOM      4  C   UNL     1      42.107  10.049  41.154  1.00  0.00     0.179 C 
ATOM      5  O   UNL     1      41.088  10.985  40.845  1.00  0.00    -0.332 OA
ATOM      6  C   UNL     1      41.224  12.293  41.405  1.00  0.00     0.339 C 
ENDROOT
BRANCH   1   7
ATOM      7  O   UNL     1      42.937  13.060  43.000  1.00  0.00    -0.337 OA
BRANCH   7   8
ATOM      8  C   UNL     1      42.914  14.344  43.602  1.00  0.00     0.282 C 
ATOM      9  C   UNL     1      45.519  16.317  44.775  1.00  0.00     0.041 C 
ATOM     10  C   UNL     1      44.249  16.293  43.923  1.00  0.00     0.150 C 
ATOM     11  C   UNL     1      43.012  16.765  44.761  1.00  0.00     0.174 C 
ATOM     12  O   UNL     1      44.134  15.002  43.324  1.00  0.00    -0.344 OA
ATOM     13  C   UNL     1      41.673  16.442  44.030  1.00  0.00     0.179 C 
ATOM     14  C   UNL     1      41.781  15.226  43.074  1.00  0.00     0.202 C 
BRANCH  11  15
ATOM     15  O   UNL     1      43.088  18.125  45.123  1.00  0.00    -0.388 OA
ATOM     16  H   UNL     1      44.015  18.444  44.968  1.00  0.00     0.211 HD
ENDBRANCH  11  15
BRANCH  13  17
ATOM     17  O   UNL     1      41.134  17.562  43.367  1.00  0.00    -0.387 OA
ATOM     18  H   UNL     1      40.147  17.529  43.451  1.00  0.00     0.211 HD
ENDBRANCH  13  17
BRANCH  14  19
ATOM     19  O   UNL     1      42.090  15.640  41.764  1.00  0.00    -0.385 OA
ATOM     20  H   UNL     1      41.833  16.594  41.691  1.00  0.00     0.211 HD
ENDBRANCH  14  19
ENDBRANCH   7   8
ENDBRANCH   1   7
BRANCH   2  21
ATOM     21  O   UNL     1      41.876  10.824  44.857  1.00  0.00    -0.387 OA
ATOM     22  H   UNL     1      42.852  11.005  44.910  1.00  0.00     0.211 HD
ENDBRANCH   2  21
BRANCH   6  23
ATOM     23  O   UNL     1      42.010  13.165  40.563  1.00  0.00    -0.462 OA
BRANCH  23  24
ATOM     24  C   UNL     1      41.829  13.338  39.173  1.00  0.00     0.130 A 
ATOM     25  C   UNL     1      42.456  14.420  38.531  1.00  0.00     0.093 A 
ATOM     26  C   UNL     1      41.141  12.409  38.378  1.00  0.00     0.094 A 
ATOM     27  C   UNL     1      42.607  14.435  37.132  1.00  0.00     0.133 A 
ATOM     28  C   UNL     1      41.507  12.269  37.045  1.00  0.00     0.138 A 
ATOM     29  C   UNL     1      42.226  13.286  36.379  1.00  0.00     0.102 A 
ATOM     30  O   UNL     1      41.320  11.030  36.437  1.00  0.00    -0.484 OA
ATOM     31  C   UNL     1      42.707  12.987  34.997  1.00  0.00     0.174 C 
ATOM     32  C   UNL     1      42.266  10.596  35.461  1.00  0.00     0.211 C 
ATOM     33  O   UNL     1      43.477  13.775  34.380  1.00  0.00    -0.294 OA
ATOM     34  C   UNL     1      42.355  11.658  34.358  1.00  0.00     0.131 C 
BRANCH  27  35
ATOM     35  O   UNL     1      43.162  15.582  36.548  1.00  0.00    -0.507 OA
ATOM     36  H   UNL     1      43.473  15.606  35.582  1.00  0.00     0.293 HD
ENDBRANCH  27  35
BRANCH  32  37
ATOM     37  C   UNL     1      41.940   9.215  34.957  1.00  0.00    -0.007 A 
ATOM     38  C   UNL     1      42.441   8.796  33.717  1.00  0.00     0.011 A 
ATOM     39  C   UNL     1      41.208   8.310  35.738  1.00  0.00     0.011 A 
ATOM     40  C   UNL     1      42.272   7.488  33.288  1.00  0.00     0.046 A 
ATOM     41  C   UNL     1      41.027   6.992  35.306  1.00  0.00     0.046 A 
ATOM     42  C   UNL     1      41.581   6.571  34.092  1.00  0.00     0.115 A 
BRANCH  42  43
ATOM     43  O   UNL     1      41.435   5.242  33.691  1.00  0.00    -0.508 OA
ATOM     44  H   UNL     1      40.933   4.990  32.844  1.00  0.00     0.293 HD
ENDBRANCH  42  43
ENDBRANCH  32  37
ENDBRANCH  23  24
ENDBRANCH   6  23
BRANCH   3  45
ATOM     45  O   UNL     1      41.572   8.543  42.986  1.00  0.00    -0.387 OA
ATOM     46  H   UNL     1      42.141   7.820  42.609  1.00  0.00     0.211 HD
ENDBRANCH   3  45
BRANCH   4  47
ATOM     47  C   UNL     1      43.471  10.373  40.497  1.00  0.00     0.191 C 
BRANCH  47  48
ATOM     48  O   UNL     1      43.525   9.867  39.191  1.00  0.00    -0.394 OA
ATOM     49  H   UNL     1      44.190  10.389  38.673  1.00  0.00     0.210 HD
ENDBRANCH  47  48
ENDBRANCH   4  47
TORSDOF 14
ENDMDL
MODEL 8
REMARK VINA RESULT:    -4.420      1.869      5.933
REMARK INTER + INTRA:          -9.504
REMARK INTER:                  -8.179
REMARK INTRA:                  -1.325
REMARK UNBOUND:                -2.500
REMARK SMILES C[C@H]1O[C@H](O[C@H]2[C@@H](Oc3cc(O)c4c(c3)O[C@@H](c3ccc(O)cc3)CC4=O)O[C@@H](CO)[C@H](O)[C@H]2O)[C@H](O)[C@H](O)[C@@H]1O
REMARK SMILES IDX 6 1 34 2 32 3 29 4 28 5 7 6 5 7 4 8 1 9 2 10 40 11 3 12
REMARK SMILES IDX 38 13 36 14 41 15 39 17 37 19 35 21 8 23 9 24 10 25 15 26
REMARK SMILES IDX 11 27 14 28 13 29 16 30 26 31 17 32 27 33 25 34 12 35 18 37
REMARK SMILES IDX 19 38 24 39 20 40 23 41 21 42 22 43 33 45 30 47 31 48
REMARK H PARENT 41 16 39 18 37 20 35 22 12 36 22 44 33 46 31 49
REMARK Flexibility Score: inf
ROOT
ATOM      1  C   UNL     1      41.577  13.272  42.123  1.00  0.00     0.221 C 
ATOM      2  C   UNL     1      41.053  14.502  42.949  1.00  0.00     0.181 C 
ATOM      3  C   UNL     1      41.880  14.792  44.239  1.00  0.00     0.177 C 
ATOM      4  C   UNL     1      42.354  13.471  44.899  1.00  0.00     0.179 C 
ATOM      5  O   UNL     1      41.604  12.348  44.468  1.00  0.00    -0.332 OA
ATOM      6  C   UNL     1      41.657  12.036  43.075  1.00  0.00     0.339 C 
ENDROOT
BRANCH   1   7
ATOM      7  O   UNL     1      42.758  13.337  41.297  1.00  0.00    -0.337 OA
BRANCH   7   8
ATOM      8  C   UNL     1      43.220  14.607  40.865  1.00  0.00     0.282 C 
ATOM      9  C   UNL     1      46.088  16.362  41.728  1.00  0.00     0.041 C 
ATOM     10  C   UNL     1      45.212  15.881  40.569  1.00  0.00     0.150 C 
ATOM     11  C   UNL     1      44.202  16.998  40.139  1.00  0.00     0.174 C 
ATOM     12  O   UNL     1      44.632  14.629  40.934  1.00  0.00    -0.344 OA
ATOM     13  C   UNL     1      43.094  16.433  39.200  1.00  0.00     0.179 C 
ATOM     14  C   UNL     1      42.822  14.923  39.422  1.00  0.00     0.202 C 
BRANCH  11  15
ATOM     15  O   UNL     1      44.840  18.119  39.570  1.00  0.00    -0.388 OA
ATOM     16  H   UNL     1      45.816  17.940  39.524  1.00  0.00     0.211 HD
ENDBRANCH  11  15
BRANCH  13  17
ATOM     17  O   UNL     1      43.344  16.708  37.841  1.00  0.00    -0.387 OA
ATOM     18  H   UNL     1      42.543  16.450  37.318  1.00  0.00     0.211 HD
ENDBRANCH  13  17
BRANCH  14  19
ATOM     19  O   UNL     1      43.596  14.137  38.547  1.00  0.00    -0.385 OA
ATOM     20  H   UNL     1      42.982  13.776  37.857  1.00  0.00     0.211 HD
ENDBRANCH  14  19
ENDBRANCH   7   8
ENDBRANCH   1   7
BRANCH   2  21
ATOM     21  O   UNL     1      40.902  15.655  42.162  1.00  0.00    -0.387 OA
ATOM     22  H   UNL     1      41.105  15.398  41.225  1.00  0.00     0.211 HD
ENDBRANCH   2  21
BRANCH   6  23
ATOM     23  O   UNL     1      42.769  11.171  42.754  1.00  0.00    -0.462 OA
BRANCH  23  24
ATOM     24  C   UNL     1      42.859  10.348  41.610  1.00  0.00     0.130 A 
ATOM     25  C   UNL     1      42.268   9.073  41.636  1.00  0.00     0.093 A 
ATOM     26  C   UNL     1      43.414  10.791  40.400  1.00  0.00     0.094 A 
ATOM     27  C   UNL     1      42.015   8.373  40.441  1.00  0.00     0.133 A 
ATOM     28  C   UNL     1      42.941  10.253  39.210  1.00  0.00     0.138 A 
ATOM     29  C   UNL     1      42.252   9.021  39.194  1.00  0.00     0.102 A 
ATOM     30  O   UNL     1      42.989  11.043  38.063  1.00  0.00    -0.484 OA
ATOM     31  C   UNL     1      41.648   8.593  37.896  1.00  0.00     0.174 C 
ATOM     32  C   UNL     1      41.943  10.918  37.101  1.00  0.00     0.211 C 
ATOM     33  O   UNL     1      40.895   7.582  37.817  1.00  0.00    -0.294 OA
ATOM     34  C   UNL     1      41.851   9.452  36.663  1.00  0.00     0.131 C 
BRANCH  27  35
ATOM     35  O   UNL     1      41.505   7.071  40.544  1.00  0.00    -0.507 OA
ATOM     36  H   UNL     1      40.778   6.721  39.928  1.00  0.00     0.293 HD
ENDBRANCH  27  35
BRANCH  32  37
ATOM     37  C   UNL     1      42.127  11.887  35.963  1.00  0.00    -0.007 A 
ATOM     38  C   UNL     1      41.725  13.221  36.119  1.00  0.00     0.011 A 
ATOM     39  C   UNL     1      42.764  11.501  34.775  1.00  0.00     0.011 A 
ATOM     40  C   UNL     1      42.004  14.165  35.144  1.00  0.00     0.046 A 
ATOM     41  C   UNL     1      43.039  12.449  33.783  1.00  0.00     0.046 A 
ATOM     42  C   UNL     1      42.683  13.788  33.976  1.00  0.00     0.115 A 
BRANCH  42  43
ATOM     43  O   UNL     1      43.003  14.735  33.002  1.00  0.00    -0.508 OA
ATOM     44  H   UNL     1      42.779  14.591  32.021  1.00  0.00     0.293 HD
ENDBRANCH  42  43
ENDBRANCH  32  37
ENDBRANCH  23  24
ENDBRANCH   6  23
BRANCH   3  45
ATOM     45  O   UNL     1      41.065  15.520  45.121  1.00  0.00    -0.387 OA
ATOM     46  H   UNL     1      40.770  14.884  45.827  1.00  0.00     0.211 HD
ENDBRANCH   3  45
BRANCH   4  47
ATOM     47  C   UNL     1      43.886  13.262  44.831  1.00  0.00     0.191 C 
BRANCH  47  48
ATOM     48  O   UNL     1      44.427  13.914  43.713  1.00  0.00    -0.394 OA
ATOM     49  H   UNL     1      45.405  13.749  43.690  1.00  0.00     0.210 HD
ENDBRANCH  47  48
ENDBRANCH   4  47
TORSDOF 14
ENDMDL
MODEL 9
REMARK VINA RESULT:    -4.413      1.532      2.147
REMARK INTER + INTRA:          -9.493
REMARK INTER:                  -8.558
REMARK INTRA:                  -0.935
REMARK UNBOUND:                -2.500
REMARK SMILES C[C@H]1O[C@H](O[C@H]2[C@@H](Oc3cc(O)c4c(c3)O[C@@H](c3ccc(O)cc3)CC4=O)O[C@@H](CO)[C@H](O)[C@H]2O)[C@H](O)[C@H](O)[C@@H]1O
REMARK SMILES IDX 6 1 34 2 32 3 29 4 28 5 7 6 5 7 4 8 1 9 2 10 40 11 3 12
REMARK SMILES IDX 38 13 36 14 41 15 39 17 37 19 35 21 8 23 9 24 10 25 15 26
REMARK SMILES IDX 11 27 14 28 13 29 16 30 26 31 17 32 27 33 25 34 12 35 18 37
REMARK SMILES IDX 19 38 24 39 20 40 23 41 21 42 22 43 33 45 30 47 31 48
REMARK H PARENT 41 16 39 18 37 20 35 22 12 36 22 44 33 46 31 49
REMARK Flexibility Score: inf
ROOT
ATOM      1  C   UNL     1      44.989  16.295  41.334  1.00  0.00     0.221 C 
ATOM      2  C   UNL     1      44.578  17.113  42.612  1.00  0.00     0.181 C 
ATOM      3  C   UNL     1      43.124  16.833  43.098  1.00  0.00     0.177 C 
ATOM      4  C   UNL     1      42.171  16.615  41.894  1.00  0.00     0.179 C 
ATOM      5  O   UNL     1      42.700  17.128  40.682  1.00  0.00    -0.332 OA
ATOM      6  C   UNL     1      43.924  16.552  40.220  1.00  0.00     0.339 C 
ENDROOT
BRANCH   1   7
ATOM      7  O   UNL     1      45.322  14.892  41.384  1.00  0.00    -0.337 OA
BRANCH   7   8
ATOM      8  C   UNL     1      44.448  14.006  42.065  1.00  0.00     0.282 C 
ATOM      9  C   UNL     1      42.268  11.609  40.819  1.00  0.00     0.041 C 
ATOM     10  C   UNL     1      43.367  11.893  41.845  1.00  0.00     0.150 C 
ATOM     11  C   UNL     1      42.745  12.287  43.228  1.00  0.00     0.174 C 
ATOM     12  O   UNL     1      44.272  12.843  41.282  1.00  0.00    -0.344 OA
ATOM     13  C   UNL     1      43.817  12.893  44.183  1.00  0.00     0.179 C 
ATOM     14  C   UNL     1      44.990  13.570  43.428  1.00  0.00     0.202 C 
BRANCH  11  15
ATOM     15  O   UNL     1      42.055  11.219  43.837  1.00  0.00    -0.388 OA
ATOM     16  H   UNL     1      42.279  11.204  44.804  1.00  0.00     0.211 HD
ENDBRANCH  11  15
BRANCH  13  17
ATOM     17  O   UNL     1      44.293  11.959  45.125  1.00  0.00    -0.387 OA
ATOM     18  H   UNL     1      44.485  12.440  45.970  1.00  0.00     0.211 HD
ENDBRANCH  13  17
BRANCH  14  19
ATOM     19  O   UNL     1      46.053  12.668  43.234  1.00  0.00    -0.385 OA
ATOM     20  H   UNL     1      46.330  12.345  44.130  1.00  0.00     0.211 HD
ENDBRANCH  14  19
ENDBRANCH   7   8
ENDBRANCH   1   7
BRANCH   2  21
ATOM     21  O   UNL     1      45.507  16.982  43.657  1.00  0.00    -0.387 OA
ATOM     22  H   UNL     1      46.341  17.436  43.366  1.00  0.00     0.211 HD
ENDBRANCH   2  21
BRANCH   6  23
ATOM     23  O   UNL     1      43.699  15.384  39.401  1.00  0.00    -0.462 OA
BRANCH  23  24
ATOM     24  C   UNL     1      42.995  15.369  38.176  1.00  0.00     0.130 A 
ATOM     25  C   UNL     1      43.019  16.513  37.359  1.00  0.00     0.093 A 
ATOM     26  C   UNL     1      42.364  14.218  37.680  1.00  0.00     0.094 A 
ATOM     27  C   UNL     1      42.653  16.434  36.002  1.00  0.00     0.133 A 
ATOM     28  C   UNL     1      42.256  14.055  36.305  1.00  0.00     0.138 A 
ATOM     29  C   UNL     1      42.372  15.158  35.431  1.00  0.00     0.102 A 
ATOM     30  O   UNL     1      42.225  12.758  35.796  1.00  0.00    -0.484 OA
ATOM     31  C   UNL     1      42.395  14.869  33.966  1.00  0.00     0.174 C 
ATOM     32  C   UNL     1      42.844  12.503  34.536  1.00  0.00     0.211 C 
ATOM     33  O   UNL     1      42.638  15.771  33.117  1.00  0.00    -0.294 OA
ATOM     34  C   UNL     1      42.232  13.439  33.488  1.00  0.00     0.131 C 
BRANCH  27  35
ATOM     35  O   UNL     1      42.615  17.627  35.267  1.00  0.00    -0.507 OA
ATOM     36  H   UNL     1      42.971  18.504  35.634  1.00  0.00     0.293 HD
ENDBRANCH  27  35
BRANCH  32  37
ATOM     37  C   UNL     1      42.767  11.043  34.173  1.00  0.00    -0.007 A 
ATOM     38  C   UNL     1      42.386  10.109  35.146  1.00  0.00     0.011 A 
ATOM     39  C   UNL     1      42.992  10.607  32.860  1.00  0.00     0.011 A 
ATOM     40  C   UNL     1      42.174   8.780  34.810  1.00  0.00     0.046 A 
ATOM     41  C   UNL     1      42.789   9.266  32.518  1.00  0.00     0.046 A 
ATOM     42  C   UNL     1      42.354   8.355  33.487  1.00  0.00     0.115 A 
BRANCH  42  43
ATOM     43  O   UNL     1      42.109   7.029  33.126  1.00  0.00    -0.508 OA
ATOM     44  H   UNL     1      42.210   6.706  32.168  1.00  0.00     0.293 HD
ENDBRANCH  42  43
ENDBRANCH  32  37
ENDBRANCH  23  24
ENDBRANCH   6  23
BRANCH   3  45
ATOM     45  O   UNL     1      42.705  17.933  43.865  1.00  0.00    -0.387 OA
ATOM     46  H   UNL     1      43.364  18.033  44.603  1.00  0.00     0.211 HD
ENDBRANCH   3  45
BRANCH   4  47
ATOM     47  C   UNL     1      41.643  15.164  41.779  1.00  0.00     0.191 C 
BRANCH  47  48
ATOM     48  O   UNL     1      40.887  15.002  40.609  1.00  0.00    -0.394 OA
ATOM     49  H   UNL     1      40.195  14.311  40.770  1.00  0.00     0.210 HD
ENDBRANCH  47  48
ENDBRANCH   4  47
TORSDOF 14
ENDMDL
