MODEL 1
REMARK VINA RESULT:    65.264      0.000      0.000
REMARK INTER + INTRA:         108.558
REMARK INTER:                 107.233
REMARK INTRA:                   1.326
REMARK UNBOUND:                 1.326
REMARK SMILES C[C@@H]1O[C@H](OC[C@H]2O[C@H](Oc3c(-c4ccc(O)c(O)c4)oc4cc(O)cc(O)c4c3=O)[C@@H](O)[C@@H](O)[C@@H]2O)[C@H](O)[C@@H](O)[C@@H]1O
REMARK SMILES IDX 7 1 36 2 34 3 32 4 9 5 8 6 6 7 5 8 4 9 1 10 2 11 42 12 3 13
REMARK SMILES IDX 40 14 38 15 43 16 41 18 39 20 37 22 35 24 10 26 11 27 12 28
REMARK SMILES IDX 30 29 21 30 29 31 31 32 22 33 27 34 23 35 26 36 24 37 13 38
REMARK SMILES IDX 20 39 14 40 18 41 15 42 16 43 19 44 17 46 28 48 25 50 33 52
REMARK H PARENT 43 17 41 19 39 21 37 23 35 25 19 45 17 47 28 49 25 51 33 53
REMARK Flexibility Score: inf
ROOT
ATOM      1  C   UNL     1      11.114  74.955   4.612  1.00  0.00     0.180 C 
ATOM      2  C   UNL     1      11.847  75.996   5.539  1.00  0.00     0.177 C 
ATOM      3  C   UNL     1      10.911  76.725   6.544  1.00  0.00     0.180 C 
ATOM      4  C   UNL     1       9.406  76.657   6.167  1.00  0.00     0.214 C 
ATOM      5  C   UNL     1       9.186  76.473   4.665  1.00  0.00     0.339 C 
ATOM      6  O   UNL     1       9.806  75.293   4.153  1.00  0.00    -0.332 OA
ENDROOT
BRANCH   1   7
ATOM      7  C   UNL     1      11.065  73.531   5.250  1.00  0.00     0.198 C 
BRANCH   7   8
ATOM      8  O   UNL     1       9.978  72.788   4.710  1.00  0.00    -0.347 OA
BRANCH   8   9
ATOM      9  C   UNL     1       9.762  71.573   5.419  1.00  0.00     0.281 C 
ATOM     10  C   UNL     1       7.572  68.770   4.428  1.00  0.00     0.041 C 
ATOM     11  C   UNL     1       8.860  69.450   4.858  1.00  0.00     0.150 C 
ATOM     12  C   UNL     1      10.086  68.983   4.042  1.00  0.00     0.174 C 
ATOM     13  O   UNL     1       8.747  70.851   4.712  1.00  0.00    -0.344 OA
ATOM     14  C   UNL     1      11.315  69.907   4.283  1.00  0.00     0.179 C 
ATOM     15  C   UNL     1      11.108  70.788   5.510  1.00  0.00     0.202 C 
BRANCH  12  16
ATOM     16  O   UNL     1       9.776  69.003   2.674  1.00  0.00    -0.388 OA
ATOM     17  H   UNL     1      10.369  69.673   2.235  1.00  0.00     0.211 HD
ENDBRANCH  12  16
BRANCH  14  18
ATOM     18  O   UNL     1      12.482  69.149   4.468  1.00  0.00    -0.387 OA
ATOM     19  H   UNL     1      13.246  69.761   4.278  1.00  0.00     0.211 HD
ENDBRANCH  14  18
BRANCH  15  20
ATOM     20  O   UNL     1      12.224  71.620   5.732  1.00  0.00    -0.385 OA
ATOM     21  H   UNL     1      12.757  71.284   6.509  1.00  0.00     0.211 HD
ENDBRANCH  15  20
ENDBRANCH   8   9
ENDBRANCH   7   8
ENDBRANCH   1   7
BRANCH   2  22
ATOM     22  O   UNL     1      12.597  76.907   4.755  1.00  0.00    -0.387 OA
ATOM     23  H   UNL     1      12.147  77.777   4.711  1.00  0.00     0.211 HD
ENDBRANCH   2  22
BRANCH   3  24
ATOM     24  O   UNL     1      11.160  76.283   7.854  1.00  0.00    -0.387 OA
ATOM     25  H   UNL     1      11.115  77.101   8.411  1.00  0.00     0.211 HD
ENDBRANCH   3  24
BRANCH   5  26
ATOM     26  O   UNL     1       9.583  77.617   3.908  1.00  0.00    -0.454 OA
BRANCH  26  27
ATOM     27  C   UNL     1      10.113  77.698   2.624  1.00  0.00     0.214 A 
ATOM     28  C   UNL     1      11.199  76.899   2.226  1.00  0.00     0.180 A 
ATOM     29  C   UNL     1       9.858  78.856   1.859  1.00  0.00     0.239 A 
ATOM     30  O   UNL     1      12.269  77.526   1.770  1.00  0.00    -0.452 OA
ATOM     31  C   UNL     1      10.911  79.384   1.089  1.00  0.00     0.111 A 
ATOM     32  O   UNL     1       8.757  79.437   1.945  1.00  0.00    -0.285 OA
ATOM     33  C   UNL     1      12.189  78.751   1.226  1.00  0.00     0.146 A 
ATOM     34  C   UNL     1      10.777  80.484   0.184  1.00  0.00     0.134 A 
ATOM     35  C   UNL     1      13.329  79.356   0.698  1.00  0.00     0.094 A 
ATOM     36  C   UNL     1      11.931  81.042  -0.427  1.00  0.00     0.093 A 
ATOM     37  C   UNL     1      13.196  80.482  -0.145  1.00  0.00     0.123 A 
BRANCH  28  38
ATOM     38  C   UNL     1      11.007  75.536   1.625  1.00  0.00     0.025 A 
ATOM     39  C   UNL     1       9.770  75.165   1.087  1.00  0.00     0.062 A 
ATOM     40  C   UNL     1      12.132  75.074   0.944  1.00  0.00     0.016 A 
ATOM     41  C   UNL     1       9.660  74.821  -0.262  1.00  0.00     0.158 A 
ATOM     42  C   UNL     1      12.050  74.915  -0.450  1.00  0.00     0.051 A 
ATOM     43  C   UNL     1      10.801  74.838  -1.087  1.00  0.00     0.157 A 
BRANCH  41  44
ATOM     44  O   UNL     1       8.427  74.470  -0.794  1.00  0.00    -0.504 OA
ATOM     45  H   UNL     1       8.016  73.555  -0.647  1.00  0.00     0.293 HD
ENDBRANCH  41  44
BRANCH  43  46
ATOM     46  O   UNL     1      10.739  74.692  -2.477  1.00  0.00    -0.504 OA
ATOM     47  H   UNL     1      11.385  74.118  -2.993  1.00  0.00     0.293 HD
ENDBRANCH  43  46
ENDBRANCH  28  38
BRANCH  34  48
ATOM     48  O   UNL     1       9.528  80.999  -0.133  1.00  0.00    -0.507 OA
ATOM     49  H   UNL     1       9.399  82.005  -0.277  1.00  0.00     0.293 HD
ENDBRANCH  34  48
BRANCH  37  50
ATOM     50  O   UNL     1      14.331  81.057  -0.680  1.00  0.00    -0.508 OA
ATOM     51  H   UNL     1      14.642  81.974  -0.466  1.00  0.00     0.293 HD
ENDBRANCH  37  50
ENDBRANCH  26  27
ENDBRANCH   5  26
BRANCH   4  52
ATOM     52  O   UNL     1       8.743  75.636   6.876  1.00  0.00    -0.384 OA
ATOM     53  H   UNL     1       8.184  75.134   6.265  1.00  0.00     0.211 HD
ENDBRANCH   4  52
TORSDOF 16
ENDMDL
