MODEL 1
REMARK VINA RESULT:    -3.492      0.000      0.000
REMARK INTER + INTRA:          -5.681
REMARK INTER:                  -5.330
REMARK INTRA:                  -0.351
REMARK UNBOUND:                -0.351
REMARK SMILES CC1=CCC[C@@H](C)C(=O)C[C@H](C(C)C)C(=O)C1
REMARK SMILES IDX 8 1 9 2 6 3 7 4 5 5 4 6 3 7 2 8 1 9 10 11 11 12 15 13 16 14
REMARK SMILES IDX 17 15 12 17 13 18 14 19
REMARK H PARENT
REMARK Flexibility Score: 70.00
ROOT
ATOM      1  C   UNL     1      -7.585  74.084  21.451  1.00  0.00     0.136 C 
ATOM      2  O   UNL     1      -8.513  74.499  20.770  1.00  0.00    -0.299 OA
ENDROOT
BRANCH   1   3
ATOM      3  C   UNL     1      -6.291  73.673  20.775  1.00  0.00     0.053 C 
ATOM      4  C   UNL     1      -6.516  72.423  19.912  1.00  0.00     0.016 C 
BRANCH   3   5
ATOM      5  C   UNL     1      -5.186  73.425  21.826  1.00  0.00     0.015 C 
BRANCH   5   6
ATOM      6  C   UNL     1      -4.797  71.935  21.901  1.00  0.00     0.028 C 
BRANCH   6   7
ATOM      7  C   UNL     1      -4.470  71.469  23.298  1.00  0.00    -0.028 C 
ATOM      8  C   UNL     1      -5.370  71.056  24.225  1.00  0.00    -0.070 CG0
ATOM      9  C   UNL     1      -4.852  70.727  25.603  1.00  0.00     0.039 C 
ATOM     10  G   UNL     1      -6.853  70.859  23.937  1.00  0.00     0.000 G0
ENDBRANCH   6   7
ENDBRANCH   5   6
ENDBRANCH   3   5
ENDBRANCH   1   3
BRANCH   1  11
ATOM     11  C   UNL     1      -7.753  74.016  22.954  1.00  0.00     0.087 C 
BRANCH  11  12
ATOM     12  C   UNL     1      -8.571  72.769  23.391  1.00  0.00     0.066 C 
BRANCH  12  13
ATOM     13  C   UNL     1      -7.769  71.971  24.409  1.00  0.00     0.140 C 
ATOM     14  O   UNL     1      -7.879  72.217  25.603  1.00  0.00    -0.299 OA
BRANCH  13  15
ATOM     15  C   UNL     1      -6.875  70.845  23.952  1.00  0.00     0.106 CG0
ATOM     16  G   UNL     1      -5.393  71.080  24.217  1.00  0.00     0.000 G0
ENDBRANCH  13  15
ENDBRANCH  12  13
BRANCH  12  17
ATOM     17  C   UNL     1      -9.990  73.129  23.945  1.00  0.00    -0.006 C 
ATOM     18  C   UNL     1     -11.090  72.732  22.940  1.00  0.00     0.008 C 
ATOM     19  C   UNL     1     -10.137  74.627  24.267  1.00  0.00     0.008 C 
ENDBRANCH  12  17
ENDBRANCH  11  12
ENDBRANCH   1  11
TORSDOF 1
ENDMDL
MODEL 2
REMARK VINA RESULT:    -3.483      1.960      2.767
REMARK INTER + INTRA:          -5.666
REMARK INTER:                  -6.138
REMARK INTRA:                   0.472
REMARK UNBOUND:                -0.351
REMARK SMILES CC1=CCC[C@@H](C)C(=O)C[C@H](C(C)C)C(=O)C1
REMARK SMILES IDX 8 1 9 2 6 3 7 4 5 5 4 6 3 7 2 8 1 9 10 11 11 12 15 13 16 14
REMARK SMILES IDX 17 15 12 17 13 18 14 19
REMARK H PARENT
REMARK Flexibility Score: 70.00
ROOT
ATOM      1  C   UNL     1     -10.119  74.004  23.165  1.00  0.00     0.136 C 
ATOM      2  O   UNL     1     -10.918  73.098  22.974  1.00  0.00    -0.299 OA
ENDROOT
BRANCH   1   3
ATOM      3  C   UNL     1      -9.551  74.759  21.979  1.00  0.00     0.053 C 
ATOM      4  C   UNL     1     -10.194  74.263  20.676  1.00  0.00     0.016 C 
BRANCH   3   5
ATOM      5  C   UNL     1      -8.014  74.608  21.927  1.00  0.00     0.015 C 
BRANCH   5   6
ATOM      6  C   UNL     1      -7.597  73.211  21.425  1.00  0.00     0.028 C 
BRANCH   6   7
ATOM      7  C   UNL     1      -6.514  72.571  22.259  1.00  0.00    -0.028 C 
ATOM      8  C   UNL     1      -6.697  71.951  23.451  1.00  0.00    -0.070 CG0
ATOM      9  C   UNL     1      -5.469  71.466  24.181  1.00  0.00     0.039 C 
ATOM     10  G   UNL     1      -8.065  71.674  24.061  1.00  0.00     0.000 G0
ENDBRANCH   6   7
ENDBRANCH   5   6
ENDBRANCH   3   5
ENDBRANCH   1   3
BRANCH   1  11
ATOM     11  C   UNL     1      -9.741  74.356  24.588  1.00  0.00     0.087 C 
BRANCH  11  12
ATOM     12  C   UNL     1      -9.694  73.102  25.504  1.00  0.00     0.066 C 
BRANCH  12  13
ATOM     13  C   UNL     1      -8.357  72.398  25.329  1.00  0.00     0.140 C 
ATOM     14  O   UNL     1      -7.534  72.411  26.236  1.00  0.00    -0.299 OA
BRANCH  13  15
ATOM     15  C   UNL     1      -8.061  71.642  24.057  1.00  0.00     0.106 CG0
ATOM     16  G   UNL     1      -6.696  71.948  23.454  1.00  0.00     0.000 G0
ENDBRANCH  13  15
ENDBRANCH  12  13
BRANCH  12  17
ATOM     17  C   UNL     1      -9.968  73.430  27.010  1.00  0.00    -0.006 C 
ATOM     18  C   UNL     1     -11.433  73.127  27.383  1.00  0.00     0.008 C 
ATOM     19  C   UNL     1      -9.667  74.900  27.358  1.00  0.00     0.008 C 
ENDBRANCH  12  17
ENDBRANCH  11  12
ENDBRANCH   1  11
TORSDOF 1
ENDMDL
MODEL 3
REMARK VINA RESULT:    -3.256      1.890      4.588
REMARK INTER + INTRA:          -5.321
REMARK INTER:                  -5.199
REMARK INTRA:                  -0.122
REMARK UNBOUND:                -0.351
REMARK SMILES CC1=CCC[C@@H](C)C(=O)C[C@H](C(C)C)C(=O)C1
REMARK SMILES IDX 8 1 9 2 6 3 7 4 5 5 4 6 3 7 2 8 1 9 10 11 11 12 15 13 16 14
REMARK SMILES IDX 17 15 12 17 13 18 14 19
REMARK H PARENT
REMARK Flexibility Score: 70.00
ROOT
ATOM      1  C   UNL     1      -8.473  72.572  24.283  1.00  0.00     0.136 C 
ATOM      2  O   UNL     1      -9.237  71.626  24.149  1.00  0.00    -0.299 OA
ENDROOT
BRANCH   1   3
ATOM      3  C   UNL     1      -8.960  73.972  23.964  1.00  0.00     0.053 C 
ATOM      4  C   UNL     1      -9.955  74.446  25.032  1.00  0.00     0.016 C 
BRANCH   3   5
ATOM      5  C   UNL     1      -9.599  74.015  22.557  1.00  0.00     0.015 C 
BRANCH   5   6
ATOM      6  C   UNL     1      -8.628  74.593  21.509  1.00  0.00     0.028 C 
BRANCH   6   7
ATOM      7  C   UNL     1      -7.878  73.535  20.738  1.00  0.00    -0.028 C 
ATOM      8  C   UNL     1      -6.616  73.111  20.999  1.00  0.00    -0.070 CG0
ATOM      9  C   UNL     1      -6.002  72.116  20.046  1.00  0.00     0.039 C 
ATOM     10  G   UNL     1      -5.814  73.542  22.221  1.00  0.00     0.000 G0
ENDBRANCH   6   7
ENDBRANCH   5   6
ENDBRANCH   3   5
ENDBRANCH   1   3
BRANCH   1  11
ATOM     11  C   UNL     1      -7.070  72.313  24.789  1.00  0.00     0.087 C 
BRANCH  11  12
ATOM     12  C   UNL     1      -6.233  71.482  23.778  1.00  0.00     0.066 C 
BRANCH  12  13
ATOM     13  C   UNL     1      -5.270  72.402  23.043  1.00  0.00     0.140 C 
ATOM     14  O   UNL     1      -4.064  72.197  23.096  1.00  0.00    -0.299 OA
BRANCH  13  15
ATOM     15  C   UNL     1      -5.802  73.540  22.207  1.00  0.00     0.106 CG0
ATOM     16  G   UNL     1      -6.631  73.098  21.007  1.00  0.00     0.000 G0
ENDBRANCH  13  15
ENDBRANCH  12  13
BRANCH  12  17
ATOM     17  C   UNL     1      -5.474  70.287  24.446  1.00  0.00    -0.006 C 
ATOM     18  C   UNL     1      -6.009  68.936  23.928  1.00  0.00     0.008 C 
ATOM     19  C   UNL     1      -5.582  70.302  25.981  1.00  0.00     0.008 C 
ENDBRANCH  12  17
ENDBRANCH  11  12
ENDBRANCH   1  11
TORSDOF 1
ENDMDL
MODEL 4
REMARK VINA RESULT:    -3.250      6.836      8.780
REMARK INTER + INTRA:          -5.311
REMARK INTER:                  -5.936
REMARK INTRA:                   0.624
REMARK UNBOUND:                -0.351
REMARK SMILES CC1=CCC[C@@H](C)C(=O)C[C@H](C(C)C)C(=O)C1
REMARK SMILES IDX 8 1 9 2 6 3 7 4 5 5 4 6 3 7 2 8 1 9 10 11 11 12 15 13 16 14
REMARK SMILES IDX 17 15 12 17 13 18 14 19
REMARK H PARENT
REMARK Flexibility Score: 70.00
ROOT
ATOM      1  C   UNL     1     -11.942  72.350  29.457  1.00  0.00     0.136 C 
ATOM      2  O   UNL     1     -11.989  71.192  29.062  1.00  0.00    -0.299 OA
ENDROOT
BRANCH   1   3
ATOM      3  C   UNL     1     -11.881  73.479  28.447  1.00  0.00     0.053 C 
ATOM      4  C   UNL     1     -13.163  73.506  27.602  1.00  0.00     0.016 C 
BRANCH   3   5
ATOM      5  C   UNL     1     -10.632  73.334  27.548  1.00  0.00     0.015 C 
BRANCH   5   6
ATOM      6  C   UNL     1      -9.466  74.206  28.052  1.00  0.00     0.028 C 
BRANCH   6   7
ATOM      7  C   UNL     1      -9.847  75.117  29.194  1.00  0.00    -0.028 C 
ATOM      8  C   UNL     1      -9.614  74.878  30.508  1.00  0.00    -0.070 CG0
ATOM      9  C   UNL     1     -10.167  75.865  31.506  1.00  0.00     0.039 C 
ATOM     10  G   UNL     1      -8.789  73.705  31.023  1.00  0.00     0.000 G0
ENDBRANCH   6   7
ENDBRANCH   5   6
ENDBRANCH   3   5
ENDBRANCH   1   3
BRANCH   1  11
ATOM     11  C   UNL     1     -11.971  72.616  30.946  1.00  0.00     0.087 C 
BRANCH  11  12
ATOM     12  C   UNL     1     -10.728  72.021  31.667  1.00  0.00     0.066 C 
BRANCH  12  13
ATOM     13  C   UNL     1      -9.476  72.351  30.867  1.00  0.00     0.140 C 
ATOM     14  O   UNL     1      -9.034  71.543  30.061  1.00  0.00    -0.299 OA
BRANCH  13  15
ATOM     15  C   UNL     1      -8.806  73.693  31.031  1.00  0.00     0.106 CG0
ATOM     16  G   UNL     1      -9.624  74.866  30.505  1.00  0.00     0.000 G0
ENDBRANCH  13  15
ENDBRANCH  12  13
BRANCH  12  17
ATOM     17  C   UNL     1     -10.593  72.496  33.152  1.00  0.00    -0.006 C 
ATOM     18  C   UNL     1     -10.131  71.340  34.060  1.00  0.00     0.008 C 
ATOM     19  C   UNL     1     -11.910  73.065  33.713  1.00  0.00     0.008 C 
ENDBRANCH  12  17
ENDBRANCH  11  12
ENDBRANCH   1  11
TORSDOF 1
ENDMDL
MODEL 5
REMARK VINA RESULT:    -3.075     11.137     14.067
REMARK INTER + INTRA:          -5.044
REMARK INTER:                  -4.666
REMARK INTRA:                  -0.378
REMARK UNBOUND:                -0.351
REMARK SMILES CC1=CCC[C@@H](C)C(=O)C[C@H](C(C)C)C(=O)C1
REMARK SMILES IDX 8 1 9 2 6 3 7 4 5 5 4 6 3 7 2 8 1 9 10 11 11 12 15 13 16 14
REMARK SMILES IDX 17 15 12 17 13 18 14 19
REMARK H PARENT
REMARK Flexibility Score: 70.00
ROOT
ATOM      1  C   UNL     1      -6.928  69.271  37.000  1.00  0.00     0.136 C 
ATOM      2  O   UNL     1      -7.011  68.965  38.182  1.00  0.00    -0.299 OA
ENDROOT
BRANCH   1   3
ATOM      3  C   UNL     1      -8.155  69.163  36.116  1.00  0.00     0.053 C 
ATOM      4  C   UNL     1      -9.245  70.131  36.598  1.00  0.00     0.016 C 
BRANCH   3   5
ATOM      5  C   UNL     1      -8.681  67.709  36.094  1.00  0.00     0.015 C 
BRANCH   5   6
ATOM      6  C   UNL     1      -7.619  66.730  35.555  1.00  0.00     0.028 C 
BRANCH   6   7
ATOM      7  C   UNL     1      -7.260  66.970  34.109  1.00  0.00    -0.028 C 
ATOM      8  C   UNL     1      -6.006  67.155  33.627  1.00  0.00    -0.070 CG0
ATOM      9  C   UNL     1      -5.864  67.486  32.162  1.00  0.00     0.039 C 
ATOM     10  G   UNL     1      -4.744  66.998  34.465  1.00  0.00     0.000 G0
ENDBRANCH   6   7
ENDBRANCH   5   6
ENDBRANCH   3   5
ENDBRANCH   1   3
BRANCH   1  11
ATOM     11  C   UNL     1      -5.604  69.771  36.466  1.00  0.00     0.087 C 
BRANCH  11  12
ATOM     12  C   UNL     1      -4.515  68.662  36.479  1.00  0.00     0.066 C 
BRANCH  12  13
ATOM     13  C   UNL     1      -4.181  68.265  35.049  1.00  0.00     0.140 C 
ATOM     14  O   UNL     1      -3.436  68.967  34.377  1.00  0.00    -0.299 OA
BRANCH  13  15
ATOM     15  C   UNL     1      -4.728  66.983  34.471  1.00  0.00     0.106 CG0
ATOM     16  G   UNL     1      -5.995  67.163  33.644  1.00  0.00     0.000 G0
ENDBRANCH  13  15
ENDBRANCH  12  13
BRANCH  12  17
ATOM     17  C   UNL     1      -3.228  69.074  37.268  1.00  0.00    -0.006 C 
ATOM     18  C   UNL     1      -3.032  68.179  38.509  1.00  0.00     0.008 C 
ATOM     19  C   UNL     1      -3.259  70.544  37.723  1.00  0.00     0.008 C 
ENDBRANCH  12  17
ENDBRANCH  11  12
ENDBRANCH   1  11
TORSDOF 1
ENDMDL
MODEL 6
REMARK VINA RESULT:    -3.066      6.033      8.523
REMARK INTER + INTRA:          -5.030
REMARK INTER:                  -5.920
REMARK INTRA:                   0.889
REMARK UNBOUND:                -0.351
REMARK SMILES CC1=CCC[C@@H](C)C(=O)C[C@H](C(C)C)C(=O)C1
REMARK SMILES IDX 8 1 9 2 6 3 7 4 5 5 4 6 3 7 2 8 1 9 10 11 11 12 15 13 16 14
REMARK SMILES IDX 17 15 12 17 13 18 14 19
REMARK H PARENT
REMARK Flexibility Score: 70.00
ROOT
ATOM      1  C   UNL     1      -9.772  74.899  30.590  1.00  0.00     0.136 C 
ATOM      2  O   UNL     1      -8.621  75.174  30.899  1.00  0.00    -0.299 OA
ENDROOT
BRANCH   1   3
ATOM      3  C   UNL     1     -10.807  74.698  31.679  1.00  0.00     0.053 C 
ATOM      4  C   UNL     1     -10.865  75.932  32.591  1.00  0.00     0.016 C 
BRANCH   3   5
ATOM      5  C   UNL     1     -10.494  73.423  32.495  1.00  0.00     0.015 C 
BRANCH   5   6
ATOM      6  C   UNL     1     -11.372  72.236  32.052  1.00  0.00     0.028 C 
BRANCH   6   7
ATOM      7  C   UNL     1     -12.234  72.541  30.851  1.00  0.00    -0.028 C 
ATOM      8  C   UNL     1     -11.898  72.313  29.558  1.00  0.00    -0.070 CG0
ATOM      9  C   UNL     1     -12.857  72.786  28.493  1.00  0.00     0.039 C 
ATOM     10  G   UNL     1     -10.641  71.567  29.128  1.00  0.00     0.000 G0
ENDBRANCH   6   7
ENDBRANCH   5   6
ENDBRANCH   3   5
ENDBRANCH   1   3
BRANCH   1  11
ATOM     11  C   UNL     1     -10.129  74.792  29.123  1.00  0.00     0.087 C 
BRANCH  11  12
ATOM     12  C   UNL     1      -9.290  73.702  28.399  1.00  0.00     0.066 C 
BRANCH  12  13
ATOM     13  C   UNL     1      -9.385  72.395  29.173  1.00  0.00     0.140 C 
ATOM     14  O   UNL     1      -8.451  72.031  29.876  1.00  0.00    -0.299 OA
BRANCH  13  15
ATOM     15  C   UNL     1     -10.647  71.570  29.113  1.00  0.00     0.106 CG0
ATOM     16  G   UNL     1     -11.898  72.312  29.566  1.00  0.00     0.000 G0
ENDBRANCH  13  15
ENDBRANCH  12  13
BRANCH  12  17
ATOM     17  C   UNL     1      -9.701  73.504  26.902  1.00  0.00    -0.006 C 
ATOM     18  C   UNL     1      -8.580  72.801  26.111  1.00  0.00     0.008 C 
ATOM     19  C   UNL     1     -10.037  74.833  26.200  1.00  0.00     0.008 C 
ENDBRANCH  12  17
ENDBRANCH  11  12
ENDBRANCH   1  11
TORSDOF 1
ENDMDL
MODEL 7
REMARK VINA RESULT:    -3.050      6.157      8.412
REMARK INTER + INTRA:          -5.005
REMARK INTER:                  -6.110
REMARK INTRA:                   1.105
REMARK UNBOUND:                -0.351
REMARK SMILES CC1=CCC[C@@H](C)C(=O)C[C@H](C(C)C)C(=O)C1
REMARK SMILES IDX 8 1 9 2 6 3 7 4 5 5 4 6 3 7 2 8 1 9 10 11 11 12 15 13 16 14
REMARK SMILES IDX 17 15 12 17 13 18 14 19
REMARK H PARENT
REMARK Flexibility Score: 70.00
ROOT
ATOM      1  C   UNL     1      -9.769  75.098  30.896  1.00  0.00     0.136 C 
ATOM      2  O   UNL     1      -8.638  74.898  31.319  1.00  0.00    -0.299 OA
ENDROOT
BRANCH   1   3
ATOM      3  C   UNL     1     -10.933  75.118  31.866  1.00  0.00     0.053 C 
ATOM      4  C   UNL     1     -10.999  76.471  32.590  1.00  0.00     0.016 C 
BRANCH   3   5
ATOM      5  C   UNL     1     -10.815  73.957  32.879  1.00  0.00     0.015 C 
BRANCH   5   6
ATOM      6  C   UNL     1     -10.995  72.587  32.196  1.00  0.00     0.028 C 
BRANCH   6   7
ATOM      7  C   UNL     1      -9.726  72.052  31.578  1.00  0.00    -0.028 C 
ATOM      8  C   UNL     1      -9.593  71.609  30.304  1.00  0.00    -0.070 CG0
ATOM      9  C   UNL     1      -8.265  71.013  29.907  1.00  0.00     0.039 C 
ATOM     10  G   UNL     1     -10.685  71.725  29.248  1.00  0.00     0.000 G0
ENDBRANCH   6   7
ENDBRANCH   5   6
ENDBRANCH   3   5
ENDBRANCH   1   3
BRANCH   1  11
ATOM     11  C   UNL     1      -9.962  75.342  29.415  1.00  0.00     0.087 C 
BRANCH  11  12
ATOM     12  C   UNL     1      -9.695  74.062  28.575  1.00  0.00     0.066 C 
BRANCH  12  13
ATOM     13  C   UNL     1     -10.882  73.118  28.703  1.00  0.00     0.140 C 
ATOM     14  O   UNL     1     -11.992  73.476  28.329  1.00  0.00    -0.299 OA
BRANCH  13  15
ATOM     15  C   UNL     1     -10.686  71.724  29.245  1.00  0.00     0.106 CG0
ATOM     16  G   UNL     1      -9.594  71.616  30.303  1.00  0.00     0.000 G0
ENDBRANCH  13  15
ENDBRANCH  12  13
BRANCH  12  17
ATOM     17  C   UNL     1      -9.374  74.367  27.075  1.00  0.00    -0.006 C 
ATOM     18  C   UNL     1     -10.468  75.254  26.446  1.00  0.00     0.008 C 
ATOM     19  C   UNL     1      -9.233  73.089  26.228  1.00  0.00     0.008 C 
ENDBRANCH  12  17
ENDBRANCH  11  12
ENDBRANCH   1  11
TORSDOF 1
ENDMDL
MODEL 8
REMARK VINA RESULT:    -3.027     10.611     12.985
REMARK INTER + INTRA:          -4.970
REMARK INTER:                  -4.680
REMARK INTRA:                  -0.290
REMARK UNBOUND:                -0.351
REMARK SMILES CC1=CCC[C@@H](C)C(=O)C[C@H](C(C)C)C(=O)C1
REMARK SMILES IDX 8 1 9 2 6 3 7 4 5 5 4 6 3 7 2 8 1 9 10 11 11 12 15 13 16 14
REMARK SMILES IDX 17 15 12 17 13 18 14 19
REMARK H PARENT
REMARK Flexibility Score: 70.00
ROOT
ATOM      1  C   UNL     1      -4.696  69.297  36.546  1.00  0.00     0.136 C 
ATOM      2  O   UNL     1      -5.319  70.290  36.897  1.00  0.00    -0.299 OA
ENDROOT
BRANCH   1   3
ATOM      3  C   UNL     1      -3.189  69.377  36.403  1.00  0.00     0.053 C 
ATOM      4  C   UNL     1      -2.606  70.345  37.442  1.00  0.00     0.016 C 
BRANCH   3   5
ATOM      5  C   UNL     1      -2.804  69.809  34.969  1.00  0.00     0.015 C 
BRANCH   5   6
ATOM      6  C   UNL     1      -2.264  68.624  34.145  1.00  0.00     0.028 C 
BRANCH   6   7
ATOM      7  C   UNL     1      -3.005  68.408  32.848  1.00  0.00    -0.028 C 
ATOM      8  C   UNL     1      -4.035  67.545  32.660  1.00  0.00    -0.070 CG0
ATOM      9  C   UNL     1      -4.575  67.398  31.259  1.00  0.00     0.039 C 
ATOM     10  G   UNL     1      -4.702  66.764  33.785  1.00  0.00     0.000 G0
ENDBRANCH   6   7
ENDBRANCH   5   6
ENDBRANCH   3   5
ENDBRANCH   1   3
BRANCH   1  11
ATOM     11  C   UNL     1      -5.453  68.012  36.290  1.00  0.00     0.087 C 
BRANCH  11  12
ATOM     12  C   UNL     1      -6.480  68.164  35.133  1.00  0.00     0.066 C 
BRANCH  12  13
ATOM     13  C   UNL     1      -6.160  67.155  34.040  1.00  0.00     0.140 C 
ATOM     14  O   UNL     1      -7.059  66.703  33.342  1.00  0.00    -0.299 OA
BRANCH  13  15
ATOM     15  C   UNL     1      -4.731  66.745  33.782  1.00  0.00     0.106 CG0
ATOM     16  G   UNL     1      -4.051  67.528  32.665  1.00  0.00     0.000 G0
ENDBRANCH  13  15
ENDBRANCH  12  13
BRANCH  12  17
ATOM     17  C   UNL     1      -7.965  68.033  35.608  1.00  0.00    -0.006 C 
ATOM     18  C   UNL     1      -8.754  69.324  35.311  1.00  0.00     0.008 C 
ATOM     19  C   UNL     1      -8.080  67.722  37.111  1.00  0.00     0.008 C 
ENDBRANCH  12  17
ENDBRANCH  11  12
ENDBRANCH   1  11
TORSDOF 1
ENDMDL
MODEL 9
REMARK VINA RESULT:    -2.800      2.918      4.906
REMARK INTER + INTRA:          -4.624
REMARK INTER:                  -4.522
REMARK INTRA:                  -0.102
REMARK UNBOUND:                -0.351
REMARK SMILES CC1=CCC[C@@H](C)C(=O)C[C@H](C(C)C)C(=O)C1
REMARK SMILES IDX 8 1 9 2 6 3 7 4 5 5 4 6 3 7 2 8 1 9 10 11 11 12 15 13 16 14
REMARK SMILES IDX 17 15 12 17 13 18 14 19
REMARK H PARENT
REMARK Flexibility Score: 70.00
ROOT
ATOM      1  C   UNL     1      -7.049  70.656  23.249  1.00  0.00     0.136 C 
ATOM      2  O   UNL     1      -7.562  71.357  22.388  1.00  0.00    -0.299 OA
ENDROOT
BRANCH   1   3
ATOM      3  C   UNL     1      -6.377  71.312  24.440  1.00  0.00     0.053 C 
ATOM      4  C   UNL     1      -7.311  72.357  25.067  1.00  0.00     0.016 C 
BRANCH   3   5
ATOM      5  C   UNL     1      -5.036  71.954  24.019  1.00  0.00     0.015 C 
BRANCH   5   6
ATOM      6  C   UNL     1      -3.832  71.155  24.554  1.00  0.00     0.028 C 
BRANCH   6   7
ATOM      7  C   UNL     1      -4.057  70.578  25.930  1.00  0.00    -0.028 C 
ATOM      8  C   UNL     1      -4.270  69.269  26.214  1.00  0.00    -0.070 CG0
ATOM      9  C   UNL     1      -4.580  68.907  27.645  1.00  0.00     0.039 C 
ATOM     10  G   UNL     1      -4.165  68.151  25.184  1.00  0.00     0.000 G0
ENDBRANCH   6   7
ENDBRANCH   5   6
ENDBRANCH   3   5
ENDBRANCH   1   3
BRANCH   1  11
ATOM     11  C   UNL     1      -7.122  69.151  23.107  1.00  0.00     0.087 C 
BRANCH  11  12
ATOM     12  C   UNL     1      -5.711  68.499  23.094  1.00  0.00     0.066 C 
BRANCH  12  13
ATOM     13  C   UNL     1      -5.443  67.849  24.444  1.00  0.00     0.140 C 
ATOM     14  O   UNL     1      -6.251  67.058  24.913  1.00  0.00    -0.299 OA
BRANCH  13  15
ATOM     15  C   UNL     1      -4.161  68.141  25.183  1.00  0.00     0.106 CG0
ATOM     16  G   UNL     1      -4.275  69.260  26.211  1.00  0.00     0.000 G0
ENDBRANCH  13  15
ENDBRANCH  12  13
BRANCH  12  17
ATOM     17  C   UNL     1      -5.517  67.477  21.925  1.00  0.00    -0.006 C 
ATOM     18  C   UNL     1      -5.082  68.196  20.632  1.00  0.00     0.008 C 
ATOM     19  C   UNL     1      -6.792  66.666  21.631  1.00  0.00     0.008 C 
ENDBRANCH  12  17
ENDBRANCH  11  12
ENDBRANCH   1  11
TORSDOF 1
ENDMDL
