MODEL 1
REMARK VINA RESULT:    -4.224      0.000      0.000
REMARK INTER + INTRA:          -4.733
REMARK INTER:                  -4.594
REMARK INTRA:                  -0.138
REMARK UNBOUND:                -0.138
REMARK SMILES CC(=O)[C@@H]1CC[C@@H]2[C@@H]3CC=C4C[C@@H](O)CC[C@@]4(C)[C@H]3CC[C@@]21C
REMARK SMILES IDX 4 1 5 2 6 3 7 4 22 5 21 6 20 7 19 8 8 9 9 10 10 11 11 12
REMARK SMILES IDX 17 13 16 14 15 15 13 16 12 17 18 18 23 19 2 20 1 21 3 22
REMARK SMILES IDX 14 23
REMARK H PARENT 14 24
REMARK Flexibility Score: inf
ROOT
ATOM      1  C   UNL     1     206.617 208.153 184.151  1.00  0.00     0.062 C 
ATOM      2  C   UNL     1     205.740 208.639 185.311  1.00  0.00     0.012 C 
ATOM      3  C   UNL     1     205.179 207.380 185.979  1.00  0.00     0.005 C 
ATOM      4  C   UNL     1     205.684 206.183 185.155  1.00  0.00    -0.001 C 
ATOM      5  C   UNL     1     206.981 206.683 184.486  1.00  0.00    -0.020 C 
ATOM      6  C   UNL     1     208.177 206.599 185.483  1.00  0.00     0.008 C 
ATOM      7  C   UNL     1     208.327 205.215 186.115  1.00  0.00     0.005 C 
ATOM      8  C   UNL     1     207.047 204.788 186.877  1.00  0.00     0.003 C 
ATOM      9  C   UNL     1     205.825 204.836 185.930  1.00  0.00     0.000 C 
ATOM     10  C   UNL     1     204.552 204.533 186.733  1.00  0.00     0.031 C 
ATOM     11  C   UNL     1     204.657 203.219 187.436  1.00  0.00    -0.027 C 
ATOM     12  C   UNL     1     205.823 202.727 187.903  1.00  0.00    -0.065 C 
ATOM     13  C   UNL     1     207.186 203.389 187.620  1.00  0.00    -0.008 C 
ATOM     14  C   UNL     1     208.017 202.366 186.776  1.00  0.00     0.014 C 
ATOM     15  C   UNL     1     208.033 200.933 187.350  1.00  0.00     0.033 C 
ATOM     16  C   UNL     1     206.620 200.385 187.604  1.00  0.00     0.118 C 
ATOM     17  C   UNL     1     205.824 201.338 188.506  1.00  0.00     0.063 C 
ATOM     18  C   UNL     1     207.901 203.649 188.973  1.00  0.00     0.016 C 
ATOM     19  C   UNL     1     207.290 205.900 183.187  1.00  0.00     0.012 C 
ENDROOT
BRANCH   1  20
ATOM     20  C   UNL     1     207.799 209.062 183.859  1.00  0.00     0.133 C 
ATOM     21  C   UNL     1     208.132 210.209 184.767  1.00  0.00     0.088 C 
ATOM     22  O   UNL     1     208.500 208.871 182.876  1.00  0.00    -0.300 OA
ENDBRANCH   1  20
BRANCH  16  23
ATOM     23  O   UNL     1     205.958 200.205 186.377  1.00  0.00    -0.393 OA
ATOM     24  H   UNL     1     205.538 201.074 186.147  1.00  0.00     0.210 HD
ENDBRANCH  16  23
TORSDOF 2
ENDMDL
MODEL 2
REMARK VINA RESULT:    -4.222      3.555      5.559
REMARK INTER + INTRA:          -4.731
REMARK INTER:                  -4.600
REMARK INTRA:                  -0.131
REMARK UNBOUND:                -0.138
REMARK SMILES CC(=O)[C@@H]1CC[C@@H]2[C@@H]3CC=C4C[C@@H](O)CC[C@@]4(C)[C@H]3CC[C@@]21C
REMARK SMILES IDX 4 1 5 2 6 3 7 4 22 5 21 6 20 7 19 8 8 9 9 10 10 11 11 12
REMARK SMILES IDX 17 13 16 14 15 15 13 16 12 17 18 18 23 19 2 20 1 21 3 22
REMARK SMILES IDX 14 23
REMARK H PARENT 14 24
REMARK Flexibility Score: inf
ROOT
ATOM      1  C   UNL     1     206.566 206.599 184.137  1.00  0.00     0.062 C 
ATOM      2  C   UNL     1     206.077 205.716 185.292  1.00  0.00     0.012 C 
ATOM      3  C   UNL     1     207.334 205.156 185.964  1.00  0.00     0.005 C 
ATOM      4  C   UNL     1     208.534 205.667 185.147  1.00  0.00    -0.001 C 
ATOM      5  C   UNL     1     208.033 206.965 184.480  1.00  0.00    -0.020 C 
ATOM      6  C   UNL     1     208.110 208.158 185.482  1.00  0.00     0.008 C 
ATOM      7  C   UNL     1     209.490 208.310 186.122  1.00  0.00     0.005 C 
ATOM      8  C   UNL     1     209.917 207.028 186.880  1.00  0.00     0.003 C 
ATOM      9  C   UNL     1     209.877 205.810 185.930  1.00  0.00     0.000 C 
ATOM     10  C   UNL     1     210.179 204.535 186.729  1.00  0.00     0.031 C 
ATOM     11  C   UNL     1     211.489 204.641 187.439  1.00  0.00    -0.027 C 
ATOM     12  C   UNL     1     211.976 205.806 187.913  1.00  0.00    -0.065 C 
ATOM     13  C   UNL     1     211.311 207.169 187.631  1.00  0.00    -0.008 C 
ATOM     14  C   UNL     1     212.337 208.005 186.795  1.00  0.00     0.014 C 
ATOM     15  C   UNL     1     213.767 208.023 187.376  1.00  0.00     0.033 C 
ATOM     16  C   UNL     1     214.317 206.610 187.628  1.00  0.00     0.118 C 
ATOM     17  C   UNL     1     213.362 205.810 188.523  1.00  0.00     0.063 C 
ATOM     18  C   UNL     1     211.043 207.878 188.985  1.00  0.00     0.016 C 
ATOM     19  C   UNL     1     208.822 207.281 183.187  1.00  0.00     0.012 C 
ENDROOT
BRANCH   1  20
ATOM     20  C   UNL     1     205.655 207.779 183.844  1.00  0.00     0.133 C 
ATOM     21  C   UNL     1     204.490 208.092 184.736  1.00  0.00     0.088 C 
ATOM     22  O   UNL     1     205.860 208.495 182.875  1.00  0.00    -0.300 OA
ENDBRANCH   1  20
BRANCH  16  23
ATOM     23  O   UNL     1     214.505 205.954 186.400  1.00  0.00    -0.393 OA
ATOM     24  H   UNL     1     213.852 206.343 185.763  1.00  0.00     0.210 HD
ENDBRANCH  16  23
TORSDOF 2
ENDMDL
MODEL 3
REMARK VINA RESULT:    -4.220      3.575      5.614
REMARK INTER + INTRA:          -4.728
REMARK INTER:                  -4.579
REMARK INTRA:                  -0.149
REMARK UNBOUND:                -0.138
REMARK SMILES CC(=O)[C@@H]1CC[C@@H]2[C@@H]3CC=C4C[C@@H](O)CC[C@@]4(C)[C@H]3CC[C@@]21C
REMARK SMILES IDX 4 1 5 2 6 3 7 4 22 5 21 6 20 7 19 8 8 9 9 10 10 11 11 12
REMARK SMILES IDX 17 13 16 14 15 15 13 16 12 17 18 18 23 19 2 20 1 21 3 22
REMARK SMILES IDX 14 23
REMARK H PARENT 14 24
REMARK Flexibility Score: inf
ROOT
ATOM      1  C   UNL     1     208.083 208.108 184.187  1.00  0.00     0.062 C 
ATOM      2  C   UNL     1     208.571 208.967 185.359  1.00  0.00     0.012 C 
ATOM      3  C   UNL     1     207.315 209.532 186.028  1.00  0.00     0.005 C 
ATOM      4  C   UNL     1     206.116 209.048 185.192  1.00  0.00    -0.001 C 
ATOM      5  C   UNL     1     206.608 207.754 184.511  1.00  0.00    -0.020 C 
ATOM      6  C   UNL     1     206.508 206.548 185.494  1.00  0.00     0.008 C 
ATOM      7  C   UNL     1     205.120 206.403 186.118  1.00  0.00     0.005 C 
ATOM      8  C   UNL     1     204.701 207.679 186.892  1.00  0.00     0.003 C 
ATOM      9  C   UNL     1     204.765 208.911 185.960  1.00  0.00     0.000 C 
ATOM     10  C   UNL     1     204.470 210.177 186.775  1.00  0.00     0.031 C 
ATOM     11  C   UNL     1     203.152 210.077 187.471  1.00  0.00    -0.027 C 
ATOM     12  C   UNL     1     202.647 208.910 187.922  1.00  0.00    -0.065 C 
ATOM     13  C   UNL     1     203.298 207.544 187.627  1.00  0.00    -0.008 C 
ATOM     14  C   UNL     1     202.270 206.733 186.769  1.00  0.00     0.014 C 
ATOM     15  C   UNL     1     200.835 206.724 187.335  1.00  0.00     0.033 C 
ATOM     16  C   UNL     1     200.299 208.139 187.603  1.00  0.00     0.118 C 
ATOM     17  C   UNL     1     201.255 208.915 188.519  1.00  0.00     0.063 C 
ATOM     18  C   UNL     1     203.544 206.811 188.973  1.00  0.00     0.016 C 
ATOM     19  C   UNL     1     205.829 207.467 183.205  1.00  0.00     0.012 C 
ENDROOT
BRANCH   1  20
ATOM     20  C   UNL     1     208.982 206.921 183.886  1.00  0.00     0.133 C 
ATOM     21  C   UNL     1     210.094 206.540 184.819  1.00  0.00     0.088 C 
ATOM     22  O   UNL     1     208.812 206.254 182.875  1.00  0.00    -0.300 OA
ENDBRANCH   1  20
BRANCH  16  23
ATOM     23  O   UNL     1     200.131 208.816 186.383  1.00  0.00    -0.393 OA
ATOM     24  H   UNL     1     200.177 209.786 186.585  1.00  0.00     0.210 HD
ENDBRANCH  16  23
TORSDOF 2
ENDMDL
MODEL 4
REMARK VINA RESULT:    -4.148      3.224      7.935
REMARK INTER + INTRA:          -4.650
REMARK INTER:                  -4.516
REMARK INTRA:                  -0.134
REMARK UNBOUND:                -0.138
REMARK SMILES CC(=O)[C@@H]1CC[C@@H]2[C@@H]3CC=C4C[C@@H](O)CC[C@@]4(C)[C@H]3CC[C@@]21C
REMARK SMILES IDX 4 1 5 2 6 3 7 4 22 5 21 6 20 7 19 8 8 9 9 10 10 11 11 12
REMARK SMILES IDX 17 13 16 14 15 15 13 16 12 17 18 18 23 19 2 20 1 21 3 22
REMARK SMILES IDX 14 23
REMARK H PARENT 14 24
REMARK Flexibility Score: inf
ROOT
ATOM      1  C   UNL     1     208.100 206.759 184.162  1.00  0.00     0.062 C 
ATOM      2  C   UNL     1     208.990 206.285 185.317  1.00  0.00     0.012 C 
ATOM      3  C   UNL     1     209.502 207.552 186.009  1.00  0.00     0.005 C 
ATOM      4  C   UNL     1     208.957 208.744 185.203  1.00  0.00    -0.001 C 
ATOM      5  C   UNL     1     207.681 208.208 184.520  1.00  0.00    -0.020 C 
ATOM      6  C   UNL     1     206.480 208.231 185.514  1.00  0.00     0.008 C 
ATOM      7  C   UNL     1     206.276 209.598 186.169  1.00  0.00     0.005 C 
ATOM      8  C   UNL     1     207.537 210.059 186.942  1.00  0.00     0.003 C 
ATOM      9  C   UNL     1     208.763 210.072 186.000  1.00  0.00     0.000 C 
ATOM     10  C   UNL     1     210.021 210.408 186.813  1.00  0.00     0.031 C 
ATOM     11  C   UNL     1     209.866 211.704 187.537  1.00  0.00    -0.027 C 
ATOM     12  C   UNL     1     208.681 212.145 188.008  1.00  0.00    -0.065 C 
ATOM     13  C   UNL     1     207.344 211.438 187.709  1.00  0.00    -0.008 C 
ATOM     14  C   UNL     1     206.479 212.445 186.879  1.00  0.00     0.014 C 
ATOM     15  C   UNL     1     206.409 213.866 187.476  1.00  0.00     0.033 C 
ATOM     16  C   UNL     1     207.800 214.461 187.745  1.00  0.00     0.118 C 
ATOM     17  C   UNL     1     208.626 213.523 188.635  1.00  0.00     0.063 C 
ATOM     18  C   UNL     1     206.635 211.129 189.054  1.00  0.00     0.016 C 
ATOM     19  C   UNL     1     207.348 209.001 183.234  1.00  0.00     0.012 C 
ENDROOT
BRANCH   1  20
ATOM     20  C   UNL     1     206.953 205.811 183.850  1.00  0.00     0.133 C 
ATOM     21  C   UNL     1     206.669 204.629 184.729  1.00  0.00     0.088 C 
ATOM     22  O   UNL     1     206.241 206.001 182.875  1.00  0.00    -0.300 OA
ENDBRANCH   1  20
BRANCH  16  23
ATOM     23  O   UNL     1     208.458 214.686 186.525  1.00  0.00    -0.393 OA
ATOM     24  H   UNL     1     209.273 215.213 186.731  1.00  0.00     0.210 HD
ENDBRANCH  16  23
TORSDOF 2
ENDMDL
MODEL 5
REMARK VINA RESULT:    -4.058      3.344      6.494
REMARK INTER + INTRA:          -4.552
REMARK INTER:                  -4.394
REMARK INTRA:                  -0.159
REMARK UNBOUND:                -0.138
REMARK SMILES CC(=O)[C@@H]1CC[C@@H]2[C@@H]3CC=C4C[C@@H](O)CC[C@@]4(C)[C@H]3CC[C@@]21C
REMARK SMILES IDX 4 1 5 2 6 3 7 4 22 5 21 6 20 7 19 8 8 9 9 10 10 11 11 12
REMARK SMILES IDX 17 13 16 14 15 15 13 16 12 17 18 18 23 19 2 20 1 21 3 22
REMARK SMILES IDX 14 23
REMARK H PARENT 14 24
REMARK Flexibility Score: inf
ROOT
ATOM      1  C   UNL     1     211.362 205.020 189.008  1.00  0.00     0.062 C 
ATOM      2  C   UNL     1     211.429 203.714 188.206  1.00  0.00     0.012 C 
ATOM      3  C   UNL     1     210.220 203.726 187.267  1.00  0.00     0.005 C 
ATOM      4  C   UNL     1     209.429 205.008 187.585  1.00  0.00    -0.001 C 
ATOM      5  C   UNL     1     210.472 205.979 188.175  1.00  0.00    -0.020 C 
ATOM      6  C   UNL     1     211.281 206.670 187.035  1.00  0.00     0.008 C 
ATOM      7  C   UNL     1     210.384 207.324 185.983  1.00  0.00     0.005 C 
ATOM      8  C   UNL     1     209.425 206.299 185.327  1.00  0.00     0.003 C 
ATOM      9  C   UNL     1     208.581 205.591 186.412  1.00  0.00     0.000 C 
ATOM     10  C   UNL     1     207.731 204.495 185.756  1.00  0.00     0.031 C 
ATOM     11  C   UNL     1     206.876 205.054 184.667  1.00  0.00    -0.027 C 
ATOM     12  C   UNL     1     207.253 206.096 183.898  1.00  0.00    -0.065 C 
ATOM     13  C   UNL     1     208.530 206.918 184.168  1.00  0.00    -0.008 C 
ATOM     14  C   UNL     1     208.064 208.373 184.510  1.00  0.00     0.014 C 
ATOM     15  C   UNL     1     207.040 208.963 183.518  1.00  0.00     0.033 C 
ATOM     16  C   UNL     1     205.820 208.051 183.319  1.00  0.00     0.118 C 
ATOM     17  C   UNL     1     206.260 206.644 182.894  1.00  0.00     0.063 C 
ATOM     18  C   UNL     1     209.388 206.938 182.875  1.00  0.00     0.016 C 
ATOM     19  C   UNL     1     209.812 207.031 189.098  1.00  0.00     0.012 C 
ENDROOT
BRANCH   1  20
ATOM     20  C   UNL     1     212.726 205.571 189.391  1.00  0.00     0.133 C 
ATOM     21  C   UNL     1     213.969 205.103 188.693  1.00  0.00     0.088 C 
ATOM     22  O   UNL     1     212.830 206.407 190.276  1.00  0.00    -0.300 OA
ENDBRANCH   1  20
BRANCH  16  23
ATOM     23  O   UNL     1     205.077 207.993 184.511  1.00  0.00    -0.393 OA
ATOM     24  H   UNL     1     205.729 208.030 185.258  1.00  0.00     0.210 HD
ENDBRANCH  16  23
TORSDOF 2
ENDMDL
MODEL 6
REMARK VINA RESULT:    -4.028      1.650      6.571
REMARK INTER + INTRA:          -4.520
REMARK INTER:                  -4.358
REMARK INTRA:                  -0.161
REMARK UNBOUND:                -0.138
REMARK SMILES CC(=O)[C@@H]1CC[C@@H]2[C@@H]3CC=C4C[C@@H](O)CC[C@@]4(C)[C@H]3CC[C@@]21C
REMARK SMILES IDX 4 1 5 2 6 3 7 4 22 5 21 6 20 7 19 8 8 9 9 10 10 11 11 12
REMARK SMILES IDX 17 13 16 14 15 15 13 16 12 17 18 18 23 19 2 20 1 21 3 22
REMARK SMILES IDX 14 23
REMARK H PARENT 14 24
REMARK Flexibility Score: inf
ROOT
ATOM      1  C   UNL     1     204.676 203.430 188.840  1.00  0.00     0.062 C 
ATOM      2  C   UNL     1     203.435 203.360 187.942  1.00  0.00     0.012 C 
ATOM      3  C   UNL     1     203.513 204.571 187.009  1.00  0.00     0.005 C 
ATOM      4  C   UNL     1     204.763 205.367 187.425  1.00  0.00    -0.001 C 
ATOM      5  C   UNL     1     205.691 204.326 188.084  1.00  0.00    -0.020 C 
ATOM      6  C   UNL     1     206.470 203.523 186.997  1.00  0.00     0.008 C 
ATOM      7  C   UNL     1     207.198 204.425 186.000  1.00  0.00     0.005 C 
ATOM      8  C   UNL     1     206.222 205.382 185.271  1.00  0.00     0.003 C 
ATOM      9  C   UNL     1     205.430 206.220 186.302  1.00  0.00     0.000 C 
ATOM     10  C   UNL     1     204.383 207.068 185.566  1.00  0.00     0.031 C 
ATOM     11  C   UNL     1     205.019 207.928 184.524  1.00  0.00    -0.027 C 
ATOM     12  C   UNL     1     206.119 207.557 183.837  1.00  0.00    -0.065 C 
ATOM     13  C   UNL     1     206.923 206.283 184.164  1.00  0.00    -0.008 C 
ATOM     14  C   UNL     1     208.345 206.753 184.617  1.00  0.00     0.014 C 
ATOM     15  C   UNL     1     209.005 207.782 183.675  1.00  0.00     0.033 C 
ATOM     16  C   UNL     1     208.105 208.999 183.411  1.00  0.00     0.118 C 
ATOM     17  C   UNL     1     206.736 208.555 182.879  1.00  0.00     0.063 C 
ATOM     18  C   UNL     1     207.044 205.428 182.875  1.00  0.00     0.016 C 
ATOM     19  C   UNL     1     206.667 204.988 189.086  1.00  0.00     0.012 C 
ENDROOT
BRANCH   1  20
ATOM     20  C   UNL     1     205.201 202.068 189.261  1.00  0.00     0.133 C 
ATOM     21  C   UNL     1     204.755 200.819 188.558  1.00  0.00     0.088 C 
ATOM     22  O   UNL     1     206.000 201.969 190.181  1.00  0.00    -0.300 OA
ENDBRANCH   1  20
BRANCH  16  23
ATOM     23  O   UNL     1     207.955 209.738 184.596  1.00  0.00    -0.393 OA
ATOM     24  H   UNL     1     207.082 210.206 184.534  1.00  0.00     0.210 HD
ENDBRANCH  16  23
TORSDOF 2
ENDMDL
MODEL 7
REMARK VINA RESULT:    -3.864      7.270      9.005
REMARK INTER + INTRA:          -4.341
REMARK INTER:                  -4.184
REMARK INTRA:                  -0.157
REMARK UNBOUND:                -0.138
REMARK SMILES CC(=O)[C@@H]1CC[C@@H]2[C@@H]3CC=C4C[C@@H](O)CC[C@@]4(C)[C@H]3CC[C@@]21C
REMARK SMILES IDX 4 1 5 2 6 3 7 4 22 5 21 6 20 7 19 8 8 9 9 10 10 11 11 12
REMARK SMILES IDX 17 13 16 14 15 15 13 16 12 17 18 18 23 19 2 20 1 21 3 22
REMARK SMILES IDX 14 23
REMARK H PARENT 14 24
REMARK Flexibility Score: inf
ROOT
ATOM      1  C   UNL     1     214.125 205.512 186.863  1.00  0.00     0.062 C 
ATOM      2  C   UNL     1     212.646 205.151 186.686  1.00  0.00     0.012 C 
ATOM      3  C   UNL     1     212.618 203.834 185.905  1.00  0.00     0.005 C 
ATOM      4  C   UNL     1     214.081 203.485 185.579  1.00  0.00    -0.001 C 
ATOM      5  C   UNL     1     214.908 204.187 186.676  1.00  0.00    -0.020 C 
ATOM      6  C   UNL     1     214.915 203.334 187.982  1.00  0.00     0.008 C 
ATOM      7  C   UNL     1     215.346 201.887 187.745  1.00  0.00     0.005 C 
ATOM      8  C   UNL     1     214.427 201.174 186.721  1.00  0.00     0.003 C 
ATOM      9  C   UNL     1     214.393 201.967 185.395  1.00  0.00     0.000 C 
ATOM     10  C   UNL     1     213.382 201.315 184.442  1.00  0.00     0.031 C 
ATOM     11  C   UNL     1     213.703 199.874 184.217  1.00  0.00    -0.027 C 
ATOM     12  C   UNL     1     214.269 199.092 185.159  1.00  0.00    -0.065 C 
ATOM     13  C   UNL     1     214.787 199.640 186.504  1.00  0.00    -0.008 C 
ATOM     14  C   UNL     1     216.333 199.401 186.521  1.00  0.00     0.014 C 
ATOM     15  C   UNL     1     216.760 197.970 186.130  1.00  0.00     0.033 C 
ATOM     16  C   UNL     1     216.172 197.529 184.781  1.00  0.00     0.118 C 
ATOM     17  C   UNL     1     214.645 197.673 184.784  1.00  0.00     0.063 C 
ATOM     18  C   UNL     1     214.124 198.838 187.655  1.00  0.00     0.016 C 
ATOM     19  C   UNL     1     216.351 204.480 186.202  1.00  0.00     0.012 C 
ENDROOT
BRANCH   1  20
ATOM     20  C   UNL     1     214.419 206.263 188.151  1.00  0.00     0.133 C 
ATOM     21  C   UNL     1     213.403 206.328 189.253  1.00  0.00     0.088 C 
ATOM     22  O   UNL     1     215.493 206.824 188.310  1.00  0.00    -0.300 OA
ENDBRANCH   1  20
BRANCH  16  23
ATOM     23  O   UNL     1     216.736 198.298 183.749  1.00  0.00    -0.393 OA
ATOM     24  H   UNL     1     216.015 198.883 183.400  1.00  0.00     0.210 HD
ENDBRANCH  16  23
TORSDOF 2
ENDMDL
