MODEL 1
REMARK VINA RESULT:    -6.375      0.000      0.000
REMARK INTER + INTRA:          -7.003
REMARK INTER:                  -6.934
REMARK INTRA:                  -0.069
REMARK UNBOUND:                -0.069
REMARK SMILES CC1(C)CC[C@]2(C(=O)[O-])CC[C@]3(C)C(=CC[C@@H]4[C@@]5(C)CC[C@H](O)C(C)(C)[C@@H]5CC[C@]43C)[C@@H]2C1
REMARK SMILES IDX 6 1 5 2 10 3 32 4 4 5 11 6 14 7 33 8 2 9 12 10 15 11 1 12
REMARK SMILES IDX 3 13 13 14 30 15 16 16 17 17 29 18 31 19 18 20 28 21 27 22
REMARK SMILES IDX 20 23 19 24 24 25 21 26 22 27 25 28 26 29 7 30 8 31 9 32
REMARK SMILES IDX 23 33
REMARK H PARENT 23 34
REMARK Flexibility Score: inf
ROOT
ATOM      1  C   UNL     1      19.614  -8.667  21.413  1.00  0.00     0.017 C 
ATOM      2  C   UNL     1      19.518  -7.464  22.392  1.00  0.00     0.014 C 
ATOM      3  C   UNL     1      18.202  -9.201  21.068  1.00  0.00     0.014 C 
ATOM      4  C   UNL     1      20.457  -9.821  22.042  1.00  0.00     0.028 C 
ATOM      5  C   UNL     1      19.089  -7.847  23.816  1.00  0.00     0.007 C 
ATOM      6  C   UNL     1      18.252 -10.311  20.009  1.00  0.00     0.013 C 
ATOM      7  C   UNL     1      20.438 -11.087  21.184  1.00  0.00    -0.064 C 
ATOM      8  C   UNL     1      20.038 -10.170  23.494  1.00  0.00     0.015 C 
ATOM      9  C   UNL     1      19.980  -8.946  24.441  1.00  0.00    -0.035 C 
ATOM     10  C   UNL     1      19.211 -11.509  20.355  1.00  0.00    -0.006 C 
ATOM     11  C   UNL     1      21.498 -11.927  21.284  1.00  0.00    -0.027 C 
ATOM     12  C   UNL     1      19.348  -9.386  25.779  1.00  0.00     0.011 C 
ATOM     13  C   UNL     1      21.399  -8.409  24.742  1.00  0.00     0.011 C 
ATOM     14  C   UNL     1      18.384 -12.465  21.283  1.00  0.00     0.017 C 
ATOM     15  C   UNL     1      19.753 -12.225  19.019  1.00  0.00    -0.020 C 
ATOM     16  C   UNL     1      21.667 -13.208  20.493  1.00  0.00     0.032 C 
ATOM     17  C   UNL     1      20.542 -13.519  19.455  1.00  0.00     0.006 C 
ATOM     18  C   UNL     1      18.578 -12.617  18.064  1.00  0.00     0.008 C 
ATOM     19  C   UNL     1      20.706 -11.249  18.238  1.00  0.00     0.012 C 
ATOM     20  C   UNL     1      20.961 -14.516  18.292  1.00  0.00    -0.025 C 
ATOM     21  C   UNL     1      18.963 -13.591  16.936  1.00  0.00     0.005 C 
ATOM     22  C   UNL     1      19.648 -14.868  17.491  1.00  0.00     0.003 C 
ATOM     23  C   UNL     1      21.495 -15.830  18.950  1.00  0.00     0.010 C 
ATOM     24  C   UNL     1      22.091 -13.916  17.384  1.00  0.00     0.012 C 
ATOM     25  C   UNL     1      19.759 -16.072  16.469  1.00  0.00    -0.006 C 
ATOM     26  C   UNL     1      21.662 -17.000  17.970  1.00  0.00     0.033 C 
ATOM     27  C   UNL     1      20.353 -17.309  17.223  1.00  0.00     0.120 C 
ATOM     28  C   UNL     1      18.341 -16.475  15.978  1.00  0.00     0.014 C 
ATOM     29  C   UNL     1      20.594 -15.725  15.208  1.00  0.00     0.014 C 
ENDROOT
BRANCH   1  30
ATOM     30  C   UNL     1      20.278  -8.129  20.147  1.00  0.00     0.048 C 
ATOM     31  O   UNL     1      21.475  -8.406  19.868  1.00  0.00    -0.550 OA
ATOM     32  O   UNL     1      19.584  -7.253  19.318  1.00  0.00    -0.550 OA
ENDBRANCH   1  30
BRANCH  27  33
ATOM     33  O   UNL     1      20.515 -18.419  16.369  1.00  0.00    -0.393 OA
ATOM     34  H   UNL     1      21.036 -18.130  15.576  1.00  0.00     0.210 HD
ENDBRANCH  27  33
TORSDOF 2
ENDMDL
MODEL 2
REMARK VINA RESULT:    -6.018      2.269      8.755
REMARK INTER + INTRA:          -6.615
REMARK INTER:                  -6.591
REMARK INTRA:                  -0.024
REMARK UNBOUND:                -0.069
REMARK SMILES CC1(C)CC[C@]2(C(=O)[O-])CC[C@]3(C)C(=CC[C@@H]4[C@@]5(C)CC[C@H](O)C(C)(C)[C@@H]5CC[C@]43C)[C@@H]2C1
REMARK SMILES IDX 6 1 5 2 10 3 32 4 4 5 11 6 14 7 33 8 2 9 12 10 15 11 1 12
REMARK SMILES IDX 3 13 13 14 30 15 16 16 17 17 29 18 31 19 18 20 28 21 27 22
REMARK SMILES IDX 20 23 19 24 24 25 21 26 22 27 25 28 26 29 7 30 8 31 9 32
REMARK SMILES IDX 23 33
REMARK H PARENT 23 34
REMARK Flexibility Score: inf
ROOT
ATOM      1  C   UNL     1      19.805 -14.514  15.733  1.00  0.00     0.017 C 
ATOM      2  C   UNL     1      19.749 -15.727  14.763  1.00  0.00     0.014 C 
ATOM      3  C   UNL     1      18.377 -14.095  16.161  1.00  0.00     0.014 C 
ATOM      4  C   UNL     1      20.513 -13.299  15.053  1.00  0.00     0.028 C 
ATOM      5  C   UNL     1      19.207 -15.389  13.367  1.00  0.00     0.007 C 
ATOM      6  C   UNL     1      18.399 -12.977  17.214  1.00  0.00     0.013 C 
ATOM      7  C   UNL     1      20.442 -12.034  15.910  1.00  0.00    -0.064 C 
ATOM      8  C   UNL     1      19.982 -12.994  13.629  1.00  0.00     0.015 C 
ATOM      9  C   UNL     1      19.967 -14.224  12.689  1.00  0.00    -0.035 C 
ATOM     10  C   UNL     1      19.236 -11.708  16.810  1.00  0.00    -0.006 C 
ATOM     11  C   UNL     1      21.423 -11.112  15.746  1.00  0.00    -0.027 C 
ATOM     12  C   UNL     1      19.223 -13.845  11.390  1.00  0.00     0.011 C 
ATOM     13  C   UNL     1      21.405 -14.647  12.304  1.00  0.00     0.011 C 
ATOM     14  C   UNL     1      18.281 -10.827  15.932  1.00  0.00     0.017 C 
ATOM     15  C   UNL     1      19.797 -10.943  18.111  1.00  0.00    -0.020 C 
ATOM     16  C   UNL     1      21.534  -9.816  16.524  1.00  0.00     0.032 C 
ATOM     17  C   UNL     1      20.451  -9.592  17.626  1.00  0.00     0.006 C 
ATOM     18  C   UNL     1      18.652 -10.641  19.134  1.00  0.00     0.008 C 
ATOM     19  C   UNL     1      20.870 -11.833  18.834  1.00  0.00     0.012 C 
ATOM     20  C   UNL     1      20.856  -8.557  18.762  1.00  0.00    -0.025 C 
ATOM     21  C   UNL     1      19.023  -9.632  20.236  1.00  0.00     0.005 C 
ATOM     22  C   UNL     1      19.568  -8.308  19.639  1.00  0.00     0.003 C 
ATOM     23  C   UNL     1      21.242  -7.208  18.071  1.00  0.00     0.010 C 
ATOM     24  C   UNL     1      22.082  -9.058  19.601  1.00  0.00     0.012 C 
ATOM     25  C   UNL     1      19.642  -7.092  20.651  1.00  0.00    -0.006 C 
ATOM     26  C   UNL     1      21.371  -6.022  19.038  1.00  0.00     0.033 C 
ATOM     27  C   UNL     1      20.088  -5.816  19.862  1.00  0.00     0.120 C 
ATOM     28  C   UNL     1      18.227  -6.802  21.225  1.00  0.00     0.014 C 
ATOM     29  C   UNL     1      20.575  -7.363  21.861  1.00  0.00     0.014 C 
ENDROOT
BRANCH   1  30
ATOM     30  C   UNL     1      20.583 -14.989  16.958  1.00  0.00     0.048 C 
ATOM     31  O   UNL     1      21.743 -14.559  17.203  1.00  0.00    -0.550 OA
ATOM     32  O   UNL     1      20.047 -15.971  17.784  1.00  0.00    -0.550 OA
ENDBRANCH   1  30
BRANCH  27  33
ATOM     33  O   UNL     1      20.210  -4.691  20.703  1.00  0.00    -0.393 OA
ATOM     34  H   UNL     1      20.710  -4.962  21.515  1.00  0.00     0.210 HD
ENDBRANCH  27  33
TORSDOF 2
ENDMDL
MODEL 3
REMARK VINA RESULT:    -4.561      1.048      1.171
REMARK INTER + INTRA:          -5.030
REMARK INTER:                  -4.919
REMARK INTRA:                  -0.111
REMARK UNBOUND:                -0.069
REMARK SMILES CC1(C)CC[C@]2(C(=O)[O-])CC[C@]3(C)C(=CC[C@@H]4[C@@]5(C)CC[C@H](O)C(C)(C)[C@@H]5CC[C@]43C)[C@@H]2C1
REMARK SMILES IDX 6 1 5 2 10 3 32 4 4 5 11 6 14 7 33 8 2 9 12 10 15 11 1 12
REMARK SMILES IDX 3 13 13 14 30 15 16 16 17 17 29 18 31 19 18 20 28 21 27 22
REMARK SMILES IDX 20 23 19 24 24 25 21 26 22 27 25 28 26 29 7 30 8 31 9 32
REMARK SMILES IDX 23 33
REMARK H PARENT 23 34
REMARK Flexibility Score: inf
ROOT
ATOM      1  C   UNL     1      18.857  -8.612  20.101  1.00  0.00     0.017 C 
ATOM      2  C   UNL     1      18.629  -7.287  20.880  1.00  0.00     0.014 C 
ATOM      3  C   UNL     1      17.538  -9.418  20.001  1.00  0.00     0.014 C 
ATOM      4  C   UNL     1      19.938  -9.488  20.811  1.00  0.00     0.028 C 
ATOM      5  C   UNL     1      18.390  -7.477  22.384  1.00  0.00     0.007 C 
ATOM      6  C   UNL     1      17.698 -10.675  19.134  1.00  0.00     0.013 C 
ATOM      7  C   UNL     1      20.073 -10.872  20.173  1.00  0.00    -0.064 C 
ATOM      8  C   UNL     1      19.704  -9.638  22.336  1.00  0.00     0.015 C 
ATOM      9  C   UNL     1      19.508  -8.293  23.076  1.00  0.00    -0.035 C 
ATOM     10  C   UNL     1      18.877 -11.624  19.561  1.00  0.00    -0.006 C 
ATOM     11  C   UNL     1      21.269 -11.500  20.290  1.00  0.00    -0.027 C 
ATOM     12  C   UNL     1      19.071  -8.586  24.528  1.00  0.00     0.011 C 
ATOM     13  C   UNL     1      20.829  -7.490  23.132  1.00  0.00     0.011 C 
ATOM     14  C   UNL     1      18.309 -12.521  20.713  1.00  0.00     0.017 C 
ATOM     15  C   UNL     1      19.429 -12.467  18.305  1.00  0.00    -0.020 C 
ATOM     16  C   UNL     1      21.597 -12.857  19.700  1.00  0.00     0.032 C 
ATOM     17  C   UNL     1      20.466 -13.520  18.854  1.00  0.00     0.006 C 
ATOM     18  C   UNL     1      18.268 -13.204  17.558  1.00  0.00     0.008 C 
ATOM     19  C   UNL     1      20.129 -11.504  17.280  1.00  0.00     0.012 C 
ATOM     20  C   UNL     1      20.960 -14.627  17.826  1.00  0.00    -0.025 C 
ATOM     21  C   UNL     1      18.728 -14.287  16.565  1.00  0.00     0.005 C 
ATOM     22  C   UNL     1      19.669 -15.320  17.240  1.00  0.00     0.003 C 
ATOM     23  C   UNL     1      21.768 -15.702  18.624  1.00  0.00     0.010 C 
ATOM     24  C   UNL     1      21.889 -14.023  16.717  1.00  0.00     0.012 C 
ATOM     25  C   UNL     1      19.908 -16.651  16.417  1.00  0.00    -0.006 C 
ATOM     26  C   UNL     1      22.059 -16.984  17.831  1.00  0.00     0.033 C 
ATOM     27  C   UNL     1      20.769 -17.625  17.290  1.00  0.00     0.120 C 
ATOM     28  C   UNL     1      18.549 -17.357  16.154  1.00  0.00     0.014 C 
ATOM     29  C   UNL     1      20.565 -16.403  15.034  1.00  0.00     0.014 C 
ENDROOT
BRANCH   1  30
ATOM     30  C   UNL     1      19.312  -8.207  18.701  1.00  0.00     0.048 C 
ATOM     31  O   UNL     1      20.532  -8.208  18.383  1.00  0.00    -0.550 OA
ATOM     32  O   UNL     1      18.380  -7.750  17.773  1.00  0.00    -0.550 OA
ENDBRANCH   1  30
BRANCH  27  33
ATOM     33  O   UNL     1      21.056 -18.827  16.612  1.00  0.00    -0.393 OA
ATOM     34  H   UNL     1      21.395 -19.485  17.272  1.00  0.00     0.210 HD
ENDBRANCH  27  33
TORSDOF 2
ENDMDL
MODEL 4
REMARK VINA RESULT:    -4.472      2.416      8.626
REMARK INTER + INTRA:          -4.933
REMARK INTER:                  -5.027
REMARK INTRA:                   0.094
REMARK UNBOUND:                -0.069
REMARK SMILES CC1(C)CC[C@]2(C(=O)[O-])CC[C@]3(C)C(=CC[C@@H]4[C@@]5(C)CC[C@H](O)C(C)(C)[C@@H]5CC[C@]43C)[C@@H]2C1
REMARK SMILES IDX 6 1 5 2 10 3 32 4 4 5 11 6 14 7 33 8 2 9 12 10 15 11 1 12
REMARK SMILES IDX 3 13 13 14 30 15 16 16 17 17 29 18 31 19 18 20 28 21 27 22
REMARK SMILES IDX 20 23 19 24 24 25 21 26 22 27 25 28 26 29 7 30 8 31 9 32
REMARK SMILES IDX 23 33
REMARK H PARENT 23 34
REMARK Flexibility Score: inf
ROOT
ATOM      1  C   UNL     1      19.235 -14.524  16.535  1.00  0.00     0.017 C 
ATOM      2  C   UNL     1      19.045 -15.842  15.735  1.00  0.00     0.014 C 
ATOM      3  C   UNL     1      17.869 -13.836  16.781  1.00  0.00     0.014 C 
ATOM      4  C   UNL     1      20.170 -13.542  15.762  1.00  0.00     0.028 C 
ATOM      5  C   UNL     1      18.653 -15.633  14.266  1.00  0.00     0.007 C 
ATOM      6  C   UNL     1      18.005 -12.594  17.672  1.00  0.00     0.013 C 
ATOM      7  C   UNL     1      20.250 -12.169  16.432  1.00  0.00    -0.064 C 
ATOM      8  C   UNL     1      19.786 -13.371  14.270  1.00  0.00     0.015 C 
ATOM      9  C   UNL     1      19.633 -14.708  13.505  1.00  0.00    -0.035 C 
ATOM     10  C   UNL     1      19.058 -11.537  17.175  1.00  0.00    -0.006 C 
ATOM     11  C   UNL     1      21.375 -11.439  16.231  1.00  0.00    -0.027 C 
ATOM     12  C   UNL     1      19.042 -14.414  12.108  1.00  0.00     0.011 C 
ATOM     13  C   UNL     1      21.005 -15.394  13.304  1.00  0.00     0.011 C 
ATOM     14  C   UNL     1      18.315 -10.661  16.109  1.00  0.00     0.017 C 
ATOM     15  C   UNL     1      19.653 -10.684  18.405  1.00  0.00    -0.020 C 
ATOM     16  C   UNL     1      21.645 -10.076  16.835  1.00  0.00     0.032 C 
ATOM     17  C   UNL     1      20.545  -9.533  17.801  1.00  0.00     0.006 C 
ATOM     18  C   UNL     1      18.509 -10.068  19.277  1.00  0.00     0.008 C 
ATOM     19  C   UNL     1      20.521 -11.612  19.329  1.00  0.00     0.012 C 
ATOM     20  C   UNL     1      21.039  -8.416  18.818  1.00  0.00    -0.025 C 
ATOM     21  C   UNL     1      18.968  -8.977  20.261  1.00  0.00     0.005 C 
ATOM     22  C   UNL     1      19.756  -7.851  19.541  1.00  0.00     0.003 C 
ATOM     23  C   UNL     1      21.680  -7.256  17.988  1.00  0.00     0.010 C 
ATOM     24  C   UNL     1      22.113  -8.969  19.818  1.00  0.00     0.012 C 
ATOM     25  C   UNL     1      19.961  -6.526  20.384  1.00  0.00    -0.006 C 
ATOM     26  C   UNL     1      21.937  -5.975  18.795  1.00  0.00     0.033 C 
ATOM     27  C   UNL     1      20.655  -5.460  19.472  1.00  0.00     0.120 C 
ATOM     28  C   UNL     1      18.578  -5.946  20.792  1.00  0.00     0.014 C 
ATOM     29  C   UNL     1      20.760  -6.755  21.694  1.00  0.00     0.014 C 
ENDROOT
BRANCH   1  30
ATOM     30  C   UNL     1      19.848 -14.927  17.875  1.00  0.00     0.048 C 
ATOM     31  O   UNL     1      19.157 -14.955  18.929  1.00  0.00    -0.550 OA
ATOM     32  O   UNL     1      21.210 -15.196  17.962  1.00  0.00    -0.550 OA
ENDBRANCH   1  30
BRANCH  27  33
ATOM     33  O   UNL     1      20.904  -4.257  20.162  1.00  0.00    -0.393 OA
ATOM     34  H   UNL     1      21.825  -4.290  20.525  1.00  0.00     0.210 HD
ENDBRANCH  27  33
TORSDOF 2
ENDMDL
