MODEL 1
REMARK VINA RESULT:    -2.768      0.000      0.000
REMARK INTER + INTRA:          -3.331
REMARK INTER:                  -3.253
REMARK INTRA:                  -0.078
REMARK UNBOUND:                -0.078
REMARK SMILES CCCCC(=O)[O-]
REMARK SMILES IDX 4 1 5 2 6 3 7 4 3 5 2 6 1 7
REMARK H PARENT
REMARK Flexibility Score: inf
ROOT
ATOM      1  C   UNL     1       2.490  -4.740  11.768  1.00  0.00     0.053 C 
ENDROOT
BRANCH   1   2
ATOM      2  C   UNL     1       2.480  -3.317  12.228  1.00  0.00     0.041 C 
ATOM      3  O   UNL     1       1.474  -2.851  12.825  1.00  0.00    -0.550 OA
ATOM      4  O   UNL     1       3.561  -2.489  11.953  1.00  0.00    -0.550 OA
ENDBRANCH   1   2
BRANCH   1   5
ATOM      5  C   UNL     1       1.079  -5.337  11.844  1.00  0.00     0.006 C 
BRANCH   5   6
ATOM      6  C   UNL     1       0.994  -6.528  12.812  1.00  0.00    -0.003 C 
ATOM      7  C   UNL     1       2.362  -7.141  13.116  1.00  0.00     0.004 C 
ENDBRANCH   5   6
ENDBRANCH   1   5
TORSDOF 3
ENDMDL
MODEL 2
REMARK VINA RESULT:    -2.689      0.260      1.230
REMARK INTER + INTRA:          -3.239
REMARK INTER:                  -3.182
REMARK INTRA:                  -0.057
REMARK UNBOUND:                -0.078
REMARK SMILES CCCCC(=O)[O-]
REMARK SMILES IDX 4 1 5 2 6 3 7 4 3 5 2 6 1 7
REMARK H PARENT
REMARK Flexibility Score: inf
ROOT
ATOM      1  C   UNL     1       2.527  -4.652  11.901  1.00  0.00     0.053 C 
ENDROOT
BRANCH   1   2
ATOM      2  C   UNL     1       2.494  -3.164  12.049  1.00  0.00     0.041 C 
ATOM      3  O   UNL     1       3.365  -2.451  11.483  1.00  0.00    -0.550 OA
ATOM      4  O   UNL     1       1.532  -2.565  12.853  1.00  0.00    -0.550 OA
ENDBRANCH   1   2
BRANCH   1   5
ATOM      5  C   UNL     1       1.101  -5.216  11.848  1.00  0.00     0.006 C 
BRANCH   5   6
ATOM      6  C   UNL     1       0.924  -6.452  12.743  1.00  0.00    -0.003 C 
ATOM      7  C   UNL     1       2.253  -7.109  13.115  1.00  0.00     0.004 C 
ENDBRANCH   5   6
ENDBRANCH   1   5
TORSDOF 3
ENDMDL
MODEL 3
REMARK VINA RESULT:    -2.599      7.179      7.921
REMARK INTER + INTRA:          -3.133
REMARK INTER:                  -3.070
REMARK INTRA:                  -0.063
REMARK UNBOUND:                -0.078
REMARK SMILES CCCCC(=O)[O-]
REMARK SMILES IDX 4 1 5 2 6 3 7 4 3 5 2 6 1 7
REMARK H PARENT
REMARK Flexibility Score: inf
ROOT
ATOM      1  C   UNL     1       5.626  -1.704  17.961  1.00  0.00     0.053 C 
ENDROOT
BRANCH   1   2
ATOM      2  C   UNL     1       5.927  -1.994  16.525  1.00  0.00     0.041 C 
ATOM      3  O   UNL     1       7.041  -2.483  16.198  1.00  0.00    -0.550 OA
ATOM      4  O   UNL     1       4.999  -1.680  15.541  1.00  0.00    -0.550 OA
ENDBRANCH   1   2
BRANCH   1   5
ATOM      5  C   UNL     1       6.237  -2.781  18.865  1.00  0.00     0.006 C 
BRANCH   5   6
ATOM      6  C   UNL     1       7.260  -2.207  19.857  1.00  0.00    -0.003 C 
ATOM      7  C   UNL     1       8.499  -3.091  20.006  1.00  0.00     0.004 C 
ENDBRANCH   5   6
ENDBRANCH   1   5
TORSDOF 3
ENDMDL
MODEL 4
REMARK VINA RESULT:    -2.552      2.330      3.613
REMARK INTER + INTRA:          -3.078
REMARK INTER:                  -2.959
REMARK INTRA:                  -0.119
REMARK UNBOUND:                -0.078
REMARK SMILES CCCCC(=O)[O-]
REMARK SMILES IDX 4 1 5 2 6 3 7 4 3 5 2 6 1 7
REMARK H PARENT
REMARK Flexibility Score: inf
ROOT
ATOM      1  C   UNL     1       2.534  -0.397  11.853  1.00  0.00     0.053 C 
ENDROOT
BRANCH   1   2
ATOM      2  C   UNL     1       3.819  -1.056  12.239  1.00  0.00     0.041 C 
ATOM      3  O   UNL     1       4.725  -1.231  11.381  1.00  0.00    -0.550 OA
ATOM      4  O   UNL     1       4.000  -1.524  13.534  1.00  0.00    -0.550 OA
ENDBRANCH   1   2
BRANCH   1   5
ATOM      5  C   UNL     1       1.342  -1.288  12.225  1.00  0.00     0.006 C 
BRANCH   5   6
ATOM      6  C   UNL     1       1.293  -2.582  11.397  1.00  0.00    -0.003 C 
ATOM      7  C   UNL     1       1.503  -3.835  12.247  1.00  0.00     0.004 C 
ENDBRANCH   5   6
ENDBRANCH   1   5
TORSDOF 3
ENDMDL
MODEL 5
REMARK VINA RESULT:    -2.530     10.116     10.548
REMARK INTER + INTRA:          -3.052
REMARK INTER:                  -3.036
REMARK INTRA:                  -0.016
REMARK UNBOUND:                -0.078
REMARK SMILES CCCCC(=O)[O-]
REMARK SMILES IDX 4 1 5 2 6 3 7 4 3 5 2 6 1 7
REMARK H PARENT
REMARK Flexibility Score: inf
ROOT
ATOM      1  C   UNL     1      -0.115  -1.417  22.408  1.00  0.00     0.053 C 
ENDROOT
BRANCH   1   2
ATOM      2  C   UNL     1      -0.625  -1.158  21.026  1.00  0.00     0.041 C 
ATOM      3  O   UNL     1       0.178  -1.070  20.060  1.00  0.00    -0.550 OA
ATOM      4  O   UNL     1      -1.984  -0.965  20.811  1.00  0.00    -0.550 OA
ENDBRANCH   1   2
BRANCH   1   5
ATOM      5  C   UNL     1      -0.067  -2.924  22.688  1.00  0.00     0.006 C 
BRANCH   5   6
ATOM      6  C   UNL     1       0.770  -3.267  23.930  1.00  0.00    -0.003 C 
ATOM      7  C   UNL     1       0.980  -4.772  24.105  1.00  0.00     0.004 C 
ENDBRANCH   5   6
ENDBRANCH   1   5
TORSDOF 3
ENDMDL
MODEL 6
REMARK VINA RESULT:    -2.423     11.601     12.228
REMARK INTER + INTRA:          -2.926
REMARK INTER:                  -2.908
REMARK INTRA:                  -0.018
REMARK UNBOUND:                -0.078
REMARK SMILES CCCCC(=O)[O-]
REMARK SMILES IDX 4 1 5 2 6 3 7 4 3 5 2 6 1 7
REMARK H PARENT
REMARK Flexibility Score: inf
ROOT
ATOM      1  C   UNL     1       0.233  -5.268  24.792  1.00  0.00     0.053 C 
ENDROOT
BRANCH   1   2
ATOM      2  C   UNL     1       0.888  -4.119  24.092  1.00  0.00     0.041 C 
ATOM      3  O   UNL     1       1.956  -3.628  24.544  1.00  0.00    -0.550 OA
ATOM      4  O   UNL     1       0.293  -3.557  22.970  1.00  0.00    -0.550 OA
ENDBRANCH   1   2
BRANCH   1   5
ATOM      5  C   UNL     1       0.657  -6.596  24.151  1.00  0.00     0.006 C 
BRANCH   5   6
ATOM      6  C   UNL     1       0.670  -7.758  25.157  1.00  0.00    -0.003 C 
ATOM      7  C   UNL     1      -0.433  -8.783  24.891  1.00  0.00     0.004 C 
ENDBRANCH   5   6
ENDBRANCH   1   5
TORSDOF 3
ENDMDL
MODEL 7
REMARK VINA RESULT:    -2.378     11.554     12.182
REMARK INTER + INTRA:          -2.873
REMARK INTER:                  -2.828
REMARK INTRA:                  -0.045
REMARK UNBOUND:                -0.078
REMARK SMILES CCCCC(=O)[O-]
REMARK SMILES IDX 4 1 5 2 6 3 7 4 3 5 2 6 1 7
REMARK H PARENT
REMARK Flexibility Score: inf
ROOT
ATOM      1  C   UNL     1       0.914  -3.822  24.182  1.00  0.00     0.053 C 
ENDROOT
BRANCH   1   2
ATOM      2  C   UNL     1       0.580  -5.270  24.352  1.00  0.00     0.041 C 
ATOM      3  O   UNL     1       1.107  -6.134  23.603  1.00  0.00    -0.550 OA
ATOM      4  O   UNL     1      -0.352  -5.662  25.305  1.00  0.00    -0.550 OA
ENDBRANCH   1   2
BRANCH   1   5
ATOM      5  C   UNL     1       0.134  -3.228  23.003  1.00  0.00     0.006 C 
BRANCH   5   6
ATOM      6  C   UNL     1      -1.073  -2.392  23.456  1.00  0.00    -0.003 C 
ATOM      7  C   UNL     1      -1.718  -1.614  22.308  1.00  0.00     0.004 C 
ENDBRANCH   5   6
ENDBRANCH   1   5
TORSDOF 3
ENDMDL
MODEL 8
REMARK VINA RESULT:    -2.377      2.567      4.502
REMARK INTER + INTRA:          -2.872
REMARK INTER:                  -2.760
REMARK INTRA:                  -0.112
REMARK UNBOUND:                -0.078
REMARK SMILES CCCCC(=O)[O-]
REMARK SMILES IDX 4 1 5 2 6 3 7 4 3 5 2 6 1 7
REMARK H PARENT
REMARK Flexibility Score: inf
ROOT
ATOM      1  C   UNL     1       1.344  -2.426  11.636  1.00  0.00     0.053 C 
ENDROOT
BRANCH   1   2
ATOM      2  C   UNL     1       2.590  -3.146  12.046  1.00  0.00     0.041 C 
ATOM      3  O   UNL     1       3.297  -2.702  12.989  1.00  0.00    -0.550 OA
ATOM      4  O   UNL     1       2.999  -4.279  11.354  1.00  0.00    -0.550 OA
ENDBRANCH   1   2
BRANCH   1   5
ATOM      5  C   UNL     1       1.348  -0.994  12.184  1.00  0.00     0.006 C 
BRANCH   5   6
ATOM      6  C   UNL     1       1.760   0.041  11.125  1.00  0.00    -0.003 C 
ATOM      7  C   UNL     1       3.218   0.481  11.264  1.00  0.00     0.004 C 
ENDBRANCH   5   6
ENDBRANCH   1   5
TORSDOF 3
ENDMDL
MODEL 9
REMARK VINA RESULT:    -2.328      2.431      3.824
REMARK INTER + INTRA:          -2.815
REMARK INTER:                  -2.789
REMARK INTRA:                  -0.026
REMARK UNBOUND:                -0.078
REMARK SMILES CCCCC(=O)[O-]
REMARK SMILES IDX 4 1 5 2 6 3 7 4 3 5 2 6 1 7
REMARK H PARENT
REMARK Flexibility Score: inf
ROOT
ATOM      1  C   UNL     1       1.490  -4.967  11.311  1.00  0.00     0.053 C 
ENDROOT
BRANCH   1   2
ATOM      2  C   UNL     1       2.773  -5.731  11.392  1.00  0.00     0.041 C 
ATOM      3  O   UNL     1       3.642  -5.608  10.488  1.00  0.00    -0.550 OA
ATOM      4  O   UNL     1       2.992  -6.617  12.440  1.00  0.00    -0.550 OA
ENDBRANCH   1   2
BRANCH   1   5
ATOM      5  C   UNL     1       1.558  -3.711  12.189  1.00  0.00     0.006 C 
BRANCH   5   6
ATOM      6  C   UNL     1       1.194  -2.433  11.417  1.00  0.00    -0.003 C 
ATOM      7  C   UNL     1       1.419  -1.163  12.238  1.00  0.00     0.004 C 
ENDBRANCH   5   6
ENDBRANCH   1   5
TORSDOF 3
ENDMDL
