MODEL 1
REMARK VINA RESULT:    -6.396      0.000      0.000
REMARK INTER + INTRA:          -7.860
REMARK INTER:                  -7.704
REMARK INTRA:                  -0.156
REMARK UNBOUND:                -0.156
REMARK SMILES O=c1c(O)c(-c2ccc(O)c(O)c2)oc2cc(O)cc(O)c12
REMARK SMILES IDX 5 1 3 2 2 3 1 4 22 5 20 6 19 7 17 8 16 9 15 10 14 11 6 12
REMARK SMILES IDX 7 13 8 14 9 15 13 16 11 17 10 18 12 20 4 22 21 24 18 26
REMARK H PARENT 10 19 12 21 4 23 21 25 18 27
REMARK Flexibility Score: inf
ROOT
ATOM      1  C   UNL     1      18.221 -13.473  21.595  1.00  0.00     0.180 A 
ATOM      2  C   UNL     1      18.370 -12.312  22.372  1.00  0.00     0.208 A 
ATOM      3  C   UNL     1      18.655 -12.442  23.741  1.00  0.00     0.238 A 
ATOM      4  O   UNL     1      18.734 -11.401  24.443  1.00  0.00    -0.285 OA
ATOM      5  C   UNL     1      18.803 -13.729  24.311  1.00  0.00     0.111 A 
ATOM      6  C   UNL     1      19.132 -13.977  25.678  1.00  0.00     0.134 A 
ATOM      7  C   UNL     1      19.123 -15.290  26.163  1.00  0.00     0.093 A 
ATOM      8  C   UNL     1      18.863 -16.370  25.315  1.00  0.00     0.123 A 
ATOM      9  C   UNL     1      18.601 -16.142  23.966  1.00  0.00     0.094 A 
ATOM     10  C   UNL     1      18.565 -14.840  23.461  1.00  0.00     0.146 A 
ATOM     11  O   UNL     1      18.300 -14.667  22.172  1.00  0.00    -0.452 OA
ENDROOT
BRANCH   1  12
ATOM     12  C   UNL     1      17.944 -13.418  20.141  1.00  0.00     0.025 A 
ATOM     13  C   UNL     1      16.788 -14.032  19.633  1.00  0.00     0.016 A 
ATOM     14  C   UNL     1      16.520 -14.010  18.262  1.00  0.00     0.051 A 
ATOM     15  C   UNL     1      17.406 -13.389  17.377  1.00  0.00     0.157 A 
ATOM     16  C   UNL     1      18.846 -12.812  19.247  1.00  0.00     0.062 A 
ATOM     17  C   UNL     1      18.578 -12.790  17.871  1.00  0.00     0.158 A 
BRANCH  15  18
ATOM     18  O   UNL     1      17.109 -13.380  16.015  1.00  0.00    -0.504 OA
ATOM     19  H   UNL     1      17.831 -13.308  15.308  1.00  0.00     0.293 HD
ENDBRANCH  15  18
BRANCH  17  20
ATOM     20  O   UNL     1      19.473 -12.182  16.992  1.00  0.00    -0.504 OA
ATOM     21  H   UNL     1      20.446 -12.464  16.947  1.00  0.00     0.293 HD
ENDBRANCH  17  20
ENDBRANCH   1  12
BRANCH   2  22
ATOM     22  O   UNL     1      18.197 -11.052  21.794  1.00  0.00    -0.502 OA
ATOM     23  H   UNL     1      18.314 -10.888  20.802  1.00  0.00     0.293 HD
ENDBRANCH   2  22
BRANCH   6  24
ATOM     24  O   UNL     1      19.496 -12.979  26.587  1.00  0.00    -0.507 OA
ATOM     25  H   UNL     1      18.941 -12.162  26.796  1.00  0.00     0.293 HD
ENDBRANCH   6  24
BRANCH   8  26
ATOM     26  O   UNL     1      18.873 -17.675  25.802  1.00  0.00    -0.508 OA
ATOM     27  H   UNL     1      19.250 -18.442  25.257  1.00  0.00     0.293 HD
ENDBRANCH   8  26
TORSDOF 6
ENDMDL
MODEL 2
REMARK VINA RESULT:    -6.385      2.663      7.623
REMARK INTER + INTRA:          -7.847
REMARK INTER:                  -7.519
REMARK INTRA:                  -0.328
REMARK UNBOUND:                -0.156
REMARK SMILES O=c1c(O)c(-c2ccc(O)c(O)c2)oc2cc(O)cc(O)c12
REMARK SMILES IDX 5 1 3 2 2 3 1 4 22 5 20 6 19 7 17 8 16 9 15 10 14 11 6 12
REMARK SMILES IDX 7 13 8 14 9 15 13 16 11 17 10 18 12 20 4 22 21 24 18 26
REMARK H PARENT 10 19 12 21 4 23 21 25 18 27
REMARK Flexibility Score: inf
ROOT
ATOM      1  C   UNL     1      19.772 -14.176  25.443  1.00  0.00     0.180 A 
ATOM      2  C   UNL     1      21.098 -14.083  24.988  1.00  0.00     0.208 A 
ATOM      3  C   UNL     1      21.335 -13.902  23.615  1.00  0.00     0.238 A 
ATOM      4  O   UNL     1      22.525 -13.874  23.207  1.00  0.00    -0.285 OA
ATOM      5  C   UNL     1      20.245 -13.800  22.719  1.00  0.00     0.111 A 
ATOM      6  C   UNL     1      20.369 -13.575  21.315  1.00  0.00     0.134 A 
ATOM      7  C   UNL     1      19.227 -13.622  20.505  1.00  0.00     0.093 A 
ATOM      8  C   UNL     1      17.959 -13.820  21.058  1.00  0.00     0.123 A 
ATOM      9  C   UNL     1      17.822 -13.980  22.434  1.00  0.00     0.094 A 
ATOM     10  C   UNL     1      18.946 -13.975  23.264  1.00  0.00     0.146 A 
ATOM     11  O   UNL     1      18.771 -14.142  24.569  1.00  0.00    -0.452 OA
ENDROOT
BRANCH   1  12
ATOM     12  C   UNL     1      19.440 -14.342  26.876  1.00  0.00     0.025 A 
ATOM     13  C   UNL     1      19.157 -15.623  27.377  1.00  0.00     0.016 A 
ATOM     14  C   UNL     1      18.821 -15.800  28.721  1.00  0.00     0.051 A 
ATOM     15  C   UNL     1      18.749 -14.701  29.582  1.00  0.00     0.157 A 
ATOM     16  C   UNL     1      19.346 -13.235  27.740  1.00  0.00     0.062 A 
ATOM     17  C   UNL     1      19.009 -13.411  29.089  1.00  0.00     0.158 A 
BRANCH  15  18
ATOM     18  O   UNL     1      18.414 -14.909  30.920  1.00  0.00    -0.504 OA
ATOM     19  H   UNL     1      18.595 -14.214  31.634  1.00  0.00     0.293 HD
ENDBRANCH  15  18
BRANCH  17  20
ATOM     20  O   UNL     1      18.924 -12.309  29.939  1.00  0.00    -0.504 OA
ATOM     21  H   UNL     1      18.295 -12.299  30.734  1.00  0.00     0.293 HD
ENDBRANCH  17  20
ENDBRANCH   1  12
BRANCH   2  22
ATOM     22  O   UNL     1      22.160 -14.209  25.886  1.00  0.00    -0.502 OA
ATOM     23  H   UNL     1      22.911 -14.875  25.752  1.00  0.00     0.293 HD
ENDBRANCH   2  22
BRANCH   6  24
ATOM     24  O   UNL     1      21.575 -13.278  20.675  1.00  0.00    -0.507 OA
ATOM     25  H   UNL     1      21.903 -12.345  20.471  1.00  0.00     0.293 HD
ENDBRANCH   6  24
BRANCH   8  26
ATOM     26  O   UNL     1      16.827 -13.849  20.246  1.00  0.00    -0.508 OA
ATOM     27  H   UNL     1      16.487 -14.714  19.843  1.00  0.00     0.293 HD
ENDBRANCH   8  26
TORSDOF 6
ENDMDL
MODEL 3
REMARK VINA RESULT:    -6.318      3.101      5.973
REMARK INTER + INTRA:          -7.766
REMARK INTER:                  -7.461
REMARK INTRA:                  -0.305
REMARK UNBOUND:                -0.156
REMARK SMILES O=c1c(O)c(-c2ccc(O)c(O)c2)oc2cc(O)cc(O)c12
REMARK SMILES IDX 5 1 3 2 2 3 1 4 22 5 20 6 19 7 17 8 16 9 15 10 14 11 6 12
REMARK SMILES IDX 7 13 8 14 9 15 13 16 11 17 10 18 12 20 4 22 21 24 18 26
REMARK H PARENT 10 19 12 21 4 23 21 25 18 27
REMARK Flexibility Score: inf
ROOT
ATOM      1  C   UNL     1      19.224 -14.407  26.474  1.00  0.00     0.180 A 
ATOM      2  C   UNL     1      19.150 -15.675  27.075  1.00  0.00     0.208 A 
ATOM      3  C   UNL     1      19.071 -15.760  28.475  1.00  0.00     0.238 A 
ATOM      4  O   UNL     1      19.060 -16.899  29.010  1.00  0.00    -0.285 OA
ATOM      5  C   UNL     1      19.051 -14.578  29.253  1.00  0.00     0.111 A 
ATOM      6  C   UNL     1      18.933 -14.547  30.675  1.00  0.00     0.134 A 
ATOM      7  C   UNL     1      19.055 -13.327  31.351  1.00  0.00     0.093 A 
ATOM      8  C   UNL     1      19.226 -12.129  30.651  1.00  0.00     0.123 A 
ATOM      9  C   UNL     1      19.282 -12.144  29.260  1.00  0.00     0.094 A 
ATOM     10  C   UNL     1      19.200 -13.349  28.559  1.00  0.00     0.146 A 
ATOM     11  O   UNL     1      19.269 -13.319  27.234  1.00  0.00    -0.452 OA
ENDROOT
BRANCH   1  12
ATOM     12  C   UNL     1      19.285 -14.234  25.004  1.00  0.00     0.025 A 
ATOM     13  C   UNL     1      20.507 -13.906  24.396  1.00  0.00     0.016 A 
ATOM     14  C   UNL     1      20.582 -13.718  23.014  1.00  0.00     0.051 A 
ATOM     15  C   UNL     1      19.438 -13.839  22.220  1.00  0.00     0.157 A 
ATOM     16  C   UNL     1      18.130 -14.335  24.206  1.00  0.00     0.062 A 
ATOM     17  C   UNL     1      18.204 -14.145  22.819  1.00  0.00     0.158 A 
BRANCH  15  18
ATOM     18  O   UNL     1      19.544 -13.649  20.843  1.00  0.00    -0.504 OA
ATOM     19  H   UNL     1      19.856 -12.772  20.444  1.00  0.00     0.293 HD
ENDBRANCH  15  18
BRANCH  17  20
ATOM     20  O   UNL     1      17.056 -14.253  22.036  1.00  0.00    -0.504 OA
ATOM     21  H   UNL     1      16.190 -14.625  22.410  1.00  0.00     0.293 HD
ENDBRANCH  17  20
ENDBRANCH   1  12
BRANCH   2  22
ATOM     22  O   UNL     1      19.195 -16.829  26.289  1.00  0.00    -0.502 OA
ATOM     23  H   UNL     1      18.930 -17.740  26.645  1.00  0.00     0.293 HD
ENDBRANCH   2  22
BRANCH   6  24
ATOM     24  O   UNL     1      18.670 -15.672  31.462  1.00  0.00    -0.507 OA
ATOM     25  H   UNL     1      18.295 -15.643  32.399  1.00  0.00     0.293 HD
ENDBRANCH   6  24
BRANCH   8  26
ATOM     26  O   UNL     1      19.331 -10.917  31.330  1.00  0.00    -0.508 OA
ATOM     27  H   UNL     1      18.797 -10.104  31.049  1.00  0.00     0.293 HD
ENDBRANCH   8  26
TORSDOF 6
ENDMDL
MODEL 4
REMARK VINA RESULT:    -6.214      5.192     10.657
REMARK INTER + INTRA:          -7.642
REMARK INTER:                  -7.457
REMARK INTRA:                  -0.184
REMARK UNBOUND:                -0.156
REMARK SMILES O=c1c(O)c(-c2ccc(O)c(O)c2)oc2cc(O)cc(O)c12
REMARK SMILES IDX 5 1 3 2 2 3 1 4 22 5 20 6 19 7 17 8 16 9 15 10 14 11 6 12
REMARK SMILES IDX 7 13 8 14 9 15 13 16 11 17 10 18 12 20 4 22 21 24 18 26
REMARK H PARENT 10 19 12 21 4 23 21 25 18 27
REMARK Flexibility Score: inf
ROOT
ATOM      1  C   UNL     1      19.289 -14.258  30.446  1.00  0.00     0.180 A 
ATOM      2  C   UNL     1      18.640 -15.503  30.513  1.00  0.00     0.208 A 
ATOM      3  C   UNL     1      18.333 -16.175  29.318  1.00  0.00     0.238 A 
ATOM      4  O   UNL     1      17.704 -17.263  29.383  1.00  0.00    -0.285 OA
ATOM      5  C   UNL     1      18.693 -15.602  28.075  1.00  0.00     0.111 A 
ATOM      6  C   UNL     1      18.467 -16.215  26.806  1.00  0.00     0.134 A 
ATOM      7  C   UNL     1      18.745 -15.499  25.635  1.00  0.00     0.093 A 
ATOM      8  C   UNL     1      19.303 -14.219  25.688  1.00  0.00     0.123 A 
ATOM      9  C   UNL     1      19.582 -13.638  26.922  1.00  0.00     0.094 A 
ATOM     10  C   UNL     1      19.281 -14.311  28.108  1.00  0.00     0.146 A 
ATOM     11  O   UNL     1      19.554 -13.716  29.263  1.00  0.00    -0.452 OA
ENDROOT
BRANCH   1  12
ATOM     12  C   UNL     1      19.667 -13.501  31.661  1.00  0.00     0.025 A 
ATOM     13  C   UNL     1      19.119 -12.227  31.881  1.00  0.00     0.016 A 
ATOM     14  C   UNL     1      19.479 -11.487  33.010  1.00  0.00     0.051 A 
ATOM     15  C   UNL     1      20.401 -11.999  33.927  1.00  0.00     0.157 A 
ATOM     16  C   UNL     1      20.611 -14.006  32.575  1.00  0.00     0.062 A 
ATOM     17  C   UNL     1      20.973 -13.264  33.708  1.00  0.00     0.158 A 
BRANCH  15  18
ATOM     18  O   UNL     1      20.738 -11.238  35.047  1.00  0.00    -0.504 OA
ATOM     19  H   UNL     1      21.577 -11.416  35.584  1.00  0.00     0.293 HD
ENDBRANCH  15  18
BRANCH  17  20
ATOM     20  O   UNL     1      21.904 -13.774  34.611  1.00  0.00    -0.504 OA
ATOM     21  H   UNL     1      22.626 -13.189  35.018  1.00  0.00     0.293 HD
ENDBRANCH  17  20
ENDBRANCH   1  12
BRANCH   2  22
ATOM     22  O   UNL     1      18.274 -16.040  31.750  1.00  0.00    -0.502 OA
ATOM     23  H   UNL     1      18.149 -15.468  32.576  1.00  0.00     0.293 HD
ENDBRANCH   2  22
BRANCH   6  24
ATOM     24  O   UNL     1      18.000 -17.522  26.641  1.00  0.00    -0.507 OA
ATOM     25  H   UNL     1      18.547 -18.285  26.272  1.00  0.00     0.293 HD
ENDBRANCH   6  24
BRANCH   8  26
ATOM     26  O   UNL     1      19.591 -13.520  24.518  1.00  0.00    -0.508 OA
ATOM     27  H   UNL     1      18.966 -12.808  24.158  1.00  0.00     0.293 HD
ENDBRANCH   8  26
TORSDOF 6
ENDMDL
MODEL 5
REMARK VINA RESULT:    -6.205      3.574      6.428
REMARK INTER + INTRA:          -7.630
REMARK INTER:                  -7.323
REMARK INTRA:                  -0.306
REMARK UNBOUND:                -0.156
REMARK SMILES O=c1c(O)c(-c2ccc(O)c(O)c2)oc2cc(O)cc(O)c12
REMARK SMILES IDX 5 1 3 2 2 3 1 4 22 5 20 6 19 7 17 8 16 9 15 10 14 11 6 12
REMARK SMILES IDX 7 13 8 14 9 15 13 16 11 17 10 18 12 20 4 22 21 24 18 26
REMARK H PARENT 10 19 12 21 4 23 21 25 18 27
REMARK Flexibility Score: inf
ROOT
ATOM      1  C   UNL     1      19.707 -13.998  26.911  1.00  0.00     0.180 A 
ATOM      2  C   UNL     1      20.862 -14.722  27.252  1.00  0.00     0.208 A 
ATOM      3  C   UNL     1      21.386 -14.596  28.549  1.00  0.00     0.238 A 
ATOM      4  O   UNL     1      22.451 -15.205  28.832  1.00  0.00    -0.285 OA
ATOM      5  C   UNL     1      20.740 -13.762  29.493  1.00  0.00     0.111 A 
ATOM      6  C   UNL     1      21.161 -13.593  30.846  1.00  0.00     0.134 A 
ATOM      7  C   UNL     1      20.524 -12.642  31.653  1.00  0.00     0.093 A 
ATOM      8  C   UNL     1      19.439 -11.902  31.175  1.00  0.00     0.123 A 
ATOM      9  C   UNL     1      18.983 -12.105  29.875  1.00  0.00     0.094 A 
ATOM     10  C   UNL     1      19.621 -13.019  29.034  1.00  0.00     0.146 A 
ATOM     11  O   UNL     1      19.161 -13.173  27.798  1.00  0.00    -0.452 OA
ENDROOT
BRANCH   1  12
ATOM     12  C   UNL     1      19.082 -14.097  25.573  1.00  0.00     0.025 A 
ATOM     13  C   UNL     1      19.263 -13.058  24.646  1.00  0.00     0.016 A 
ATOM     14  C   UNL     1      18.665 -13.122  23.386  1.00  0.00     0.051 A 
ATOM     15  C   UNL     1      17.864 -14.213  23.036  1.00  0.00     0.157 A 
ATOM     16  C   UNL     1      18.259 -15.185  25.228  1.00  0.00     0.062 A 
ATOM     17  C   UNL     1      17.656 -15.249  23.963  1.00  0.00     0.158 A 
BRANCH  15  18
ATOM     18  O   UNL     1      17.282 -14.250  21.770  1.00  0.00    -0.504 OA
ATOM     19  H   UNL     1      17.594 -13.648  21.017  1.00  0.00     0.293 HD
ENDBRANCH  15  18
BRANCH  17  20
ATOM     20  O   UNL     1      16.848 -16.333  23.627  1.00  0.00    -0.504 OA
ATOM     21  H   UNL     1      17.151 -17.036  22.962  1.00  0.00     0.293 HD
ENDBRANCH  17  20
ENDBRANCH   1  12
BRANCH   2  22
ATOM     22  O   UNL     1      21.497 -15.522  26.299  1.00  0.00    -0.502 OA
ATOM     23  H   UNL     1      22.371 -16.000  26.484  1.00  0.00     0.293 HD
ENDBRANCH   2  22
BRANCH   6  24
ATOM     24  O   UNL     1      22.173 -14.345  31.449  1.00  0.00    -0.507 OA
ATOM     25  H   UNL     1      22.101 -14.781  32.357  1.00  0.00     0.293 HD
ENDBRANCH   6  24
BRANCH   8  26
ATOM     26  O   UNL     1      18.800 -10.970  31.989  1.00  0.00    -0.508 OA
ATOM     27  H   UNL     1      18.236 -10.224  31.600  1.00  0.00     0.293 HD
ENDBRANCH   8  26
TORSDOF 6
ENDMDL
MODEL 6
REMARK VINA RESULT:    -6.063      2.209      7.478
REMARK INTER + INTRA:          -7.459
REMARK INTER:                  -7.199
REMARK INTRA:                  -0.259
REMARK UNBOUND:                -0.156
REMARK SMILES O=c1c(O)c(-c2ccc(O)c(O)c2)oc2cc(O)cc(O)c12
REMARK SMILES IDX 5 1 3 2 2 3 1 4 22 5 20 6 19 7 17 8 16 9 15 10 14 11 6 12
REMARK SMILES IDX 7 13 8 14 9 15 13 16 11 17 10 18 12 20 4 22 21 24 18 26
REMARK H PARENT 10 19 12 21 4 23 21 25 18 27
REMARK Flexibility Score: inf
ROOT
ATOM      1  C   UNL     1      19.436 -15.034  23.917  1.00  0.00     0.180 A 
ATOM      2  C   UNL     1      20.439 -15.827  23.336  1.00  0.00     0.208 A 
ATOM      3  C   UNL     1      20.676 -15.721  21.955  1.00  0.00     0.238 A 
ATOM      4  O   UNL     1      21.538 -16.472  21.431  1.00  0.00    -0.285 OA
ATOM      5  C   UNL     1      19.917 -14.813  21.178  1.00  0.00     0.111 A 
ATOM      6  C   UNL     1      20.100 -14.594  19.780  1.00  0.00     0.134 A 
ATOM      7  C   UNL     1      19.206 -13.768  19.088  1.00  0.00     0.093 A 
ATOM      8  C   UNL     1      18.176 -13.101  19.756  1.00  0.00     0.123 A 
ATOM      9  C   UNL     1      18.028 -13.261  21.131  1.00  0.00     0.094 A 
ATOM     10  C   UNL     1      18.881 -14.108  21.843  1.00  0.00     0.146 A 
ATOM     11  O   UNL     1      18.697 -14.240  23.151  1.00  0.00    -0.452 OA
ENDROOT
BRANCH   1  12
ATOM     12  C   UNL     1      19.145 -15.072  25.369  1.00  0.00     0.025 A 
ATOM     13  C   UNL     1      19.612 -14.038  26.195  1.00  0.00     0.016 A 
ATOM     14  C   UNL     1      19.367 -14.065  27.570  1.00  0.00     0.051 A 
ATOM     15  C   UNL     1      18.667 -15.129  28.143  1.00  0.00     0.157 A 
ATOM     16  C   UNL     1      18.458 -16.154  25.951  1.00  0.00     0.062 A 
ATOM     17  C   UNL     1      18.212 -16.182  27.330  1.00  0.00     0.158 A 
BRANCH  15  18
ATOM     18  O   UNL     1      18.435 -15.127  29.519  1.00  0.00    -0.504 OA
ATOM     19  H   UNL     1      19.086 -15.541  30.174  1.00  0.00     0.293 HD
ENDBRANCH  15  18
BRANCH  17  20
ATOM     20  O   UNL     1      17.525 -17.254  27.898  1.00  0.00    -0.504 OA
ATOM     21  H   UNL     1      17.683 -18.208  27.591  1.00  0.00     0.293 HD
ENDBRANCH  17  20
ENDBRANCH   1  12
BRANCH   2  22
ATOM     22  O   UNL     1      21.161 -16.733  24.117  1.00  0.00    -0.502 OA
ATOM     23  H   UNL     1      21.500 -16.504  25.043  1.00  0.00     0.293 HD
ENDBRANCH   2  22
BRANCH   6  24
ATOM     24  O   UNL     1      21.150 -15.139  19.034  1.00  0.00    -0.507 OA
ATOM     25  H   UNL     1      21.533 -14.728  18.196  1.00  0.00     0.293 HD
ENDBRANCH   6  24
BRANCH   8  26
ATOM     26  O   UNL     1      17.300 -12.268  19.063  1.00  0.00    -0.508 OA
ATOM     27  H   UNL     1      16.765 -11.550  19.536  1.00  0.00     0.293 HD
ENDBRANCH   8  26
TORSDOF 6
ENDMDL
MODEL 7
REMARK VINA RESULT:    -6.027      5.188      8.587
REMARK INTER + INTRA:          -7.416
REMARK INTER:                  -7.134
REMARK INTRA:                  -0.282
REMARK UNBOUND:                -0.156
REMARK SMILES O=c1c(O)c(-c2ccc(O)c(O)c2)oc2cc(O)cc(O)c12
REMARK SMILES IDX 5 1 3 2 2 3 1 4 22 5 20 6 19 7 17 8 16 9 15 10 14 11 6 12
REMARK SMILES IDX 7 13 8 14 9 15 13 16 11 17 10 18 12 20 4 22 21 24 18 26
REMARK H PARENT 10 19 12 21 4 23 21 25 18 27
REMARK Flexibility Score: inf
ROOT
ATOM      1  C   UNL     1      19.795 -14.204  29.485  1.00  0.00     0.180 A 
ATOM      2  C   UNL     1      20.965 -14.706  30.080  1.00  0.00     0.208 A 
ATOM      3  C   UNL     1      21.343 -14.229  31.346  1.00  0.00     0.238 A 
ATOM      4  O   UNL     1      22.420 -14.642  31.849  1.00  0.00    -0.285 OA
ATOM      5  C   UNL     1      20.540 -13.268  32.006  1.00  0.00     0.111 A 
ATOM      6  C   UNL     1      20.807 -12.746  33.307  1.00  0.00     0.134 A 
ATOM      7  C   UNL     1      20.017 -11.704  33.807  1.00  0.00     0.093 A 
ATOM      8  C   UNL     1      18.929 -11.211  33.081  1.00  0.00     0.123 A 
ATOM      9  C   UNL     1      18.625 -11.757  31.837  1.00  0.00     0.094 A 
ATOM     10  C   UNL     1      19.417 -12.771  31.294  1.00  0.00     0.146 A 
ATOM     11  O   UNL     1      19.098 -13.255  30.100  1.00  0.00    -0.452 OA
ENDROOT
BRANCH   1  12
ATOM     12  C   UNL     1      19.318 -14.675  28.165  1.00  0.00     0.025 A 
ATOM     13  C   UNL     1      18.687 -15.926  28.064  1.00  0.00     0.016 A 
ATOM     14  C   UNL     1      18.249 -16.399  26.825  1.00  0.00     0.051 A 
ATOM     15  C   UNL     1      18.446 -15.641  25.667  1.00  0.00     0.157 A 
ATOM     16  C   UNL     1      19.534 -13.923  26.996  1.00  0.00     0.062 A 
ATOM     17  C   UNL     1      19.096 -14.397  25.752  1.00  0.00     0.158 A 
BRANCH  15  18
ATOM     18  O   UNL     1      17.994 -16.138  24.445  1.00  0.00    -0.504 OA
ATOM     19  H   UNL     1      17.097 -15.875  24.056  1.00  0.00     0.293 HD
ENDBRANCH  15  18
BRANCH  17  20
ATOM     20  O   UNL     1      19.308 -13.642  24.599  1.00  0.00    -0.504 OA
ATOM     21  H   UNL     1      19.156 -12.640  24.585  1.00  0.00     0.293 HD
ENDBRANCH  17  20
ENDBRANCH   1  12
BRANCH   2  22
ATOM     22  O   UNL     1      21.755 -15.636  29.401  1.00  0.00    -0.502 OA
ATOM     23  H   UNL     1      22.258 -16.375  29.878  1.00  0.00     0.293 HD
ENDBRANCH   2  22
BRANCH   6  24
ATOM     24  O   UNL     1      21.810 -13.229  34.152  1.00  0.00    -0.507 OA
ATOM     25  H   UNL     1      22.357 -14.060  33.978  1.00  0.00     0.293 HD
ENDBRANCH   6  24
BRANCH   8  26
ATOM     26  O   UNL     1      18.138 -10.185  33.594  1.00  0.00    -0.508 OA
ATOM     27  H   UNL     1      17.135 -10.168  33.453  1.00  0.00     0.293 HD
ENDBRANCH   8  26
TORSDOF 6
ENDMDL
MODEL 8
REMARK VINA RESULT:    -5.979      2.121      4.171
REMARK INTER + INTRA:          -7.358
REMARK INTER:                  -7.031
REMARK INTRA:                  -0.327
REMARK UNBOUND:                -0.156
REMARK SMILES O=c1c(O)c(-c2ccc(O)c(O)c2)oc2cc(O)cc(O)c12
REMARK SMILES IDX 5 1 3 2 2 3 1 4 22 5 20 6 19 7 17 8 16 9 15 10 14 11 6 12
REMARK SMILES IDX 7 13 8 14 9 15 13 16 11 17 10 18 12 20 4 22 21 24 18 26
REMARK H PARENT 10 19 12 21 4 23 21 25 18 27
REMARK Flexibility Score: inf
ROOT
ATOM      1  C   UNL     1      18.746 -15.207  24.106  1.00  0.00     0.180 A 
ATOM      2  C   UNL     1      17.951 -16.304  24.479  1.00  0.00     0.208 A 
ATOM      3  C   UNL     1      17.811 -16.610  25.843  1.00  0.00     0.238 A 
ATOM      4  O   UNL     1      17.142 -17.625  26.169  1.00  0.00    -0.285 OA
ATOM      5  C   UNL     1      18.453 -15.806  26.815  1.00  0.00     0.111 A 
ATOM      6  C   UNL     1      18.347 -16.000  28.225  1.00  0.00     0.134 A 
ATOM      7  C   UNL     1      19.130 -15.225  29.089  1.00  0.00     0.093 A 
ATOM      8  C   UNL     1      19.967 -14.220  28.597  1.00  0.00     0.123 A 
ATOM      9  C   UNL     1      20.031 -13.983  27.227  1.00  0.00     0.094 A 
ATOM     10  C   UNL     1      19.290 -14.764  26.337  1.00  0.00     0.146 A 
ATOM     11  O   UNL     1      19.389 -14.512  25.037  1.00  0.00    -0.452 OA
ENDROOT
BRANCH   1  12
ATOM     12  C   UNL     1      18.922 -14.808  22.691  1.00  0.00     0.025 A 
ATOM     13  C   UNL     1      19.980 -15.352  21.945  1.00  0.00     0.016 A 
ATOM     14  C   UNL     1      20.176 -14.972  20.615  1.00  0.00     0.051 A 
ATOM     15  C   UNL     1      19.332 -14.034  20.014  1.00  0.00     0.157 A 
ATOM     16  C   UNL     1      18.086 -13.848  22.091  1.00  0.00     0.062 A 
ATOM     17  C   UNL     1      18.283 -13.466  20.757  1.00  0.00     0.158 A 
BRANCH  15  18
ATOM     18  O   UNL     1      19.552 -13.677  18.684  1.00  0.00    -0.504 OA
ATOM     19  H   UNL     1      20.450 -13.806  18.234  1.00  0.00     0.293 HD
ENDBRANCH  15  18
BRANCH  17  20
ATOM     20  O   UNL     1      17.446 -12.519  20.169  1.00  0.00    -0.504 OA
ATOM     21  H   UNL     1      16.455 -12.692  20.039  1.00  0.00     0.293 HD
ENDBRANCH  17  20
ENDBRANCH   1  12
BRANCH   2  22
ATOM     22  O   UNL     1      17.344 -17.097  23.503  1.00  0.00    -0.502 OA
ATOM     23  H   UNL     1      17.871 -17.716  22.899  1.00  0.00     0.293 HD
ENDBRANCH   2  22
BRANCH   6  24
ATOM     24  O   UNL     1      17.475 -16.914  28.824  1.00  0.00    -0.507 OA
ATOM     25  H   UNL     1      16.733 -17.400  28.343  1.00  0.00     0.293 HD
ENDBRANCH   6  24
BRANCH   8  26
ATOM     26  O   UNL     1      20.731 -13.443  29.465  1.00  0.00    -0.508 OA
ATOM     27  H   UNL     1      21.322 -13.864  30.172  1.00  0.00     0.293 HD
ENDBRANCH   8  26
TORSDOF 6
ENDMDL
MODEL 9
REMARK VINA RESULT:    -5.898      2.589      3.976
REMARK INTER + INTRA:          -7.260
REMARK INTER:                  -7.111
REMARK INTRA:                  -0.149
REMARK UNBOUND:                -0.156
REMARK SMILES O=c1c(O)c(-c2ccc(O)c(O)c2)oc2cc(O)cc(O)c12
REMARK SMILES IDX 5 1 3 2 2 3 1 4 22 5 20 6 19 7 17 8 16 9 15 10 14 11 6 12
REMARK SMILES IDX 7 13 8 14 9 15 13 16 11 17 10 18 12 20 4 22 21 24 18 26
REMARK H PARENT 10 19 12 21 4 23 21 25 18 27
REMARK Flexibility Score: inf
ROOT
ATOM      1  C   UNL     1      20.046 -13.941  24.291  1.00  0.00     0.180 A 
ATOM      2  C   UNL     1      21.445 -13.984  24.409  1.00  0.00     0.208 A 
ATOM      3  C   UNL     1      22.014 -14.352  25.640  1.00  0.00     0.238 A 
ATOM      4  O   UNL     1      23.267 -14.335  25.754  1.00  0.00    -0.285 OA
ATOM      5  C   UNL     1      21.177 -14.687  26.730  1.00  0.00     0.111 A 
ATOM      6  C   UNL     1      21.645 -15.113  28.010  1.00  0.00     0.134 A 
ATOM      7  C   UNL     1      20.730 -15.292  29.055  1.00  0.00     0.093 A 
ATOM      8  C   UNL     1      19.358 -15.126  28.848  1.00  0.00     0.123 A 
ATOM      9  C   UNL     1      18.888 -14.770  27.587  1.00  0.00     0.094 A 
ATOM     10  C   UNL     1      19.778 -14.547  26.534  1.00  0.00     0.146 A 
ATOM     11  O   UNL     1      19.287 -14.198  25.351  1.00  0.00    -0.452 OA
ENDROOT
BRANCH   1  12
ATOM     12  C   UNL     1      19.372 -13.587  23.021  1.00  0.00     0.025 A 
ATOM     13  C   UNL     1      19.550 -14.404  21.893  1.00  0.00     0.016 A 
ATOM     14  C   UNL     1      18.941 -14.076  20.679  1.00  0.00     0.051 A 
ATOM     15  C   UNL     1      18.160 -12.923  20.568  1.00  0.00     0.157 A 
ATOM     16  C   UNL     1      18.603 -12.415  22.902  1.00  0.00     0.062 A 
ATOM     17  C   UNL     1      17.992 -12.085  21.684  1.00  0.00     0.158 A 
BRANCH  15  18
ATOM     18  O   UNL     1      17.562 -12.623  19.344  1.00  0.00    -0.504 OA
ATOM     19  H   UNL     1      17.753 -11.761  18.849  1.00  0.00     0.293 HD
ENDBRANCH  15  18
BRANCH  17  20
ATOM     20  O   UNL     1      17.226 -10.925  21.576  1.00  0.00    -0.504 OA
ATOM     21  H   UNL     1      17.152 -10.264  22.341  1.00  0.00     0.293 HD
ENDBRANCH  17  20
ENDBRANCH   1  12
BRANCH   2  22
ATOM     22  O   UNL     1      22.253 -13.627  23.326  1.00  0.00    -0.502 OA
ATOM     23  H   UNL     1      22.998 -14.221  22.983  1.00  0.00     0.293 HD
ENDBRANCH   2  22
BRANCH   6  24
ATOM     24  O   UNL     1      22.984 -15.396  28.297  1.00  0.00    -0.507 OA
ATOM     25  H   UNL     1      23.701 -14.699  28.434  1.00  0.00     0.293 HD
ENDBRANCH   6  24
BRANCH   8  26
ATOM     26  O   UNL     1      18.454 -15.323  29.889  1.00  0.00    -0.508 OA
ATOM     27  H   UNL     1      17.988 -16.212  30.026  1.00  0.00     0.293 HD
ENDBRANCH   8  26
TORSDOF 6
ENDMDL
