MODEL 1
REMARK VINA RESULT:    -3.536      0.000      0.000
REMARK INTER + INTRA:          -5.741
REMARK INTER:                  -5.189
REMARK INTRA:                  -0.552
REMARK UNBOUND:                -0.552
REMARK SMILES C=C1C=C[C@H](C(C)C)CCC(C)=CCC1
REMARK SMILES IDX 3 1 4 2 5 3 9 4 10 5 11 6 12 7 13 8 6 10 7 11 8 12 2 13 1 14
REMARK SMILES IDX 15 15 14 16
REMARK H PARENT
REMARK Flexibility Score: 70.00
ROOT
ATOM      1  C   UNL     1       1.146  16.865  16.479  1.00  0.00    -0.001 C 
ATOM      2  C   UNL     1       1.336  15.623  16.949  1.00  0.00    -0.023 C 
ENDROOT
BRANCH   2   3
ATOM      3  C   UNL     1       0.711  14.380  16.341  1.00  0.00     0.014 C 
BRANCH   3   4
ATOM      4  C   UNL     1       1.791  13.440  15.719  1.00  0.00     0.012 C 
BRANCH   4   5
ATOM      5  C   UNL     1       1.782  13.278  14.175  1.00  0.00     0.031 C 
BRANCH   5   6
ATOM      6  C   UNL     1       2.697  14.237  13.427  1.00  0.00    -0.077 C 
ATOM      7  C   UNL     1       4.115  13.801  13.143  1.00  0.00     0.039 C 
ATOM      8  C   UNL     1       2.354  15.501  13.077  1.00  0.00    -0.028 CG0
ATOM      9  G   UNL     1       0.971  16.103  13.132  1.00  0.00     0.000 G0
ENDBRANCH   5   6
ENDBRANCH   4   5
ENDBRANCH   3   4
BRANCH   3  10
ATOM     10  C   UNL     1      -0.148  13.642  17.415  1.00  0.00    -0.010 C 
ATOM     11  C   UNL     1      -1.014  14.618  18.231  1.00  0.00     0.008 C 
ATOM     12  C   UNL     1       0.737  12.833  18.383  1.00  0.00     0.008 C 
ENDBRANCH   3  10
ENDBRANCH   2   3
BRANCH   1  13
ATOM     13  C   UNL     1       0.281  17.179  15.325  1.00  0.00    -0.055 C 
ATOM     14  C   UNL     1      -1.041  17.249  15.500  1.00  0.00     0.012 C 
BRANCH  13  15
ATOM     15  C   UNL     1       0.886  17.419  13.961  1.00  0.00     0.039 C 
BRANCH  15  16
ATOM     16  C   UNL     1       0.976  16.116  13.138  1.00  0.00     0.032 CG0
ATOM     17  G   UNL     1       2.353  15.501  13.073  1.00  0.00     0.000 G0
ENDBRANCH  15  16
ENDBRANCH  13  15
ENDBRANCH   1  13
TORSDOF 1
ENDMDL
MODEL 2
REMARK VINA RESULT:    -3.347      1.581      4.278
REMARK INTER + INTRA:          -5.464
REMARK INTER:                  -4.793
REMARK INTRA:                  -0.671
REMARK UNBOUND:                -0.552
REMARK SMILES C=C1C=C[C@H](C(C)C)CCC(C)=CCC1
REMARK SMILES IDX 3 1 4 2 5 3 9 4 10 5 11 6 12 7 13 8 6 10 7 11 8 12 2 13 1 14
REMARK SMILES IDX 15 15 14 16
REMARK H PARENT
REMARK Flexibility Score: 70.00
ROOT
ATOM      1  C   UNL     1       2.272  14.035  16.041  1.00  0.00    -0.001 C 
ATOM      2  C   UNL     1       2.340  13.953  14.703  1.00  0.00    -0.023 C 
ENDROOT
BRANCH   2   3
ATOM      3  C   UNL     1       1.131  13.803  13.799  1.00  0.00     0.014 C 
BRANCH   3   4
ATOM      4  C   UNL     1       0.886  15.089  12.948  1.00  0.00     0.012 C 
BRANCH   4   5
ATOM      5  C   UNL     1       1.425  16.427  13.521  1.00  0.00     0.031 C 
BRANCH   5   6
ATOM      6  C   UNL     1       0.385  17.284  14.228  1.00  0.00    -0.077 C 
ATOM      7  C   UNL     1      -0.495  18.182  13.391  1.00  0.00     0.039 C 
ATOM      8  C   UNL     1       0.254  17.368  15.575  1.00  0.00    -0.028 CG0
ATOM      9  G   UNL     1       0.916  16.476  16.597  1.00  0.00     0.000 G0
ENDBRANCH   5   6
ENDBRANCH   4   5
ENDBRANCH   3   4
BRANCH   3  10
ATOM     10  C   UNL     1       1.297  12.538  12.899  1.00  0.00    -0.010 C 
ATOM     11  C   UNL     1       1.115  11.235  13.698  1.00  0.00     0.008 C 
ATOM     12  C   UNL     1       2.678  12.513  12.216  1.00  0.00     0.008 C 
ENDBRANCH   3  10
ENDBRANCH   2   3
BRANCH   1  13
ATOM     13  C   UNL     1       1.009  13.963  16.800  1.00  0.00    -0.055 C 
ATOM     14  C   UNL     1       0.636  12.798  17.338  1.00  0.00     0.012 C 
BRANCH  13  15
ATOM     15  C   UNL     1       0.148  15.194  16.969  1.00  0.00     0.039 C 
BRANCH  15  16
ATOM     16  C   UNL     1       0.920  16.484  16.616  1.00  0.00     0.032 CG0
ATOM     17  G   UNL     1       0.250  17.361  15.586  1.00  0.00     0.000 G0
ENDBRANCH  15  16
ENDBRANCH  13  15
ENDBRANCH   1  13
TORSDOF 1
ENDMDL
MODEL 3
REMARK VINA RESULT:    -3.309      1.605      4.352
REMARK INTER + INTRA:          -5.408
REMARK INTER:                  -4.832
REMARK INTRA:                  -0.576
REMARK UNBOUND:                -0.552
REMARK SMILES C=C1C=C[C@H](C(C)C)CCC(C)=CCC1
REMARK SMILES IDX 3 1 4 2 5 3 9 4 10 5 11 6 12 7 13 8 6 10 7 11 8 12 2 13 1 14
REMARK SMILES IDX 15 15 14 16
REMARK H PARENT
REMARK Flexibility Score: 70.00
ROOT
ATOM      1  C   UNL     1      -0.016  15.986  13.408  1.00  0.00    -0.001 C 
ATOM      2  C   UNL     1       0.766  14.909  13.241  1.00  0.00    -0.023 C 
ENDROOT
BRANCH   2   3
ATOM      3  C   UNL     1       2.121  14.732  13.902  1.00  0.00     0.014 C 
BRANCH   3   4
ATOM      4  C   UNL     1       2.109  13.556  14.930  1.00  0.00     0.012 C 
BRANCH   4   5
ATOM      5  C   UNL     1       2.219  13.929  16.432  1.00  0.00     0.031 C 
BRANCH   5   6
ATOM      6  C   UNL     1       0.887  14.117  17.143  1.00  0.00    -0.077 C 
ATOM      7  C   UNL     1       0.243  12.915  17.790  1.00  0.00     0.039 C 
ATOM      8  C   UNL     1       0.187  15.279  17.155  1.00  0.00    -0.028 CG0
ATOM      9  G   UNL     1       0.685  16.630  16.702  1.00  0.00     0.000 G0
ENDBRANCH   5   6
ENDBRANCH   4   5
ENDBRANCH   3   4
BRANCH   3  10
ATOM     10  C   UNL     1       3.221  14.535  12.812  1.00  0.00    -0.010 C 
ATOM     11  C   UNL     1       4.472  13.837  13.374  1.00  0.00     0.008 C 
ATOM     12  C   UNL     1       3.640  15.881  12.189  1.00  0.00     0.008 C 
ENDBRANCH   3  10
ENDBRANCH   2   3
BRANCH   1  13
ATOM     13  C   UNL     1       0.359  17.146  14.239  1.00  0.00    -0.055 C 
ATOM     14  C   UNL     1       1.210  18.052  13.750  1.00  0.00     0.012 C 
BRANCH  13  15
ATOM     15  C   UNL     1      -0.216  17.309  15.627  1.00  0.00     0.039 C 
BRANCH  15  16
ATOM     16  C   UNL     1       0.677  16.642  16.697  1.00  0.00     0.032 CG0
ATOM     17  G   UNL     1       0.189  15.297  17.180  1.00  0.00     0.000 G0
ENDBRANCH  15  16
ENDBRANCH  13  15
ENDBRANCH   1  13
TORSDOF 1
ENDMDL
MODEL 4
REMARK VINA RESULT:    -3.213      1.238      1.914
REMARK INTER + INTRA:          -5.267
REMARK INTER:                  -5.291
REMARK INTRA:                   0.024
REMARK UNBOUND:                -0.552
REMARK SMILES C=C1C=C[C@H](C(C)C)CCC(C)=CCC1
REMARK SMILES IDX 3 1 4 2 5 3 9 4 10 5 11 6 12 7 13 8 6 10 7 11 8 12 2 13 1 14
REMARK SMILES IDX 15 15 14 16
REMARK H PARENT
REMARK Flexibility Score: 70.00
ROOT
ATOM      1  C   UNL     1       1.883  16.227  17.896  1.00  0.00    -0.001 C 
ATOM      2  C   UNL     1       1.836  14.894  17.747  1.00  0.00    -0.023 C 
ENDROOT
BRANCH   2   3
ATOM      3  C   UNL     1       1.357  14.197  16.487  1.00  0.00     0.014 C 
BRANCH   3   4
ATOM      4  C   UNL     1       2.549  13.821  15.551  1.00  0.00     0.012 C 
BRANCH   4   5
ATOM      5  C   UNL     1       2.613  14.525  14.170  1.00  0.00     0.031 C 
BRANCH   5   6
ATOM      6  C   UNL     1       1.268  14.699  13.479  1.00  0.00    -0.077 C 
ATOM      7  C   UNL     1       0.757  13.575  12.610  1.00  0.00     0.039 C 
ATOM      8  C   UNL     1       0.534  15.839  13.515  1.00  0.00    -0.028 CG0
ATOM      9  G   UNL     1       0.769  17.028  14.415  1.00  0.00     0.000 G0
ENDBRANCH   5   6
ENDBRANCH   4   5
ENDBRANCH   3   4
BRANCH   3  10
ATOM     10  C   UNL     1       0.502  12.947  16.866  1.00  0.00    -0.010 C 
ATOM     11  C   UNL     1      -0.924  13.028  16.290  1.00  0.00     0.008 C 
ATOM     12  C   UNL     1       0.412  12.771  18.394  1.00  0.00     0.008 C 
ENDBRANCH   3  10
ENDBRANCH   2   3
BRANCH   1  13
ATOM     13  C   UNL     1       1.450  17.181  16.858  1.00  0.00    -0.055 C 
ATOM     14  C   UNL     1       2.051  18.371  16.773  1.00  0.00     0.012 C 
BRANCH  13  15
ATOM     15  C   UNL     1       0.340  16.814  15.899  1.00  0.00     0.039 C 
BRANCH  15  16
ATOM     16  C   UNL     1       0.761  17.026  14.429  1.00  0.00     0.032 CG0
ATOM     17  G   UNL     1       0.530  15.839  13.526  1.00  0.00     0.000 G0
ENDBRANCH  15  16
ENDBRANCH  13  15
ENDBRANCH   1  13
TORSDOF 1
ENDMDL
MODEL 5
REMARK VINA RESULT:    -3.188      2.226      4.121
REMARK INTER + INTRA:          -5.230
REMARK INTER:                  -4.661
REMARK INTRA:                  -0.569
REMARK UNBOUND:                -0.552
REMARK SMILES C=C1C=C[C@H](C(C)C)CCC(C)=CCC1
REMARK SMILES IDX 3 1 4 2 5 3 9 4 10 5 11 6 12 7 13 8 6 10 7 11 8 12 2 13 1 14
REMARK SMILES IDX 15 15 14 16
REMARK H PARENT
REMARK Flexibility Score: 70.00
ROOT
ATOM      1  C   UNL     1      -0.383  15.766  17.321  1.00  0.00    -0.001 C 
ATOM      2  C   UNL     1      -0.942  15.950  16.115  1.00  0.00    -0.023 C 
ENDROOT
BRANCH   2   3
ATOM      3  C   UNL     1      -0.160  15.999  14.815  1.00  0.00     0.014 C 
BRANCH   3   4
ATOM      4  C   UNL     1      -0.610  14.872  13.832  1.00  0.00     0.012 C 
BRANCH   4   5
ATOM      5  C   UNL     1      -0.716  13.434  14.406  1.00  0.00     0.031 C 
BRANCH   5   6
ATOM      6  C   UNL     1       0.617  12.734  14.624  1.00  0.00    -0.077 C 
ATOM      7  C   UNL     1       1.318  12.137  13.428  1.00  0.00     0.039 C 
ATOM      8  C   UNL     1       1.178  12.525  15.841  1.00  0.00    -0.028 CG0
ATOM      9  G   UNL     1       0.739  13.140  17.148  1.00  0.00     0.000 G0
ENDBRANCH   5   6
ENDBRANCH   4   5
ENDBRANCH   3   4
BRANCH   3  10
ATOM     10  C   UNL     1      -0.292  17.415  14.171  1.00  0.00    -0.010 C 
ATOM     11  C   UNL     1       1.082  18.039  13.866  1.00  0.00     0.008 C 
ATOM     12  C   UNL     1      -1.083  18.374  15.081  1.00  0.00     0.008 C 
ENDBRANCH   3  10
ENDBRANCH   2   3
BRANCH   1  13
ATOM     13  C   UNL     1       1.069  15.614  17.533  1.00  0.00    -0.055 C 
ATOM     14  C   UNL     1       1.842  16.702  17.570  1.00  0.00     0.012 C 
BRANCH  13  15
ATOM     15  C   UNL     1       1.675  14.240  17.709  1.00  0.00     0.039 C 
BRANCH  15  16
ATOM     16  C   UNL     1       0.746  13.132  17.166  1.00  0.00     0.032 CG0
ATOM     17  G   UNL     1       1.181  12.528  15.853  1.00  0.00     0.000 G0
ENDBRANCH  15  16
ENDBRANCH  13  15
ENDBRANCH   1  13
TORSDOF 1
ENDMDL
MODEL 6
REMARK VINA RESULT:    -3.083      1.650      3.921
REMARK INTER + INTRA:          -5.077
REMARK INTER:                  -4.615
REMARK INTRA:                  -0.462
REMARK UNBOUND:                -0.552
REMARK SMILES C=C1C=C[C@H](C(C)C)CCC(C)=CCC1
REMARK SMILES IDX 3 1 4 2 5 3 9 4 10 5 11 6 12 7 13 8 6 10 7 11 8 12 2 13 1 14
REMARK SMILES IDX 15 15 14 16
REMARK H PARENT
REMARK Flexibility Score: 70.00
ROOT
ATOM      1  C   UNL     1       1.477  15.601  17.509  1.00  0.00    -0.001 C 
ATOM      2  C   UNL     1       1.028  16.655  16.811  1.00  0.00    -0.023 C 
ENDROOT
BRANCH   2   3
ATOM      3  C   UNL     1       0.454  16.563  15.409  1.00  0.00     0.014 C 
BRANCH   3   4
ATOM      4  C   UNL     1      -0.945  15.868  15.407  1.00  0.00     0.012 C 
BRANCH   4   5
ATOM      5  C   UNL     1      -1.101  14.599  14.528  1.00  0.00     0.031 C 
BRANCH   5   6
ATOM      6  C   UNL     1      -0.047  14.440  13.442  1.00  0.00    -0.077 C 
ATOM      7  C   UNL     1      -0.272  15.127  12.116  1.00  0.00     0.039 C 
ATOM      8  C   UNL     1       1.045  13.643  13.551  1.00  0.00    -0.028 CG0
ATOM      9  G   UNL     1       1.547  12.976  14.809  1.00  0.00     0.000 G0
ENDBRANCH   5   6
ENDBRANCH   4   5
ENDBRANCH   3   4
BRANCH   3  10
ATOM     10  C   UNL     1       0.394  17.985  14.767  1.00  0.00    -0.010 C 
ATOM     11  C   UNL     1      -0.970  18.264  14.112  1.00  0.00     0.008 C 
ATOM     12  C   UNL     1       1.500  18.170  13.710  1.00  0.00     0.008 C 
ENDBRANCH   3  10
ENDBRANCH   2   3
BRANCH   1  13
ATOM     13  C   UNL     1       1.490  14.221  16.987  1.00  0.00    -0.055 C 
ATOM     14  C   UNL     1       0.750  13.287  17.591  1.00  0.00     0.012 C 
BRANCH  13  15
ATOM     15  C   UNL     1       2.332  13.869  15.782  1.00  0.00     0.039 C 
BRANCH  15  16
ATOM     16  C   UNL     1       1.567  12.955  14.799  1.00  0.00     0.032 CG0
ATOM     17  G   UNL     1       1.051  13.648  13.561  1.00  0.00     0.000 G0
ENDBRANCH  15  16
ENDBRANCH  13  15
ENDBRANCH   1  13
TORSDOF 1
ENDMDL
MODEL 7
REMARK VINA RESULT:    -3.001      1.358      3.450
REMARK INTER + INTRA:          -4.956
REMARK INTER:                  -4.504
REMARK INTRA:                  -0.452
REMARK UNBOUND:                -0.552
REMARK SMILES C=C1C=C[C@H](C(C)C)CCC(C)=CCC1
REMARK SMILES IDX 3 1 4 2 5 3 9 4 10 5 11 6 12 7 13 8 6 10 7 11 8 12 2 13 1 14
REMARK SMILES IDX 15 15 14 16
REMARK H PARENT
REMARK Flexibility Score: 70.00
ROOT
ATOM      1  C   UNL     1       2.878  13.643  14.323  1.00  0.00    -0.001 C 
ATOM      2  C   UNL     1       2.336  13.984  15.502  1.00  0.00    -0.023 C 
ENDROOT
BRANCH   2   3
ATOM      3  C   UNL     1       1.340  15.115  15.684  1.00  0.00     0.014 C 
BRANCH   3   4
ATOM      4  C   UNL     1      -0.053  14.756  15.075  1.00  0.00     0.012 C 
BRANCH   4   5
ATOM      5  C   UNL     1      -0.590  15.679  13.949  1.00  0.00     0.031 C 
BRANCH   5   6
ATOM      6  C   UNL     1       0.007  17.079  13.931  1.00  0.00    -0.077 C 
ATOM      7  C   UNL     1      -0.594  18.127  14.837  1.00  0.00     0.039 C 
ATOM      8  C   UNL     1       0.988  17.478  13.084  1.00  0.00    -0.028 CG0
ATOM      9  G   UNL     1       1.825  16.587  12.199  1.00  0.00     0.000 G0
ENDBRANCH   5   6
ENDBRANCH   4   5
ENDBRANCH   3   4
BRANCH   3  10
ATOM     10  C   UNL     1       1.231  15.486  17.196  1.00  0.00    -0.010 C 
ATOM     11  C   UNL     1      -0.225  15.448  17.695  1.00  0.00     0.008 C 
ATOM     12  C   UNL     1       1.815  16.885  17.474  1.00  0.00     0.008 C 
ENDBRANCH   3  10
ENDBRANCH   2   3
BRANCH   1  13
ATOM     13  C   UNL     1       2.588  14.344  13.058  1.00  0.00    -0.055 C 
ATOM     14  C   UNL     1       2.000  13.678  12.061  1.00  0.00     0.012 C 
BRANCH  13  15
ATOM     15  C   UNL     1       2.952  15.802  12.892  1.00  0.00     0.039 C 
BRANCH  15  16
ATOM     16  C   UNL     1       1.831  16.594  12.184  1.00  0.00     0.032 CG0
ATOM     17  G   UNL     1       0.998  17.464  13.093  1.00  0.00     0.000 G0
ENDBRANCH  15  16
ENDBRANCH  13  15
ENDBRANCH   1  13
TORSDOF 1
ENDMDL
MODEL 8
REMARK VINA RESULT:    -2.797      1.241      3.305
REMARK INTER + INTRA:          -4.657
REMARK INTER:                  -4.688
REMARK INTRA:                   0.031
REMARK UNBOUND:                -0.552
REMARK SMILES C=C1C=C[C@H](C(C)C)CCC(C)=CCC1
REMARK SMILES IDX 3 1 4 2 5 3 9 4 10 5 11 6 12 7 13 8 6 10 7 11 8 12 2 13 1 14
REMARK SMILES IDX 15 15 14 16
REMARK H PARENT
REMARK Flexibility Score: 70.00
ROOT
ATOM      1  C   UNL     1       1.209  12.422  14.643  1.00  0.00    -0.001 C 
ATOM      2  C   UNL     1       0.400  12.617  15.696  1.00  0.00    -0.023 C 
ENDROOT
BRANCH   2   3
ATOM      3  C   UNL     1       0.262  13.940  16.427  1.00  0.00     0.014 C 
BRANCH   3   4
ATOM      4  C   UNL     1      -1.068  14.667  16.051  1.00  0.00     0.012 C 
BRANCH   4   5
ATOM      5  C   UNL     1      -0.949  16.104  15.476  1.00  0.00     0.031 C 
BRANCH   5   6
ATOM      6  C   UNL     1       0.473  16.560  15.186  1.00  0.00    -0.077 C 
ATOM      7  C   UNL     1       1.156  17.462  16.186  1.00  0.00     0.039 C 
ATOM      8  C   UNL     1       1.143  16.287  14.039  1.00  0.00    -0.028 CG0
ATOM      9  G   UNL     1       0.726  15.306  12.969  1.00  0.00     0.000 G0
ENDBRANCH   5   6
ENDBRANCH   4   5
ENDBRANCH   3   4
BRANCH   3  10
ATOM     10  C   UNL     1       0.379  13.709  17.966  1.00  0.00    -0.010 C 
ATOM     11  C   UNL     1       1.783  14.053  18.496  1.00  0.00     0.008 C 
ATOM     12  C   UNL     1       0.050  12.251  18.341  1.00  0.00     0.008 C 
ENDBRANCH   3  10
ENDBRANCH   2   3
BRANCH   1  13
ATOM     13  C   UNL     1       2.084  13.468  14.081  1.00  0.00    -0.055 C 
ATOM     14  C   UNL     1       3.188  13.822  14.744  1.00  0.00     0.012 C 
BRANCH  13  15
ATOM     15  C   UNL     1       1.736  14.130  12.767  1.00  0.00     0.039 C 
BRANCH  15  16
ATOM     16  C   UNL     1       0.747  15.301  12.962  1.00  0.00     0.032 CG0
ATOM     17  G   UNL     1       1.116  16.265  14.063  1.00  0.00     0.000 G0
ENDBRANCH  15  16
ENDBRANCH  13  15
ENDBRANCH   1  13
TORSDOF 1
ENDMDL
MODEL 9
REMARK VINA RESULT:    -2.370      2.302      4.852
REMARK INTER + INTRA:          -4.029
REMARK INTER:                  -3.958
REMARK INTRA:                  -0.071
REMARK UNBOUND:                -0.552
REMARK SMILES C=C1C=C[C@H](C(C)C)CCC(C)=CCC1
REMARK SMILES IDX 3 1 4 2 5 3 9 4 10 5 11 6 12 7 13 8 6 10 7 11 8 12 2 13 1 14
REMARK SMILES IDX 15 15 14 16
REMARK H PARENT
REMARK Flexibility Score: 70.00
ROOT
ATOM      1  C   UNL     1       0.823  12.898  15.534  1.00  0.00    -0.001 C 
ATOM      2  C   UNL     1       0.737  13.577  14.380  1.00  0.00    -0.023 C 
ENDROOT
BRANCH   2   3
ATOM      3  C   UNL     1       0.237  15.006  14.271  1.00  0.00     0.014 C 
BRANCH   3   4
ATOM      4  C   UNL     1       1.309  16.029  14.765  1.00  0.00     0.012 C 
BRANCH   4   5
ATOM      5  C   UNL     1       0.790  17.317  15.458  1.00  0.00     0.031 C 
BRANCH   5   6
ATOM      6  C   UNL     1       1.500  17.673  16.756  1.00  0.00    -0.077 C 
ATOM      7  C   UNL     1       2.296  18.955  16.810  1.00  0.00     0.039 C 
ATOM      8  C   UNL     1       1.545  16.869  17.846  1.00  0.00    -0.028 CG0
ATOM      9  G   UNL     1       0.725  15.622  18.075  1.00  0.00     0.000 G0
ENDBRANCH   5   6
ENDBRANCH   4   5
ENDBRANCH   3   4
BRANCH   3  10
ATOM     10  C   UNL     1      -0.210  15.300  12.804  1.00  0.00    -0.010 C 
ATOM     11  C   UNL     1      -0.626  14.018  12.061  1.00  0.00     0.008 C 
ATOM     12  C   UNL     1       0.909  15.996  12.006  1.00  0.00     0.008 C 
ENDBRANCH   3  10
ENDBRANCH   2   3
BRANCH   1  13
ATOM     13  C   UNL     1       0.416  13.451  16.840  1.00  0.00    -0.055 C 
ATOM     14  C   UNL     1      -0.806  13.186  17.309  1.00  0.00     0.012 C 
BRANCH  13  15
ATOM     15  C   UNL     1       1.373  14.307  17.638  1.00  0.00     0.039 C 
BRANCH  15  16
ATOM     16  C   UNL     1       0.714  15.627  18.094  1.00  0.00     0.032 CG0
ATOM     17  G   UNL     1       1.542  16.866  17.850  1.00  0.00     0.000 G0
ENDBRANCH  15  16
ENDBRANCH  13  15
ENDBRANCH   1  13
TORSDOF 1
ENDMDL
