MODEL 1
REMARK VINA RESULT:    -5.379      0.000      0.000
REMARK INTER + INTRA:          -5.536
REMARK INTER:                  -5.536
REMARK INTRA:                   0.000
REMARK UNBOUND:                 0.000
REMARK SMILES Oc1ccc2[nH]ccc2c1
REMARK SMILES IDX 3 1 4 2 5 3 9 4 8 5 7 6 6 7 10 8 2 9 1 11
REMARK H PARENT 6 10 1 12
REMARK Flexibility Score: inf
ROOT
ATOM      1  C   UNL     1     -14.682  21.859 -31.336  1.00  0.00     0.048 A 
ATOM      2  C   UNL     1     -14.109  23.104 -31.015  1.00  0.00     0.030 A 
ATOM      3  C   UNL     1     -14.301  23.595 -29.724  1.00  0.00     0.046 A 
ATOM      4  C   UNL     1     -15.021  22.900 -28.790  1.00  0.00     0.003 A 
ATOM      5  C   UNL     1     -15.024  23.647 -27.632  1.00  0.00     0.028 A 
ATOM      6  C   UNL     1     -14.285  24.787 -27.934  1.00  0.00     0.083 A 
ATOM      7  N   UNL     1     -13.846  24.750 -29.214  1.00  0.00    -0.361 N 
ATOM      8  C   UNL     1     -15.601  21.665 -29.075  1.00  0.00     0.056 A 
ATOM      9  C   UNL     1     -15.427  21.139 -30.370  1.00  0.00     0.116 A 
ATOM     10  H   UNL     1     -13.271  25.473 -29.700  1.00  0.00     0.166 HD
ENDROOT
BRANCH   9  11
ATOM     11  O   UNL     1     -15.993  19.907 -30.688  1.00  0.00    -0.508 OA
ATOM     12  H   UNL     1     -15.453  19.051 -30.645  1.00  0.00     0.293 HD
ENDBRANCH   9  11
TORSDOF 1
ENDMDL
MODEL 2
REMARK VINA RESULT:    -5.303      1.441      2.155
REMARK INTER + INTRA:          -5.458
REMARK INTER:                  -5.458
REMARK INTRA:                   0.000
REMARK UNBOUND:                 0.000
REMARK SMILES Oc1ccc2[nH]ccc2c1
REMARK SMILES IDX 3 1 4 2 5 3 9 4 8 5 7 6 6 7 10 8 2 9 1 11
REMARK H PARENT 6 10 1 12
REMARK Flexibility Score: inf
ROOT
ATOM      1  C   UNL     1     -15.070  21.024 -30.107  1.00  0.00     0.048 A 
ATOM      2  C   UNL     1     -15.546  21.459 -28.856  1.00  0.00     0.030 A 
ATOM      3  C   UNL     1     -15.164  22.727 -28.420  1.00  0.00     0.046 A 
ATOM      4  C   UNL     1     -14.353  23.533 -29.172  1.00  0.00     0.003 A 
ATOM      5  C   UNL     1     -14.166  24.702 -28.469  1.00  0.00     0.028 A 
ATOM      6  C   UNL     1     -14.894  24.539 -27.294  1.00  0.00     0.083 A 
ATOM      7  N   UNL     1     -15.502  23.330 -27.269  1.00  0.00    -0.361 N 
ATOM      8  C   UNL     1     -13.864  23.133 -30.415  1.00  0.00     0.056 A 
ATOM      9  C   UNL     1     -14.230  21.857 -30.887  1.00  0.00     0.116 A 
ATOM     10  H   UNL     1     -16.108  22.949 -26.509  1.00  0.00     0.166 HD
ENDROOT
BRANCH   9  11
ATOM     11  O   UNL     1     -13.760  21.427 -32.125  1.00  0.00    -0.508 OA
ATOM     12  H   UNL     1     -13.181  22.021 -32.706  1.00  0.00     0.293 HD
ENDBRANCH   9  11
TORSDOF 1
ENDMDL
MODEL 3
REMARK VINA RESULT:    -4.988      2.859      3.641
REMARK INTER + INTRA:          -5.134
REMARK INTER:                  -5.134
REMARK INTRA:                   0.000
REMARK UNBOUND:                 0.000
REMARK SMILES Oc1ccc2[nH]ccc2c1
REMARK SMILES IDX 3 1 4 2 5 3 9 4 8 5 7 6 6 7 10 8 2 9 1 11
REMARK H PARENT 6 10 1 12
REMARK Flexibility Score: inf
ROOT
ATOM      1  C   UNL     1     -15.483  22.902 -32.125  1.00  0.00     0.048 A 
ATOM      2  C   UNL     1     -16.081  21.652 -31.877  1.00  0.00     0.030 A 
ATOM      3  C   UNL     1     -15.723  20.979 -30.709  1.00  0.00     0.046 A 
ATOM      4  C   UNL     1     -14.820  21.504 -29.825  1.00  0.00     0.003 A 
ATOM      5  C   UNL     1     -14.686  20.605 -28.789  1.00  0.00     0.028 A 
ATOM      6  C   UNL     1     -15.539  19.553 -29.110  1.00  0.00     0.083 A 
ATOM      7  N   UNL     1     -16.170  19.786 -30.284  1.00  0.00    -0.361 N 
ATOM      8  C   UNL     1     -14.209  22.738 -30.040  1.00  0.00     0.056 A 
ATOM      9  C   UNL     1     -14.548  23.446 -31.210  1.00  0.00     0.116 A 
ATOM     10  H   UNL     1     -16.862  19.165 -30.758  1.00  0.00     0.166 HD
ENDROOT
BRANCH   9  11
ATOM     11  O   UNL     1     -13.957  24.682 -31.455  1.00  0.00    -0.508 OA
ATOM     12  H   UNL     1     -14.185  25.497 -30.898  1.00  0.00     0.293 HD
ENDBRANCH   9  11
TORSDOF 1
ENDMDL
MODEL 4
REMARK VINA RESULT:    -4.937     18.987     19.595
REMARK INTER + INTRA:          -5.082
REMARK INTER:                  -5.082
REMARK INTRA:                   0.000
REMARK UNBOUND:                 0.000
REMARK SMILES Oc1ccc2[nH]ccc2c1
REMARK SMILES IDX 3 1 4 2 5 3 9 4 8 5 7 6 6 7 10 8 2 9 1 11
REMARK H PARENT 6 10 1 12
REMARK Flexibility Score: inf
ROOT
ATOM      1  C   UNL     1     -17.218  32.647 -12.882  1.00  0.00     0.048 A 
ATOM      2  C   UNL     1     -18.151  31.898 -12.139  1.00  0.00     0.030 A 
ATOM      3  C   UNL     1     -19.442  31.775 -12.651  1.00  0.00     0.046 A 
ATOM      4  C   UNL     1     -19.805  32.359 -13.834  1.00  0.00     0.003 A 
ATOM      5  C   UNL     1     -21.131  32.053 -14.055  1.00  0.00     0.028 A 
ATOM      6  C   UNL     1     -21.511  31.278 -12.964  1.00  0.00     0.083 A 
ATOM      7  N   UNL     1     -20.476  31.111 -12.108  1.00  0.00    -0.361 N 
ATOM      8  C   UNL     1     -18.908  33.107 -14.593  1.00  0.00     0.056 A 
ATOM      9  C   UNL     1     -17.594  33.252 -14.107  1.00  0.00     0.116 A 
ATOM     10  H   UNL     1     -20.482  30.576 -11.212  1.00  0.00     0.166 HD
ENDROOT
BRANCH   9  11
ATOM     11  O   UNL     1     -16.671  33.992 -14.841  1.00  0.00    -0.508 OA
ATOM     12  H   UNL     1     -16.455  33.762 -15.803  1.00  0.00     0.293 HD
ENDBRANCH   9  11
TORSDOF 1
ENDMDL
MODEL 5
REMARK VINA RESULT:    -4.919      2.148      3.431
REMARK INTER + INTRA:          -5.063
REMARK INTER:                  -5.063
REMARK INTRA:                   0.000
REMARK UNBOUND:                 0.000
REMARK SMILES Oc1ccc2[nH]ccc2c1
REMARK SMILES IDX 3 1 4 2 5 3 9 4 8 5 7 6 6 7 10 8 2 9 1 11
REMARK H PARENT 6 10 1 12
REMARK Flexibility Score: inf
ROOT
ATOM      1  C   UNL     1     -14.518  24.700 -27.847  1.00  0.00     0.048 A 
ATOM      2  C   UNL     1     -13.898  24.609 -29.107  1.00  0.00     0.030 A 
ATOM      3  C   UNL     1     -14.071  23.432 -29.834  1.00  0.00     0.046 A 
ATOM      4  C   UNL     1     -14.817  22.391 -29.351  1.00  0.00     0.003 A 
ATOM      5  C   UNL     1     -14.792  21.390 -30.298  1.00  0.00     0.028 A 
ATOM      6  C   UNL     1     -14.009  21.891 -31.334  1.00  0.00     0.083 A 
ATOM      7  N   UNL     1     -13.571  23.139 -31.046  1.00  0.00    -0.361 N 
ATOM      8  C   UNL     1     -15.445  22.449 -28.108  1.00  0.00     0.056 A 
ATOM      9  C   UNL     1     -15.291  23.623 -27.346  1.00  0.00     0.116 A 
ATOM     10  H   UNL     1     -12.969  23.746 -31.645  1.00  0.00     0.166 HD
ENDROOT
BRANCH   9  11
ATOM     11  O   UNL     1     -15.905  23.714 -26.100  1.00  0.00    -0.508 OA
ATOM     12  H   UNL     1     -16.836  23.347 -25.941  1.00  0.00     0.293 HD
ENDBRANCH   9  11
TORSDOF 1
ENDMDL
MODEL 6
REMARK VINA RESULT:    -4.905     10.646     12.229
REMARK INTER + INTRA:          -5.048
REMARK INTER:                  -5.048
REMARK INTRA:                   0.000
REMARK UNBOUND:                 0.000
REMARK SMILES Oc1ccc2[nH]ccc2c1
REMARK SMILES IDX 3 1 4 2 5 3 9 4 8 5 7 6 6 7 10 8 2 9 1 11
REMARK H PARENT 6 10 1 12
REMARK Flexibility Score: inf
ROOT
ATOM      1  C   UNL     1     -11.556  27.269 -18.224  1.00  0.00     0.048 A 
ATOM      2  C   UNL     1     -12.000  26.478 -19.301  1.00  0.00     0.030 A 
ATOM      3  C   UNL     1     -13.353  26.528 -19.631  1.00  0.00     0.046 A 
ATOM      4  C   UNL     1     -14.234  27.316 -18.940  1.00  0.00     0.003 A 
ATOM      5  C   UNL     1     -15.477  27.141 -19.508  1.00  0.00     0.028 A 
ATOM      6  C   UNL     1     -15.279  26.231 -20.542  1.00  0.00     0.083 A 
ATOM      7  N   UNL     1     -13.980  25.860 -20.613  1.00  0.00    -0.361 N 
ATOM      8  C   UNL     1     -13.828  28.111 -17.870  1.00  0.00     0.056 A 
ATOM      9  C   UNL     1     -12.467  28.085 -17.509  1.00  0.00     0.116 A 
ATOM     10  H   UNL     1     -13.555  25.191 -21.293  1.00  0.00     0.166 HD
ENDROOT
BRANCH   9  11
ATOM     11  O   UNL     1     -12.028  28.868 -16.444  1.00  0.00    -0.508 OA
ATOM     12  H   UNL     1     -11.859  28.468 -15.528  1.00  0.00     0.293 HD
ENDBRANCH   9  11
TORSDOF 1
ENDMDL
MODEL 7
REMARK VINA RESULT:    -4.781      2.554      3.939
REMARK INTER + INTRA:          -4.920
REMARK INTER:                  -4.920
REMARK INTRA:                   0.000
REMARK UNBOUND:                 0.000
REMARK SMILES Oc1ccc2[nH]ccc2c1
REMARK SMILES IDX 3 1 4 2 5 3 9 4 8 5 7 6 6 7 10 8 2 9 1 11
REMARK H PARENT 6 10 1 12
REMARK Flexibility Score: inf
ROOT
ATOM      1  C   UNL     1     -15.280  22.883 -27.657  1.00  0.00     0.048 A 
ATOM      2  C   UNL     1     -15.236  21.713 -28.437  1.00  0.00     0.030 A 
ATOM      3  C   UNL     1     -14.688  21.803 -29.716  1.00  0.00     0.046 A 
ATOM      4  C   UNL     1     -14.205  22.985 -30.209  1.00  0.00     0.003 A 
ATOM      5  C   UNL     1     -13.739  22.740 -31.483  1.00  0.00     0.028 A 
ATOM      6  C   UNL     1     -13.971  21.385 -31.700  1.00  0.00     0.083 A 
ATOM      7  N   UNL     1     -14.551  20.817 -30.617  1.00  0.00    -0.361 N 
ATOM      8  C   UNL     1     -14.233  24.162 -29.463  1.00  0.00     0.056 A 
ATOM      9  C   UNL     1     -14.780  24.107 -28.167  1.00  0.00     0.116 A 
ATOM     10  H   UNL     1     -14.833  19.818 -30.509  1.00  0.00     0.166 HD
ENDROOT
BRANCH   9  11
ATOM     11  O   UNL     1     -14.823  25.264 -27.394  1.00  0.00    -0.508 OA
ATOM     12  H   UNL     1     -14.727  25.231 -26.386  1.00  0.00     0.293 HD
ENDBRANCH   9  11
TORSDOF 1
ENDMDL
MODEL 8
REMARK VINA RESULT:    -4.650      9.808     11.673
REMARK INTER + INTRA:          -4.786
REMARK INTER:                  -4.786
REMARK INTRA:                   0.000
REMARK UNBOUND:                 0.000
REMARK SMILES Oc1ccc2[nH]ccc2c1
REMARK SMILES IDX 3 1 4 2 5 3 9 4 8 5 7 6 6 7 10 8 2 9 1 11
REMARK H PARENT 6 10 1 12
REMARK Flexibility Score: inf
ROOT
ATOM      1  C   UNL     1     -13.872  27.381 -18.241  1.00  0.00     0.048 A 
ATOM      2  C   UNL     1     -14.128  26.586 -19.374  1.00  0.00     0.030 A 
ATOM      3  C   UNL     1     -13.099  26.421 -20.299  1.00  0.00     0.046 A 
ATOM      4  C   UNL     1     -11.874  27.009 -20.126  1.00  0.00     0.003 A 
ATOM      5  C   UNL     1     -11.091  26.655 -21.202  1.00  0.00     0.028 A 
ATOM      6  C   UNL     1     -11.904  25.850 -21.994  1.00  0.00     0.083 A 
ATOM      7  N   UNL     1     -13.130  25.710 -21.438  1.00  0.00    -0.361 N 
ATOM      8  C   UNL     1     -11.588  27.802 -19.016  1.00  0.00     0.056 A 
ATOM      9  C   UNL     1     -12.606  27.990 -18.061  1.00  0.00     0.116 A 
ATOM     10  H   UNL     1     -13.932  25.162 -21.819  1.00  0.00     0.166 HD
ENDROOT
BRANCH   9  11
ATOM     11  O   UNL     1     -12.353  28.776 -16.939  1.00  0.00    -0.508 OA
ATOM     12  H   UNL     1     -12.894  28.672 -16.089  1.00  0.00     0.293 HD
ENDBRANCH   9  11
TORSDOF 1
ENDMDL
MODEL 9
REMARK VINA RESULT:    -4.153      8.516     10.299
REMARK INTER + INTRA:          -4.274
REMARK INTER:                  -4.274
REMARK INTRA:                   0.000
REMARK UNBOUND:                 0.000
REMARK SMILES Oc1ccc2[nH]ccc2c1
REMARK SMILES IDX 3 1 4 2 5 3 9 4 8 5 7 6 6 7 10 8 2 9 1 11
REMARK H PARENT 6 10 1 12
REMARK Flexibility Score: inf
ROOT
ATOM      1  C   UNL     1     -11.508  27.248 -19.286  1.00  0.00     0.048 A 
ATOM      2  C   UNL     1     -10.875  27.367 -20.538  1.00  0.00     0.030 A 
ATOM      3  C   UNL     1     -11.395  26.632 -21.602  1.00  0.00     0.046 A 
ATOM      4  C   UNL     1     -12.484  25.817 -21.450  1.00  0.00     0.003 A 
ATOM      5  C   UNL     1     -12.742  25.240 -22.675  1.00  0.00     0.028 A 
ATOM      6  C   UNL     1     -11.768  25.750 -23.528  1.00  0.00     0.083 A 
ATOM      7  N   UNL     1     -10.947  26.600 -22.868  1.00  0.00    -0.361 N 
ATOM      8  C   UNL     1     -13.134  25.677 -20.226  1.00  0.00     0.056 A 
ATOM      9  C   UNL     1     -12.636  26.405 -19.128  1.00  0.00     0.116 A 
ATOM     10  H   UNL     1     -10.134  27.121 -23.265  1.00  0.00     0.166 HD
ENDROOT
BRANCH   9  11
ATOM     11  O   UNL     1     -13.262  26.288 -17.890  1.00  0.00    -0.508 OA
ATOM     12  H   UNL     1     -14.268  26.186 -17.814  1.00  0.00     0.293 HD
ENDBRANCH   9  11
TORSDOF 1
ENDMDL
