MODEL 1
REMARK VINA RESULT:    -6.672      0.000      0.000
REMARK INTER + INTRA:          -9.447
REMARK INTER:                  -8.428
REMARK INTRA:                  -1.020
REMARK UNBOUND:                -1.020
REMARK SMILES CC(C)[C@H](C)C=C[C@@H](C)[C@@H]1CC[C@H]2C3=CC=C4C[C@H](O)CC[C@@]4(C)[C@@H]3CC[C@]21C
REMARK SMILES IDX 8 1 9 2 7 3 6 4 4 5 5 6 2 7 1 8 3 9 10 10 11 11 28 12 12 13
REMARK SMILES IDX 13 14 27 15 29 16 14 17 26 18 25 19 15 20 23 21 16 22 17 23
REMARK SMILES IDX 22 24 24 25 18 26 21 27 19 28 20 29
REMARK H PARENT 20 30
REMARK Flexibility Score: inf
ROOT
ATOM      1  C   UNL     1     144.654 137.293 141.950  1.00  0.00     0.012 C 
ATOM      2  C   UNL     1     145.590 138.489 142.231  1.00  0.00     0.012 C 
ENDROOT
BRANCH   1   3
ATOM      3  C   UNL     1     144.584 136.971 140.466  1.00  0.00    -0.028 C 
ATOM      4  C   UNL     1     143.481 137.126 139.714  1.00  0.00    -0.028 C 
BRANCH   4   5
ATOM      5  C   UNL     1     143.485 136.830 138.230  1.00  0.00     0.011 C 
ATOM      6  C   UNL     1     142.042 136.660 137.734  1.00  0.00     0.012 C 
BRANCH   5   7
ATOM      7  C   UNL     1     144.261 137.905 137.414  1.00  0.00    -0.011 C 
ATOM      8  C   UNL     1     144.246 137.655 135.895  1.00  0.00     0.008 C 
ATOM      9  C   UNL     1     143.739 139.316 137.719  1.00  0.00     0.008 C 
ENDBRANCH   5   7
ENDBRANCH   4   5
ENDBRANCH   1   3
BRANCH   1  10
ATOM     10  C   UNL     1     143.213 137.384 142.573  1.00  0.00     0.002 C 
ATOM     11  C   UNL     1     142.965 138.695 143.342  1.00  0.00     0.005 C 
ATOM     12  C   UNL     1     142.775 136.257 143.572  1.00  0.00    -0.023 C 
ATOM     13  C   UNL     1     142.973 138.356 144.833  1.00  0.00     0.009 C 
ATOM     14  C   UNL     1     143.140 136.834 144.954  1.00  0.00     0.021 C 
ATOM     15  C   UNL     1     141.229 136.074 143.453  1.00  0.00     0.008 C 
ATOM     16  C   UNL     1     143.473 134.892 143.330  1.00  0.00     0.012 C 
ATOM     17  C   UNL     1     142.350 136.277 146.128  1.00  0.00    -0.063 C 
ATOM     18  C   UNL     1     140.630 135.229 144.577  1.00  0.00     0.009 C 
ATOM     19  C   UNL     1     140.899 135.844 145.969  1.00  0.00     0.025 C 
ATOM     20  C   UNL     1     142.840 136.468 147.362  1.00  0.00    -0.000 C 
ATOM     21  C   UNL     1     140.414 134.927 147.161  1.00  0.00    -0.005 C 
ATOM     22  C   UNL     1     142.045 136.177 148.563  1.00  0.00    -0.000 C 
ATOM     23  C   UNL     1     140.865 135.541 148.490  1.00  0.00    -0.061 C 
ATOM     24  C   UNL     1     138.857 134.824 147.120  1.00  0.00     0.014 C 
ATOM     25  C   UNL     1     141.036 133.508 147.071  1.00  0.00     0.017 C 
ATOM     26  C   UNL     1     140.165 135.172 149.780  1.00  0.00     0.063 C 
ATOM     27  C   UNL     1     138.245 134.266 148.411  1.00  0.00     0.033 C 
ATOM     28  C   UNL     1     138.642 135.140 149.607  1.00  0.00     0.118 C 
BRANCH  28  29
ATOM     29  O   UNL     1     138.020 134.686 150.784  1.00  0.00    -0.393 OA
ATOM     30  H   UNL     1     138.719 134.599 151.481  1.00  0.00     0.210 HD
ENDBRANCH  28  29
ENDBRANCH   1  10
TORSDOF 5
ENDMDL
MODEL 2
REMARK VINA RESULT:    -6.376      8.060     10.645
REMARK INTER + INTRA:          -9.073
REMARK INTER:                  -8.297
REMARK INTRA:                  -0.776
REMARK UNBOUND:                -1.020
REMARK SMILES CC(C)[C@H](C)C=C[C@@H](C)[C@@H]1CC[C@H]2C3=CC=C4C[C@H](O)CC[C@@]4(C)[C@@H]3CC[C@]21C
REMARK SMILES IDX 8 1 9 2 7 3 6 4 4 5 5 6 2 7 1 8 3 9 10 10 11 11 28 12 12 13
REMARK SMILES IDX 13 14 27 15 29 16 14 17 26 18 25 19 15 20 23 21 16 22 17 23
REMARK SMILES IDX 22 24 24 25 18 26 21 27 19 28 20 29
REMARK H PARENT 20 30
REMARK Flexibility Score: inf
ROOT
ATOM      1  C   UNL     1     134.938 139.100 138.013  1.00  0.00     0.012 C 
ATOM      2  C   UNL     1     135.265 137.700 137.450  1.00  0.00     0.012 C 
ENDROOT
BRANCH   1   3
ATOM      3  C   UNL     1     133.664 139.666 137.407  1.00  0.00    -0.028 C 
ATOM      4  C   UNL     1     132.444 139.127 137.581  1.00  0.00    -0.028 C 
BRANCH   4   5
ATOM      5  C   UNL     1     131.205 139.762 136.988  1.00  0.00     0.011 C 
ATOM      6  C   UNL     1     130.581 138.811 135.957  1.00  0.00     0.012 C 
BRANCH   5   7
ATOM      7  C   UNL     1     130.182 140.195 138.079  1.00  0.00    -0.011 C 
ATOM      8  C   UNL     1     129.462 139.013 138.753  1.00  0.00     0.008 C 
ATOM      9  C   UNL     1     130.848 141.080 139.144  1.00  0.00     0.008 C 
ENDBRANCH   5   7
ENDBRANCH   4   5
ENDBRANCH   1   3
BRANCH   1  10
ATOM     10  C   UNL     1     136.103 140.155 137.955  1.00  0.00     0.002 C 
ATOM     11  C   UNL     1     137.448 139.551 137.511  1.00  0.00     0.005 C 
ATOM     12  C   UNL     1     136.443 140.943 139.267  1.00  0.00    -0.023 C 
ATOM     13  C   UNL     1     138.342 139.473 138.749  1.00  0.00     0.009 C 
ATOM     14  C   UNL     1     137.565 140.106 139.913  1.00  0.00     0.021 C 
ATOM     15  C   UNL     1     136.981 142.352 138.864  1.00  0.00     0.008 C 
ATOM     16  C   UNL     1     135.240 141.111 140.233  1.00  0.00     0.012 C 
ATOM     17  C   UNL     1     138.489 140.863 140.855  1.00  0.00    -0.063 C 
ATOM     18  C   UNL     1     137.632 143.107 140.023  1.00  0.00     0.009 C 
ATOM     19  C   UNL     1     138.826 142.329 140.622  1.00  0.00     0.025 C 
ATOM     20  C   UNL     1     139.248 140.147 141.699  1.00  0.00    -0.000 C 
ATOM     21  C   UNL     1     139.435 143.014 141.909  1.00  0.00    -0.005 C 
ATOM     22  C   UNL     1     140.331 140.764 142.476  1.00  0.00    -0.000 C 
ATOM     23  C   UNL     1     140.499 142.095 142.519  1.00  0.00    -0.061 C 
ATOM     24  C   UNL     1     140.076 144.378 141.502  1.00  0.00     0.014 C 
ATOM     25  C   UNL     1     138.349 143.249 142.992  1.00  0.00     0.017 C 
ATOM     26  C   UNL     1     141.561 142.659 143.437  1.00  0.00     0.063 C 
ATOM     27  C   UNL     1     141.001 144.966 142.574  1.00  0.00     0.033 C 
ATOM     28  C   UNL     1     142.129 143.979 142.902  1.00  0.00     0.118 C 
BRANCH  28  29
ATOM     29  O   UNL     1     143.029 144.541 143.824  1.00  0.00    -0.393 OA
ATOM     30  H   UNL     1     143.851 143.983 143.822  1.00  0.00     0.210 HD
ENDBRANCH  28  29
ENDBRANCH   1  10
TORSDOF 5
ENDMDL
MODEL 3
REMARK VINA RESULT:    -6.365      5.238      8.267
REMARK INTER + INTRA:          -9.060
REMARK INTER:                  -7.971
REMARK INTRA:                  -1.089
REMARK UNBOUND:                -1.020
REMARK SMILES CC(C)[C@H](C)C=C[C@@H](C)[C@@H]1CC[C@H]2C3=CC=C4C[C@H](O)CC[C@@]4(C)[C@@H]3CC[C@]21C
REMARK SMILES IDX 8 1 9 2 7 3 6 4 4 5 5 6 2 7 1 8 3 9 10 10 11 11 28 12 12 13
REMARK SMILES IDX 13 14 27 15 29 16 14 17 26 18 25 19 15 20 23 21 16 22 17 23
REMARK SMILES IDX 22 24 24 25 18 26 21 27 19 28 20 29
REMARK H PARENT 20 30
REMARK Flexibility Score: inf
ROOT
ATOM      1  C   UNL     1     145.793 140.893 141.991  1.00  0.00     0.012 C 
ATOM      2  C   UNL     1     146.517 141.001 140.632  1.00  0.00     0.012 C 
ENDROOT
BRANCH   1   3
ATOM      3  C   UNL     1     146.719 140.383 143.083  1.00  0.00    -0.028 C 
ATOM      4  C   UNL     1     146.310 140.034 144.316  1.00  0.00    -0.028 C 
BRANCH   4   5
ATOM      5  C   UNL     1     147.274 139.491 145.347  1.00  0.00     0.011 C 
ATOM      6  C   UNL     1     147.270 140.397 146.586  1.00  0.00     0.012 C 
BRANCH   5   7
ATOM      7  C   UNL     1     146.979 138.005 145.708  1.00  0.00    -0.011 C 
ATOM      8  C   UNL     1     147.283 137.655 147.176  1.00  0.00     0.008 C 
ATOM      9  C   UNL     1     145.529 137.629 145.368  1.00  0.00     0.008 C 
ENDBRANCH   5   7
ENDBRANCH   4   5
ENDBRANCH   1   3
BRANCH   1  10
ATOM     10  C   UNL     1     144.437 140.095 141.988  1.00  0.00     0.002 C 
ATOM     11  C   UNL     1     144.161 139.373 140.656  1.00  0.00     0.005 C 
ATOM     12  C   UNL     1     143.119 140.892 142.281  1.00  0.00    -0.023 C 
ATOM     13  C   UNL     1     143.053 140.147 139.941  1.00  0.00     0.009 C 
ATOM     14  C   UNL     1     142.609 141.280 140.878  1.00  0.00     0.021 C 
ATOM     15  C   UNL     1     142.109 139.925 142.977  1.00  0.00     0.008 C 
ATOM     16  C   UNL     1     143.323 142.147 143.171  1.00  0.00     0.012 C 
ATOM     17  C   UNL     1     141.114 141.539 140.772  1.00  0.00    -0.063 C 
ATOM     18  C   UNL     1     140.686 140.479 143.043  1.00  0.00     0.009 C 
ATOM     19  C   UNL     1     140.117 140.781 141.638  1.00  0.00     0.025 C 
ATOM     20  C   UNL     1     140.667 142.203 139.695  1.00  0.00    -0.000 C 
ATOM     21  C   UNL     1     138.702 141.483 141.675  1.00  0.00    -0.005 C 
ATOM     22  C   UNL     1     139.234 142.298 139.386  1.00  0.00    -0.000 C 
ATOM     23  C   UNL     1     138.296 141.885 140.253  1.00  0.00    -0.061 C 
ATOM     24  C   UNL     1     137.657 140.487 142.268  1.00  0.00     0.014 C 
ATOM     25  C   UNL     1     138.736 142.777 142.531  1.00  0.00     0.017 C 
ATOM     26  C   UNL     1     136.843 142.128 139.912  1.00  0.00     0.063 C 
ATOM     27  C   UNL     1     136.202 140.910 142.030  1.00  0.00     0.033 C 
ATOM     28  C   UNL     1     135.931 141.059 140.528  1.00  0.00     0.118 C 
BRANCH  28  29
ATOM     29  O   UNL     1     134.579 141.366 140.294  1.00  0.00    -0.393 OA
ATOM     30  H   UNL     1     134.475 142.350 140.370  1.00  0.00     0.210 HD
ENDBRANCH  28  29
ENDBRANCH   1  10
TORSDOF 5
ENDMDL
MODEL 4
REMARK VINA RESULT:    -6.296      4.091      9.555
REMARK INTER + INTRA:          -8.972
REMARK INTER:                  -7.793
REMARK INTRA:                  -1.180
REMARK UNBOUND:                -1.020
REMARK SMILES CC(C)[C@H](C)C=C[C@@H](C)[C@@H]1CC[C@H]2C3=CC=C4C[C@H](O)CC[C@@]4(C)[C@@H]3CC[C@]21C
REMARK SMILES IDX 8 1 9 2 7 3 6 4 4 5 5 6 2 7 1 8 3 9 10 10 11 11 28 12 12 13
REMARK SMILES IDX 13 14 27 15 29 16 14 17 26 18 25 19 15 20 23 21 16 22 17 23
REMARK SMILES IDX 22 24 24 25 18 26 21 27 19 28 20 29
REMARK H PARENT 20 30
REMARK Flexibility Score: inf
ROOT
ATOM      1  C   UNL     1     145.571 139.092 144.667  1.00  0.00     0.012 C 
ATOM      2  C   UNL     1     146.757 139.829 145.325  1.00  0.00     0.012 C 
ENDROOT
BRANCH   1   3
ATOM      3  C   UNL     1     144.891 138.141 145.639  1.00  0.00    -0.028 C 
ATOM      4  C   UNL     1     144.905 136.802 145.518  1.00  0.00    -0.028 C 
BRANCH   4   5
ATOM      5  C   UNL     1     144.246 135.906 146.543  1.00  0.00     0.011 C 
ATOM      6  C   UNL     1     143.289 136.733 147.412  1.00  0.00     0.012 C 
BRANCH   5   7
ATOM      7  C   UNL     1     143.537 134.683 145.891  1.00  0.00    -0.011 C 
ATOM      8  C   UNL     1     142.115 134.437 146.428  1.00  0.00     0.008 C 
ATOM      9  C   UNL     1     143.504 134.812 144.361  1.00  0.00     0.008 C 
ENDBRANCH   5   7
ENDBRANCH   4   5
ENDBRANCH   1   3
BRANCH   1  10
ATOM     10  C   UNL     1     145.879 138.372 143.302  1.00  0.00     0.002 C 
ATOM     11  C   UNL     1     147.196 138.837 142.654  1.00  0.00     0.005 C 
ATOM     12  C   UNL     1     144.817 138.494 142.156  1.00  0.00    -0.023 C 
ATOM     13  C   UNL     1     146.830 139.716 141.459  1.00  0.00     0.009 C 
ATOM     14  C   UNL     1     145.299 139.710 141.340  1.00  0.00     0.021 C 
ATOM     15  C   UNL     1     144.885 137.197 141.288  1.00  0.00     0.008 C 
ATOM     16  C   UNL     1     143.362 138.696 142.660  1.00  0.00     0.012 C 
ATOM     17  C   UNL     1     144.851 139.745 139.887  1.00  0.00    -0.063 C 
ATOM     18  C   UNL     1     144.123 137.311 139.967  1.00  0.00     0.009 C 
ATOM     19  C   UNL     1     144.659 138.464 139.088  1.00  0.00     0.025 C 
ATOM     20  C   UNL     1     144.936 140.913 139.232  1.00  0.00    -0.000 C 
ATOM     21  C   UNL     1     143.807 138.698 137.778  1.00  0.00    -0.005 C 
ATOM     22  C   UNL     1     144.751 140.999 137.777  1.00  0.00    -0.000 C 
ATOM     23  C   UNL     1     144.314 139.953 137.059  1.00  0.00    -0.061 C 
ATOM     24  C   UNL     1     143.955 137.453 136.848  1.00  0.00     0.014 C 
ATOM     25  C   UNL     1     142.309 138.927 138.112  1.00  0.00     0.017 C 
ATOM     26  C   UNL     1     144.034 140.156 135.586  1.00  0.00     0.063 C 
ATOM     27  C   UNL     1     143.476 137.698 135.412  1.00  0.00     0.033 C 
ATOM     28  C   UNL     1     144.250 138.865 134.787  1.00  0.00     0.118 C 
BRANCH  28  29
ATOM     29  O   UNL     1     143.878 139.046 133.443  1.00  0.00    -0.393 OA
ATOM     30  H   UNL     1     143.723 140.016 133.301  1.00  0.00     0.210 HD
ENDBRANCH  28  29
ENDBRANCH   1  10
TORSDOF 5
ENDMDL
MODEL 5
REMARK VINA RESULT:    -6.215      4.447      6.491
REMARK INTER + INTRA:          -8.870
REMARK INTER:                  -7.900
REMARK INTRA:                  -0.970
REMARK UNBOUND:                -1.020
REMARK SMILES CC(C)[C@H](C)C=C[C@@H](C)[C@@H]1CC[C@H]2C3=CC=C4C[C@H](O)CC[C@@]4(C)[C@@H]3CC[C@]21C
REMARK SMILES IDX 8 1 9 2 7 3 6 4 4 5 5 6 2 7 1 8 3 9 10 10 11 11 28 12 12 13
REMARK SMILES IDX 13 14 27 15 29 16 14 17 26 18 25 19 15 20 23 21 16 22 17 23
REMARK SMILES IDX 22 24 24 25 18 26 21 27 19 28 20 29
REMARK H PARENT 20 30
REMARK Flexibility Score: inf
ROOT
ATOM      1  C   UNL     1     143.088 139.853 139.043  1.00  0.00     0.012 C 
ATOM      2  C   UNL     1     141.771 139.051 139.118  1.00  0.00     0.012 C 
ENDROOT
BRANCH   1   3
ATOM      3  C   UNL     1     143.349 140.374 137.639  1.00  0.00    -0.028 C 
ATOM      4  C   UNL     1     144.441 140.072 136.914  1.00  0.00    -0.028 C 
BRANCH   4   5
ATOM      5  C   UNL     1     144.624 140.587 135.504  1.00  0.00     0.011 C 
ATOM      6  C   UNL     1     145.825 141.542 135.455  1.00  0.00     0.012 C 
BRANCH   5   7
ATOM      7  C   UNL     1     144.751 139.434 134.465  1.00  0.00    -0.011 C 
ATOM      8  C   UNL     1     146.174 139.265 133.903  1.00  0.00     0.008 C 
ATOM      9  C   UNL     1     144.256 138.103 135.050  1.00  0.00     0.008 C 
ENDBRANCH   5   7
ENDBRANCH   4   5
ENDBRANCH   1   3
BRANCH   1  10
ATOM     10  C   UNL     1     144.365 139.138 139.622  1.00  0.00     0.002 C 
ATOM     11  C   UNL     1     144.185 137.617 139.789  1.00  0.00     0.005 C 
ATOM     12  C   UNL     1     144.907 139.621 141.011  1.00  0.00    -0.023 C 
ATOM     13  C   UNL     1     144.045 137.338 141.286  1.00  0.00     0.009 C 
ATOM     14  C   UNL     1     144.223 138.676 142.018  1.00  0.00     0.021 C 
ATOM     15  C   UNL     1     146.454 139.409 141.032  1.00  0.00     0.008 C 
ATOM     16  C   UNL     1     144.590 141.107 141.331  1.00  0.00     0.012 C 
ATOM     17  C   UNL     1     144.946 138.494 143.344  1.00  0.00    -0.063 C 
ATOM     18  C   UNL     1     147.067 139.552 142.424  1.00  0.00     0.009 C 
ATOM     19  C   UNL     1     146.466 138.542 143.428  1.00  0.00     0.025 C 
ATOM     20  C   UNL     1     144.254 137.979 144.372  1.00  0.00    -0.000 C 
ATOM     21  C   UNL     1     146.977 138.754 144.908  1.00  0.00    -0.005 C 
ATOM     22  C   UNL     1     144.916 137.552 145.611  1.00  0.00    -0.000 C 
ATOM     23  C   UNL     1     146.209 137.819 145.849  1.00  0.00    -0.061 C 
ATOM     24  C   UNL     1     148.504 138.437 144.967  1.00  0.00     0.014 C 
ATOM     25  C   UNL     1     146.724 140.207 145.391  1.00  0.00     0.017 C 
ATOM     26  C   UNL     1     146.785 137.452 147.199  1.00  0.00     0.063 C 
ATOM     27  C   UNL     1     149.039 138.258 146.394  1.00  0.00     0.033 C 
ATOM     28  C   UNL     1     148.282 137.132 147.108  1.00  0.00     0.118 C 
BRANCH  28  29
ATOM     29  O   UNL     1     148.819 136.905 148.387  1.00  0.00    -0.393 OA
ATOM     30  H   UNL     1     148.234 137.361 149.046  1.00  0.00     0.210 HD
ENDBRANCH  28  29
ENDBRANCH   1  10
TORSDOF 5
ENDMDL
MODEL 6
REMARK VINA RESULT:    -6.194      1.676      3.937
REMARK INTER + INTRA:          -8.843
REMARK INTER:                  -8.285
REMARK INTRA:                  -0.558
REMARK UNBOUND:                -1.020
REMARK SMILES CC(C)[C@H](C)C=C[C@@H](C)[C@@H]1CC[C@H]2C3=CC=C4C[C@H](O)CC[C@@]4(C)[C@@H]3CC[C@]21C
REMARK SMILES IDX 8 1 9 2 7 3 6 4 4 5 5 6 2 7 1 8 3 9 10 10 11 11 28 12 12 13
REMARK SMILES IDX 13 14 27 15 29 16 14 17 26 18 25 19 15 20 23 21 16 22 17 23
REMARK SMILES IDX 22 24 24 25 18 26 21 27 19 28 20 29
REMARK H PARENT 20 30
REMARK Flexibility Score: inf
ROOT
ATOM      1  C   UNL     1     144.268 137.735 141.753  1.00  0.00     0.012 C 
ATOM      2  C   UNL     1     144.623 136.714 140.651  1.00  0.00     0.012 C 
ENDROOT
BRANCH   1   3
ATOM      3  C   UNL     1     145.337 137.791 142.832  1.00  0.00    -0.028 C 
ATOM      4  C   UNL     1     146.207 138.806 142.979  1.00  0.00    -0.028 C 
BRANCH   4   5
ATOM      5  C   UNL     1     147.221 138.825 144.102  1.00  0.00     0.011 C 
ATOM      6  C   UNL     1     148.288 139.891 143.815  1.00  0.00     0.012 C 
BRANCH   5   7
ATOM      7  C   UNL     1     146.556 139.021 145.496  1.00  0.00    -0.011 C 
ATOM      8  C   UNL     1     146.532 137.743 146.353  1.00  0.00     0.008 C 
ATOM      9  C   UNL     1     147.228 140.162 146.275  1.00  0.00     0.008 C 
ENDBRANCH   5   7
ENDBRANCH   4   5
ENDBRANCH   1   3
BRANCH   1  10
ATOM     10  C   UNL     1     142.836 137.594 142.388  1.00  0.00     0.002 C 
ATOM     11  C   UNL     1     142.333 138.893 143.045  1.00  0.00     0.005 C 
ATOM     12  C   UNL     1     142.627 136.495 143.486  1.00  0.00    -0.023 C 
ATOM     13  C   UNL     1     142.405 138.693 144.559  1.00  0.00     0.009 C 
ATOM     14  C   UNL     1     142.869 137.251 144.808  1.00  0.00     0.021 C 
ATOM     15  C   UNL     1     141.148 136.001 143.407  1.00  0.00     0.008 C 
ATOM     16  C   UNL     1     143.581 135.278 143.351  1.00  0.00     0.012 C 
ATOM     17  C   UNL     1     142.203 136.653 146.037  1.00  0.00    -0.063 C 
ATOM     18  C   UNL     1     140.726 135.156 144.608  1.00  0.00     0.009 C 
ATOM     19  C   UNL     1     140.866 135.931 145.938  1.00  0.00     0.025 C 
ATOM     20  C   UNL     1     142.643 137.043 147.243  1.00  0.00    -0.000 C 
ATOM     21  C   UNL     1     140.570 135.043 147.212  1.00  0.00    -0.005 C 
ATOM     22  C   UNL     1     141.919 136.707 148.476  1.00  0.00    -0.000 C 
ATOM     23  C   UNL     1     140.888 135.848 148.476  1.00  0.00    -0.061 C 
ATOM     24  C   UNL     1     139.064 134.633 147.204  1.00  0.00     0.014 C 
ATOM     25  C   UNL     1     141.459 133.772 147.234  1.00  0.00     0.017 C 
ATOM     26  C   UNL     1     140.273 135.461 149.803  1.00  0.00     0.063 C 
ATOM     27  C   UNL     1     138.572 134.080 148.547  1.00  0.00     0.033 C 
ATOM     28  C   UNL     1     138.786 135.115 149.658  1.00  0.00     0.118 C 
BRANCH  28  29
ATOM     29  O   UNL     1     138.263 134.652 150.878  1.00  0.00    -0.393 OA
ATOM     30  H   UNL     1     138.858 133.929 151.207  1.00  0.00     0.210 HD
ENDBRANCH  28  29
ENDBRANCH   1  10
TORSDOF 5
ENDMDL
MODEL 7
REMARK VINA RESULT:    -6.162      4.520      6.752
REMARK INTER + INTRA:          -8.802
REMARK INTER:                  -7.589
REMARK INTRA:                  -1.213
REMARK UNBOUND:                -1.020
REMARK SMILES CC(C)[C@H](C)C=C[C@@H](C)[C@@H]1CC[C@H]2C3=CC=C4C[C@H](O)CC[C@@]4(C)[C@@H]3CC[C@]21C
REMARK SMILES IDX 8 1 9 2 7 3 6 4 4 5 5 6 2 7 1 8 3 9 10 10 11 11 28 12 12 13
REMARK SMILES IDX 13 14 27 15 29 16 14 17 26 18 25 19 15 20 23 21 16 22 17 23
REMARK SMILES IDX 22 24 24 25 18 26 21 27 19 28 20 29
REMARK H PARENT 20 30
REMARK Flexibility Score: inf
ROOT
ATOM      1  C   UNL     1     143.341 139.930 139.162  1.00  0.00     0.012 C 
ATOM      2  C   UNL     1     142.201 139.034 138.632  1.00  0.00     0.012 C 
ENDROOT
BRANCH   1   3
ATOM      3  C   UNL     1     143.773 140.958 138.129  1.00  0.00    -0.028 C 
ATOM      4  C   UNL     1     145.044 141.132 137.726  1.00  0.00    -0.028 C 
BRANCH   4   5
ATOM      5  C   UNL     1     145.407 142.144 136.661  1.00  0.00     0.011 C 
ATOM      6  C   UNL     1     144.160 142.946 136.265  1.00  0.00     0.012 C 
BRANCH   5   7
ATOM      7  C   UNL     1     146.583 143.067 137.097  1.00  0.00    -0.011 C 
ATOM      8  C   UNL     1     146.125 144.439 137.623  1.00  0.00     0.008 C 
ATOM      9  C   UNL     1     147.473 142.375 138.139  1.00  0.00     0.008 C 
ENDBRANCH   5   7
ENDBRANCH   4   5
ENDBRANCH   1   3
BRANCH   1  10
ATOM     10  C   UNL     1     144.587 139.179 139.761  1.00  0.00     0.002 C 
ATOM     11  C   UNL     1     144.362 137.664 139.924  1.00  0.00     0.005 C 
ATOM     12  C   UNL     1     145.121 139.647 141.159  1.00  0.00    -0.023 C 
ATOM     13  C   UNL     1     144.190 137.389 141.418  1.00  0.00     0.009 C 
ATOM     14  C   UNL     1     144.394 138.721 142.154  1.00  0.00     0.021 C 
ATOM     15  C   UNL     1     146.660 139.391 141.204  1.00  0.00     0.008 C 
ATOM     16  C   UNL     1     144.841 141.141 141.475  1.00  0.00     0.012 C 
ATOM     17  C   UNL     1     145.090 138.519 143.491  1.00  0.00    -0.063 C 
ATOM     18  C   UNL     1     147.255 139.516 142.607  1.00  0.00     0.009 C 
ATOM     19  C   UNL     1     146.609 138.523 143.600  1.00  0.00     0.025 C 
ATOM     20  C   UNL     1     144.368 138.024 144.508  1.00  0.00    -0.000 C 
ATOM     21  C   UNL     1     147.102 138.721 145.088  1.00  0.00    -0.005 C 
ATOM     22  C   UNL     1     144.997 137.578 145.758  1.00  0.00    -0.000 C 
ATOM     23  C   UNL     1     146.293 137.807 146.016  1.00  0.00    -0.061 C 
ATOM     24  C   UNL     1     148.618 138.360 145.172  1.00  0.00     0.014 C 
ATOM     25  C   UNL     1     146.883 140.180 145.568  1.00  0.00     0.017 C 
ATOM     26  C   UNL     1     146.836 137.424 147.375  1.00  0.00     0.063 C 
ATOM     27  C   UNL     1     149.125 138.166 146.606  1.00  0.00     0.033 C 
ATOM     28  C   UNL     1     148.325 137.062 147.308  1.00  0.00     0.118 C 
BRANCH  28  29
ATOM     29  O   UNL     1     148.835 136.819 148.595  1.00  0.00    -0.393 OA
ATOM     30  H   UNL     1     148.566 135.901 148.859  1.00  0.00     0.210 HD
ENDBRANCH  28  29
ENDBRANCH   1  10
TORSDOF 5
ENDMDL
MODEL 8
REMARK VINA RESULT:    -6.130      3.792      8.879
REMARK INTER + INTRA:          -8.762
REMARK INTER:                  -7.842
REMARK INTRA:                  -0.920
REMARK UNBOUND:                -1.020
REMARK SMILES CC(C)[C@H](C)C=C[C@@H](C)[C@@H]1CC[C@H]2C3=CC=C4C[C@H](O)CC[C@@]4(C)[C@@H]3CC[C@]21C
REMARK SMILES IDX 8 1 9 2 7 3 6 4 4 5 5 6 2 7 1 8 3 9 10 10 11 11 28 12 12 13
REMARK SMILES IDX 13 14 27 15 29 16 14 17 26 18 25 19 15 20 23 21 16 22 17 23
REMARK SMILES IDX 22 24 24 25 18 26 21 27 19 28 20 29
REMARK H PARENT 20 30
REMARK Flexibility Score: inf
ROOT
ATOM      1  C   UNL     1     141.626 134.059 148.379  1.00  0.00     0.012 C 
ATOM      2  C   UNL     1     142.299 133.734 149.731  1.00  0.00     0.012 C 
ENDROOT
BRANCH   1   3
ATOM      3  C   UNL     1     140.410 133.182 148.132  1.00  0.00    -0.028 C 
ATOM      4  C   UNL     1     139.245 133.632 147.633  1.00  0.00    -0.028 C 
BRANCH   4   5
ATOM      5  C   UNL     1     138.083 132.701 147.368  1.00  0.00     0.011 C 
ATOM      6  C   UNL     1     138.308 131.372 148.102  1.00  0.00     0.012 C 
BRANCH   5   7
ATOM      7  C   UNL     1     136.713 133.346 147.732  1.00  0.00    -0.011 C 
ATOM      8  C   UNL     1     135.628 132.319 148.103  1.00  0.00     0.008 C 
ATOM      9  C   UNL     1     136.868 134.377 148.860  1.00  0.00     0.008 C 
ENDBRANCH   5   7
ENDBRANCH   4   5
ENDBRANCH   1   3
BRANCH   1  10
ATOM     10  C   UNL     1     142.574 134.071 147.123  1.00  0.00     0.002 C 
ATOM     11  C   UNL     1     144.037 133.735 147.464  1.00  0.00     0.005 C 
ATOM     12  C   UNL     1     142.662 135.393 146.286  1.00  0.00    -0.023 C 
ATOM     13  C   UNL     1     144.836 135.035 147.372  1.00  0.00     0.009 C 
ATOM     14  C   UNL     1     143.870 136.131 146.897  1.00  0.00     0.021 C 
ATOM     15  C   UNL     1     142.954 135.011 144.800  1.00  0.00     0.008 C 
ATOM     16  C   UNL     1     141.380 136.267 146.348  1.00  0.00     0.012 C 
ATOM     17  C   UNL     1     144.563 137.127 145.980  1.00  0.00    -0.063 C 
ATOM     18  C   UNL     1     143.363 136.204 143.937  1.00  0.00     0.009 C 
ATOM     19  C   UNL     1     144.635 136.898 144.476  1.00  0.00     0.025 C 
ATOM     20  C   UNL     1     145.378 138.034 146.540  1.00  0.00    -0.000 C 
ATOM     21  C   UNL     1     145.007 138.217 143.689  1.00  0.00    -0.005 C 
ATOM     22  C   UNL     1     146.265 138.879 145.730  1.00  0.00    -0.000 C 
ATOM     23  C   UNL     1     146.177 138.915 144.391  1.00  0.00    -0.061 C 
ATOM     24  C   UNL     1     145.409 137.839 142.229  1.00  0.00     0.014 C 
ATOM     25  C   UNL     1     143.819 139.215 143.663  1.00  0.00     0.017 C 
ATOM     26  C   UNL     1     147.043 139.901 143.638  1.00  0.00     0.063 C 
ATOM     27  C   UNL     1     146.126 138.967 141.477  1.00  0.00     0.033 C 
ATOM     28  C   UNL     1     147.391 139.390 142.234  1.00  0.00     0.118 C 
BRANCH  28  29
ATOM     29  O   UNL     1     148.099 140.367 141.513  1.00  0.00    -0.393 OA
ATOM     30  H   UNL     1     148.775 140.762 142.123  1.00  0.00     0.210 HD
ENDBRANCH  28  29
ENDBRANCH   1  10
TORSDOF 5
ENDMDL
MODEL 9
REMARK VINA RESULT:    -6.011      8.103     10.650
REMARK INTER + INTRA:          -8.612
REMARK INTER:                  -7.993
REMARK INTRA:                  -0.618
REMARK UNBOUND:                -1.020
REMARK SMILES CC(C)[C@H](C)C=C[C@@H](C)[C@@H]1CC[C@H]2C3=CC=C4C[C@H](O)CC[C@@]4(C)[C@@H]3CC[C@]21C
REMARK SMILES IDX 8 1 9 2 7 3 6 4 4 5 5 6 2 7 1 8 3 9 10 10 11 11 28 12 12 13
REMARK SMILES IDX 13 14 27 15 29 16 14 17 26 18 25 19 15 20 23 21 16 22 17 23
REMARK SMILES IDX 22 24 24 25 18 26 21 27 19 28 20 29
REMARK H PARENT 20 30
REMARK Flexibility Score: inf
ROOT
ATOM      1  C   UNL     1     134.953 139.936 137.321  1.00  0.00     0.012 C 
ATOM      2  C   UNL     1     134.935 141.361 136.729  1.00  0.00     0.012 C 
ENDROOT
BRANCH   1   3
ATOM      3  C   UNL     1     133.573 139.301 137.298  1.00  0.00    -0.028 C 
ATOM      4  C   UNL     1     132.436 139.979 137.060  1.00  0.00    -0.028 C 
BRANCH   4   5
ATOM      5  C   UNL     1     131.093 139.282 137.007  1.00  0.00     0.011 C 
ATOM      6  C   UNL     1     131.284 137.776 137.232  1.00  0.00     0.012 C 
BRANCH   5   7
ATOM      7  C   UNL     1     130.067 139.898 138.003  1.00  0.00    -0.011 C 
ATOM      8  C   UNL     1     129.233 138.846 138.756  1.00  0.00     0.008 C 
ATOM      9  C   UNL     1     130.761 140.833 139.005  1.00  0.00     0.008 C 
ENDBRANCH   5   7
ENDBRANCH   4   5
ENDBRANCH   1   3
BRANCH   1  10
ATOM     10  C   UNL     1     135.615 139.787 138.740  1.00  0.00     0.002 C 
ATOM     11  C   UNL     1     134.812 140.475 139.860  1.00  0.00     0.005 C 
ATOM     12  C   UNL     1     137.078 140.321 138.925  1.00  0.00    -0.023 C 
ATOM     13  C   UNL     1     135.578 141.736 140.260  1.00  0.00     0.009 C 
ATOM     14  C   UNL     1     136.878 141.760 139.441  1.00  0.00     0.021 C 
ATOM     15  C   UNL     1     137.782 139.448 140.011  1.00  0.00     0.008 C 
ATOM     16  C   UNL     1     137.926 140.303 137.625  1.00  0.00     0.012 C 
ATOM     17  C   UNL     1     138.033 142.335 140.245  1.00  0.00    -0.063 C 
ATOM     18  C   UNL     1     139.100 140.043 140.506  1.00  0.00     0.009 C 
ATOM     19  C   UNL     1     138.906 141.447 141.121  1.00  0.00     0.025 C 
ATOM     20  C   UNL     1     138.075 143.665 140.421  1.00  0.00    -0.000 C 
ATOM     21  C   UNL     1     140.266 142.149 141.517  1.00  0.00    -0.005 C 
ATOM     22  C   UNL     1     139.009 144.290 141.367  1.00  0.00    -0.000 C 
ATOM     23  C   UNL     1     139.984 143.587 141.964  1.00  0.00    -0.061 C 
ATOM     24  C   UNL     1     140.929 141.347 142.681  1.00  0.00     0.014 C 
ATOM     25  C   UNL     1     141.238 142.220 140.310  1.00  0.00     0.017 C 
ATOM     26  C   UNL     1     140.979 144.327 142.831  1.00  0.00     0.063 C 
ATOM     27  C   UNL     1     142.055 142.111 143.388  1.00  0.00     0.033 C 
ATOM     28  C   UNL     1     141.526 143.436 143.952  1.00  0.00     0.118 C 
BRANCH  28  29
ATOM     29  O   UNL     1     142.529 144.106 144.674  1.00  0.00    -0.393 OA
ATOM     30  H   UNL     1     143.400 143.699 144.430  1.00  0.00     0.210 HD
ENDBRANCH  28  29
ENDBRANCH   1  10
TORSDOF 5
ENDMDL
