MODEL 1
REMARK VINA RESULT:     2.384      0.000      0.000
REMARK INTER + INTRA:           5.853
REMARK INTER:                   6.286
REMARK INTRA:                  -0.433
REMARK UNBOUND:                -0.433
REMARK SMILES CCCCCCCCCCCCCCCCCCCCCCCCCCCCCC(=O)[O-]
REMARK SMILES IDX 16 1 17 2 18 3 19 4 20 5 21 6 22 7 23 8 24 9 25 10 26 11
REMARK SMILES IDX 27 12 28 13 29 14 30 15 31 16 32 17 15 18 14 19 13 20 12 21
REMARK SMILES IDX 11 22 10 23 9 24 8 25 7 26 6 27 5 28 4 29 3 30 2 31 1 32
REMARK H PARENT
REMARK Flexibility Score: inf
ROOT
ATOM      1  C   UNL     1      -9.281 -18.326  12.485  1.00  0.00     0.000 C 
ENDROOT
BRANCH   1   2
ATOM      2  C   UNL     1      -9.015 -19.559  13.366  1.00  0.00     0.000 C 
BRANCH   2   3
ATOM      3  C   UNL     1      -7.903 -20.462  12.810  1.00  0.00     0.000 C 
BRANCH   3   4
ATOM      4  C   UNL     1      -8.421 -21.558  11.857  1.00  0.00     0.000 C 
BRANCH   4   5
ATOM      5  C   UNL     1      -8.296 -23.007  12.364  1.00  0.00     0.000 C 
BRANCH   5   6
ATOM      6  C   UNL     1      -7.883 -23.108  13.841  1.00  0.00     0.000 C 
BRANCH   6   7
ATOM      7  C   UNL     1      -8.742 -22.224  14.763  1.00  0.00     0.000 C 
BRANCH   7   8
ATOM      8  C   UNL     1      -9.287 -22.949  16.013  1.00  0.00     0.000 C 
BRANCH   8   9
ATOM      9  C   UNL     1     -10.823 -22.899  16.124  1.00  0.00     0.000 C 
BRANCH   9  10
ATOM     10  C   UNL     1     -11.505 -22.635  14.772  1.00  0.00     0.000 C 
BRANCH  10  11
ATOM     11  C   UNL     1     -12.006 -21.190  14.627  1.00  0.00     0.000 C 
BRANCH  11  12
ATOM     12  C   UNL     1     -11.796 -20.398  15.924  1.00  0.00     0.000 C 
BRANCH  12  13
ATOM     13  C   UNL     1     -11.225 -19.003  15.632  1.00  0.00     0.006 C 
BRANCH  13  14
ATOM     14  C   UNL     1     -12.289 -17.918  15.820  1.00  0.00     0.053 C 
BRANCH  14  15
ATOM     15  C   UNL     1     -11.842 -16.627  15.210  1.00  0.00     0.041 C 
ATOM     16  O   UNL     1     -11.597 -15.631  15.942  1.00  0.00    -0.550 OA
ATOM     17  O   UNL     1     -11.711 -16.516  13.832  1.00  0.00    -0.550 OA
ENDBRANCH  14  15
ENDBRANCH  13  14
ENDBRANCH  12  13
ENDBRANCH  11  12
ENDBRANCH  10  11
ENDBRANCH   9  10
ENDBRANCH   8   9
ENDBRANCH   7   8
ENDBRANCH   6   7
ENDBRANCH   5   6
ENDBRANCH   4   5
ENDBRANCH   3   4
ENDBRANCH   2   3
ENDBRANCH   1   2
BRANCH   1  18
ATOM     18  C   UNL     1      -8.052 -17.851  11.678  1.00  0.00     0.000 C 
BRANCH  18  19
ATOM     19  C   UNL     1      -7.907 -18.588  10.332  1.00  0.00     0.000 C 
BRANCH  19  20
ATOM     20  C   UNL     1      -8.750 -17.952   9.213  1.00  0.00     0.000 C 
BRANCH  20  21
ATOM     21  C   UNL     1      -9.279 -18.982   8.200  1.00  0.00     0.000 C 
BRANCH  21  22
ATOM     22  C   UNL     1      -8.164 -19.855   7.602  1.00  0.00     0.000 C 
BRANCH  22  23
ATOM     23  C   UNL     1      -8.661 -21.241   7.169  1.00  0.00     0.000 C 
BRANCH  23  24
ATOM     24  C   UNL     1      -7.877 -21.760   5.952  1.00  0.00    -0.000 C 
BRANCH  24  25
ATOM     25  C   UNL     1      -8.789 -22.229   4.802  1.00  0.00    -0.000 C 
BRANCH  25  26
ATOM     26  C   UNL     1      -8.058 -22.871   3.610  1.00  0.00    -0.000 C 
BRANCH  26  27
ATOM     27  C   UNL     1      -8.852 -22.765   2.297  1.00  0.00    -0.000 C 
BRANCH  27  28
ATOM     28  C   UNL     1      -7.997 -23.113   1.065  1.00  0.00    -0.000 C 
BRANCH  28  29
ATOM     29  C   UNL     1      -8.752 -22.902  -0.260  1.00  0.00    -0.000 C 
BRANCH  29  30
ATOM     30  C   UNL     1      -9.099 -21.423  -0.527  1.00  0.00    -0.000 C 
BRANCH  30  31
ATOM     31  C   UNL     1      -8.667 -20.892  -1.905  1.00  0.00    -0.003 C 
ATOM     32  C   UNL     1      -9.365 -21.601  -3.067  1.00  0.00     0.004 C 
ENDBRANCH  30  31
ENDBRANCH  29  30
ENDBRANCH  28  29
ENDBRANCH  27  28
ENDBRANCH  26  27
ENDBRANCH  25  26
ENDBRANCH  24  25
ENDBRANCH  23  24
ENDBRANCH  22  23
ENDBRANCH  21  22
ENDBRANCH  20  21
ENDBRANCH  19  20
ENDBRANCH  18  19
ENDBRANCH   1  18
TORSDOF 28
ENDMDL
MODEL 2
REMARK VINA RESULT:     3.826      4.743      9.318
REMARK INTER + INTRA:           9.656
REMARK INTER:                   9.648
REMARK INTRA:                   0.008
REMARK UNBOUND:                -0.433
REMARK SMILES CCCCCCCCCCCCCCCCCCCCCCCCCCCCCC(=O)[O-]
REMARK SMILES IDX 16 1 17 2 18 3 19 4 20 5 21 6 22 7 23 8 24 9 25 10 26 11
REMARK SMILES IDX 27 12 28 13 29 14 30 15 31 16 32 17 15 18 14 19 13 20 12 21
REMARK SMILES IDX 11 22 10 23 9 24 8 25 7 26 6 27 5 28 4 29 3 30 2 31 1 32
REMARK H PARENT
REMARK Flexibility Score: inf
ROOT
ATOM      1  C   UNL     1      -9.781 -17.642   8.784  1.00  0.00     0.000 C 
ENDROOT
BRANCH   1   2
ATOM      2  C   UNL     1     -10.110 -18.938   8.023  1.00  0.00     0.000 C 
BRANCH   2   3
ATOM      3  C   UNL     1      -9.356 -20.160   8.569  1.00  0.00     0.000 C 
BRANCH   3   4
ATOM      4  C   UNL     1      -8.761 -19.935   9.974  1.00  0.00     0.000 C 
BRANCH   4   5
ATOM      5  C   UNL     1      -9.063 -21.028  11.017  1.00  0.00     0.000 C 
BRANCH   5   6
ATOM      6  C   UNL     1      -7.875 -21.339  11.942  1.00  0.00     0.000 C 
BRANCH   6   7
ATOM      7  C   UNL     1      -8.268 -21.362  13.431  1.00  0.00     0.000 C 
BRANCH   7   8
ATOM      8  C   UNL     1      -8.870 -22.700  13.909  1.00  0.00     0.000 C 
BRANCH   8   9
ATOM      9  C   UNL     1     -10.119 -23.125  13.112  1.00  0.00     0.000 C 
BRANCH   9  10
ATOM     10  C   UNL     1     -11.301 -22.161  13.307  1.00  0.00     0.000 C 
BRANCH  10  11
ATOM     11  C   UNL     1     -12.095 -21.921  12.013  1.00  0.00     0.000 C 
BRANCH  11  12
ATOM     12  C   UNL     1     -13.495 -22.542  12.100  1.00  0.00     0.000 C 
BRANCH  12  13
ATOM     13  C   UNL     1     -13.767 -23.095  13.507  1.00  0.00     0.006 C 
BRANCH  13  14
ATOM     14  C   UNL     1     -15.253 -22.996  13.863  1.00  0.00     0.053 C 
BRANCH  14  15
ATOM     15  C   UNL     1     -15.428 -22.627  15.302  1.00  0.00     0.041 C 
ATOM     16  O   UNL     1     -14.423 -22.392  16.024  1.00  0.00    -0.550 OA
ATOM     17  O   UNL     1     -16.701 -22.559  15.854  1.00  0.00    -0.550 OA
ENDBRANCH  14  15
ENDBRANCH  13  14
ENDBRANCH  12  13
ENDBRANCH  11  12
ENDBRANCH  10  11
ENDBRANCH   9  10
ENDBRANCH   8   9
ENDBRANCH   7   8
ENDBRANCH   6   7
ENDBRANCH   5   6
ENDBRANCH   4   5
ENDBRANCH   3   4
ENDBRANCH   2   3
ENDBRANCH   1   2
BRANCH   1  18
ATOM     18  C   UNL     1     -10.681 -17.387  10.013  1.00  0.00     0.000 C 
BRANCH  18  19
ATOM     19  C   UNL     1     -10.077 -16.355  10.986  1.00  0.00     0.000 C 
BRANCH  19  20
ATOM     20  C   UNL     1     -10.083 -16.840  12.445  1.00  0.00     0.000 C 
BRANCH  20  21
ATOM     21  C   UNL     1      -8.674 -17.148  12.982  1.00  0.00     0.000 C 
BRANCH  21  22
ATOM     22  C   UNL     1      -7.910 -15.883  13.404  1.00  0.00     0.000 C 
BRANCH  22  23
ATOM     23  C   UNL     1      -8.333 -15.366  14.787  1.00  0.00     0.000 C 
BRANCH  23  24
ATOM     24  C   UNL     1      -8.497 -16.520  15.789  1.00  0.00    -0.000 C 
BRANCH  24  25
ATOM     25  C   UNL     1      -9.965 -16.953  15.976  1.00  0.00    -0.000 C 
BRANCH  25  26
ATOM     26  C   UNL     1     -10.998 -16.100  15.220  1.00  0.00    -0.000 C 
BRANCH  26  27
ATOM     27  C   UNL     1     -12.418 -16.234  15.795  1.00  0.00    -0.000 C 
BRANCH  27  28
ATOM     28  C   UNL     1     -12.969 -17.666  15.672  1.00  0.00    -0.000 C 
BRANCH  28  29
ATOM     29  C   UNL     1     -11.883 -18.689  15.291  1.00  0.00    -0.000 C 
BRANCH  29  30
ATOM     30  C   UNL     1     -12.323 -20.148  15.520  1.00  0.00    -0.000 C 
BRANCH  30  31
ATOM     31  C   UNL     1     -11.243 -21.068  16.118  1.00  0.00    -0.003 C 
ATOM     32  C   UNL     1      -9.833 -20.486  16.012  1.00  0.00     0.004 C 
ENDBRANCH  30  31
ENDBRANCH  29  30
ENDBRANCH  28  29
ENDBRANCH  27  28
ENDBRANCH  26  27
ENDBRANCH  25  26
ENDBRANCH  24  25
ENDBRANCH  23  24
ENDBRANCH  22  23
ENDBRANCH  21  22
ENDBRANCH  20  21
ENDBRANCH  19  20
ENDBRANCH  18  19
ENDBRANCH   1  18
TORSDOF 28
ENDMDL
MODEL 3
REMARK VINA RESULT:     4.145      4.409      8.879
REMARK INTER + INTRA:          10.496
REMARK INTER:                   5.542
REMARK INTRA:                   4.954
REMARK UNBOUND:                -0.433
REMARK SMILES CCCCCCCCCCCCCCCCCCCCCCCCCCCCCC(=O)[O-]
REMARK SMILES IDX 16 1 17 2 18 3 19 4 20 5 21 6 22 7 23 8 24 9 25 10 26 11
REMARK SMILES IDX 27 12 28 13 29 14 30 15 31 16 32 17 15 18 14 19 13 20 12 21
REMARK SMILES IDX 11 22 10 23 9 24 8 25 7 26 6 27 5 28 4 29 3 30 2 31 1 32
REMARK H PARENT
REMARK Flexibility Score: inf
ROOT
ATOM      1  C   UNL     1      -9.928 -16.554  13.655  1.00  0.00     0.000 C 
ENDROOT
BRANCH   1   2
ATOM      2  C   UNL     1     -11.359 -16.603  14.218  1.00  0.00     0.000 C 
BRANCH   2   3
ATOM      3  C   UNL     1     -12.161 -17.809  13.705  1.00  0.00     0.000 C 
BRANCH   3   4
ATOM      4  C   UNL     1     -11.376 -19.135  13.761  1.00  0.00     0.000 C 
BRANCH   4   5
ATOM      5  C   UNL     1      -9.901 -19.066  13.322  1.00  0.00     0.000 C 
BRANCH   5   6
ATOM      6  C   UNL     1      -9.349 -20.406  12.809  1.00  0.00     0.000 C 
BRANCH   6   7
ATOM      7  C   UNL     1      -8.329 -20.234  11.669  1.00  0.00     0.000 C 
BRANCH   7   8
ATOM      8  C   UNL     1      -7.971 -21.543  10.933  1.00  0.00     0.000 C 
BRANCH   8   9
ATOM      9  C   UNL     1      -8.735 -21.724   9.607  1.00  0.00     0.000 C 
BRANCH   9  10
ATOM     10  C   UNL     1      -7.928 -21.242   8.390  1.00  0.00     0.000 C 
BRANCH  10  11
ATOM     11  C   UNL     1      -8.231 -19.784   8.011  1.00  0.00     0.000 C 
BRANCH  11  12
ATOM     12  C   UNL     1      -8.894 -19.036   9.174  1.00  0.00     0.000 C 
BRANCH  12  13
ATOM     13  C   UNL     1      -7.875 -18.163   9.921  1.00  0.00     0.006 C 
BRANCH  13  14
ATOM     14  C   UNL     1      -8.542 -16.920  10.516  1.00  0.00     0.053 C 
BRANCH  14  15
ATOM     15  C   UNL     1      -9.883 -16.690   9.895  1.00  0.00     0.041 C 
ATOM     16  O   UNL     1     -10.337 -15.520   9.779  1.00  0.00    -0.550 OA
ATOM     17  O   UNL     1     -10.643 -17.767   9.457  1.00  0.00    -0.550 OA
ENDBRANCH  14  15
ENDBRANCH  13  14
ENDBRANCH  12  13
ENDBRANCH  11  12
ENDBRANCH  10  11
ENDBRANCH   9  10
ENDBRANCH   8   9
ENDBRANCH   7   8
ENDBRANCH   6   7
ENDBRANCH   5   6
ENDBRANCH   4   5
ENDBRANCH   3   4
ENDBRANCH   2   3
ENDBRANCH   1   2
BRANCH   1  18
ATOM     18  C   UNL     1      -8.824 -16.605  14.735  1.00  0.00     0.000 C 
BRANCH  18  19
ATOM     19  C   UNL     1      -9.105 -17.664  15.818  1.00  0.00     0.000 C 
BRANCH  19  20
ATOM     20  C   UNL     1      -8.066 -18.798  15.824  1.00  0.00     0.000 C 
BRANCH  20  21
ATOM     21  C   UNL     1      -8.699 -20.193  15.974  1.00  0.00     0.000 C 
BRANCH  21  22
ATOM     22  C   UNL     1      -7.876 -21.295  15.287  1.00  0.00     0.000 C 
BRANCH  22  23
ATOM     23  C   UNL     1      -8.244 -22.703  15.775  1.00  0.00     0.000 C 
BRANCH  23  24
ATOM     24  C   UNL     1      -9.739 -22.801  16.123  1.00  0.00    -0.000 C 
BRANCH  24  25
ATOM     25  C   UNL     1     -10.625 -23.104  14.898  1.00  0.00    -0.000 C 
BRANCH  25  26
ATOM     26  C   UNL     1     -12.139 -23.060  15.162  1.00  0.00    -0.000 C 
BRANCH  26  27
ATOM     27  C   UNL     1     -12.626 -21.672  15.612  1.00  0.00    -0.000 C 
BRANCH  27  28
ATOM     28  C   UNL     1     -14.129 -21.464  15.353  1.00  0.00    -0.000 C 
BRANCH  28  29
ATOM     29  C   UNL     1     -14.652 -22.318  14.183  1.00  0.00    -0.000 C 
BRANCH  29  30
ATOM     30  C   UNL     1     -13.533 -23.070  13.438  1.00  0.00    -0.000 C 
BRANCH  30  31
ATOM     31  C   UNL     1     -13.599 -22.982  11.903  1.00  0.00    -0.003 C 
ATOM     32  C   UNL     1     -12.289 -22.506  11.272  1.00  0.00     0.004 C 
ENDBRANCH  30  31
ENDBRANCH  29  30
ENDBRANCH  28  29
ENDBRANCH  27  28
ENDBRANCH  26  27
ENDBRANCH  25  26
ENDBRANCH  24  25
ENDBRANCH  23  24
ENDBRANCH  22  23
ENDBRANCH  21  22
ENDBRANCH  20  21
ENDBRANCH  19  20
ENDBRANCH  18  19
ENDBRANCH   1  18
TORSDOF 28
ENDMDL
MODEL 4
REMARK VINA RESULT:     4.654      1.920      2.361
REMARK INTER + INTRA:          11.839
REMARK INTER:                  11.837
REMARK INTRA:                   0.002
REMARK UNBOUND:                -0.433
REMARK SMILES CCCCCCCCCCCCCCCCCCCCCCCCCCCCCC(=O)[O-]
REMARK SMILES IDX 16 1 17 2 18 3 19 4 20 5 21 6 22 7 23 8 24 9 25 10 26 11
REMARK SMILES IDX 27 12 28 13 29 14 30 15 31 16 32 17 15 18 14 19 13 20 12 21
REMARK SMILES IDX 11 22 10 23 9 24 8 25 7 26 6 27 5 28 4 29 3 30 2 31 1 32
REMARK H PARENT
REMARK Flexibility Score: inf
ROOT
ATOM      1  C   UNL     1      -9.267 -18.323  12.481  1.00  0.00     0.000 C 
ENDROOT
BRANCH   1   2
ATOM      2  C   UNL     1      -9.012 -19.554  13.368  1.00  0.00     0.000 C 
BRANCH   2   3
ATOM      3  C   UNL     1      -7.880 -20.447  12.840  1.00  0.00     0.000 C 
BRANCH   3   4
ATOM      4  C   UNL     1      -8.367 -21.553  11.882  1.00  0.00     0.000 C 
BRANCH   4   5
ATOM      5  C   UNL     1      -8.246 -22.998  12.401  1.00  0.00     0.000 C 
BRANCH   5   6
ATOM      6  C   UNL     1      -7.885 -23.087  13.892  1.00  0.00     0.000 C 
BRANCH   6   7
ATOM      7  C   UNL     1      -8.792 -22.213  14.778  1.00  0.00     0.000 C 
BRANCH   7   8
ATOM      8  C   UNL     1      -9.563 -22.993  15.865  1.00  0.00     0.000 C 
BRANCH   8   9
ATOM      9  C   UNL     1     -11.092 -22.830  15.761  1.00  0.00     0.000 C 
BRANCH   9  10
ATOM     10  C   UNL     1     -11.555 -22.490  14.335  1.00  0.00     0.000 C 
BRANCH  10  11
ATOM     11  C   UNL     1     -11.770 -20.984  14.119  1.00  0.00     0.000 C 
BRANCH  11  12
ATOM     12  C   UNL     1     -12.160 -20.287  15.429  1.00  0.00     0.000 C 
BRANCH  12  13
ATOM     13  C   UNL     1     -13.686 -20.204  15.577  1.00  0.00     0.006 C 
BRANCH  13  14
ATOM     14  C   UNL     1     -14.313 -21.599  15.646  1.00  0.00     0.053 C 
BRANCH  14  15
ATOM     15  C   UNL     1     -15.207 -21.837  14.470  1.00  0.00     0.041 C 
ATOM     16  O   UNL     1     -15.256 -22.974  13.930  1.00  0.00    -0.550 OA
ATOM     17  O   UNL     1     -15.975 -20.799  13.958  1.00  0.00    -0.550 OA
ENDBRANCH  14  15
ENDBRANCH  13  14
ENDBRANCH  12  13
ENDBRANCH  11  12
ENDBRANCH  10  11
ENDBRANCH   9  10
ENDBRANCH   8   9
ENDBRANCH   7   8
ENDBRANCH   6   7
ENDBRANCH   5   6
ENDBRANCH   4   5
ENDBRANCH   3   4
ENDBRANCH   2   3
ENDBRANCH   1   2
BRANCH   1  18
ATOM     18  C   UNL     1      -8.027 -17.849  11.690  1.00  0.00     0.000 C 
BRANCH  18  19
ATOM     19  C   UNL     1      -7.875 -18.574  10.338  1.00  0.00     0.000 C 
BRANCH  19  20
ATOM     20  C   UNL     1      -8.733 -17.946   9.228  1.00  0.00     0.000 C 
BRANCH  20  21
ATOM     21  C   UNL     1      -9.268 -18.982   8.223  1.00  0.00     0.000 C 
BRANCH  21  22
ATOM     22  C   UNL     1      -8.161 -19.880   7.650  1.00  0.00     0.000 C 
BRANCH  22  23
ATOM     23  C   UNL     1      -8.676 -21.262   7.222  1.00  0.00     0.000 C 
BRANCH  23  24
ATOM     24  C   UNL     1      -7.911 -21.789   5.997  1.00  0.00    -0.000 C 
BRANCH  24  25
ATOM     25  C   UNL     1      -8.841 -22.235   4.852  1.00  0.00    -0.000 C 
BRANCH  25  26
ATOM     26  C   UNL     1      -8.130 -22.870   3.645  1.00  0.00    -0.000 C 
BRANCH  26  27
ATOM     27  C   UNL     1      -8.932 -22.732   2.339  1.00  0.00    -0.000 C 
BRANCH  27  28
ATOM     28  C   UNL     1      -8.037 -22.807   1.090  1.00  0.00    -0.000 C 
BRANCH  28  29
ATOM     29  C   UNL     1      -8.847 -22.824  -0.220  1.00  0.00    -0.000 C 
BRANCH  29  30
ATOM     30  C   UNL     1      -8.244 -21.919  -1.313  1.00  0.00    -0.000 C 
BRANCH  30  31
ATOM     31  C   UNL     1      -9.263 -21.322  -2.300  1.00  0.00    -0.003 C 
ATOM     32  C   UNL     1     -10.648 -21.960  -2.190  1.00  0.00     0.004 C 
ENDBRANCH  30  31
ENDBRANCH  29  30
ENDBRANCH  28  29
ENDBRANCH  27  28
ENDBRANCH  26  27
ENDBRANCH  25  26
ENDBRANCH  24  25
ENDBRANCH  23  24
ENDBRANCH  22  23
ENDBRANCH  21  22
ENDBRANCH  20  21
ENDBRANCH  19  20
ENDBRANCH  18  19
ENDBRANCH   1  18
TORSDOF 28
ENDMDL
MODEL 5
REMARK VINA RESULT:     5.346      5.011      8.333
REMARK INTER + INTRA:          13.664
REMARK INTER:                  10.316
REMARK INTRA:                   3.348
REMARK UNBOUND:                -0.433
REMARK SMILES CCCCCCCCCCCCCCCCCCCCCCCCCCCCCC(=O)[O-]
REMARK SMILES IDX 16 1 17 2 18 3 19 4 20 5 21 6 22 7 23 8 24 9 25 10 26 11
REMARK SMILES IDX 27 12 28 13 29 14 30 15 31 16 32 17 15 18 14 19 13 20 12 21
REMARK SMILES IDX 11 22 10 23 9 24 8 25 7 26 6 27 5 28 4 29 3 30 2 31 1 32
REMARK H PARENT
REMARK Flexibility Score: inf
ROOT
ATOM      1  C   UNL     1      -8.839 -18.872  11.308  1.00  0.00     0.000 C 
ENDROOT
BRANCH   1   2
ATOM      2  C   UNL     1      -8.146 -19.671  12.425  1.00  0.00     0.000 C 
BRANCH   2   3
ATOM      3  C   UNL     1      -8.133 -21.184  12.157  1.00  0.00     0.000 C 
BRANCH   3   4
ATOM      4  C   UNL     1      -9.518 -21.754  11.791  1.00  0.00     0.000 C 
BRANCH   4   5
ATOM      5  C   UNL     1     -10.396 -22.206  12.974  1.00  0.00     0.000 C 
BRANCH   5   6
ATOM      6  C   UNL     1      -9.635 -23.031  14.023  1.00  0.00     0.000 C 
BRANCH   6   7
ATOM      7  C   UNL     1      -8.338 -22.347  14.495  1.00  0.00     0.000 C 
BRANCH   7   8
ATOM      8  C   UNL     1      -8.560 -21.138  15.428  1.00  0.00     0.000 C 
BRANCH   8   9
ATOM      9  C   UNL     1      -9.986 -21.071  16.009  1.00  0.00     0.000 C 
BRANCH   9  10
ATOM     10  C   UNL     1     -10.920 -20.176  15.178  1.00  0.00     0.000 C 
BRANCH  10  11
ATOM     11  C   UNL     1     -12.378 -20.663  15.187  1.00  0.00     0.000 C 
BRANCH  11  12
ATOM     12  C   UNL     1     -12.509 -22.005  15.918  1.00  0.00     0.000 C 
BRANCH  12  13
ATOM     13  C   UNL     1     -13.043 -23.095  14.977  1.00  0.00     0.006 C 
BRANCH  13  14
ATOM     14  C   UNL     1     -14.381 -22.685  14.358  1.00  0.00     0.053 C 
BRANCH  14  15
ATOM     15  C   UNL     1     -14.402 -22.988  12.893  1.00  0.00     0.041 C 
ATOM     16  O   UNL     1     -13.322 -23.124  12.258  1.00  0.00    -0.550 OA
ATOM     17  O   UNL     1     -15.612 -23.103  12.222  1.00  0.00    -0.550 OA
ENDBRANCH  14  15
ENDBRANCH  13  14
ENDBRANCH  12  13
ENDBRANCH  11  12
ENDBRANCH  10  11
ENDBRANCH   9  10
ENDBRANCH   8   9
ENDBRANCH   7   8
ENDBRANCH   6   7
ENDBRANCH   5   6
ENDBRANCH   4   5
ENDBRANCH   3   4
ENDBRANCH   2   3
ENDBRANCH   1   2
BRANCH   1  18
ATOM     18  C   UNL     1      -7.882 -18.379  10.200  1.00  0.00     0.000 C 
BRANCH  18  19
ATOM     19  C   UNL     1      -8.175 -19.029   8.833  1.00  0.00     0.000 C 
BRANCH  19  20
ATOM     20  C   UNL     1      -9.663 -19.364   8.642  1.00  0.00     0.000 C 
BRANCH  20  21
ATOM     21  C   UNL     1     -10.600 -18.262   9.165  1.00  0.00     0.000 C 
BRANCH  21  22
ATOM     22  C   UNL     1     -10.632 -17.027   8.250  1.00  0.00     0.000 C 
BRANCH  22  23
ATOM     23  C   UNL     1      -9.733 -15.889   8.756  1.00  0.00     0.000 C 
BRANCH  23  24
ATOM     24  C   UNL     1      -9.867 -15.706  10.276  1.00  0.00    -0.000 C 
BRANCH  24  25
ATOM     25  C   UNL     1     -11.327 -15.781  10.767  1.00  0.00    -0.000 C 
BRANCH  25  26
ATOM     26  C   UNL     1     -11.519 -16.444  12.141  1.00  0.00    -0.000 C 
BRANCH  26  27
ATOM     27  C   UNL     1     -10.246 -16.412  13.003  1.00  0.00    -0.000 C 
BRANCH  27  28
ATOM     28  C   UNL     1      -9.830 -17.812  13.489  1.00  0.00    -0.000 C 
BRANCH  28  29
ATOM     29  C   UNL     1      -9.579 -17.863  15.007  1.00  0.00    -0.000 C 
BRANCH  29  30
ATOM     30  C   UNL     1      -9.734 -16.489  15.690  1.00  0.00    -0.000 C 
BRANCH  30  31
ATOM     31  C   UNL     1     -11.145 -15.880  15.613  1.00  0.00    -0.003 C 
ATOM     32  C   UNL     1     -12.239 -16.838  16.085  1.00  0.00     0.004 C 
ENDBRANCH  30  31
ENDBRANCH  29  30
ENDBRANCH  28  29
ENDBRANCH  27  28
ENDBRANCH  26  27
ENDBRANCH  25  26
ENDBRANCH  24  25
ENDBRANCH  23  24
ENDBRANCH  22  23
ENDBRANCH  21  22
ENDBRANCH  20  21
ENDBRANCH  19  20
ENDBRANCH  18  19
ENDBRANCH   1  18
TORSDOF 28
ENDMDL
