MODEL 1
REMARK VINA RESULT:    -3.807      0.000      0.000
REMARK INTER + INTRA:          -5.237
REMARK INTER:                  -4.919
REMARK INTRA:                  -0.318
REMARK UNBOUND:                -0.318
REMARK SMILES CCCCCCC(=O)[O-]
REMARK SMILES IDX 5 1 6 2 7 3 8 4 9 5 4 6 3 7 2 8 1 9
REMARK H PARENT
REMARK Flexibility Score: inf
ROOT
ATOM      1  C   UNL     1      39.768 -11.104  27.715  1.00  0.00     0.006 C 
ENDROOT
BRANCH   1   2
ATOM      2  C   UNL     1      38.672 -12.178  27.687  1.00  0.00     0.053 C 
BRANCH   2   3
ATOM      3  C   UNL     1      37.332 -11.561  27.930  1.00  0.00     0.041 C 
ATOM      4  O   UNL     1      36.906 -11.413  29.106  1.00  0.00    -0.550 OA
ATOM      5  O   UNL     1      36.529 -11.193  26.856  1.00  0.00    -0.550 OA
ENDBRANCH   2   3
ENDBRANCH   1   2
BRANCH   1   6
ATOM      6  C   UNL     1      40.680 -11.157  26.479  1.00  0.00     0.000 C 
BRANCH   6   7
ATOM      7  C   UNL     1      40.591  -9.885  25.622  1.00  0.00    -0.000 C 
BRANCH   7   8
ATOM      8  C   UNL     1      39.447  -8.983  26.098  1.00  0.00    -0.003 C 
ATOM      9  C   UNL     1      38.341  -8.893  25.051  1.00  0.00     0.004 C 
ENDBRANCH   7   8
ENDBRANCH   6   7
ENDBRANCH   1   6
TORSDOF 5
ENDMDL
MODEL 2
REMARK VINA RESULT:    -3.796      1.592      3.046
REMARK INTER + INTRA:          -5.223
REMARK INTER:                  -5.057
REMARK INTRA:                  -0.166
REMARK UNBOUND:                -0.318
REMARK SMILES CCCCCCC(=O)[O-]
REMARK SMILES IDX 5 1 6 2 7 3 8 4 9 5 4 6 3 7 2 8 1 9
REMARK H PARENT
REMARK Flexibility Score: inf
ROOT
ATOM      1  C   UNL     1      39.354 -10.913  27.232  1.00  0.00     0.006 C 
ENDROOT
BRANCH   1   2
ATOM      2  C   UNL     1      38.330 -11.961  27.687  1.00  0.00     0.053 C 
BRANCH   2   3
ATOM      3  C   UNL     1      36.968 -11.351  27.783  1.00  0.00     0.041 C 
ATOM      4  O   UNL     1      36.435 -11.164  28.909  1.00  0.00    -0.550 OA
ATOM      5  O   UNL     1      36.263 -11.036  26.628  1.00  0.00    -0.550 OA
ENDBRANCH   2   3
ENDBRANCH   1   2
BRANCH   1   6
ATOM      6  C   UNL     1      40.750 -11.513  26.998  1.00  0.00     0.000 C 
BRANCH   6   7
ATOM      7  C   UNL     1      41.211 -12.409  28.157  1.00  0.00    -0.000 C 
BRANCH   7   8
ATOM      8  C   UNL     1      42.475 -13.189  27.778  1.00  0.00    -0.003 C 
ATOM      9  C   UNL     1      43.141 -12.594  26.542  1.00  0.00     0.004 C 
ENDBRANCH   7   8
ENDBRANCH   6   7
ENDBRANCH   1   6
TORSDOF 5
ENDMDL
MODEL 3
REMARK VINA RESULT:    -3.716      2.256      3.900
REMARK INTER + INTRA:          -5.120
REMARK INTER:                  -4.899
REMARK INTRA:                  -0.221
REMARK UNBOUND:                -0.318
REMARK SMILES CCCCCCC(=O)[O-]
REMARK SMILES IDX 5 1 6 2 7 3 8 4 9 5 4 6 3 7 2 8 1 9
REMARK H PARENT
REMARK Flexibility Score: inf
ROOT
ATOM      1  C   UNL     1      39.960 -11.226  27.781  1.00  0.00     0.006 C 
ENDROOT
BRANCH   1   2
ATOM      2  C   UNL     1      40.791 -11.115  26.496  1.00  0.00     0.053 C 
BRANCH   2   3
ATOM      3  C   UNL     1      40.445  -9.860  25.759  1.00  0.00     0.041 C 
ATOM      4  O   UNL     1      41.146  -9.485  24.783  1.00  0.00    -0.550 OA
ATOM      5  O   UNL     1      39.378  -9.076  26.182  1.00  0.00    -0.550 OA
ENDBRANCH   2   3
ENDBRANCH   1   2
BRANCH   1   6
ATOM      6  C   UNL     1      38.841 -12.275  27.673  1.00  0.00     0.000 C 
BRANCH   6   7
ATOM      7  C   UNL     1      37.804 -12.151  28.799  1.00  0.00    -0.000 C 
BRANCH   7   8
ATOM      8  C   UNL     1      36.635 -11.256  28.371  1.00  0.00    -0.003 C 
ATOM      9  C   UNL     1      36.529 -11.175  26.852  1.00  0.00     0.004 C 
ENDBRANCH   7   8
ENDBRANCH   6   7
ENDBRANCH   1   6
TORSDOF 5
ENDMDL
MODEL 4
REMARK VINA RESULT:    -3.679     10.940     12.047
REMARK INTER + INTRA:          -5.072
REMARK INTER:                  -4.858
REMARK INTRA:                  -0.214
REMARK UNBOUND:                -0.318
REMARK SMILES CCCCCCC(=O)[O-]
REMARK SMILES IDX 5 1 6 2 7 3 8 4 9 5 4 6 3 7 2 8 1 9
REMARK H PARENT
REMARK Flexibility Score: inf
ROOT
ATOM      1  C   UNL     1      43.583  -0.506  22.273  1.00  0.00     0.006 C 
ENDROOT
BRANCH   1   2
ATOM      2  C   UNL     1      42.976  -0.472  23.682  1.00  0.00     0.053 C 
BRANCH   2   3
ATOM      3  C   UNL     1      43.859  -1.197  24.647  1.00  0.00     0.041 C 
ATOM      4  O   UNL     1      43.446  -2.236  25.227  1.00  0.00    -0.550 OA
ATOM      5  O   UNL     1      45.121  -0.698  24.947  1.00  0.00    -0.550 OA
ENDBRANCH   2   3
ENDBRANCH   1   2
BRANCH   1   6
ATOM      6  C   UNL     1      43.115   0.669  21.399  1.00  0.00     0.000 C 
BRANCH   6   7
ATOM      7  C   UNL     1      41.910   0.306  20.517  1.00  0.00    -0.000 C 
BRANCH   7   8
ATOM      8  C   UNL     1      41.969  -1.163  20.086  1.00  0.00    -0.003 C 
ATOM      9  C   UNL     1      40.575  -1.781  20.036  1.00  0.00     0.004 C 
ENDBRANCH   7   8
ENDBRANCH   6   7
ENDBRANCH   1   6
TORSDOF 5
ENDMDL
MODEL 5
REMARK VINA RESULT:    -3.644     11.072     12.277
REMARK INTER + INTRA:          -5.027
REMARK INTER:                  -4.904
REMARK INTRA:                  -0.123
REMARK UNBOUND:                -0.318
REMARK SMILES CCCCCCC(=O)[O-]
REMARK SMILES IDX 5 1 6 2 7 3 8 4 9 5 4 6 3 7 2 8 1 9
REMARK H PARENT
REMARK Flexibility Score: inf
ROOT
ATOM      1  C   UNL     1      43.523  -0.415  22.255  1.00  0.00     0.006 C 
ENDROOT
BRANCH   1   2
ATOM      2  C   UNL     1      42.945  -0.406  23.677  1.00  0.00     0.053 C 
BRANCH   2   3
ATOM      3  C   UNL     1      43.881  -1.086  24.625  1.00  0.00     0.041 C 
ATOM      4  O   UNL     1      45.016  -0.593  24.857  1.00  0.00    -0.550 OA
ATOM      5  O   UNL     1      43.521  -2.292  25.214  1.00  0.00    -0.550 OA
ENDBRANCH   2   3
ENDBRANCH   1   2
BRANCH   1   6
ATOM      6  C   UNL     1      42.541   0.144  21.214  1.00  0.00     0.000 C 
BRANCH   6   7
ATOM      7  C   UNL     1      41.657  -0.945  20.589  1.00  0.00    -0.000 C 
BRANCH   7   8
ATOM      8  C   UNL     1      41.523  -0.743  19.076  1.00  0.00    -0.003 C 
ATOM      9  C   UNL     1      41.577   0.738  18.710  1.00  0.00     0.004 C 
ENDBRANCH   7   8
ENDBRANCH   6   7
ENDBRANCH   1   6
TORSDOF 5
ENDMDL
MODEL 6
REMARK VINA RESULT:    -3.588      2.966      4.367
REMARK INTER + INTRA:          -4.954
REMARK INTER:                  -4.701
REMARK INTRA:                  -0.253
REMARK UNBOUND:                -0.318
REMARK SMILES CCCCCCC(=O)[O-]
REMARK SMILES IDX 5 1 6 2 7 3 8 4 9 5 4 6 3 7 2 8 1 9
REMARK H PARENT
REMARK Flexibility Score: inf
ROOT
ATOM      1  C   UNL     1      40.463 -12.016  27.048  1.00  0.00     0.006 C 
ENDROOT
BRANCH   1   2
ATOM      2  C   UNL     1      39.707 -10.692  27.225  1.00  0.00     0.053 C 
BRANCH   2   3
ATOM      3  C   UNL     1      40.000  -9.768  26.086  1.00  0.00     0.041 C 
ATOM      4  O   UNL     1      39.187  -8.855  25.785  1.00  0.00    -0.550 OA
ATOM      5  O   UNL     1      41.148  -9.946  25.322  1.00  0.00    -0.550 OA
ENDBRANCH   2   3
ENDBRANCH   1   2
BRANCH   1   6
ATOM      6  C   UNL     1      41.225 -12.436  28.315  1.00  0.00     0.000 C 
BRANCH   6   7
ATOM      7  C   UNL     1      42.571 -13.106  28.001  1.00  0.00    -0.000 C 
BRANCH   7   8
ATOM      8  C   UNL     1      43.165 -12.560  26.698  1.00  0.00    -0.003 C 
ATOM      9  C   UNL     1      43.713 -13.685  25.826  1.00  0.00     0.004 C 
ENDBRANCH   7   8
ENDBRANCH   6   7
ENDBRANCH   1   6
TORSDOF 5
ENDMDL
MODEL 7
REMARK VINA RESULT:    -3.566     11.588     12.825
REMARK INTER + INTRA:          -4.926
REMARK INTER:                  -4.744
REMARK INTRA:                  -0.182
REMARK UNBOUND:                -0.318
REMARK SMILES CCCCCCC(=O)[O-]
REMARK SMILES IDX 5 1 6 2 7 3 8 4 9 5 4 6 3 7 2 8 1 9
REMARK H PARENT
REMARK Flexibility Score: inf
ROOT
ATOM      1  C   UNL     1      42.319   0.022  21.351  1.00  0.00     0.006 C 
ENDROOT
BRANCH   1   2
ATOM      2  C   UNL     1      43.452  -0.538  22.222  1.00  0.00     0.053 C 
BRANCH   2   3
ATOM      3  C   UNL     1      43.065  -0.502  23.666  1.00  0.00     0.041 C 
ATOM      4  O   UNL     1      42.332   0.423  24.103  1.00  0.00    -0.550 OA
ATOM      5  O   UNL     1      43.556  -1.463  24.542  1.00  0.00    -0.550 OA
ENDBRANCH   2   3
ENDBRANCH   1   2
BRANCH   1   6
ATOM      6  C   UNL     1      41.696  -1.042  20.433  1.00  0.00     0.000 C 
BRANCH   6   7
ATOM      7  C   UNL     1      41.564  -0.565  18.979  1.00  0.00    -0.000 C 
BRANCH   7   8
ATOM      8  C   UNL     1      41.907   0.924  18.857  1.00  0.00    -0.003 C 
ATOM      9  C   UNL     1      41.682   1.428  17.435  1.00  0.00     0.004 C 
ENDBRANCH   7   8
ENDBRANCH   6   7
ENDBRANCH   1   6
TORSDOF 5
ENDMDL
MODEL 8
REMARK VINA RESULT:    -3.565      1.661      3.378
REMARK INTER + INTRA:          -4.925
REMARK INTER:                  -4.674
REMARK INTRA:                  -0.251
REMARK UNBOUND:                -0.318
REMARK SMILES CCCCCCC(=O)[O-]
REMARK SMILES IDX 5 1 6 2 7 3 8 4 9 5 4 6 3 7 2 8 1 9
REMARK H PARENT
REMARK Flexibility Score: inf
ROOT
ATOM      1  C   UNL     1      39.267 -10.987  27.270  1.00  0.00     0.006 C 
ENDROOT
BRANCH   1   2
ATOM      2  C   UNL     1      38.167 -11.991  27.643  1.00  0.00     0.053 C 
BRANCH   2   3
ATOM      3  C   UNL     1      36.852 -11.293  27.789  1.00  0.00     0.041 C 
ATOM      4  O   UNL     1      36.264 -10.831  26.776  1.00  0.00    -0.550 OA
ATOM      5  O   UNL     1      36.299 -11.107  29.050  1.00  0.00    -0.550 OA
ENDBRANCH   2   3
ENDBRANCH   1   2
BRANCH   1   6
ATOM      6  C   UNL     1      40.662 -11.630  27.218  1.00  0.00     0.000 C 
BRANCH   6   7
ATOM      7  C   UNL     1      40.825 -12.771  28.233  1.00  0.00    -0.000 C 
BRANCH   7   8
ATOM      8  C   UNL     1      41.326 -12.239  29.580  1.00  0.00    -0.003 C 
ATOM      9  C   UNL     1      40.297 -12.470  30.683  1.00  0.00     0.004 C 
ENDBRANCH   7   8
ENDBRANCH   6   7
ENDBRANCH   1   6
TORSDOF 5
ENDMDL
MODEL 9
REMARK VINA RESULT:    -3.509     15.978     17.286
REMARK INTER + INTRA:          -4.852
REMARK INTER:                  -4.638
REMARK INTRA:                  -0.214
REMARK UNBOUND:                -0.318
REMARK SMILES CCCCCCC(=O)[O-]
REMARK SMILES IDX 5 1 6 2 7 3 8 4 9 5 4 6 3 7 2 8 1 9
REMARK H PARENT
REMARK Flexibility Score: inf
ROOT
ATOM      1  C   UNL     1      50.474  -0.589  21.214  1.00  0.00     0.006 C 
ENDROOT
BRANCH   1   2
ATOM      2  C   UNL     1      49.158  -0.108  20.585  1.00  0.00     0.053 C 
BRANCH   2   3
ATOM      3  C   UNL     1      48.471   0.862  21.492  1.00  0.00     0.041 C 
ATOM      4  O   UNL     1      47.358   0.573  22.003  1.00  0.00    -0.550 OA
ATOM      5  O   UNL     1      49.036   2.109  21.734  1.00  0.00    -0.550 OA
ENDBRANCH   2   3
ENDBRANCH   1   2
BRANCH   1   6
ATOM      6  C   UNL     1      51.370  -1.334  20.212  1.00  0.00     0.000 C 
BRANCH   6   7
ATOM      7  C   UNL     1      52.745  -0.670  20.042  1.00  0.00    -0.000 C 
BRANCH   7   8
ATOM      8  C   UNL     1      53.003  -0.312  18.574  1.00  0.00    -0.003 C 
ATOM      9  C   UNL     1      51.995  -0.994  17.653  1.00  0.00     0.004 C 
ENDBRANCH   7   8
ENDBRANCH   6   7
ENDBRANCH   1   6
TORSDOF 5
ENDMDL
