MODEL 1
REMARK VINA RESULT:    -4.041      0.000      0.000
REMARK INTER + INTRA:          -4.884
REMARK INTER:                  -4.749
REMARK INTRA:                  -0.134
REMARK UNBOUND:                -0.134
REMARK SMILES O=C([O-])CCC(=O)[O-]
REMARK SMILES IDX 4 1 2 2 1 3 3 4 5 5 6 6 7 7 8 8
REMARK H PARENT
REMARK Flexibility Score: inf
ROOT
ATOM      1  C   UNL     1       9.314   1.232  -4.848  1.00  0.00     0.059 C 
ENDROOT
BRANCH   1   2
ATOM      2  C   UNL     1       9.668  -0.158  -5.280  1.00  0.00     0.042 C 
ATOM      3  O   UNL     1       9.770  -1.079  -4.427  1.00  0.00    -0.550 OA
ATOM      4  O   UNL     1       9.926  -0.428  -6.617  1.00  0.00    -0.550 OA
ENDBRANCH   1   2
BRANCH   1   5
ATOM      5  C   UNL     1       8.585   1.999  -5.956  1.00  0.00     0.059 C 
BRANCH   5   6
ATOM      6  C   UNL     1       7.162   1.552  -6.093  1.00  0.00     0.042 C 
ATOM      7  O   UNL     1       6.345   1.737  -5.154  1.00  0.00    -0.550 OA
ATOM      8  O   UNL     1       6.748   0.892  -7.244  1.00  0.00    -0.550 OA
ENDBRANCH   5   6
ENDBRANCH   1   5
TORSDOF 3
ENDMDL
MODEL 2
REMARK VINA RESULT:    -4.026      0.118      3.498
REMARK INTER + INTRA:          -4.866
REMARK INTER:                  -4.721
REMARK INTRA:                  -0.145
REMARK UNBOUND:                -0.134
REMARK SMILES O=C([O-])CCC(=O)[O-]
REMARK SMILES IDX 4 1 2 2 1 3 3 4 5 5 6 6 7 7 8 8
REMARK H PARENT
REMARK Flexibility Score: inf
ROOT
ATOM      1  C   UNL     1       8.631   1.954  -6.123  1.00  0.00     0.059 C 
ENDROOT
BRANCH   1   2
ATOM      2  C   UNL     1       7.206   1.505  -6.221  1.00  0.00     0.042 C 
ATOM      3  O   UNL     1       6.779   0.979  -7.284  1.00  0.00    -0.550 OA
ATOM      4  O   UNL     1       6.337   1.702  -5.156  1.00  0.00    -0.550 OA
ENDBRANCH   1   2
BRANCH   1   5
ATOM      5  C   UNL     1       9.368   1.251  -4.980  1.00  0.00     0.059 C 
BRANCH   5   6
ATOM      6  C   UNL     1       9.688  -0.172  -5.321  1.00  0.00     0.042 C 
ATOM      7  O   UNL     1       9.688  -1.055  -4.424  1.00  0.00    -0.550 OA
ATOM      8  O   UNL     1      10.026  -0.515  -6.624  1.00  0.00    -0.550 OA
ENDBRANCH   5   6
ENDBRANCH   1   5
TORSDOF 3
ENDMDL
MODEL 3
REMARK VINA RESULT:    -3.767      1.850      2.161
REMARK INTER + INTRA:          -4.562
REMARK INTER:                  -4.464
REMARK INTRA:                  -0.099
REMARK UNBOUND:                -0.134
REMARK SMILES O=C([O-])CCC(=O)[O-]
REMARK SMILES IDX 4 1 2 2 1 3 3 4 5 5 6 6 7 7 8 8
REMARK H PARENT
REMARK Flexibility Score: inf
ROOT
ATOM      1  C   UNL     1      10.114   1.270  -4.829  1.00  0.00     0.059 C 
ENDROOT
BRANCH   1   2
ATOM      2  C   UNL     1       9.867  -0.129  -5.306  1.00  0.00     0.042 C 
ATOM      3  O   UNL     1       9.745  -1.068  -4.475  1.00  0.00    -0.550 OA
ATOM      4  O   UNL     1       9.813  -0.402  -6.666  1.00  0.00    -0.550 OA
ENDBRANCH   1   2
BRANCH   1   5
ATOM      5  C   UNL     1       8.806   1.987  -4.481  1.00  0.00     0.059 C 
BRANCH   5   6
ATOM      6  C   UNL     1       8.570   3.169  -5.370  1.00  0.00     0.042 C 
ATOM      7  O   UNL     1       9.094   3.217  -6.514  1.00  0.00    -0.550 OA
ATOM      8  O   UNL     1       7.805   4.238  -4.919  1.00  0.00    -0.550 OA
ENDBRANCH   5   6
ENDBRANCH   1   5
TORSDOF 3
ENDMDL
MODEL 4
REMARK VINA RESULT:    -3.679      2.157      4.115
REMARK INTER + INTRA:          -4.458
REMARK INTER:                  -4.340
REMARK INTRA:                  -0.118
REMARK UNBOUND:                -0.134
REMARK SMILES O=C([O-])CCC(=O)[O-]
REMARK SMILES IDX 4 1 2 2 1 3 3 4 5 5 6 6 7 7 8 8
REMARK H PARENT
REMARK Flexibility Score: inf
ROOT
ATOM      1  C   UNL     1       7.874   3.388  -4.418  1.00  0.00     0.059 C 
ENDROOT
BRANCH   1   2
ATOM      2  C   UNL     1       6.842   4.194  -5.143  1.00  0.00     0.042 C 
ATOM      3  O   UNL     1       7.080   5.390  -5.461  1.00  0.00    -0.550 OA
ATOM      4  O   UNL     1       5.602   3.641  -5.433  1.00  0.00    -0.550 OA
ENDBRANCH   1   2
BRANCH   1   5
ATOM      5  C   UNL     1       8.643   2.466  -5.370  1.00  0.00     0.059 C 
BRANCH   5   6
ATOM      6  C   UNL     1       8.219   1.038  -5.218  1.00  0.00     0.042 C 
ATOM      7  O   UNL     1       8.992   0.200  -4.683  1.00  0.00    -0.550 OA
ATOM      8  O   UNL     1       6.986   0.622  -5.705  1.00  0.00    -0.550 OA
ENDBRANCH   5   6
ENDBRANCH   1   5
TORSDOF 3
ENDMDL
MODEL 5
REMARK VINA RESULT:    -3.675      2.164      2.693
REMARK INTER + INTRA:          -4.453
REMARK INTER:                  -4.333
REMARK INTRA:                  -0.120
REMARK UNBOUND:                -0.134
REMARK SMILES O=C([O-])CCC(=O)[O-]
REMARK SMILES IDX 4 1 2 2 1 3 3 4 5 5 6 6 7 7 8 8
REMARK H PARENT
REMARK Flexibility Score: inf
ROOT
ATOM      1  C   UNL     1       8.615   2.482  -5.332  1.00  0.00     0.059 C 
ENDROOT
BRANCH   1   2
ATOM      2  C   UNL     1       8.197   1.048  -5.214  1.00  0.00     0.042 C 
ATOM      3  O   UNL     1       8.974   0.203  -4.696  1.00  0.00    -0.550 OA
ATOM      4  O   UNL     1       6.967   0.638  -5.711  1.00  0.00    -0.550 OA
ENDBRANCH   1   2
BRANCH   1   5
ATOM      5  C   UNL     1       7.793   3.388  -4.411  1.00  0.00     0.059 C 
BRANCH   5   6
ATOM      6  C   UNL     1       6.791   4.194  -5.180  1.00  0.00     0.042 C 
ATOM      7  O   UNL     1       7.065   5.366  -5.546  1.00  0.00    -0.550 OA
ATOM      8  O   UNL     1       5.537   3.663  -5.457  1.00  0.00    -0.550 OA
ENDBRANCH   5   6
ENDBRANCH   1   5
TORSDOF 3
ENDMDL
MODEL 6
REMARK VINA RESULT:    -3.642      2.306      3.977
REMARK INTER + INTRA:          -4.415
REMARK INTER:                  -4.343
REMARK INTRA:                  -0.073
REMARK UNBOUND:                -0.134
REMARK SMILES O=C([O-])CCC(=O)[O-]
REMARK SMILES IDX 4 1 2 2 1 3 3 4 5 5 6 6 7 7 8 8
REMARK H PARENT
REMARK Flexibility Score: inf
ROOT
ATOM      1  C   UNL     1       6.952   4.071  -5.092  1.00  0.00     0.059 C 
ENDROOT
BRANCH   1   2
ATOM      2  C   UNL     1       6.263   2.918  -5.754  1.00  0.00     0.042 C 
ATOM      3  O   UNL     1       5.753   2.001  -5.058  1.00  0.00    -0.550 OA
ATOM      4  O   UNL     1       6.219   2.835  -7.140  1.00  0.00    -0.550 OA
ENDBRANCH   1   2
BRANCH   1   5
ATOM      5  C   UNL     1       7.952   3.599  -4.032  1.00  0.00     0.059 C 
BRANCH   5   6
ATOM      6  C   UNL     1       8.929   2.612  -4.595  1.00  0.00     0.042 C 
ATOM      7  O   UNL     1       9.703   2.948  -5.528  1.00  0.00    -0.550 OA
ATOM      8  O   UNL     1       8.954   1.308  -4.116  1.00  0.00    -0.550 OA
ENDBRANCH   5   6
ENDBRANCH   1   5
TORSDOF 3
ENDMDL
MODEL 7
REMARK VINA RESULT:    -3.613      2.393      3.680
REMARK INTER + INTRA:          -4.382
REMARK INTER:                  -4.268
REMARK INTRA:                  -0.114
REMARK UNBOUND:                -0.134
REMARK SMILES O=C([O-])CCC(=O)[O-]
REMARK SMILES IDX 4 1 2 2 1 3 3 4 5 5 6 6 7 7 8 8
REMARK H PARENT
REMARK Flexibility Score: inf
ROOT
ATOM      1  C   UNL     1       6.412   2.788  -6.912  1.00  0.00     0.059 C 
ENDROOT
BRANCH   1   2
ATOM      2  C   UNL     1       7.147   1.502  -6.688  1.00  0.00     0.042 C 
ATOM      3  O   UNL     1       8.046   1.138  -7.493  1.00  0.00    -0.550 OA
ATOM      4  O   UNL     1       6.813   0.686  -5.616  1.00  0.00    -0.550 OA
ENDBRANCH   1   2
BRANCH   1   5
ATOM      5  C   UNL     1       5.993   3.436  -5.589  1.00  0.00     0.059 C 
BRANCH   5   6
ATOM      6  C   UNL     1       7.034   4.389  -5.086  1.00  0.00     0.042 C 
ATOM      7  O   UNL     1       6.969   5.611  -5.378  1.00  0.00    -0.550 OA
ATOM      8  O   UNL     1       8.099   3.918  -4.328  1.00  0.00    -0.550 OA
ENDBRANCH   5   6
ENDBRANCH   1   5
TORSDOF 3
ENDMDL
MODEL 8
REMARK VINA RESULT:    -3.583      2.414      4.222
REMARK INTER + INTRA:          -4.345
REMARK INTER:                  -4.232
REMARK INTRA:                  -0.113
REMARK UNBOUND:                -0.134
REMARK SMILES O=C([O-])CCC(=O)[O-]
REMARK SMILES IDX 4 1 2 2 1 3 3 4 5 5 6 6 7 7 8 8
REMARK H PARENT
REMARK Flexibility Score: inf
ROOT
ATOM      1  C   UNL     1       5.966   3.459  -5.693  1.00  0.00     0.059 C 
ENDROOT
BRANCH   1   2
ATOM      2  C   UNL     1       6.974   4.462  -5.222  1.00  0.00     0.042 C 
ATOM      3  O   UNL     1       7.846   4.133  -4.373  1.00  0.00    -0.550 OA
ATOM      4  O   UNL     1       6.927   5.769  -5.687  1.00  0.00    -0.550 OA
ENDBRANCH   1   2
BRANCH   1   5
ATOM      5  C   UNL     1       6.428   2.752  -6.971  1.00  0.00     0.059 C 
BRANCH   5   6
ATOM      6  C   UNL     1       7.201   1.506  -6.664  1.00  0.00     0.042 C 
ATOM      7  O   UNL     1       8.171   1.166  -7.391  1.00  0.00    -0.550 OA
ATOM      8  O   UNL     1       6.824   0.697  -5.599  1.00  0.00    -0.550 OA
ENDBRANCH   5   6
ENDBRANCH   1   5
TORSDOF 3
ENDMDL
MODEL 9
REMARK VINA RESULT:    -3.512      2.206      2.607
REMARK INTER + INTRA:          -4.262
REMARK INTER:                  -4.086
REMARK INTRA:                  -0.177
REMARK UNBOUND:                -0.134
REMARK SMILES O=C([O-])CCC(=O)[O-]
REMARK SMILES IDX 4 1 2 2 1 3 3 4 5 5 6 6 7 7 8 8
REMARK H PARENT
REMARK Flexibility Score: inf
ROOT
ATOM      1  C   UNL     1       7.498   3.467  -4.763  1.00  0.00     0.059 C 
ENDROOT
BRANCH   1   2
ATOM      2  C   UNL     1       8.682   2.550  -4.722  1.00  0.00     0.042 C 
ATOM      3  O   UNL     1       8.641   1.495  -4.035  1.00  0.00    -0.550 OA
ATOM      4  O   UNL     1       9.843   2.880  -5.408  1.00  0.00    -0.550 OA
ENDBRANCH   1   2
BRANCH   1   5
ATOM      5  C   UNL     1       6.312   2.827  -5.491  1.00  0.00     0.059 C 
BRANCH   5   6
ATOM      6  C   UNL     1       6.688   2.378  -6.870  1.00  0.00     0.042 C 
ATOM      7  O   UNL     1       6.911   3.224  -7.774  1.00  0.00    -0.550 OA
ATOM      8  O   UNL     1       6.752   1.022  -7.166  1.00  0.00    -0.550 OA
ENDBRANCH   5   6
ENDBRANCH   1   5
TORSDOF 3
ENDMDL
