MODEL 1
REMARK VINA RESULT:    -3.148      0.000      0.000
REMARK INTER + INTRA:          -3.988
REMARK INTER:                  -3.700
REMARK INTRA:                  -0.288
REMARK UNBOUND:                -0.288
REMARK SMILES O=C([O-])C=Cc1ccc(O)c(O)c1
REMARK SMILES IDX 6 1 13 2 7 3 11 4 8 5 9 6 5 7 4 8 2 9 1 10 3 11 12 12 10 14
REMARK H PARENT 12 13 10 15
REMARK Flexibility Score: inf
ROOT
ATOM      1  C   UNL     1      52.858 -33.909  24.319  1.00  0.00    -0.022 A 
ATOM      2  C   UNL     1      53.757 -32.908  23.925  1.00  0.00     0.058 A 
ATOM      3  C   UNL     1      53.191 -35.256  24.108  1.00  0.00     0.012 A 
ATOM      4  C   UNL     1      54.953 -33.241  23.279  1.00  0.00     0.157 A 
ATOM      5  C   UNL     1      54.383 -35.594  23.463  1.00  0.00     0.051 A 
ATOM      6  C   UNL     1      55.267 -34.591  23.041  1.00  0.00     0.157 A 
ENDROOT
BRANCH   1   7
ATOM      7  C   UNL     1      51.628 -33.530  25.047  1.00  0.00     0.010 C 
ATOM      8  C   UNL     1      50.419 -33.349  24.490  1.00  0.00     0.025 C 
BRANCH   8   9
ATOM      9  C   UNL     1      50.132 -33.317  23.044  1.00  0.00     0.064 C 
ATOM     10  O   UNL     1      50.049 -32.230  22.412  1.00  0.00    -0.545 OA
ATOM     11  O   UNL     1      49.880 -34.509  22.377  1.00  0.00    -0.545 OA
ENDBRANCH   8   9
ENDBRANCH   1   7
BRANCH   4  12
ATOM     12  O   UNL     1      55.816 -32.220  22.882  1.00  0.00    -0.504 OA
ATOM     13  H   UNL     1      55.650 -31.251  23.124  1.00  0.00     0.293 HD
ENDBRANCH   4  12
BRANCH   6  14
ATOM     14  O   UNL     1      56.455 -34.929  22.396  1.00  0.00    -0.504 OA
ATOM     15  H   UNL     1      56.573 -35.823  21.934  1.00  0.00     0.293 HD
ENDBRANCH   6  14
TORSDOF 4
ENDMDL
MODEL 2
REMARK VINA RESULT:    -3.053      1.573      4.469
REMARK INTER + INTRA:          -3.876
REMARK INTER:                  -3.817
REMARK INTRA:                  -0.059
REMARK UNBOUND:                -0.288
REMARK SMILES O=C([O-])C=Cc1ccc(O)c(O)c1
REMARK SMILES IDX 6 1 13 2 7 3 11 4 8 5 9 6 5 7 4 8 2 9 1 10 3 11 12 12 10 14
REMARK H PARENT 12 13 10 15
REMARK Flexibility Score: inf
ROOT
ATOM      1  C   UNL     1      52.004 -33.994  23.978  1.00  0.00    -0.022 A 
ATOM      2  C   UNL     1      52.555 -32.708  23.882  1.00  0.00     0.058 A 
ATOM      3  C   UNL     1      50.765 -34.259  23.371  1.00  0.00     0.012 A 
ATOM      4  C   UNL     1      51.857 -31.681  23.235  1.00  0.00     0.157 A 
ATOM      5  C   UNL     1      50.065 -33.237  22.725  1.00  0.00     0.051 A 
ATOM      6  C   UNL     1      50.603 -31.945  22.657  1.00  0.00     0.157 A 
ENDROOT
BRANCH   1   7
ATOM      7  C   UNL     1      52.787 -35.070  24.620  1.00  0.00     0.010 C 
ATOM      8  C   UNL     1      53.976 -35.526  24.197  1.00  0.00     0.025 C 
BRANCH   8   9
ATOM      9  C   UNL     1      54.633 -35.171  22.925  1.00  0.00     0.064 C 
ATOM     10  O   UNL     1      54.493 -35.877  21.891  1.00  0.00    -0.545 OA
ATOM     11  O   UNL     1      55.479 -34.070  22.885  1.00  0.00    -0.545 OA
ENDBRANCH   8   9
ENDBRANCH   1   7
BRANCH   4  12
ATOM     12  O   UNL     1      52.425 -30.409  23.174  1.00  0.00    -0.504 OA
ATOM     13  H   UNL     1      53.393 -30.240  23.419  1.00  0.00     0.293 HD
ENDBRANCH   4  12
BRANCH   6  14
ATOM     14  O   UNL     1      49.902 -30.927  22.013  1.00  0.00    -0.504 OA
ATOM     15  H   UNL     1      49.882 -30.852  21.003  1.00  0.00     0.293 HD
ENDBRANCH   6  14
TORSDOF 4
ENDMDL
MODEL 3
REMARK VINA RESULT:    -3.049      1.895      2.612
REMARK INTER + INTRA:          -3.872
REMARK INTER:                  -3.629
REMARK INTRA:                  -0.243
REMARK UNBOUND:                -0.288
REMARK SMILES O=C([O-])C=Cc1ccc(O)c(O)c1
REMARK SMILES IDX 6 1 13 2 7 3 11 4 8 5 9 6 5 7 4 8 2 9 1 10 3 11 12 12 10 14
REMARK H PARENT 12 13 10 15
REMARK Flexibility Score: inf
ROOT
ATOM      1  C   UNL     1      53.779 -34.517  24.322  1.00  0.00    -0.022 A 
ATOM      2  C   UNL     1      53.660 -35.219  23.114  1.00  0.00     0.058 A 
ATOM      3  C   UNL     1      55.055 -34.163  24.790  1.00  0.00     0.012 A 
ATOM      4  C   UNL     1      54.801 -35.613  22.405  1.00  0.00     0.157 A 
ATOM      5  C   UNL     1      56.196 -34.554  24.086  1.00  0.00     0.051 A 
ATOM      6  C   UNL     1      56.077 -35.284  22.895  1.00  0.00     0.157 A 
ENDROOT
BRANCH   1   7
ATOM      7  C   UNL     1      52.556 -34.069  25.021  1.00  0.00     0.010 C 
ATOM      8  C   UNL     1      51.928 -32.900  24.818  1.00  0.00     0.025 C 
BRANCH   8   9
ATOM      9  C   UNL     1      52.433 -31.780  24.002  1.00  0.00     0.064 C 
ATOM     10  O   UNL     1      53.380 -31.049  24.399  1.00  0.00    -0.545 OA
ATOM     11  O   UNL     1      51.805 -31.481  22.800  1.00  0.00    -0.545 OA
ENDBRANCH   8   9
ENDBRANCH   1   7
BRANCH   4  12
ATOM     12  O   UNL     1      54.648 -36.328  21.217  1.00  0.00    -0.504 OA
ATOM     13  H   UNL     1      53.832 -36.220  20.626  1.00  0.00     0.293 HD
ENDBRANCH   4  12
BRANCH   6  14
ATOM     14  O   UNL     1      57.217 -35.675  22.195  1.00  0.00    -0.504 OA
ATOM     15  H   UNL     1      57.571 -36.623  22.244  1.00  0.00     0.293 HD
ENDBRANCH   6  14
TORSDOF 4
ENDMDL
MODEL 4
REMARK VINA RESULT:    -2.991      2.207      5.167
REMARK INTER + INTRA:          -3.803
REMARK INTER:                  -3.542
REMARK INTRA:                  -0.262
REMARK UNBOUND:                -0.288
REMARK SMILES O=C([O-])C=Cc1ccc(O)c(O)c1
REMARK SMILES IDX 6 1 13 2 7 3 11 4 8 5 9 6 5 7 4 8 2 9 1 10 3 11 12 12 10 14
REMARK H PARENT 12 13 10 15
REMARK Flexibility Score: inf
ROOT
ATOM      1  C   UNL     1      54.688 -34.800  22.924  1.00  0.00    -0.022 A 
ATOM      2  C   UNL     1      55.103 -33.473  23.101  1.00  0.00     0.058 A 
ATOM      3  C   UNL     1      53.478 -35.225  23.496  1.00  0.00     0.012 A 
ATOM      4  C   UNL     1      54.349 -32.590  23.883  1.00  0.00     0.157 A 
ATOM      5  C   UNL     1      52.723 -34.348  24.277  1.00  0.00     0.051 A 
ATOM      6  C   UNL     1      53.154 -33.030  24.479  1.00  0.00     0.157 A 
ENDROOT
BRANCH   1   7
ATOM      7  C   UNL     1      55.477 -35.694  22.050  1.00  0.00     0.010 C 
ATOM      8  C   UNL     1      56.533 -36.428  22.437  1.00  0.00     0.025 C 
BRANCH   8   9
ATOM      9  C   UNL     1      57.208 -36.344  23.745  1.00  0.00     0.064 C 
ATOM     10  O   UNL     1      56.912 -37.122  24.691  1.00  0.00    -0.545 OA
ATOM     11  O   UNL     1      58.143 -35.340  23.961  1.00  0.00    -0.545 OA
ENDBRANCH   8   9
ENDBRANCH   1   7
BRANCH   4  12
ATOM     12  O   UNL     1      54.800 -31.281  24.055  1.00  0.00    -0.504 OA
ATOM     13  H   UNL     1      54.603 -30.551  23.381  1.00  0.00     0.293 HD
ENDBRANCH   4  12
BRANCH   6  14
ATOM     14  O   UNL     1      52.400 -32.157  25.262  1.00  0.00    -0.504 OA
ATOM     15  H   UNL     1      51.388 -32.190  25.268  1.00  0.00     0.293 HD
ENDBRANCH   6  14
TORSDOF 4
ENDMDL
MODEL 5
REMARK VINA RESULT:    -2.909      1.973      2.871
REMARK INTER + INTRA:          -3.708
REMARK INTER:                  -3.474
REMARK INTRA:                  -0.234
REMARK UNBOUND:                -0.288
REMARK SMILES O=C([O-])C=Cc1ccc(O)c(O)c1
REMARK SMILES IDX 6 1 13 2 7 3 11 4 8 5 9 6 5 7 4 8 2 9 1 10 3 11 12 12 10 14
REMARK H PARENT 12 13 10 15
REMARK Flexibility Score: inf
ROOT
ATOM      1  C   UNL     1      54.153 -35.440  23.573  1.00  0.00    -0.022 A 
ATOM      2  C   UNL     1      55.261 -35.519  24.429  1.00  0.00     0.058 A 
ATOM      3  C   UNL     1      54.342 -35.584  22.189  1.00  0.00     0.012 A 
ATOM      4  C   UNL     1      56.550 -35.687  23.911  1.00  0.00     0.157 A 
ATOM      5  C   UNL     1      55.627 -35.751  21.667  1.00  0.00     0.051 A 
ATOM      6  C   UNL     1      56.737 -35.799  22.522  1.00  0.00     0.157 A 
ENDROOT
BRANCH   1   7
ATOM      7  C   UNL     1      52.799 -35.315  24.152  1.00  0.00     0.010 C 
ATOM      8  C   UNL     1      52.127 -34.165  24.320  1.00  0.00     0.025 C 
BRANCH   8   9
ATOM      9  C   UNL     1      52.677 -32.810  24.129  1.00  0.00     0.064 C 
ATOM     10  O   UNL     1      53.584 -32.355  24.877  1.00  0.00    -0.545 OA
ATOM     11  O   UNL     1      52.136 -31.991  23.147  1.00  0.00    -0.545 OA
ENDBRANCH   8   9
ENDBRANCH   1   7
BRANCH   4  12
ATOM     12  O   UNL     1      57.632 -35.742  24.790  1.00  0.00    -0.504 OA
ATOM     13  H   UNL     1      57.527 -36.029  25.755  1.00  0.00     0.293 HD
ENDBRANCH   4  12
BRANCH   6  14
ATOM     14  O   UNL     1      58.018 -35.963  21.999  1.00  0.00    -0.504 OA
ATOM     15  H   UNL     1      58.801 -36.225  22.587  1.00  0.00     0.293 HD
ENDBRANCH   6  14
TORSDOF 4
ENDMDL
MODEL 6
REMARK VINA RESULT:    -2.903      6.458      7.778
REMARK INTER + INTRA:          -3.700
REMARK INTER:                  -3.452
REMARK INTRA:                  -0.248
REMARK UNBOUND:                -0.288
REMARK SMILES O=C([O-])C=Cc1ccc(O)c(O)c1
REMARK SMILES IDX 6 1 13 2 7 3 11 4 8 5 9 6 5 7 4 8 2 9 1 10 3 11 12 12 10 14
REMARK H PARENT 12 13 10 15
REMARK Flexibility Score: inf
ROOT
ATOM      1  C   UNL     1      51.284 -26.858  24.300  1.00  0.00    -0.022 A 
ATOM      2  C   UNL     1      52.295 -27.829  24.346  1.00  0.00     0.058 A 
ATOM      3  C   UNL     1      50.062 -27.166  23.681  1.00  0.00     0.012 A 
ATOM      4  C   UNL     1      52.112 -29.076  23.737  1.00  0.00     0.157 A 
ATOM      5  C   UNL     1      49.875 -28.409  23.071  1.00  0.00     0.051 A 
ATOM      6  C   UNL     1      50.897 -29.367  23.091  1.00  0.00     0.157 A 
ENDROOT
BRANCH   1   7
ATOM      7  C   UNL     1      51.486 -25.570  24.997  1.00  0.00     0.010 C 
ATOM      8  C   UNL     1      51.736 -24.394  24.401  1.00  0.00     0.025 C 
BRANCH   8   9
ATOM      9  C   UNL     1      52.033 -24.198  22.969  1.00  0.00     0.064 C 
ATOM     10  O   UNL     1      53.141 -24.537  22.474  1.00  0.00    -0.545 OA
ATOM     11  O   UNL     1      51.096 -23.564  22.164  1.00  0.00    -0.545 OA
ENDBRANCH   8   9
ENDBRANCH   1   7
BRANCH   4  12
ATOM     12  O   UNL     1      53.145 -30.012  23.786  1.00  0.00    -0.504 OA
ATOM     13  H   UNL     1      53.599 -30.267  24.654  1.00  0.00     0.293 HD
ENDBRANCH   4  12
BRANCH   6  14
ATOM     14  O   UNL     1      50.710 -30.606  22.481  1.00  0.00    -0.504 OA
ATOM     15  H   UNL     1      50.355 -31.403  22.996  1.00  0.00     0.293 HD
ENDBRANCH   6  14
TORSDOF 4
ENDMDL
MODEL 7
REMARK VINA RESULT:    -2.848      2.386      3.225
REMARK INTER + INTRA:          -3.636
REMARK INTER:                  -3.341
REMARK INTRA:                  -0.295
REMARK UNBOUND:                -0.288
REMARK SMILES O=C([O-])C=Cc1ccc(O)c(O)c1
REMARK SMILES IDX 6 1 13 2 7 3 11 4 8 5 9 6 5 7 4 8 2 9 1 10 3 11 12 12 10 14
REMARK H PARENT 12 13 10 15
REMARK Flexibility Score: inf
ROOT
ATOM      1  C   UNL     1      52.741 -34.589  23.534  1.00  0.00    -0.022 A 
ATOM      2  C   UNL     1      53.936 -35.146  23.057  1.00  0.00     0.058 A 
ATOM      3  C   UNL     1      52.693 -33.219  23.839  1.00  0.00     0.012 A 
ATOM      4  C   UNL     1      55.088 -34.359  22.935  1.00  0.00     0.157 A 
ATOM      5  C   UNL     1      53.840 -32.431  23.720  1.00  0.00     0.051 A 
ATOM      6  C   UNL     1      55.042 -32.995  23.272  1.00  0.00     0.157 A 
ENDROOT
BRANCH   1   7
ATOM      7  C   UNL     1      51.528 -35.431  23.602  1.00  0.00     0.010 C 
ATOM      8  C   UNL     1      51.053 -36.023  24.710  1.00  0.00     0.025 C 
BRANCH   8   9
ATOM      9  C   UNL     1      51.742 -36.095  26.012  1.00  0.00     0.064 C 
ATOM     10  O   UNL     1      51.467 -35.296  26.948  1.00  0.00    -0.545 OA
ATOM     11  O   UNL     1      52.763 -37.019  26.188  1.00  0.00    -0.545 OA
ENDBRANCH   8   9
ENDBRANCH   1   7
BRANCH   4  12
ATOM     12  O   UNL     1      56.265 -34.949  22.475  1.00  0.00    -0.504 OA
ATOM     13  H   UNL     1      56.863 -34.497  21.793  1.00  0.00     0.293 HD
ENDBRANCH   4  12
BRANCH   6  14
ATOM     14  O   UNL     1      56.186 -32.207  23.156  1.00  0.00    -0.504 OA
ATOM     15  H   UNL     1      56.467 -31.808  22.268  1.00  0.00     0.293 HD
ENDBRANCH   6  14
TORSDOF 4
ENDMDL
MODEL 8
REMARK VINA RESULT:    -2.847      1.838      4.571
REMARK INTER + INTRA:          -3.634
REMARK INTER:                  -3.374
REMARK INTRA:                  -0.260
REMARK UNBOUND:                -0.288
REMARK SMILES O=C([O-])C=Cc1ccc(O)c(O)c1
REMARK SMILES IDX 6 1 13 2 7 3 11 4 8 5 9 6 5 7 4 8 2 9 1 10 3 11 12 12 10 14
REMARK H PARENT 12 13 10 15
REMARK Flexibility Score: inf
ROOT
ATOM      1  C   UNL     1      52.837 -33.376  24.298  1.00  0.00    -0.022 A 
ATOM      2  C   UNL     1      51.822 -32.944  23.434  1.00  0.00     0.058 A 
ATOM      3  C   UNL     1      53.655 -32.425  24.929  1.00  0.00     0.012 A 
ATOM      4  C   UNL     1      51.655 -31.581  23.157  1.00  0.00     0.157 A 
ATOM      5  C   UNL     1      53.494 -31.065  24.656  1.00  0.00     0.051 A 
ATOM      6  C   UNL     1      52.498 -30.636  23.767  1.00  0.00     0.157 A 
ENDROOT
BRANCH   1   7
ATOM      7  C   UNL     1      52.955 -34.816  24.612  1.00  0.00     0.010 C 
ATOM      8  C   UNL     1      53.892 -35.644  24.125  1.00  0.00     0.025 C 
BRANCH   8   9
ATOM      9  C   UNL     1      54.858 -35.321  23.058  1.00  0.00     0.064 C 
ATOM     10  O   UNL     1      54.689 -35.716  21.873  1.00  0.00    -0.545 OA
ATOM     11  O   UNL     1      56.015 -34.623  23.381  1.00  0.00    -0.545 OA
ENDBRANCH   8   9
ENDBRANCH   1   7
BRANCH   4  12
ATOM     12  O   UNL     1      50.648 -31.186  22.277  1.00  0.00    -0.504 OA
ATOM     13  H   UNL     1      50.798 -31.130  21.277  1.00  0.00     0.293 HD
ENDBRANCH   4  12
BRANCH   6  14
ATOM     14  O   UNL     1      52.340 -29.278  23.495  1.00  0.00    -0.504 OA
ATOM     15  H   UNL     1      52.753 -28.850  22.674  1.00  0.00     0.293 HD
ENDBRANCH   6  14
TORSDOF 4
ENDMDL
MODEL 9
REMARK VINA RESULT:    -2.830      2.778      3.927
REMARK INTER + INTRA:          -3.614
REMARK INTER:                  -3.332
REMARK INTRA:                  -0.282
REMARK UNBOUND:                -0.288
REMARK SMILES O=C([O-])C=Cc1ccc(O)c(O)c1
REMARK SMILES IDX 6 1 13 2 7 3 11 4 8 5 9 6 5 7 4 8 2 9 1 10 3 11 12 12 10 14
REMARK H PARENT 12 13 10 15
REMARK Flexibility Score: inf
ROOT
ATOM      1  C   UNL     1      55.180 -34.013  24.745  1.00  0.00    -0.022 A 
ATOM      2  C   UNL     1      56.283 -34.467  24.008  1.00  0.00     0.058 A 
ATOM      3  C   UNL     1      53.887 -34.399  24.356  1.00  0.00     0.012 A 
ATOM      4  C   UNL     1      56.100 -35.254  22.865  1.00  0.00     0.157 A 
ATOM      5  C   UNL     1      53.699 -35.183  23.216  1.00  0.00     0.051 A 
ATOM      6  C   UNL     1      54.801 -35.611  22.462  1.00  0.00     0.157 A 
ENDROOT
BRANCH   1   7
ATOM      7  C   UNL     1      55.407 -33.228  25.977  1.00  0.00     0.010 C 
ATOM      8  C   UNL     1      55.283 -31.896  26.084  1.00  0.00     0.025 C 
BRANCH   8   9
ATOM      9  C   UNL     1      55.078 -30.956  24.966  1.00  0.00     0.064 C 
ATOM     10  O   UNL     1      56.050 -30.415  24.373  1.00  0.00    -0.545 OA
ATOM     11  O   UNL     1      53.784 -30.607  24.604  1.00  0.00    -0.545 OA
ENDBRANCH   8   9
ENDBRANCH   1   7
BRANCH   4  12
ATOM     12  O   UNL     1      57.218 -35.673  22.144  1.00  0.00    -0.504 OA
ATOM     13  H   UNL     1      58.160 -35.420  22.417  1.00  0.00     0.293 HD
ENDBRANCH   4  12
BRANCH   6  14
ATOM     14  O   UNL     1      54.612 -36.392  21.323  1.00  0.00    -0.504 OA
ATOM     15  H   UNL     1      55.161 -36.248  20.484  1.00  0.00     0.293 HD
ENDBRANCH   6  14
TORSDOF 4
ENDMDL
