MODEL 1
REMARK VINA RESULT:    -5.450      0.000      0.000
REMARK INTER + INTRA:          -7.766
REMARK INTER:                  -7.362
REMARK INTRA:                  -0.404
REMARK UNBOUND:                -0.404
REMARK SMILES CC(=O)CCC=C(C)CCC=C(C)C
REMARK SMILES IDX 7 1 6 2 8 3 9 4 10 5 11 6 13 7 12 8 14 9 5 10 4 11 2 12 3 13
REMARK SMILES IDX 1 14
REMARK H PARENT
REMARK Flexibility Score: inf
ROOT
ATOM      1  C   UNL     1      24.643  52.455   0.275  1.00  0.00    -0.077 C 
ATOM      2  C   UNL     1      25.629  53.369   0.411  1.00  0.00    -0.028 C 
ATOM      3  C   UNL     1      24.475  51.416   1.354  1.00  0.00     0.039 C 
ENDROOT
BRANCH   1   4
ATOM      4  C   UNL     1      23.715  52.419  -0.927  1.00  0.00     0.034 C 
BRANCH   4   5
ATOM      5  C   UNL     1      23.184  51.005  -1.204  1.00  0.00     0.032 C 
BRANCH   5   6
ATOM      6  C   UNL     1      22.673  50.861  -2.617  1.00  0.00    -0.028 C 
ATOM      7  C   UNL     1      21.500  49.816  -4.505  1.00  0.00     0.039 C 
ATOM      8  C   UNL     1      21.886  49.851  -3.050  1.00  0.00    -0.080 C 
ATOM      9  C   UNL     1      21.374  48.778  -2.117  1.00  0.00     0.039 C 
ENDBRANCH   5   6
ENDBRANCH   4   5
ENDBRANCH   1   4
BRANCH   2  10
ATOM     10  C   UNL     1      25.886  54.484  -0.578  1.00  0.00     0.035 C 
BRANCH  10  11
ATOM     11  C   UNL     1      26.762  55.593   0.021  1.00  0.00     0.079 C 
BRANCH  11  12
ATOM     12  C   UNL     1      28.007  55.827  -0.800  1.00  0.00     0.130 C 
ATOM     13  O   UNL     1      28.766  56.735  -0.499  1.00  0.00    -0.300 OA
ATOM     14  C   UNL     1      28.328  54.973  -1.992  1.00  0.00     0.087 C 
ENDBRANCH  11  12
ENDBRANCH  10  11
ENDBRANCH   2  10
TORSDOF 6
ENDMDL
MODEL 2
REMARK VINA RESULT:    -5.152      1.292      1.673
REMARK INTER + INTRA:          -7.363
REMARK INTER:                  -6.910
REMARK INTRA:                  -0.453
REMARK UNBOUND:                -0.404
REMARK SMILES CC(=O)CCC=C(C)CCC=C(C)C
REMARK SMILES IDX 7 1 6 2 8 3 9 4 10 5 11 6 13 7 12 8 14 9 5 10 4 11 2 12 3 13
REMARK SMILES IDX 1 14
REMARK H PARENT
REMARK Flexibility Score: inf
ROOT
ATOM      1  C   UNL     1      23.885  51.830   0.359  1.00  0.00    -0.077 C 
ATOM      2  C   UNL     1      24.658  52.900   0.653  1.00  0.00    -0.028 C 
ATOM      3  C   UNL     1      22.876  51.374   1.381  1.00  0.00     0.039 C 
ENDROOT
BRANCH   1   4
ATOM      4  C   UNL     1      24.007  51.061  -0.945  1.00  0.00     0.034 C 
BRANCH   4   5
ATOM      5  C   UNL     1      22.948  51.492  -1.969  1.00  0.00     0.032 C 
BRANCH   5   6
ATOM      6  C   UNL     1      22.212  50.309  -2.551  1.00  0.00    -0.028 C 
ATOM      7  C   UNL     1      21.069  48.974  -4.267  1.00  0.00     0.039 C 
ATOM      8  C   UNL     1      21.846  50.194  -3.847  1.00  0.00    -0.080 C 
ATOM      9  C   UNL     1      22.207  51.239  -4.877  1.00  0.00     0.039 C 
ENDBRANCH   5   6
ENDBRANCH   4   5
ENDBRANCH   1   4
BRANCH   2  10
ATOM     10  C   UNL     1      25.684  53.482  -0.293  1.00  0.00     0.035 C 
BRANCH  10  11
ATOM     11  C   UNL     1      26.050  54.927   0.073  1.00  0.00     0.079 C 
BRANCH  11  12
ATOM     12  C   UNL     1      27.010  55.530  -0.922  1.00  0.00     0.130 C 
ATOM     13  O   UNL     1      26.735  55.512  -2.112  1.00  0.00    -0.300 OA
ATOM     14  C   UNL     1      28.307  56.144  -0.482  1.00  0.00     0.087 C 
ENDBRANCH  11  12
ENDBRANCH  10  11
ENDBRANCH   2  10
TORSDOF 6
ENDMDL
MODEL 3
REMARK VINA RESULT:    -5.116      1.904      2.664
REMARK INTER + INTRA:          -7.314
REMARK INTER:                  -6.581
REMARK INTRA:                  -0.733
REMARK UNBOUND:                -0.404
REMARK SMILES CC(=O)CCC=C(C)CCC=C(C)C
REMARK SMILES IDX 7 1 6 2 8 3 9 4 10 5 11 6 13 7 12 8 14 9 5 10 4 11 2 12 3 13
REMARK SMILES IDX 1 14
REMARK H PARENT
REMARK Flexibility Score: inf
ROOT
ATOM      1  C   UNL     1      22.459  50.928   1.139  1.00  0.00    -0.077 C 
ATOM      2  C   UNL     1      23.309  51.976   1.201  1.00  0.00    -0.028 C 
ATOM      3  C   UNL     1      21.095  51.075   1.764  1.00  0.00     0.039 C 
ENDROOT
BRANCH   1   4
ATOM      4  C   UNL     1      22.828  49.606   0.488  1.00  0.00     0.034 C 
BRANCH   4   5
ATOM      5  C   UNL     1      22.005  49.340  -0.781  1.00  0.00     0.032 C 
BRANCH   5   6
ATOM      6  C   UNL     1      22.347  50.309  -1.888  1.00  0.00    -0.028 C 
ATOM      7  C   UNL     1      22.477  51.169  -4.185  1.00  0.00     0.039 C 
ATOM      8  C   UNL     1      22.019  50.137  -3.187  1.00  0.00    -0.080 C 
ATOM      9  C   UNL     1      21.198  48.959  -3.657  1.00  0.00     0.039 C 
ENDBRANCH   5   6
ENDBRANCH   4   5
ENDBRANCH   1   4
BRANCH   2  10
ATOM     10  C   UNL     1      24.692  51.975   0.587  1.00  0.00     0.035 C 
BRANCH  10  11
ATOM     11  C   UNL     1      24.901  53.163  -0.363  1.00  0.00     0.079 C 
BRANCH  11  12
ATOM     12  C   UNL     1      25.808  54.207   0.239  1.00  0.00     0.130 C 
ATOM     13  O   UNL     1      26.025  54.197   1.441  1.00  0.00    -0.300 OA
ATOM     14  C   UNL     1      26.444  55.270  -0.608  1.00  0.00     0.087 C 
ENDBRANCH  11  12
ENDBRANCH  10  11
ENDBRANCH   2  10
TORSDOF 6
ENDMDL
MODEL 4
REMARK VINA RESULT:    -5.071      2.982      6.689
REMARK INTER + INTRA:          -7.254
REMARK INTER:                  -6.226
REMARK INTRA:                  -1.028
REMARK UNBOUND:                -0.404
REMARK SMILES CC(=O)CCC=C(C)CCC=C(C)C
REMARK SMILES IDX 7 1 6 2 8 3 9 4 10 5 11 6 13 7 12 8 14 9 5 10 4 11 2 12 3 13
REMARK SMILES IDX 1 14
REMARK H PARENT
REMARK Flexibility Score: inf
ROOT
ATOM      1  C   UNL     1      22.791  50.420  -1.767  1.00  0.00    -0.077 C 
ATOM      2  C   UNL     1      21.892  49.535  -1.282  1.00  0.00    -0.028 C 
ATOM      3  C   UNL     1      22.582  50.964  -3.157  1.00  0.00     0.039 C 
ENDROOT
BRANCH   1   4
ATOM      4  C   UNL     1      24.010  50.870  -0.980  1.00  0.00     0.034 C 
BRANCH   4   5
ATOM      5  C   UNL     1      23.989  52.380  -0.700  1.00  0.00     0.032 C 
BRANCH   5   6
ATOM      6  C   UNL     1      24.746  52.730   0.558  1.00  0.00    -0.028 C 
ATOM      7  C   UNL     1      26.360  53.927   1.971  1.00  0.00     0.039 C 
ATOM      8  C   UNL     1      25.645  53.734   0.659  1.00  0.00    -0.080 C 
ATOM      9  C   UNL     1      25.937  54.667  -0.492  1.00  0.00     0.039 C 
ENDBRANCH   5   6
ENDBRANCH   4   5
ENDBRANCH   1   4
BRANCH   2  10
ATOM     10  C   UNL     1      21.963  48.938   0.106  1.00  0.00     0.035 C 
BRANCH  10  11
ATOM     11  C   UNL     1      20.959  49.591   1.066  1.00  0.00     0.079 C 
BRANCH  11  12
ATOM     12  C   UNL     1      21.579  50.734   1.831  1.00  0.00     0.130 C 
ATOM     13  O   UNL     1      21.183  51.874   1.639  1.00  0.00    -0.300 OA
ATOM     14  C   UNL     1      22.684  50.503   2.819  1.00  0.00     0.087 C 
ENDBRANCH  11  12
ENDBRANCH  10  11
ENDBRANCH   2  10
TORSDOF 6
ENDMDL
MODEL 5
REMARK VINA RESULT:    -5.003      2.901      6.427
REMARK INTER + INTRA:          -7.161
REMARK INTER:                  -6.700
REMARK INTRA:                  -0.461
REMARK UNBOUND:                -0.404
REMARK SMILES CC(=O)CCC=C(C)CCC=C(C)C
REMARK SMILES IDX 7 1 6 2 8 3 9 4 10 5 11 6 13 7 12 8 14 9 5 10 4 11 2 12 3 13
REMARK SMILES IDX 1 14
REMARK H PARENT
REMARK Flexibility Score: inf
ROOT
ATOM      1  C   UNL     1      22.684  50.987  -0.898  1.00  0.00    -0.077 C 
ATOM      2  C   UNL     1      22.246  50.227  -1.926  1.00  0.00    -0.028 C 
ATOM      3  C   UNL     1      22.514  50.461   0.504  1.00  0.00     0.039 C 
ENDROOT
BRANCH   1   4
ATOM      4  C   UNL     1      23.320  52.352  -1.097  1.00  0.00     0.034 C 
BRANCH   4   5
ATOM      5  C   UNL     1      24.432  52.624  -0.073  1.00  0.00     0.032 C 
BRANCH   5   6
ATOM      6  C   UNL     1      25.273  53.817  -0.459  1.00  0.00    -0.028 C 
ATOM      7  C   UNL     1      26.806  55.708  -0.131  1.00  0.00     0.039 C 
ATOM      8  C   UNL     1      26.066  54.505   0.392  1.00  0.00    -0.080 C 
ATOM      9  C   UNL     1      26.240  54.093   1.835  1.00  0.00     0.039 C 
ENDBRANCH   5   6
ENDBRANCH   4   5
ENDBRANCH   1   4
BRANCH   2  10
ATOM     10  C   UNL     1      22.384  50.617  -3.381  1.00  0.00     0.035 C 
BRANCH  10  11
ATOM     11  C   UNL     1      23.684  50.084  -3.999  1.00  0.00     0.079 C 
BRANCH  11  12
ATOM     12  C   UNL     1      23.805  50.457  -5.456  1.00  0.00     0.130 C 
ATOM     13  O   UNL     1      24.802  50.131  -6.081  1.00  0.00    -0.300 OA
ATOM     14  C   UNL     1      22.728  51.233  -6.154  1.00  0.00     0.087 C 
ENDBRANCH  11  12
ENDBRANCH  10  11
ENDBRANCH   2  10
TORSDOF 6
ENDMDL
MODEL 6
REMARK VINA RESULT:    -4.998      2.237      4.145
REMARK INTER + INTRA:          -7.155
REMARK INTER:                  -6.116
REMARK INTRA:                  -1.039
REMARK UNBOUND:                -0.404
REMARK SMILES CC(=O)CCC=C(C)CCC=C(C)C
REMARK SMILES IDX 7 1 6 2 8 3 9 4 10 5 11 6 13 7 12 8 14 9 5 10 4 11 2 12 3 13
REMARK SMILES IDX 1 14
REMARK H PARENT
REMARK Flexibility Score: inf
ROOT
ATOM      1  C   UNL     1      23.006  50.996  -1.770  1.00  0.00    -0.077 C 
ATOM      2  C   UNL     1      23.341  52.205  -1.269  1.00  0.00    -0.028 C 
ATOM      3  C   UNL     1      22.347  50.940  -3.125  1.00  0.00     0.039 C 
ENDROOT
BRANCH   1   4
ATOM      4  C   UNL     1      23.246  49.698  -1.018  1.00  0.00     0.034 C 
BRANCH   4   5
ATOM      5  C   UNL     1      22.015  49.264  -0.210  1.00  0.00     0.032 C 
BRANCH   5   6
ATOM      6  C   UNL     1      22.285  49.268   1.275  1.00  0.00    -0.028 C 
ATOM      7  C   UNL     1      22.259  50.118   3.580  1.00  0.00     0.039 C 
ATOM      8  C   UNL     1      21.863  50.226   2.130  1.00  0.00    -0.080 C 
ATOM      9  C   UNL     1      21.001  51.380   1.678  1.00  0.00     0.039 C 
ENDBRANCH   5   6
ENDBRANCH   4   5
ENDBRANCH   1   4
BRANCH   2  10
ATOM     10  C   UNL     1      24.036  52.402   0.060  1.00  0.00     0.035 C 
BRANCH  10  11
ATOM     11  C   UNL     1      25.536  52.678  -0.111  1.00  0.00     0.079 C 
BRANCH  11  12
ATOM     12  C   UNL     1      25.916  54.045   0.403  1.00  0.00     0.130 C 
ATOM     13  O   UNL     1      25.919  54.257   1.606  1.00  0.00    -0.300 OA
ATOM     14  C   UNL     1      26.281  55.157  -0.535  1.00  0.00     0.087 C 
ENDBRANCH  11  12
ENDBRANCH  10  11
ENDBRANCH   2  10
TORSDOF 6
ENDMDL
MODEL 7
REMARK VINA RESULT:    -4.989      1.857      2.840
REMARK INTER + INTRA:          -7.142
REMARK INTER:                  -6.681
REMARK INTRA:                  -0.461
REMARK UNBOUND:                -0.404
REMARK SMILES CC(=O)CCC=C(C)CCC=C(C)C
REMARK SMILES IDX 7 1 6 2 8 3 9 4 10 5 11 6 13 7 12 8 14 9 5 10 4 11 2 12 3 13
REMARK SMILES IDX 1 14
REMARK H PARENT
REMARK Flexibility Score: inf
ROOT
ATOM      1  C   UNL     1      24.587  52.857  -0.225  1.00  0.00    -0.077 C 
ATOM      2  C   UNL     1      25.253  53.987  -0.552  1.00  0.00    -0.028 C 
ATOM      3  C   UNL     1      23.513  52.364  -1.160  1.00  0.00     0.039 C 
ENDROOT
BRANCH   1   4
ATOM      4  C   UNL     1      24.863  52.080   1.050  1.00  0.00     0.034 C 
BRANCH   4   5
ATOM      5  C   UNL     1      24.111  50.741   1.082  1.00  0.00     0.032 C 
BRANCH   5   6
ATOM      6  C   UNL     1      22.776  50.860   1.777  1.00  0.00    -0.028 C 
ATOM      7  C   UNL     1      20.366  50.537   2.121  1.00  0.00     0.039 C 
ATOM      8  C   UNL     1      21.633  50.282   1.347  1.00  0.00    -0.080 C 
ATOM      9  C   UNL     1      21.596  49.383   0.134  1.00  0.00     0.039 C 
ENDBRANCH   5   6
ENDBRANCH   4   5
ENDBRANCH   1   4
BRANCH   2  10
ATOM     10  C   UNL     1      26.375  54.573   0.276  1.00  0.00     0.035 C 
BRANCH  10  11
ATOM     11  C   UNL     1      26.768  55.978  -0.199  1.00  0.00     0.079 C 
BRANCH  11  12
ATOM     12  C   UNL     1      28.077  55.969  -0.949  1.00  0.00     0.130 C 
ATOM     13  O   UNL     1      28.914  56.825  -0.711  1.00  0.00    -0.300 OA
ATOM     14  C   UNL     1      28.369  54.934  -1.995  1.00  0.00     0.087 C 
ENDBRANCH  11  12
ENDBRANCH  10  11
ENDBRANCH   2  10
TORSDOF 6
ENDMDL
MODEL 8
REMARK VINA RESULT:    -4.889      2.250      3.784
REMARK INTER + INTRA:          -7.008
REMARK INTER:                  -6.267
REMARK INTRA:                  -0.740
REMARK UNBOUND:                -0.404
REMARK SMILES CC(=O)CCC=C(C)CCC=C(C)C
REMARK SMILES IDX 7 1 6 2 8 3 9 4 10 5 11 6 13 7 12 8 14 9 5 10 4 11 2 12 3 13
REMARK SMILES IDX 1 14
REMARK H PARENT
REMARK Flexibility Score: inf
ROOT
ATOM      1  C   UNL     1      22.439  50.562  -2.048  1.00  0.00    -0.077 C 
ATOM      2  C   UNL     1      22.903  51.098  -0.897  1.00  0.00    -0.028 C 
ATOM      3  C   UNL     1      21.766  49.215  -1.990  1.00  0.00     0.039 C 
ENDROOT
BRANCH   1   4
ATOM      4  C   UNL     1      22.587  51.250  -3.394  1.00  0.00     0.034 C 
BRANCH   4   5
ATOM      5  C   UNL     1      22.468  50.261  -4.563  1.00  0.00     0.032 C 
BRANCH   5   6
ATOM      6  C   UNL     1      23.731  50.208  -5.387  1.00  0.00    -0.028 C 
ATOM      7  C   UNL     1      25.941  49.403  -6.096  1.00  0.00     0.039 C 
ATOM      8  C   UNL     1      24.714  49.294  -5.229  1.00  0.00    -0.080 C 
ATOM      9  C   UNL     1      24.607  48.167  -4.228  1.00  0.00     0.039 C 
ENDBRANCH   5   6
ENDBRANCH   4   5
ENDBRANCH   1   4
BRANCH   2  10
ATOM     10  C   UNL     1      23.566  52.454  -0.807  1.00  0.00     0.035 C 
BRANCH  10  11
ATOM     11  C   UNL     1      24.995  52.361  -0.253  1.00  0.00     0.079 C 
BRANCH  11  12
ATOM     12  C   UNL     1      25.538  53.717   0.123  1.00  0.00     0.130 C 
ATOM     13  O   UNL     1      25.646  54.582  -0.733  1.00  0.00    -0.300 OA
ATOM     14  C   UNL     1      25.963  54.025   1.529  1.00  0.00     0.087 C 
ENDBRANCH  11  12
ENDBRANCH  10  11
ENDBRANCH   2  10
TORSDOF 6
ENDMDL
MODEL 9
REMARK VINA RESULT:    -4.717      3.126      5.204
REMARK INTER + INTRA:          -6.775
REMARK INTER:                  -6.335
REMARK INTRA:                  -0.440
REMARK UNBOUND:                -0.404
REMARK SMILES CC(=O)CCC=C(C)CCC=C(C)C
REMARK SMILES IDX 7 1 6 2 8 3 9 4 10 5 11 6 13 7 12 8 14 9 5 10 4 11 2 12 3 13
REMARK SMILES IDX 1 14
REMARK H PARENT
REMARK Flexibility Score: inf
ROOT
ATOM      1  C   UNL     1      22.099  50.160  -3.350  1.00  0.00    -0.077 C 
ATOM      2  C   UNL     1      22.350  50.497  -2.066  1.00  0.00    -0.028 C 
ATOM      3  C   UNL     1      21.173  49.001  -3.618  1.00  0.00     0.039 C 
ENDROOT
BRANCH   1   4
ATOM      4  C   UNL     1      22.725  50.886  -4.528  1.00  0.00     0.034 C 
BRANCH   4   5
ATOM      5  C   UNL     1      21.679  51.283  -5.581  1.00  0.00     0.032 C 
BRANCH   5   6
ATOM      6  C   UNL     1      22.288  52.089  -6.703  1.00  0.00    -0.028 C 
ATOM      7  C   UNL     1      22.596  54.009  -8.204  1.00  0.00     0.039 C 
ATOM      8  C   UNL     1      21.933  53.354  -7.021  1.00  0.00    -0.080 C 
ATOM      9  C   UNL     1      20.912  54.125  -6.217  1.00  0.00     0.039 C 
ENDBRANCH   5   6
ENDBRANCH   4   5
ENDBRANCH   1   4
BRANCH   2  10
ATOM     10  C   UNL     1      23.231  51.657  -1.656  1.00  0.00     0.035 C 
BRANCH  10  11
ATOM     11  C   UNL     1      23.185  51.908  -0.143  1.00  0.00     0.079 C 
BRANCH  11  12
ATOM     12  C   UNL     1      24.527  52.346   0.392  1.00  0.00     0.130 C 
ATOM     13  O   UNL     1      25.046  51.721   1.303  1.00  0.00    -0.300 OA
ATOM     14  C   UNL     1      25.235  53.546  -0.166  1.00  0.00     0.087 C 
ENDBRANCH  11  12
ENDBRANCH  10  11
ENDBRANCH   2  10
TORSDOF 6
ENDMDL
