MODEL 1
REMARK VINA RESULT:    -5.627      0.000      0.000
REMARK INTER + INTRA:          -8.988
REMARK INTER:                  -8.587
REMARK INTRA:                  -0.401
REMARK UNBOUND:                -0.401
REMARK SMILES O=C([O-])CCCCCCCCC(=O)[O-]
REMARK SMILES IDX 7 1 6 2 5 3 4 4 2 5 1 6 3 7 8 8 9 9 10 10 11 11 12 12 13 13
REMARK SMILES IDX 14 14
REMARK H PARENT
REMARK Flexibility Score: inf
ROOT
ATOM      1  C   UNL     1      14.364   0.546  13.867  1.00  0.00     0.000 C 
ENDROOT
BRANCH   1   2
ATOM      2  C   UNL     1      15.190   1.521  13.019  1.00  0.00     0.000 C 
BRANCH   2   3
ATOM      3  C   UNL     1      15.454   0.943  11.620  1.00  0.00     0.006 C 
BRANCH   3   4
ATOM      4  C   UNL     1      16.953   0.816  11.318  1.00  0.00     0.053 C 
BRANCH   4   5
ATOM      5  C   UNL     1      17.352  -0.607  11.073  1.00  0.00     0.041 C 
ATOM      6  O   UNL     1      17.539  -1.388  12.044  1.00  0.00    -0.550 OA
ATOM      7  O   UNL     1      17.552  -1.062   9.776  1.00  0.00    -0.550 OA
ENDBRANCH   4   5
ENDBRANCH   3   4
ENDBRANCH   2   3
ENDBRANCH   1   2
BRANCH   1   8
ATOM      8  C   UNL     1      13.738   1.259  15.075  1.00  0.00     0.000 C 
BRANCH   8   9
ATOM      9  C   UNL     1      14.793   1.670  16.124  1.00  0.00     0.000 C 
BRANCH   9  10
ATOM     10  C   UNL     1      14.212   2.488  17.293  1.00  0.00     0.006 C 
BRANCH  10  11
ATOM     11  C   UNL     1      13.079   1.781  18.049  1.00  0.00     0.053 C 
BRANCH  11  12
ATOM     12  C   UNL     1      13.540   0.499  18.675  1.00  0.00     0.041 C 
ATOM     13  O   UNL     1      14.285   0.524  19.689  1.00  0.00    -0.550 OA
ATOM     14  O   UNL     1      13.130  -0.721  18.154  1.00  0.00    -0.550 OA
ENDBRANCH  11  12
ENDBRANCH  10  11
ENDBRANCH   9  10
ENDBRANCH   8   9
ENDBRANCH   1   8
TORSDOF 9
ENDMDL
MODEL 2
REMARK VINA RESULT:    -5.615      1.079      6.940
REMARK INTER + INTRA:          -8.969
REMARK INTER:                  -8.505
REMARK INTRA:                  -0.464
REMARK UNBOUND:                -0.401
REMARK SMILES O=C([O-])CCCCCCCCC(=O)[O-]
REMARK SMILES IDX 7 1 6 2 5 3 4 4 2 5 1 6 3 7 8 8 9 9 10 10 11 11 12 12 13 13
REMARK SMILES IDX 14 14
REMARK H PARENT
REMARK Flexibility Score: inf
ROOT
ATOM      1  C   UNL     1      13.625   0.889  15.344  1.00  0.00     0.000 C 
ENDROOT
BRANCH   1   2
ATOM      2  C   UNL     1      12.875   2.044  16.018  1.00  0.00     0.000 C 
BRANCH   2   3
ATOM      3  C   UNL     1      13.098   2.030  17.538  1.00  0.00     0.006 C 
BRANCH   3   4
ATOM      4  C   UNL     1      13.263   0.608  18.089  1.00  0.00     0.053 C 
BRANCH   4   5
ATOM      5  C   UNL     1      14.491   0.479  18.937  1.00  0.00     0.041 C 
ATOM      6  O   UNL     1      15.622   0.348  18.398  1.00  0.00    -0.550 OA
ATOM      7  O   UNL     1      14.383   0.467  20.322  1.00  0.00    -0.550 OA
ENDBRANCH   4   5
ENDBRANCH   3   4
ENDBRANCH   2   3
ENDBRANCH   1   2
BRANCH   1   8
ATOM      8  C   UNL     1      15.034   1.322  14.913  1.00  0.00     0.000 C 
BRANCH   8   9
ATOM      9  C   UNL     1      15.077   1.803  13.447  1.00  0.00     0.000 C 
BRANCH   9  10
ATOM     10  C   UNL     1      15.187   0.655  12.426  1.00  0.00     0.006 C 
BRANCH  10  11
ATOM     11  C   UNL     1      16.283   0.861  11.371  1.00  0.00     0.053 C 
BRANCH  11  12
ATOM     12  C   UNL     1      17.199  -0.322  11.280  1.00  0.00     0.041 C 
ATOM     13  O   UNL     1      17.728  -0.793  12.321  1.00  0.00    -0.550 OA
ATOM     14  O   UNL     1      17.453  -0.917  10.051  1.00  0.00    -0.550 OA
ENDBRANCH  11  12
ENDBRANCH  10  11
ENDBRANCH   9  10
ENDBRANCH   8   9
ENDBRANCH   1   8
TORSDOF 9
ENDMDL
MODEL 3
REMARK VINA RESULT:    -5.445     15.711     17.631
REMARK INTER + INTRA:          -8.710
REMARK INTER:                  -7.804
REMARK INTRA:                  -0.906
REMARK UNBOUND:                -0.401
REMARK SMILES O=C([O-])CCCCCCCCC(=O)[O-]
REMARK SMILES IDX 7 1 6 2 5 3 4 4 2 5 1 6 3 7 8 8 9 9 10 10 11 11 12 12 13 13
REMARK SMILES IDX 14 14
REMARK H PARENT
REMARK Flexibility Score: inf
ROOT
ATOM      1  C   UNL     1      27.493  -1.415   7.474  1.00  0.00     0.000 C 
ENDROOT
BRANCH   1   2
ATOM      2  C   UNL     1      27.937  -1.199   8.925  1.00  0.00     0.000 C 
BRANCH   2   3
ATOM      3  C   UNL     1      29.423  -1.547   9.103  1.00  0.00     0.006 C 
BRANCH   3   4
ATOM      4  C   UNL     1      30.321  -0.777   8.127  1.00  0.00     0.053 C 
BRANCH   4   5
ATOM      5  C   UNL     1      31.630  -0.402   8.753  1.00  0.00     0.041 C 
ATOM      6  O   UNL     1      31.843   0.786   9.111  1.00  0.00    -0.550 OA
ATOM      7  O   UNL     1      32.627  -1.357   8.909  1.00  0.00    -0.550 OA
ENDBRANCH   4   5
ENDBRANCH   3   4
ENDBRANCH   2   3
ENDBRANCH   1   2
BRANCH   1   8
ATOM      8  C   UNL     1      27.103  -2.880   7.228  1.00  0.00     0.000 C 
BRANCH   8   9
ATOM      9  C   UNL     1      27.768  -3.459   5.961  1.00  0.00     0.000 C 
BRANCH   9  10
ATOM     10  C   UNL     1      29.039  -4.279   6.253  1.00  0.00     0.006 C 
BRANCH  10  11
ATOM     11  C   UNL     1      30.347  -3.520   5.988  1.00  0.00     0.053 C 
BRANCH  11  12
ATOM     12  C   UNL     1      31.495  -4.101   6.758  1.00  0.00     0.041 C 
ATOM     13  O   UNL     1      31.369  -4.357   7.984  1.00  0.00    -0.550 OA
ATOM     14  O   UNL     1      32.695  -4.381   6.118  1.00  0.00    -0.550 OA
ENDBRANCH  11  12
ENDBRANCH  10  11
ENDBRANCH   9  10
ENDBRANCH   8   9
ENDBRANCH   1   8
TORSDOF 9
ENDMDL
MODEL 4
REMARK VINA RESULT:    -5.431     15.368     16.962
REMARK INTER + INTRA:          -8.689
REMARK INTER:                  -7.769
REMARK INTRA:                  -0.920
REMARK UNBOUND:                -0.401
REMARK SMILES O=C([O-])CCCCCCCCC(=O)[O-]
REMARK SMILES IDX 7 1 6 2 5 3 4 4 2 5 1 6 3 7 8 8 9 9 10 10 11 11 12 12 13 13
REMARK SMILES IDX 14 14
REMARK H PARENT
REMARK Flexibility Score: inf
ROOT
ATOM      1  C   UNL     1      27.203  -2.975   7.371  1.00  0.00     0.000 C 
ENDROOT
BRANCH   1   2
ATOM      2  C   UNL     1      27.598  -3.545   6.003  1.00  0.00     0.000 C 
BRANCH   2   3
ATOM      3  C   UNL     1      29.125  -3.575   5.841  1.00  0.00     0.006 C 
BRANCH   3   4
ATOM      4  C   UNL     1      29.783  -4.636   6.734  1.00  0.00     0.053 C 
BRANCH   4   5
ATOM      5  C   UNL     1      31.200  -4.283   7.065  1.00  0.00     0.041 C 
ATOM      6  O   UNL     1      31.595  -4.299   8.262  1.00  0.00    -0.550 OA
ATOM      7  O   UNL     1      32.078  -3.903   6.057  1.00  0.00    -0.550 OA
ENDBRANCH   4   5
ENDBRANCH   3   4
ENDBRANCH   2   3
ENDBRANCH   1   2
BRANCH   1   8
ATOM      8  C   UNL     1      27.396  -1.452   7.411  1.00  0.00     0.000 C 
BRANCH   8   9
ATOM      9  C   UNL     1      27.987  -0.972   8.754  1.00  0.00     0.000 C 
BRANCH   9  10
ATOM     10  C   UNL     1      29.402  -1.514   9.032  1.00  0.00     0.006 C 
BRANCH  10  11
ATOM     11  C   UNL     1      30.510  -0.804   8.241  1.00  0.00     0.053 C 
BRANCH  11  12
ATOM     12  C   UNL     1      31.300   0.133   9.105  1.00  0.00     0.041 C 
ATOM     13  O   UNL     1      30.906   0.402  10.270  1.00  0.00    -0.550 OA
ATOM     14  O   UNL     1      32.479   0.693   8.633  1.00  0.00    -0.550 OA
ENDBRANCH  11  12
ENDBRANCH  10  11
ENDBRANCH   9  10
ENDBRANCH   8   9
ENDBRANCH   1   8
TORSDOF 9
ENDMDL
MODEL 5
REMARK VINA RESULT:    -5.392      1.678      6.340
REMARK INTER + INTRA:          -8.629
REMARK INTER:                  -7.903
REMARK INTRA:                  -0.726
REMARK UNBOUND:                -0.401
REMARK SMILES O=C([O-])CCCCCCCCC(=O)[O-]
REMARK SMILES IDX 7 1 6 2 5 3 4 4 2 5 1 6 3 7 8 8 9 9 10 10 11 11 12 12 13 13
REMARK SMILES IDX 14 14
REMARK H PARENT
REMARK Flexibility Score: inf
ROOT
ATOM      1  C   UNL     1      14.054   2.296  17.387  1.00  0.00     0.000 C 
ENDROOT
BRANCH   1   2
ATOM      2  C   UNL     1      13.570   2.058  18.822  1.00  0.00     0.000 C 
BRANCH   2   3
ATOM      3  C   UNL     1      14.326   0.887  19.470  1.00  0.00     0.006 C 
BRANCH   3   4
ATOM      4  C   UNL     1      14.996  -0.019  18.428  1.00  0.00     0.053 C 
BRANCH   4   5
ATOM      5  C   UNL     1      14.298  -1.339  18.308  1.00  0.00     0.041 C 
ATOM      6  O   UNL     1      13.052  -1.383  18.129  1.00  0.00    -0.550 OA
ATOM      7  O   UNL     1      15.018  -2.521  18.429  1.00  0.00    -0.550 OA
ENDBRANCH   4   5
ENDBRANCH   3   4
ENDBRANCH   2   3
ENDBRANCH   1   2
BRANCH   1   8
ATOM      8  C   UNL     1      12.894   2.185  16.387  1.00  0.00     0.000 C 
BRANCH   8   9
ATOM      9  C   UNL     1      13.219   1.236  15.215  1.00  0.00     0.000 C 
BRANCH   9  10
ATOM     10  C   UNL     1      14.711   1.220  14.832  1.00  0.00     0.006 C 
BRANCH  10  11
ATOM     11  C   UNL     1      15.001   1.757  13.424  1.00  0.00     0.053 C 
BRANCH  11  12
ATOM     12  C   UNL     1      15.579   0.701  12.531  1.00  0.00     0.041 C 
ATOM     13  O   UNL     1      15.407   0.764  11.285  1.00  0.00    -0.550 OA
ATOM     14  O   UNL     1      16.326  -0.339  13.069  1.00  0.00    -0.550 OA
ENDBRANCH  11  12
ENDBRANCH  10  11
ENDBRANCH   9  10
ENDBRANCH   8   9
ENDBRANCH   1   8
TORSDOF 9
ENDMDL
MODEL 6
REMARK VINA RESULT:    -5.364      2.757      5.559
REMARK INTER + INTRA:          -8.587
REMARK INTER:                  -7.903
REMARK INTRA:                  -0.685
REMARK UNBOUND:                -0.401
REMARK SMILES O=C([O-])CCCCCCCCC(=O)[O-]
REMARK SMILES IDX 7 1 6 2 5 3 4 4 2 5 1 6 3 7 8 8 9 9 10 10 11 11 12 12 13 13
REMARK SMILES IDX 14 14
REMARK H PARENT
REMARK Flexibility Score: inf
ROOT
ATOM      1  C   UNL     1      15.216   0.516  12.101  1.00  0.00     0.000 C 
ENDROOT
BRANCH   1   2
ATOM      2  C   UNL     1      15.122   1.649  13.129  1.00  0.00     0.000 C 
BRANCH   2   3
ATOM      3  C   UNL     1      14.338   1.200  14.372  1.00  0.00     0.006 C 
BRANCH   3   4
ATOM      4  C   UNL     1      15.089   1.507  15.675  1.00  0.00     0.053 C 
BRANCH   4   5
ATOM      5  C   UNL     1      15.750   0.286  16.237  1.00  0.00     0.041 C 
ATOM      6  O   UNL     1      16.760   0.397  16.981  1.00  0.00    -0.550 OA
ATOM      7  O   UNL     1      15.272  -0.978  15.911  1.00  0.00    -0.550 OA
ENDBRANCH   4   5
ENDBRANCH   3   4
ENDBRANCH   2   3
ENDBRANCH   1   2
BRANCH   1   8
ATOM      8  C   UNL     1      16.578   0.527  11.391  1.00  0.00     0.000 C 
BRANCH   8   9
ATOM      9  C   UNL     1      17.431  -0.712  11.742  1.00  0.00     0.000 C 
BRANCH   9  10
ATOM     10  C   UNL     1      17.476  -1.020  13.250  1.00  0.00     0.006 C 
BRANCH  10  11
ATOM     11  C   UNL     1      18.457  -2.138  13.630  1.00  0.00     0.053 C 
BRANCH  11  12
ATOM     12  C   UNL     1      18.770  -2.133  15.096  1.00  0.00     0.041 C 
ATOM     13  O   UNL     1      18.404  -3.093  15.824  1.00  0.00    -0.550 OA
ATOM     14  O   UNL     1      19.483  -1.081  15.656  1.00  0.00    -0.550 OA
ENDBRANCH  11  12
ENDBRANCH  10  11
ENDBRANCH   9  10
ENDBRANCH   8   9
ENDBRANCH   1   8
TORSDOF 9
ENDMDL
MODEL 7
REMARK VINA RESULT:    -5.356      2.393      3.541
REMARK INTER + INTRA:          -8.575
REMARK INTER:                  -7.934
REMARK INTRA:                  -0.641
REMARK UNBOUND:                -0.401
REMARK SMILES O=C([O-])CCCCCCCCC(=O)[O-]
REMARK SMILES IDX 7 1 6 2 5 3 4 4 2 5 1 6 3 7 8 8 9 9 10 10 11 11 12 12 13 13
REMARK SMILES IDX 14 14
REMARK H PARENT
REMARK Flexibility Score: inf
ROOT
ATOM      1  C   UNL     1      16.466   0.498  11.365  1.00  0.00     0.000 C 
ENDROOT
BRANCH   1   2
ATOM      2  C   UNL     1      17.592  -0.453  11.787  1.00  0.00     0.000 C 
BRANCH   2   3
ATOM      3  C   UNL     1      17.120  -1.407  12.895  1.00  0.00     0.006 C 
BRANCH   3   4
ATOM      4  C   UNL     1      18.058  -1.395  14.110  1.00  0.00     0.053 C 
BRANCH   4   5
ATOM      5  C   UNL     1      17.300  -1.279  15.396  1.00  0.00     0.041 C 
ATOM      6  O   UNL     1      17.645  -0.431  16.261  1.00  0.00    -0.550 OA
ATOM      7  O   UNL     1      16.233  -2.132  15.656  1.00  0.00    -0.550 OA
ENDBRANCH   4   5
ENDBRANCH   3   4
ENDBRANCH   2   3
ENDBRANCH   1   2
BRANCH   1   8
ATOM      8  C   UNL     1      15.270   0.397  12.323  1.00  0.00     0.000 C 
BRANCH   8   9
ATOM      9  C   UNL     1      15.122   1.651  13.211  1.00  0.00     0.000 C 
BRANCH   9  10
ATOM     10  C   UNL     1      14.906   1.328  14.701  1.00  0.00     0.006 C 
BRANCH  10  11
ATOM     11  C   UNL     1      13.431   1.290  15.125  1.00  0.00     0.053 C 
BRANCH  11  12
ATOM     12  C   UNL     1      13.279   1.282  16.617  1.00  0.00     0.041 C 
ATOM     13  O   UNL     1      12.875   2.314  17.216  1.00  0.00    -0.550 OA
ATOM     14  O   UNL     1      13.560   0.133  17.342  1.00  0.00    -0.550 OA
ENDBRANCH  11  12
ENDBRANCH  10  11
ENDBRANCH   9  10
ENDBRANCH   8   9
ENDBRANCH   1   8
TORSDOF 9
ENDMDL
MODEL 8
REMARK VINA RESULT:    -5.334      3.207      3.859
REMARK INTER + INTRA:          -8.541
REMARK INTER:                  -7.412
REMARK INTRA:                  -1.128
REMARK UNBOUND:                -0.401
REMARK SMILES O=C([O-])CCCCCCCCC(=O)[O-]
REMARK SMILES IDX 7 1 6 2 5 3 4 4 2 5 1 6 3 7 8 8 9 9 10 10 11 11 12 12 13 13
REMARK SMILES IDX 14 14
REMARK H PARENT
REMARK Flexibility Score: inf
ROOT
ATOM      1  C   UNL     1      12.953   2.058  16.311  1.00  0.00     0.000 C 
ENDROOT
BRANCH   1   2
ATOM      2  C   UNL     1      13.585   1.285  15.147  1.00  0.00     0.000 C 
BRANCH   2   3
ATOM      3  C   UNL     1      15.077   1.026  15.405  1.00  0.00     0.006 C 
BRANCH   3   4
ATOM      4  C   UNL     1      15.421  -0.469  15.376  1.00  0.00     0.053 C 
BRANCH   4   5
ATOM      5  C   UNL     1      16.612  -0.782  16.229  1.00  0.00     0.041 C 
ATOM      6  O   UNL     1      17.177   0.130  16.888  1.00  0.00    -0.550 OA
ATOM      7  O   UNL     1      17.119  -2.075  16.271  1.00  0.00    -0.550 OA
ENDBRANCH   4   5
ENDBRANCH   3   4
ENDBRANCH   2   3
ENDBRANCH   1   2
BRANCH   1   8
ATOM      8  C   UNL     1      14.003   2.409  17.375  1.00  0.00     0.000 C 
BRANCH   8   9
ATOM      9  C   UNL     1      13.622   1.874  18.772  1.00  0.00     0.000 C 
BRANCH   9  10
ATOM     10  C   UNL     1      14.321   0.551  19.136  1.00  0.00     0.006 C 
BRANCH  10  11
ATOM     11  C   UNL     1      13.516  -0.703  18.771  1.00  0.00     0.053 C 
BRANCH  11  12
ATOM     12  C   UNL     1      14.367  -1.937  18.781  1.00  0.00     0.041 C 
ATOM     13  O   UNL     1      14.026  -2.946  18.109  1.00  0.00    -0.550 OA
ATOM     14  O   UNL     1      15.546  -1.967  19.513  1.00  0.00    -0.550 OA
ENDBRANCH  11  12
ENDBRANCH  10  11
ENDBRANCH   9  10
ENDBRANCH   8   9
ENDBRANCH   1   8
TORSDOF 9
ENDMDL
MODEL 9
REMARK VINA RESULT:    -5.325      1.674      2.749
REMARK INTER + INTRA:          -8.527
REMARK INTER:                  -8.056
REMARK INTRA:                  -0.471
REMARK UNBOUND:                -0.401
REMARK SMILES O=C([O-])CCCCCCCCC(=O)[O-]
REMARK SMILES IDX 7 1 6 2 5 3 4 4 2 5 1 6 3 7 8 8 9 9 10 10 11 11 12 12 13 13
REMARK SMILES IDX 14 14
REMARK H PARENT
REMARK Flexibility Score: inf
ROOT
ATOM      1  C   UNL     1      12.875   1.919  16.138  1.00  0.00     0.000 C 
ENDROOT
BRANCH   1   2
ATOM      2  C   UNL     1      14.299   1.625  15.650  1.00  0.00     0.000 C 
BRANCH   2   3
ATOM      3  C   UNL     1      14.277   0.873  14.311  1.00  0.00     0.006 C 
BRANCH   3   4
ATOM      4  C   UNL     1      15.160   1.546  13.252  1.00  0.00     0.053 C 
BRANCH   4   5
ATOM      5  C   UNL     1      15.816   0.542  12.355  1.00  0.00     0.041 C 
ATOM      6  O   UNL     1      16.679  -0.251  12.816  1.00  0.00    -0.550 OA
ATOM      7  O   UNL     1      15.500   0.504  11.002  1.00  0.00    -0.550 OA
ENDBRANCH   4   5
ENDBRANCH   3   4
ENDBRANCH   2   3
ENDBRANCH   1   2
BRANCH   1   8
ATOM      8  C   UNL     1      12.879   2.391  17.600  1.00  0.00     0.000 C 
BRANCH   8   9
ATOM      9  C   UNL     1      13.722   1.472  18.509  1.00  0.00     0.000 C 
BRANCH   9  10
ATOM     10  C   UNL     1      13.250   0.006  18.510  1.00  0.00     0.006 C 
BRANCH  10  11
ATOM     11  C   UNL     1      14.377  -1.013  18.293  1.00  0.00     0.053 C 
BRANCH  11  12
ATOM     12  C   UNL     1      15.370  -0.997  19.416  1.00  0.00     0.041 C 
ATOM     13  O   UNL     1      16.556  -0.628  19.205  1.00  0.00    -0.550 OA
ATOM     14  O   UNL     1      14.984  -1.367  20.697  1.00  0.00    -0.550 OA
ENDBRANCH  11  12
ENDBRANCH  10  11
ENDBRANCH   9  10
ENDBRANCH   8   9
ENDBRANCH   1   8
TORSDOF 9
ENDMDL
