MODEL 1
REMARK VINA RESULT:    -8.318      0.000      0.000
REMARK INTER + INTRA:          -9.067
REMARK INTER:                  -8.805
REMARK INTRA:                  -0.262
REMARK UNBOUND:                -0.262
REMARK SMILES O=c1cc(-c2ccccc2)oc2ccccc12
REMARK SMILES IDX 4 1 3 2 2 3 1 4 17 5 16 6 15 7 14 8 13 9 12 10 11 11 5 12
REMARK SMILES IDX 8 13 7 14 9 15 6 16 10 17
REMARK H PARENT
REMARK Flexibility Score: inf
ROOT
ATOM      1  C   UNL     1     168.132 146.124 152.310  1.00  0.00     0.138 A 
ATOM      2  C   UNL     1     169.270 145.575 151.685  1.00  0.00     0.100 A 
ATOM      3  C   UNL     1     170.301 145.051 152.467  1.00  0.00     0.193 A 
ATOM      4  O   UNL     1     171.319 144.560 151.907  1.00  0.00    -0.289 OA
ATOM      5  C   UNL     1     170.188 145.078 153.864  1.00  0.00     0.065 A 
ATOM      6  C   UNL     1     171.190 144.567 154.711  1.00  0.00     0.016 A 
ATOM      7  C   UNL     1     171.027 144.620 156.099  1.00  0.00     0.001 A 
ATOM      8  C   UNL     1     169.871 145.179 156.650  1.00  0.00     0.004 A 
ATOM      9  C   UNL     1     168.871 145.689 155.817  1.00  0.00     0.048 A 
ATOM     10  C   UNL     1     169.024 145.642 154.427  1.00  0.00     0.138 A 
ATOM     11  O   UNL     1     168.067 146.129 153.643  1.00  0.00    -0.456 OA
ENDROOT
BRANCH   1  12
ATOM     12  C   UNL     1     166.983 146.706 151.547  1.00  0.00     0.017 A 
ATOM     13  C   UNL     1     164.877 147.809 150.028  1.00  0.00     0.000 A 
ATOM     14  C   UNL     1     166.127 147.611 149.445  1.00  0.00     0.001 A 
ATOM     15  C   UNL     1     164.668 147.462 151.363  1.00  0.00     0.001 A 
ATOM     16  C   UNL     1     167.172 147.065 150.195  1.00  0.00     0.012 A 
ATOM     17  C   UNL     1     165.709 146.916 152.120  1.00  0.00     0.012 A 
ENDBRANCH   1  12
TORSDOF 1
ENDMDL
MODEL 2
REMARK VINA RESULT:    -8.298      1.934      3.440
REMARK INTER + INTRA:          -9.046
REMARK INTER:                  -8.793
REMARK INTRA:                  -0.252
REMARK UNBOUND:                -0.262
REMARK SMILES O=c1cc(-c2ccccc2)oc2ccccc12
REMARK SMILES IDX 4 1 3 2 2 3 1 4 17 5 16 6 15 7 14 8 13 9 12 10 11 11 5 12
REMARK SMILES IDX 8 13 7 14 9 15 6 16 10 17
REMARK H PARENT
REMARK Flexibility Score: inf
ROOT
ATOM      1  C   UNL     1     168.750 145.674 151.565  1.00  0.00     0.138 A 
ATOM      2  C   UNL     1     169.288 145.753 152.867  1.00  0.00     0.100 A 
ATOM      3  C   UNL     1     170.440 145.030 153.181  1.00  0.00     0.193 A 
ATOM      4  O   UNL     1     170.921 145.101 154.345  1.00  0.00    -0.289 OA
ATOM      5  C   UNL     1     171.045 144.235 152.198  1.00  0.00     0.065 A 
ATOM      6  C   UNL     1     172.207 143.481 152.448  1.00  0.00     0.016 A 
ATOM      7  C   UNL     1     172.770 142.704 151.430  1.00  0.00     0.001 A 
ATOM      8  C   UNL     1     172.183 142.674 150.163  1.00  0.00     0.004 A 
ATOM      9  C   UNL     1     171.028 143.419 149.905  1.00  0.00     0.048 A 
ATOM     10  C   UNL     1     170.456 144.199 150.916  1.00  0.00     0.138 A 
ATOM     11  O   UNL     1     169.359 144.906 150.661  1.00  0.00    -0.456 OA
ENDROOT
BRANCH   1  12
ATOM     12  C   UNL     1     167.520 146.417 151.146  1.00  0.00     0.017 A 
ATOM     13  C   UNL     1     165.165 147.804 150.446  1.00  0.00     0.000 A 
ATOM     14  C   UNL     1     165.319 147.299 151.735  1.00  0.00     0.001 A 
ATOM     15  C   UNL     1     166.176 147.623 149.502  1.00  0.00     0.001 A 
ATOM     16  C   UNL     1     166.485 146.611 152.085  1.00  0.00     0.012 A 
ATOM     17  C   UNL     1     167.344 146.936 149.843  1.00  0.00     0.012 A 
ENDBRANCH   1  12
TORSDOF 1
ENDMDL
MODEL 3
REMARK VINA RESULT:    -8.298      0.070      1.174
REMARK INTER + INTRA:          -9.045
REMARK INTER:                  -8.783
REMARK INTRA:                  -0.263
REMARK UNBOUND:                -0.262
REMARK SMILES O=c1cc(-c2ccccc2)oc2ccccc12
REMARK SMILES IDX 4 1 3 2 2 3 1 4 17 5 16 6 15 7 14 8 13 9 12 10 11 11 5 12
REMARK SMILES IDX 8 13 7 14 9 15 6 16 10 17
REMARK H PARENT
REMARK Flexibility Score: inf
ROOT
ATOM      1  C   UNL     1     168.197 146.106 152.262  1.00  0.00     0.138 A 
ATOM      2  C   UNL     1     169.342 145.550 151.656  1.00  0.00     0.100 A 
ATOM      3  C   UNL     1     170.356 145.019 152.456  1.00  0.00     0.193 A 
ATOM      4  O   UNL     1     171.380 144.522 151.913  1.00  0.00    -0.289 OA
ATOM      5  C   UNL     1     170.220 145.047 153.851  1.00  0.00     0.065 A 
ATOM      6  C   UNL     1     171.203 144.530 154.714  1.00  0.00     0.016 A 
ATOM      7  C   UNL     1     171.017 144.584 156.099  1.00  0.00     0.001 A 
ATOM      8  C   UNL     1     169.856 145.151 156.631  1.00  0.00     0.004 A 
ATOM      9  C   UNL     1     168.874 145.668 155.780  1.00  0.00     0.048 A 
ATOM     10  C   UNL     1     169.049 145.619 154.394  1.00  0.00     0.138 A 
ATOM     11  O   UNL     1     168.109 146.112 153.593  1.00  0.00    -0.456 OA
ENDROOT
BRANCH   1  12
ATOM     12  C   UNL     1     167.065 146.695 151.479  1.00  0.00     0.017 A 
ATOM     13  C   UNL     1     164.875 147.800 150.084  1.00  0.00     0.000 A 
ATOM     14  C   UNL     1     164.739 147.442 151.423  1.00  0.00     0.001 A 
ATOM     15  C   UNL     1     166.095 147.612 149.433  1.00  0.00     0.001 A 
ATOM     16  C   UNL     1     165.823 146.894 152.117  1.00  0.00     0.012 A 
ATOM     17  C   UNL     1     167.183 147.064 150.120  1.00  0.00     0.012 A 
ENDBRANCH   1  12
TORSDOF 1
ENDMDL
MODEL 4
REMARK VINA RESULT:    -8.150      1.221      2.419
REMARK INTER + INTRA:          -8.889
REMARK INTER:                  -8.623
REMARK INTRA:                  -0.266
REMARK UNBOUND:                -0.262
REMARK SMILES O=c1cc(-c2ccccc2)oc2ccccc12
REMARK SMILES IDX 4 1 3 2 2 3 1 4 17 5 16 6 15 7 14 8 13 9 12 10 11 11 5 12
REMARK SMILES IDX 8 13 7 14 9 15 6 16 10 17
REMARK H PARENT
REMARK Flexibility Score: inf
ROOT
ATOM      1  C   UNL     1     168.351 146.029 152.566  1.00  0.00     0.138 A 
ATOM      2  C   UNL     1     168.126 145.894 153.951  1.00  0.00     0.100 A 
ATOM      3  C   UNL     1     169.122 145.344 154.761  1.00  0.00     0.193 A 
ATOM      4  O   UNL     1     168.920 145.224 156.000  1.00  0.00    -0.289 OA
ATOM      5  C   UNL     1     170.332 144.935 154.184  1.00  0.00     0.065 A 
ATOM      6  C   UNL     1     171.376 144.373 154.942  1.00  0.00     0.016 A 
ATOM      7  C   UNL     1     172.563 143.981 154.316  1.00  0.00     0.001 A 
ATOM      8  C   UNL     1     172.718 144.145 152.937  1.00  0.00     0.004 A 
ATOM      9  C   UNL     1     171.685 144.701 152.176  1.00  0.00     0.048 A 
ATOM     10  C   UNL     1     170.494 145.097 152.792  1.00  0.00     0.138 A 
ATOM     11  O   UNL     1     169.518 145.626 152.060  1.00  0.00    -0.456 OA
ENDROOT
BRANCH   1  12
ATOM     12  C   UNL     1     167.339 146.607 151.628  1.00  0.00     0.017 A 
ATOM     13  C   UNL     1     165.496 147.691 149.787  1.00  0.00     0.000 A 
ATOM     14  C   UNL     1     166.782 147.355 149.369  1.00  0.00     0.001 A 
ATOM     15  C   UNL     1     165.120 147.491 151.115  1.00  0.00     0.001 A 
ATOM     16  C   UNL     1     167.697 146.818 150.279  1.00  0.00     0.012 A 
ATOM     17  C   UNL     1     166.030 146.955 152.031  1.00  0.00     0.012 A 
ENDBRANCH   1  12
TORSDOF 1
ENDMDL
MODEL 5
REMARK VINA RESULT:    -8.141      2.467      6.044
REMARK INTER + INTRA:          -8.879
REMARK INTER:                  -8.616
REMARK INTRA:                  -0.263
REMARK UNBOUND:                -0.262
REMARK SMILES O=c1cc(-c2ccccc2)oc2ccccc12
REMARK SMILES IDX 4 1 3 2 2 3 1 4 17 5 16 6 15 7 14 8 13 9 12 10 11 11 5 12
REMARK SMILES IDX 8 13 7 14 9 15 6 16 10 17
REMARK H PARENT
REMARK Flexibility Score: inf
ROOT
ATOM      1  C   UNL     1     169.381 145.126 150.616  1.00  0.00     0.138 A 
ATOM      2  C   UNL     1     169.057 145.049 151.986  1.00  0.00     0.100 A 
ATOM      3  C   UNL     1     167.925 145.711 152.465  1.00  0.00     0.193 A 
ATOM      4  O   UNL     1     167.635 145.641 153.691  1.00  0.00    -0.289 OA
ATOM      5  C   UNL     1     167.127 146.444 151.576  1.00  0.00     0.065 A 
ATOM      6  C   UNL     1     165.974 147.135 151.993  1.00  0.00     0.016 A 
ATOM      7  C   UNL     1     165.214 147.853 151.064  1.00  0.00     0.001 A 
ATOM      8  C   UNL     1     165.595 147.886 149.720  1.00  0.00     0.004 A 
ATOM      9  C   UNL     1     166.740 147.203 149.297  1.00  0.00     0.048 A 
ATOM     10  C   UNL     1     167.508 146.483 150.218  1.00  0.00     0.138 A 
ATOM     11  O   UNL     1     168.594 145.836 149.806  1.00  0.00    -0.456 OA
ENDROOT
BRANCH   1  12
ATOM     12  C   UNL     1     170.575 144.447 150.021  1.00  0.00     0.017 A 
ATOM     13  C   UNL     1     172.817 143.225 148.820  1.00  0.00     0.000 A 
ATOM     14  C   UNL     1     172.141 144.247 148.157  1.00  0.00     0.001 A 
ATOM     15  C   UNL     1     172.383 142.807 150.079  1.00  0.00     0.001 A 
ATOM     16  C   UNL     1     171.030 144.855 148.749  1.00  0.00     0.012 A 
ATOM     17  C   UNL     1     171.273 143.408 150.678  1.00  0.00     0.012 A 
ENDBRANCH   1  12
TORSDOF 1
ENDMDL
MODEL 6
REMARK VINA RESULT:    -8.112      3.096      5.151
REMARK INTER + INTRA:          -8.849
REMARK INTER:                  -8.588
REMARK INTRA:                  -0.261
REMARK UNBOUND:                -0.262
REMARK SMILES O=c1cc(-c2ccccc2)oc2ccccc12
REMARK SMILES IDX 4 1 3 2 2 3 1 4 17 5 16 6 15 7 14 8 13 9 12 10 11 11 5 12
REMARK SMILES IDX 8 13 7 14 9 15 6 16 10 17
REMARK H PARENT
REMARK Flexibility Score: inf
ROOT
ATOM      1  C   UNL     1     168.510 146.085 149.914  1.00  0.00     0.138 A 
ATOM      2  C   UNL     1     169.536 145.701 150.802  1.00  0.00     0.100 A 
ATOM      3  C   UNL     1     170.711 145.142 150.298  1.00  0.00     0.193 A 
ATOM      4  O   UNL     1     171.629 144.798 151.093  1.00  0.00    -0.289 OA
ATOM      5  C   UNL     1     170.854 144.970 148.914  1.00  0.00     0.065 A 
ATOM      6  C   UNL     1     172.012 144.412 148.339  1.00  0.00     0.016 A 
ATOM      7  C   UNL     1     172.102 144.262 146.952  1.00  0.00     0.001 A 
ATOM      8  C   UNL     1     171.046 144.665 146.131  1.00  0.00     0.004 A 
ATOM      9  C   UNL     1     169.892 145.220 146.693  1.00  0.00     0.048 A 
ATOM     10  C   UNL     1     169.790 145.374 148.080  1.00  0.00     0.138 A 
ATOM     11  O   UNL     1     168.690 145.903 148.605  1.00  0.00    -0.456 OA
ENDROOT
BRANCH   1  12
ATOM     12  C   UNL     1     167.221 146.692 150.371  1.00  0.00     0.017 A 
ATOM     13  C   UNL     1     164.806 147.798 151.323  1.00  0.00     0.000 A 
ATOM     14  C   UNL     1     165.611 147.045 152.175  1.00  0.00     0.001 A 
ATOM     15  C   UNL     1     165.195 148.004 149.999  1.00  0.00     0.001 A 
ATOM     16  C   UNL     1     166.808 146.495 151.706  1.00  0.00     0.012 A 
ATOM     17  C   UNL     1     166.390 147.458 149.523  1.00  0.00     0.012 A 
ENDBRANCH   1  12
TORSDOF 1
ENDMDL
MODEL 7
REMARK VINA RESULT:    -8.077      1.431      2.251
REMARK INTER + INTRA:          -8.811
REMARK INTER:                  -8.553
REMARK INTRA:                  -0.258
REMARK UNBOUND:                -0.262
REMARK SMILES O=c1cc(-c2ccccc2)oc2ccccc12
REMARK SMILES IDX 4 1 3 2 2 3 1 4 17 5 16 6 15 7 14 8 13 9 12 10 11 11 5 12
REMARK SMILES IDX 8 13 7 14 9 15 6 16 10 17
REMARK H PARENT
REMARK Flexibility Score: inf
ROOT
ATOM      1  C   UNL     1     168.960 145.673 151.314  1.00  0.00     0.138 A 
ATOM      2  C   UNL     1     169.722 145.047 150.306  1.00  0.00     0.100 A 
ATOM      3  C   UNL     1     170.910 144.396 150.646  1.00  0.00     0.193 A 
ATOM      4  O   UNL     1     171.592 143.835 149.745  1.00  0.00    -0.289 OA
ATOM      5  C   UNL     1     171.326 144.374 151.984  1.00  0.00     0.065 A 
ATOM      6  C   UNL     1     172.512 143.736 152.394  1.00  0.00     0.016 A 
ATOM      7  C   UNL     1     172.881 143.745 153.743  1.00  0.00     0.001 A 
ATOM      8  C   UNL     1     172.076 144.386 154.688  1.00  0.00     0.004 A 
ATOM      9  C   UNL     1     170.897 145.023 154.289  1.00  0.00     0.048 A 
ATOM     10  C   UNL     1     170.518 145.020 152.943  1.00  0.00     0.138 A 
ATOM     11  O   UNL     1     169.394 145.628 152.574  1.00  0.00    -0.456 OA
ENDROOT
BRANCH   1  12
ATOM     12  C   UNL     1     167.677 146.392 151.036  1.00  0.00     0.017 A 
ATOM     13  C   UNL     1     165.230 147.730 150.606  1.00  0.00     0.000 A 
ATOM     14  C   UNL     1     165.511 147.175 151.853  1.00  0.00     0.001 A 
ATOM     15  C   UNL     1     166.159 147.623 149.571  1.00  0.00     0.001 A 
ATOM     16  C   UNL     1     166.723 146.512 152.069  1.00  0.00     0.012 A 
ATOM     17  C   UNL     1     167.372 146.961 149.779  1.00  0.00     0.012 A 
ENDBRANCH   1  12
TORSDOF 1
ENDMDL
MODEL 8
REMARK VINA RESULT:    -8.057      1.369      5.880
REMARK INTER + INTRA:          -8.790
REMARK INTER:                  -8.525
REMARK INTRA:                  -0.265
REMARK UNBOUND:                -0.262
REMARK SMILES O=c1cc(-c2ccccc2)oc2ccccc12
REMARK SMILES IDX 4 1 3 2 2 3 1 4 17 5 16 6 15 7 14 8 13 9 12 10 11 11 5 12
REMARK SMILES IDX 8 13 7 14 9 15 6 16 10 17
REMARK H PARENT
REMARK Flexibility Score: inf
ROOT
ATOM      1  C   UNL     1     168.385 146.148 152.312  1.00  0.00     0.138 A 
ATOM      2  C   UNL     1     168.938 146.329 151.028  1.00  0.00     0.100 A 
ATOM      3  C   UNL     1     168.135 146.813 149.994  1.00  0.00     0.193 A 
ATOM      4  O   UNL     1     168.630 146.975 148.845  1.00  0.00    -0.289 OA
ATOM      5  C   UNL     1     166.789 147.112 150.248  1.00  0.00     0.065 A 
ATOM      6  C   UNL     1     165.925 147.602 149.251  1.00  0.00     0.016 A 
ATOM      7  C   UNL     1     164.590 147.884 149.558  1.00  0.00     0.001 A 
ATOM      8  C   UNL     1     164.110 147.681 150.854  1.00  0.00     0.004 A 
ATOM      9  C   UNL     1     164.961 147.193 151.851  1.00  0.00     0.048 A 
ATOM     10  C   UNL     1     166.298 146.908 151.555  1.00  0.00     0.138 A 
ATOM     11  O   UNL     1     167.100 146.446 152.509  1.00  0.00    -0.456 OA
ENDROOT
BRANCH   1  12
ATOM     12  C   UNL     1     169.175 145.635 153.475  1.00  0.00     0.017 A 
ATOM     13  C   UNL     1     170.740 144.648 155.606  1.00  0.00     0.000 A 
ATOM     14  C   UNL     1     171.254 144.660 154.310  1.00  0.00     0.001 A 
ATOM     15  C   UNL     1     169.452 145.124 155.848  1.00  0.00     0.001 A 
ATOM     16  C   UNL     1     170.481 145.148 153.253  1.00  0.00     0.012 A 
ATOM     17  C   UNL     1     168.672 145.614 154.795  1.00  0.00     0.012 A 
ENDBRANCH   1  12
TORSDOF 1
ENDMDL
MODEL 9
REMARK VINA RESULT:    -7.916      3.011      4.403
REMARK INTER + INTRA:          -8.641
REMARK INTER:                  -8.375
REMARK INTRA:                  -0.266
REMARK UNBOUND:                -0.262
REMARK SMILES O=c1cc(-c2ccccc2)oc2ccccc12
REMARK SMILES IDX 4 1 3 2 2 3 1 4 17 5 16 6 15 7 14 8 13 9 12 10 11 11 5 12
REMARK SMILES IDX 8 13 7 14 9 15 6 16 10 17
REMARK H PARENT
REMARK Flexibility Score: inf
ROOT
ATOM      1  C   UNL     1     169.369 145.371 149.738  1.00  0.00     0.138 A 
ATOM      2  C   UNL     1     169.880 145.398 148.424  1.00  0.00     0.100 A 
ATOM      3  C   UNL     1     171.009 144.639 148.108  1.00  0.00     0.193 A 
ATOM      4  O   UNL     1     171.466 144.663 146.932  1.00  0.00    -0.289 OA
ATOM      5  C   UNL     1     171.618 143.862 149.103  1.00  0.00     0.065 A 
ATOM      6  C   UNL     1     172.758 143.075 148.852  1.00  0.00     0.016 A 
ATOM      7  C   UNL     1     173.326 142.318 149.881  1.00  0.00     0.001 A 
ATOM      8  C   UNL     1     172.766 142.339 151.161  1.00  0.00     0.004 A 
ATOM      9  C   UNL     1     171.634 143.119 151.420  1.00  0.00     0.048 A 
ATOM     10  C   UNL     1     171.058 143.880 150.398  1.00  0.00     0.138 A 
ATOM     11  O   UNL     1     169.981 144.617 150.653  1.00  0.00    -0.456 OA
ENDROOT
BRANCH   1  12
ATOM     12  C   UNL     1     168.165 146.153 150.160  1.00  0.00     0.017 A 
ATOM     13  C   UNL     1     165.906 147.592 151.047  1.00  0.00     0.000 A 
ATOM     14  C   UNL     1     166.614 146.788 151.938  1.00  0.00     0.001 A 
ATOM     15  C   UNL     1     166.315 147.685 149.717  1.00  0.00     0.001 A 
ATOM     16  C   UNL     1     167.733 146.073 151.501  1.00  0.00     0.012 A 
ATOM     17  C   UNL     1     167.433 146.974 149.272  1.00  0.00     0.012 A 
ENDBRANCH   1  12
TORSDOF 1
ENDMDL
