MODEL 1
REMARK VINA RESULT:    -2.335      0.000      0.000
REMARK INTER + INTRA:          -2.798
REMARK INTER:                  -2.744
REMARK INTRA:                  -0.054
REMARK UNBOUND:                -0.054
REMARK SMILES CCCCC(=O)[O-]
REMARK SMILES IDX 4 1 5 2 6 3 7 4 3 5 2 6 1 7
REMARK H PARENT
REMARK Flexibility Score: inf
ROOT
ATOM      1  C   UNL     1       9.192 -18.757  17.906  1.00  0.00     0.053 C 
ENDROOT
BRANCH   1   2
ATOM      2  C   UNL     1       8.071 -19.533  18.522  1.00  0.00     0.041 C 
ATOM      3  O   UNL     1       8.280 -20.681  18.995  1.00  0.00    -0.550 OA
ATOM      4  O   UNL     1       6.806 -18.967  18.619  1.00  0.00    -0.550 OA
ENDBRANCH   1   2
BRANCH   1   5
ATOM      5  C   UNL     1      10.538 -19.210  18.481  1.00  0.00     0.006 C 
BRANCH   5   6
ATOM      6  C   UNL     1      10.968 -18.311  19.646  1.00  0.00    -0.003 C 
ATOM      7  C   UNL     1      12.191 -18.881  20.358  1.00  0.00     0.004 C 
ENDBRANCH   5   6
ENDBRANCH   1   5
TORSDOF 3
ENDMDL
MODEL 2
REMARK VINA RESULT:    -2.265      2.320      3.816
REMARK INTER + INTRA:          -2.716
REMARK INTER:                  -2.589
REMARK INTRA:                  -0.127
REMARK UNBOUND:                -0.054
REMARK SMILES CCCCC(=O)[O-]
REMARK SMILES IDX 4 1 5 2 6 3 7 4 3 5 2 6 1 7
REMARK H PARENT
REMARK Flexibility Score: inf
ROOT
ATOM      1  C   UNL     1       9.272 -19.292  20.084  1.00  0.00     0.053 C 
ENDROOT
BRANCH   1   2
ATOM      2  C   UNL     1      10.418 -18.553  19.467  1.00  0.00     0.041 C 
ATOM      3  O   UNL     1      10.523 -17.308  19.620  1.00  0.00    -0.550 OA
ATOM      4  O   UNL     1      11.395 -19.247  18.765  1.00  0.00    -0.550 OA
ENDBRANCH   1   2
BRANCH   1   5
ATOM      5  C   UNL     1       8.480 -20.045  19.011  1.00  0.00     0.006 C 
BRANCH   5   6
ATOM      6  C   UNL     1       7.850 -19.071  18.009  1.00  0.00    -0.003 C 
ATOM      7  C   UNL     1       6.705 -18.288  18.646  1.00  0.00     0.004 C 
ENDBRANCH   5   6
ENDBRANCH   1   5
TORSDOF 3
ENDMDL
MODEL 3
REMARK VINA RESULT:    -2.145      2.211      3.299
REMARK INTER + INTRA:          -2.575
REMARK INTER:                  -2.447
REMARK INTRA:                  -0.127
REMARK UNBOUND:                -0.054
REMARK SMILES CCCCC(=O)[O-]
REMARK SMILES IDX 4 1 5 2 6 3 7 4 3 5 2 6 1 7
REMARK H PARENT
REMARK Flexibility Score: inf
ROOT
ATOM      1  C   UNL     1       9.442 -18.815  17.899  1.00  0.00     0.053 C 
ENDROOT
BRANCH   1   2
ATOM      2  C   UNL     1      10.469 -18.653  18.975  1.00  0.00     0.041 C 
ATOM      3  O   UNL     1      11.594 -19.205  18.864  1.00  0.00    -0.550 OA
ATOM      4  O   UNL     1      10.200 -17.850  20.077  1.00  0.00    -0.550 OA
ENDBRANCH   1   2
BRANCH   1   5
ATOM      5  C   UNL     1       8.102 -19.251  18.499  1.00  0.00     0.006 C 
BRANCH   5   6
ATOM      6  C   UNL     1       8.228 -20.611  19.196  1.00  0.00    -0.003 C 
ATOM      7  C   UNL     1       7.766 -20.530  20.648  1.00  0.00     0.004 C 
ENDBRANCH   5   6
ENDBRANCH   1   5
TORSDOF 3
ENDMDL
MODEL 4
REMARK VINA RESULT:    -2.143      2.248      3.591
REMARK INTER + INTRA:          -2.573
REMARK INTER:                  -2.472
REMARK INTRA:                  -0.100
REMARK UNBOUND:                -0.054
REMARK SMILES CCCCC(=O)[O-]
REMARK SMILES IDX 4 1 5 2 6 3 7 4 3 5 2 6 1 7
REMARK H PARENT
REMARK Flexibility Score: inf
ROOT
ATOM      1  C   UNL     1       8.905 -19.554  18.867  1.00  0.00     0.053 C 
ENDROOT
BRANCH   1   2
ATOM      2  C   UNL     1      10.170 -18.774  19.037  1.00  0.00     0.041 C 
ATOM      3  O   UNL     1      11.264 -19.245  18.629  1.00  0.00    -0.550 OA
ATOM      4  O   UNL     1      10.133 -17.505  19.602  1.00  0.00    -0.550 OA
ENDBRANCH   1   2
BRANCH   1   5
ATOM      5  C   UNL     1       7.972 -18.854  17.875  1.00  0.00     0.006 C 
BRANCH   5   6
ATOM      6  C   UNL     1       6.733 -18.297  18.585  1.00  0.00    -0.003 C 
ATOM      7  C   UNL     1       6.552 -18.933  19.960  1.00  0.00     0.004 C 
ENDBRANCH   5   6
ENDBRANCH   1   5
TORSDOF 3
ENDMDL
MODEL 5
REMARK VINA RESULT:    -2.143      1.453      2.283
REMARK INTER + INTRA:          -2.572
REMARK INTER:                  -2.495
REMARK INTRA:                  -0.077
REMARK UNBOUND:                -0.054
REMARK SMILES CCCCC(=O)[O-]
REMARK SMILES IDX 4 1 5 2 6 3 7 4 3 5 2 6 1 7
REMARK H PARENT
REMARK Flexibility Score: inf
ROOT
ATOM      1  C   UNL     1       9.054 -18.455  18.006  1.00  0.00     0.053 C 
ENDROOT
BRANCH   1   2
ATOM      2  C   UNL     1       7.996 -19.362  18.551  1.00  0.00     0.041 C 
ATOM      3  O   UNL     1       6.799 -18.978  18.604  1.00  0.00    -0.550 OA
ATOM      4  O   UNL     1       8.326 -20.651  18.953  1.00  0.00    -0.550 OA
ENDBRANCH   1   2
BRANCH   1   5
ATOM      5  C   UNL     1       8.565 -17.004  17.999  1.00  0.00     0.006 C 
BRANCH   5   6
ATOM      6  C   UNL     1       8.964 -16.284  19.293  1.00  0.00    -0.003 C 
ATOM      7  C   UNL     1      10.373 -16.673  19.729  1.00  0.00     0.004 C 
ENDBRANCH   5   6
ENDBRANCH   1   5
TORSDOF 3
ENDMDL
MODEL 6
REMARK VINA RESULT:    -2.142      8.478      9.649
REMARK INTER + INTRA:          -2.571
REMARK INTER:                  -2.463
REMARK INTRA:                  -0.107
REMARK UNBOUND:                -0.054
REMARK SMILES CCCCC(=O)[O-]
REMARK SMILES IDX 4 1 5 2 6 3 7 4 3 5 2 6 1 7
REMARK H PARENT
REMARK Flexibility Score: inf
ROOT
ATOM      1  C   UNL     1      -0.377 -19.840  18.335  1.00  0.00     0.053 C 
ENDROOT
BRANCH   1   2
ATOM      2  C   UNL     1      -1.468 -20.314  19.242  1.00  0.00     0.041 C 
ATOM      3  O   UNL     1      -2.666 -20.298  18.855  1.00  0.00    -0.550 OA
ATOM      4  O   UNL     1      -1.156 -20.821  20.498  1.00  0.00    -0.550 OA
ENDBRANCH   1   2
BRANCH   1   5
ATOM      5  C   UNL     1       0.912 -20.626  18.590  1.00  0.00     0.006 C 
BRANCH   5   6
ATOM      6  C   UNL     1       2.042 -19.695  19.044  1.00  0.00    -0.003 C 
ATOM      7  C   UNL     1       2.246 -19.771  20.554  1.00  0.00     0.004 C 
ENDBRANCH   5   6
ENDBRANCH   1   5
TORSDOF 3
ENDMDL
MODEL 7
REMARK VINA RESULT:    -2.125     19.938     20.264
REMARK INTER + INTRA:          -2.552
REMARK INTER:                  -2.521
REMARK INTRA:                  -0.031
REMARK UNBOUND:                -0.054
REMARK SMILES CCCCC(=O)[O-]
REMARK SMILES IDX 4 1 5 2 6 3 7 4 3 5 2 6 1 7
REMARK H PARENT
REMARK Flexibility Score: inf
ROOT
ATOM      1  C   UNL     1      -2.744 -19.024  34.415  1.00  0.00     0.053 C 
ENDROOT
BRANCH   1   2
ATOM      2  C   UNL     1      -2.902 -20.456  34.821  1.00  0.00     0.041 C 
ATOM      3  O   UNL     1      -3.944 -21.090  34.510  1.00  0.00    -0.550 OA
ATOM      4  O   UNL     1      -1.877 -21.104  35.499  1.00  0.00    -0.550 OA
ENDBRANCH   1   2
BRANCH   1   5
ATOM      5  C   UNL     1      -3.942 -18.569  33.577  1.00  0.00     0.006 C 
BRANCH   5   6
ATOM      6  C   UNL     1      -4.315 -17.116  33.896  1.00  0.00    -0.003 C 
ATOM      7  C   UNL     1      -4.667 -16.346  32.627  1.00  0.00     0.004 C 
ENDBRANCH   5   6
ENDBRANCH   1   5
TORSDOF 3
ENDMDL
MODEL 8
REMARK VINA RESULT:    -2.021      1.398      2.047
REMARK INTER + INTRA:          -2.430
REMARK INTER:                  -2.402
REMARK INTRA:                  -0.027
REMARK UNBOUND:                -0.054
REMARK SMILES CCCCC(=O)[O-]
REMARK SMILES IDX 4 1 5 2 6 3 7 4 3 5 2 6 1 7
REMARK H PARENT
REMARK Flexibility Score: inf
ROOT
ATOM      1  C   UNL     1      10.265 -18.980  20.122  1.00  0.00     0.053 C 
ENDROOT
BRANCH   1   2
ATOM      2  C   UNL     1       9.347 -19.322  18.991  1.00  0.00     0.041 C 
ATOM      3  O   UNL     1       9.478 -18.755  17.875  1.00  0.00    -0.550 OA
ATOM      4  O   UNL     1       8.379 -20.305  19.156  1.00  0.00    -0.550 OA
ENDBRANCH   1   2
BRANCH   1   5
ATOM      5  C   UNL     1      11.720 -18.959  19.644  1.00  0.00     0.006 C 
BRANCH   5   6
ATOM      6  C   UNL     1      12.674 -18.647  20.803  1.00  0.00    -0.003 C 
ATOM      7  C   UNL     1      12.443 -19.591  21.978  1.00  0.00     0.004 C 
ENDBRANCH   5   6
ENDBRANCH   1   5
TORSDOF 3
ENDMDL
MODEL 9
REMARK VINA RESULT:    -1.920      2.616      3.821
REMARK INTER + INTRA:          -2.311
REMARK INTER:                  -2.279
REMARK INTRA:                  -0.032
REMARK UNBOUND:                -0.054
REMARK SMILES CCCCC(=O)[O-]
REMARK SMILES IDX 4 1 5 2 6 3 7 4 3 5 2 6 1 7
REMARK H PARENT
REMARK Flexibility Score: inf
ROOT
ATOM      1  C   UNL     1      11.122 -18.859  21.343  1.00  0.00     0.053 C 
ENDROOT
BRANCH   1   2
ATOM      2  C   UNL     1      10.830 -18.818  19.876  1.00  0.00     0.041 C 
ATOM      3  O   UNL     1       9.702 -18.440  19.465  1.00  0.00    -0.550 OA
ATOM      4  O   UNL     1      11.822 -19.151  18.961  1.00  0.00    -0.550 OA
ENDBRANCH   1   2
BRANCH   1   5
ATOM      5  C   UNL     1      12.605 -19.154  21.587  1.00  0.00     0.006 C 
BRANCH   5   6
ATOM      6  C   UNL     1      12.782 -20.184  22.709  1.00  0.00    -0.003 C 
ATOM      7  C   UNL     1      14.231 -20.236  23.185  1.00  0.00     0.004 C 
ENDBRANCH   5   6
ENDBRANCH   1   5
TORSDOF 3
ENDMDL
