MODEL 1
REMARK VINA RESULT:    -3.783      0.000      0.000
REMARK INTER + INTRA:          -6.754
REMARK INTER:                  -5.994
REMARK INTRA:                  -0.760
REMARK UNBOUND:                -0.760
REMARK SMILES CCCCCCCCCCCC(=O)[O-]
REMARK SMILES IDX 7 1 8 2 9 3 10 4 11 5 12 6 13 7 14 8 6 9 5 10 4 11 3 12 2 13
REMARK SMILES IDX 1 14
REMARK H PARENT
REMARK Flexibility Score: inf
ROOT
ATOM      1  C   UNL     1     -93.463 146.547 239.108  1.00  0.00     0.000 C 
ENDROOT
BRANCH   1   2
ATOM      2  C   UNL     1     -93.563 148.050 239.415  1.00  0.00     0.000 C 
BRANCH   2   3
ATOM      3  C   UNL     1     -94.790 148.708 238.765  1.00  0.00     0.000 C 
BRANCH   3   4
ATOM      4  C   UNL     1     -96.015 148.612 239.687  1.00  0.00     0.006 C 
BRANCH   4   5
ATOM      5  C   UNL     1     -95.785 149.310 241.034  1.00  0.00     0.053 C 
BRANCH   5   6
ATOM      6  C   UNL     1     -97.077 149.687 241.691  1.00  0.00     0.041 C 
ATOM      7  O   UNL     1     -97.864 150.492 241.129  1.00  0.00    -0.550 OA
ATOM      8  O   UNL     1     -97.426 149.123 242.913  1.00  0.00    -0.550 OA
ENDBRANCH   5   6
ENDBRANCH   4   5
ENDBRANCH   3   4
ENDBRANCH   2   3
ENDBRANCH   1   2
BRANCH   1   9
ATOM      9  C   UNL     1     -92.010 146.074 238.941  1.00  0.00     0.000 C 
BRANCH   9  10
ATOM     10  C   UNL     1     -91.695 145.630 237.502  1.00  0.00    -0.000 C 
BRANCH  10  11
ATOM     11  C   UNL     1     -92.881 145.830 236.546  1.00  0.00    -0.000 C 
BRANCH  11  12
ATOM     12  C   UNL     1     -92.398 146.274 235.160  1.00  0.00    -0.000 C 
BRANCH  12  13
ATOM     13  C   UNL     1     -93.552 146.855 234.335  1.00  0.00    -0.003 C 
ATOM     14  C   UNL     1     -94.443 147.753 235.189  1.00  0.00     0.004 C 
ENDBRANCH  12  13
ENDBRANCH  11  12
ENDBRANCH  10  11
ENDBRANCH   9  10
ENDBRANCH   1   9
TORSDOF 10
ENDMDL
MODEL 2
REMARK VINA RESULT:    -3.710      0.702      1.406
REMARK INTER + INTRA:          -6.639
REMARK INTER:                  -5.901
REMARK INTRA:                  -0.738
REMARK UNBOUND:                -0.760
REMARK SMILES CCCCCCCCCCCC(=O)[O-]
REMARK SMILES IDX 7 1 8 2 9 3 10 4 11 5 12 6 13 7 14 8 6 9 5 10 4 11 3 12 2 13
REMARK SMILES IDX 1 14
REMARK H PARENT
REMARK Flexibility Score: inf
ROOT
ATOM      1  C   UNL     1     -93.457 147.921 239.399  1.00  0.00     0.000 C 
ENDROOT
BRANCH   1   2
ATOM      2  C   UNL     1     -94.569 148.613 238.594  1.00  0.00     0.000 C 
BRANCH   2   3
ATOM      3  C   UNL     1     -95.902 148.678 239.357  1.00  0.00     0.000 C 
BRANCH   3   4
ATOM      4  C   UNL     1     -95.672 149.062 240.827  1.00  0.00     0.006 C 
BRANCH   4   5
ATOM      5  C   UNL     1     -96.793 148.552 241.742  1.00  0.00     0.053 C 
BRANCH   5   6
ATOM      6  C   UNL     1     -97.666 149.670 242.225  1.00  0.00     0.041 C 
ATOM      7  O   UNL     1     -98.138 150.504 241.409  1.00  0.00    -0.550 OA
ATOM      8  O   UNL     1     -97.986 149.770 243.573  1.00  0.00    -0.550 OA
ENDBRANCH   5   6
ENDBRANCH   4   5
ENDBRANCH   3   4
ENDBRANCH   2   3
ENDBRANCH   1   2
BRANCH   1   9
ATOM      9  C   UNL     1     -93.381 146.410 239.123  1.00  0.00     0.000 C 
BRANCH   9  10
ATOM     10  C   UNL     1     -91.977 145.960 238.686  1.00  0.00    -0.000 C 
BRANCH  10  11
ATOM     11  C   UNL     1     -91.872 145.727 237.172  1.00  0.00    -0.000 C 
BRANCH  11  12
ATOM     12  C   UNL     1     -93.255 145.779 236.512  1.00  0.00    -0.000 C 
BRANCH  12  13
ATOM     13  C   UNL     1     -93.277 146.790 235.360  1.00  0.00    -0.003 C 
ATOM     14  C   UNL     1     -92.144 146.526 234.372  1.00  0.00     0.004 C 
ENDBRANCH  12  13
ENDBRANCH  11  12
ENDBRANCH  10  11
ENDBRANCH   9  10
ENDBRANCH   1   9
TORSDOF 10
ENDMDL
MODEL 3
REMARK VINA RESULT:    -3.686      2.188      3.029
REMARK INTER + INTRA:          -6.601
REMARK INTER:                  -5.084
REMARK INTRA:                  -1.518
REMARK UNBOUND:                -0.760
REMARK SMILES CCCCCCCCCCCC(=O)[O-]
REMARK SMILES IDX 7 1 8 2 9 3 10 4 11 5 12 6 13 7 14 8 6 9 5 10 4 11 3 12 2 13
REMARK SMILES IDX 1 14
REMARK H PARENT
REMARK Flexibility Score: inf
ROOT
ATOM      1  C   UNL     1     -94.607 146.812 241.415  1.00  0.00     0.000 C 
ENDROOT
BRANCH   1   2
ATOM      2  C   UNL     1     -96.084 146.430 241.608  1.00  0.00     0.000 C 
BRANCH   2   3
ATOM      3  C   UNL     1     -97.043 147.579 241.259  1.00  0.00     0.000 C 
BRANCH   3   4
ATOM      4  C   UNL     1     -96.355 148.940 241.438  1.00  0.00     0.006 C 
BRANCH   4   5
ATOM      5  C   UNL     1     -97.354 150.105 241.407  1.00  0.00     0.053 C 
BRANCH   5   6
ATOM      6  C   UNL     1     -98.425 149.945 242.442  1.00  0.00     0.041 C 
ATOM      7  O   UNL     1     -98.126 149.902 243.663  1.00  0.00    -0.550 OA
ATOM      8  O   UNL     1     -99.759 149.875 242.057  1.00  0.00    -0.550 OA
ENDBRANCH   5   6
ENDBRANCH   4   5
ENDBRANCH   3   4
ENDBRANCH   2   3
ENDBRANCH   1   2
BRANCH   1   9
ATOM      9  C   UNL     1     -93.884 145.889 240.418  1.00  0.00     0.000 C 
BRANCH   9  10
ATOM     10  C   UNL     1     -93.555 146.595 239.093  1.00  0.00    -0.000 C 
BRANCH  10  11
ATOM     11  C   UNL     1     -93.598 148.126 239.208  1.00  0.00    -0.000 C 
BRANCH  11  12
ATOM     12  C   UNL     1     -94.575 148.726 238.190  1.00  0.00    -0.000 C 
BRANCH  12  13
ATOM     13  C   UNL     1     -95.479 147.642 237.591  1.00  0.00    -0.003 C 
ATOM     14  C   UNL     1     -96.949 148.049 237.661  1.00  0.00     0.004 C 
ENDBRANCH  12  13
ENDBRANCH  11  12
ENDBRANCH  10  11
ENDBRANCH   9  10
ENDBRANCH   1   9
TORSDOF 10
ENDMDL
MODEL 4
REMARK VINA RESULT:    -3.684      1.592      2.609
REMARK INTER + INTRA:          -6.598
REMARK INTER:                  -5.202
REMARK INTRA:                  -1.396
REMARK UNBOUND:                -0.760
REMARK SMILES CCCCCCCCCCCC(=O)[O-]
REMARK SMILES IDX 7 1 8 2 9 3 10 4 11 5 12 6 13 7 14 8 6 9 5 10 4 11 3 12 2 13
REMARK SMILES IDX 1 14
REMARK H PARENT
REMARK Flexibility Score: inf
ROOT
ATOM      1  C   UNL     1     -93.786 146.279 240.061  1.00  0.00     0.000 C 
ENDROOT
BRANCH   1   2
ATOM      2  C   UNL     1     -94.592 147.119 241.065  1.00  0.00     0.000 C 
BRANCH   2   3
ATOM      3  C   UNL     1     -94.536 148.624 240.759  1.00  0.00     0.000 C 
BRANCH   3   4
ATOM      4  C   UNL     1     -95.854 149.311 241.145  1.00  0.00     0.006 C 
BRANCH   4   5
ATOM      5  C   UNL     1     -96.778 148.386 241.950  1.00  0.00     0.053 C 
BRANCH   5   6
ATOM      6  C   UNL     1     -97.743 149.161 242.793  1.00  0.00     0.041 C 
ATOM      7  O   UNL     1     -97.950 148.829 243.988  1.00  0.00    -0.550 OA
ATOM      8  O   UNL     1     -98.388 150.274 242.266  1.00  0.00    -0.550 OA
ENDBRANCH   5   6
ENDBRANCH   4   5
ENDBRANCH   3   4
ENDBRANCH   2   3
ENDBRANCH   1   2
BRANCH   1   9
ATOM      9  C   UNL     1     -93.263 147.112 238.879  1.00  0.00     0.000 C 
BRANCH   9  10
ATOM     10  C   UNL     1     -93.537 146.446 237.521  1.00  0.00    -0.000 C 
BRANCH  10  11
ATOM     11  C   UNL     1     -94.501 147.259 236.644  1.00  0.00    -0.000 C 
BRANCH  11  12
ATOM     12  C   UNL     1     -94.910 148.562 237.341  1.00  0.00    -0.000 C 
BRANCH  12  13
ATOM     13  C   UNL     1     -96.434 148.653 237.486  1.00  0.00    -0.003 C 
ATOM     14  C   UNL     1     -96.999 147.406 238.159  1.00  0.00     0.004 C 
ENDBRANCH  12  13
ENDBRANCH  11  12
ENDBRANCH  10  11
ENDBRANCH   9  10
ENDBRANCH   1   9
TORSDOF 10
ENDMDL
MODEL 5
REMARK VINA RESULT:    -3.683      0.833      1.494
REMARK INTER + INTRA:          -6.595
REMARK INTER:                  -5.510
REMARK INTRA:                  -1.086
REMARK UNBOUND:                -0.760
REMARK SMILES CCCCCCCCCCCC(=O)[O-]
REMARK SMILES IDX 7 1 8 2 9 3 10 4 11 5 12 6 13 7 14 8 6 9 5 10 4 11 3 12 2 13
REMARK SMILES IDX 1 14
REMARK H PARENT
REMARK Flexibility Score: inf
ROOT
ATOM      1  C   UNL     1     -92.044 146.052 238.957  1.00  0.00     0.000 C 
ENDROOT
BRANCH   1   2
ATOM      2  C   UNL     1     -93.481 146.591 239.029  1.00  0.00     0.000 C 
BRANCH   2   3
ATOM      3  C   UNL     1     -93.534 148.114 239.227  1.00  0.00     0.000 C 
BRANCH   3   4
ATOM      4  C   UNL     1     -94.988 148.610 239.277  1.00  0.00     0.006 C 
BRANCH   4   5
ATOM      5  C   UNL     1     -95.842 147.805 240.267  1.00  0.00     0.053 C 
BRANCH   5   6
ATOM      6  C   UNL     1     -96.300 148.648 241.417  1.00  0.00     0.041 C 
ATOM      7  O   UNL     1     -96.113 149.893 241.405  1.00  0.00    -0.550 OA
ATOM      8  O   UNL     1     -96.962 148.062 242.489  1.00  0.00    -0.550 OA
ENDBRANCH   5   6
ENDBRANCH   4   5
ENDBRANCH   3   4
ENDBRANCH   2   3
ENDBRANCH   1   2
BRANCH   1   9
ATOM      9  C   UNL     1     -91.630 145.664 237.527  1.00  0.00     0.000 C 
BRANCH   9  10
ATOM     10  C   UNL     1     -92.817 145.660 236.549  1.00  0.00    -0.000 C 
BRANCH  10  11
ATOM     11  C   UNL     1     -92.432 146.153 235.146  1.00  0.00    -0.000 C 
BRANCH  11  12
ATOM     12  C   UNL     1     -93.378 147.264 234.677  1.00  0.00    -0.000 C 
BRANCH  12  13
ATOM     13  C   UNL     1     -94.577 147.402 235.622  1.00  0.00    -0.003 C 
ATOM     14  C   UNL     1     -95.222 148.780 235.498  1.00  0.00     0.004 C 
ENDBRANCH  12  13
ENDBRANCH  11  12
ENDBRANCH  10  11
ENDBRANCH   9  10
ENDBRANCH   1   9
TORSDOF 10
ENDMDL
MODEL 6
REMARK VINA RESULT:    -3.668      2.257      3.513
REMARK INTER + INTRA:          -6.572
REMARK INTER:                  -5.346
REMARK INTRA:                  -1.226
REMARK UNBOUND:                -0.760
REMARK SMILES CCCCCCCCCCCC(=O)[O-]
REMARK SMILES IDX 7 1 8 2 9 3 10 4 11 5 12 6 13 7 14 8 6 9 5 10 4 11 3 12 2 13
REMARK SMILES IDX 1 14
REMARK H PARENT
REMARK Flexibility Score: inf
ROOT
ATOM      1  C   UNL     1     -96.032 147.935 241.458  1.00  0.00     0.000 C 
ENDROOT
BRANCH   1   2
ATOM      2  C   UNL     1     -95.944 149.436 241.138  1.00  0.00     0.000 C 
BRANCH   2   3
ATOM      3  C   UNL     1     -97.227 150.198 241.505  1.00  0.00     0.000 C 
BRANCH   3   4
ATOM      4  C   UNL     1     -98.432 149.246 241.556  1.00  0.00     0.006 C 
BRANCH   4   5
ATOM      5  C   UNL     1     -99.333 149.514 242.770  1.00  0.00     0.053 C 
BRANCH   5   6
ATOM      6  C   UNL     1     -98.571 149.421 244.056  1.00  0.00     0.041 C 
ATOM      7  O   UNL     1     -98.020 148.340 244.391  1.00  0.00    -0.550 OA
ATOM      8  O   UNL     1     -98.443 150.540 244.871  1.00  0.00    -0.550 OA
ENDBRANCH   5   6
ENDBRANCH   4   5
ENDBRANCH   3   4
ENDBRANCH   2   3
ENDBRANCH   1   2
BRANCH   1   9
ATOM      9  C   UNL     1     -94.793 147.157 240.985  1.00  0.00     0.000 C 
BRANCH   9  10
ATOM     10  C   UNL     1     -93.851 148.013 240.123  1.00  0.00    -0.000 C 
BRANCH  10  11
ATOM     11  C   UNL     1     -93.367 147.280 238.863  1.00  0.00    -0.000 C 
BRANCH  11  12
ATOM     12  C   UNL     1     -94.416 147.357 237.747  1.00  0.00    -0.000 C 
BRANCH  12  13
ATOM     13  C   UNL     1     -94.969 148.780 237.608  1.00  0.00    -0.003 C 
ATOM     14  C   UNL     1     -96.493 148.775 237.533  1.00  0.00     0.004 C 
ENDBRANCH  12  13
ENDBRANCH  11  12
ENDBRANCH  10  11
ENDBRANCH   9  10
ENDBRANCH   1   9
TORSDOF 10
ENDMDL
MODEL 7
REMARK VINA RESULT:    -3.661      1.466      2.919
REMARK INTER + INTRA:          -6.562
REMARK INTER:                  -5.912
REMARK INTRA:                  -0.650
REMARK UNBOUND:                -0.760
REMARK SMILES CCCCCCCCCCCC(=O)[O-]
REMARK SMILES IDX 7 1 8 2 9 3 10 4 11 5 12 6 13 7 14 8 6 9 5 10 4 11 3 12 2 13
REMARK SMILES IDX 1 14
REMARK H PARENT
REMARK Flexibility Score: inf
ROOT
ATOM      1  C   UNL     1     -96.021 148.610 239.039  1.00  0.00     0.000 C 
ENDROOT
BRANCH   1   2
ATOM      2  C   UNL     1     -96.072 148.394 240.561  1.00  0.00     0.000 C 
BRANCH   2   3
ATOM      3  C   UNL     1     -96.127 149.714 241.345  1.00  0.00     0.000 C 
BRANCH   3   4
ATOM      4  C   UNL     1     -97.569 150.237 241.437  1.00  0.00     0.006 C 
BRANCH   4   5
ATOM      5  C   UNL     1     -98.500 149.251 242.154  1.00  0.00     0.053 C 
BRANCH   5   6
ATOM      6  C   UNL     1     -98.209 149.180 243.621  1.00  0.00     0.041 C 
ATOM      7  O   UNL     1     -98.374 150.191 244.351  1.00  0.00    -0.550 OA
ATOM      8  O   UNL     1     -97.785 147.984 244.189  1.00  0.00    -0.550 OA
ENDBRANCH   5   6
ENDBRANCH   4   5
ENDBRANCH   3   4
ENDBRANCH   2   3
ENDBRANCH   1   2
BRANCH   1   9
ATOM      9  C   UNL     1     -94.585 148.608 238.491  1.00  0.00     0.000 C 
BRANCH   9  10
ATOM     10  C   UNL     1     -93.583 147.961 239.461  1.00  0.00    -0.000 C 
BRANCH  10  11
ATOM     11  C   UNL     1     -92.998 146.647 238.922  1.00  0.00    -0.000 C 
BRANCH  11  12
ATOM     12  C   UNL     1     -93.344 146.460 237.440  1.00  0.00    -0.000 C 
BRANCH  12  13
ATOM     13  C   UNL     1     -92.222 145.721 236.702  1.00  0.00    -0.003 C 
ATOM     14  C   UNL     1     -92.522 145.611 235.210  1.00  0.00     0.004 C 
ENDBRANCH  12  13
ENDBRANCH  11  12
ENDBRANCH  10  11
ENDBRANCH   9  10
ENDBRANCH   1   9
TORSDOF 10
ENDMDL
MODEL 8
REMARK VINA RESULT:    -3.597      3.874      6.917
REMARK INTER + INTRA:          -6.460
REMARK INTER:                  -5.772
REMARK INTRA:                  -0.688
REMARK UNBOUND:                -0.760
REMARK SMILES CCCCCCCCCCCC(=O)[O-]
REMARK SMILES IDX 7 1 8 2 9 3 10 4 11 5 12 6 13 7 14 8 6 9 5 10 4 11 3 12 2 13
REMARK SMILES IDX 1 14
REMARK H PARENT
REMARK Flexibility Score: inf
ROOT
ATOM      1  C   UNL     1     -94.531 147.583 237.181  1.00  0.00     0.000 C 
ENDROOT
BRANCH   1   2
ATOM      2  C   UNL     1     -93.801 146.306 237.629  1.00  0.00     0.000 C 
BRANCH   2   3
ATOM      3  C   UNL     1     -92.592 145.972 236.741  1.00  0.00     0.000 C 
BRANCH   3   4
ATOM      4  C   UNL     1     -93.007 145.871 235.266  1.00  0.00     0.006 C 
BRANCH   4   5
ATOM      5  C   UNL     1     -92.002 146.557 234.331  1.00  0.00     0.053 C 
BRANCH   5   6
ATOM      6  C   UNL     1     -92.681 147.490 233.375  1.00  0.00     0.041 C 
ATOM      7  O   UNL     1     -92.386 147.471 232.152  1.00  0.00    -0.550 OA
ATOM      8  O   UNL     1     -93.666 148.358 233.832  1.00  0.00    -0.550 OA
ENDBRANCH   5   6
ENDBRANCH   4   5
ENDBRANCH   3   4
ENDBRANCH   2   3
ENDBRANCH   1   2
BRANCH   1   9
ATOM      9  C   UNL     1     -94.514 148.681 238.257  1.00  0.00     0.000 C 
BRANCH   9  10
ATOM     10  C   UNL     1     -93.820 148.228 239.552  1.00  0.00    -0.000 C 
BRANCH  10  11
ATOM     11  C   UNL     1     -94.794 148.090 240.731  1.00  0.00    -0.000 C 
BRANCH  11  12
ATOM     12  C   UNL     1     -96.130 148.775 240.422  1.00  0.00    -0.000 C 
BRANCH  12  13
ATOM     13  C   UNL     1     -96.439 149.870 241.450  1.00  0.00    -0.003 C 
ATOM     14  C   UNL     1     -97.908 150.278 241.397  1.00  0.00     0.004 C 
ENDBRANCH  12  13
ENDBRANCH  11  12
ENDBRANCH  10  11
ENDBRANCH   9  10
ENDBRANCH   1   9
TORSDOF 10
ENDMDL
MODEL 9
REMARK VINA RESULT:    -3.568      2.700      5.246
REMARK INTER + INTRA:          -6.414
REMARK INTER:                  -4.920
REMARK INTRA:                  -1.494
REMARK UNBOUND:                -0.760
REMARK SMILES CCCCCCCCCCCC(=O)[O-]
REMARK SMILES IDX 7 1 8 2 9 3 10 4 11 5 12 6 13 7 14 8 6 9 5 10 4 11 3 12 2 13
REMARK SMILES IDX 1 14
REMARK H PARENT
REMARK Flexibility Score: inf
ROOT
ATOM      1  C   UNL     1     -93.777 146.105 240.364  1.00  0.00     0.000 C 
ENDROOT
BRANCH   1   2
ATOM      2  C   UNL     1     -93.295 146.736 239.047  1.00  0.00     0.000 C 
BRANCH   2   3
ATOM      3  C   UNL     1     -93.826 148.163 238.843  1.00  0.00     0.000 C 
BRANCH   3   4
ATOM      4  C   UNL     1     -94.752 148.233 237.620  1.00  0.00     0.006 C 
BRANCH   4   5
ATOM      5  C   UNL     1     -96.182 148.646 237.997  1.00  0.00     0.053 C 
BRANCH   5   6
ATOM      6  C   UNL     1     -97.116 147.475 237.997  1.00  0.00     0.041 C 
ATOM      7  O   UNL     1     -96.662 146.302 238.016  1.00  0.00    -0.550 OA
ATOM      8  O   UNL     1     -98.490 147.682 238.010  1.00  0.00    -0.550 OA
ENDBRANCH   5   6
ENDBRANCH   4   5
ENDBRANCH   3   4
ENDBRANCH   2   3
ENDBRANCH   1   2
BRANCH   1   9
ATOM      9  C   UNL     1     -94.574 147.092 241.234  1.00  0.00     0.000 C 
BRANCH   9  10
ATOM     10  C   UNL     1     -96.006 146.607 241.517  1.00  0.00    -0.000 C 
BRANCH  10  11
ATOM     11  C   UNL     1     -96.987 147.762 241.764  1.00  0.00    -0.000 C 
BRANCH  11  12
ATOM     12  C   UNL     1     -96.321 149.115 241.488  1.00  0.00    -0.000 C 
BRANCH  12  13
ATOM     13  C   UNL     1     -97.326 150.264 241.639  1.00  0.00    -0.003 C 
ATOM     14  C   UNL     1     -98.434 150.168 240.593  1.00  0.00     0.004 C 
ENDBRANCH  12  13
ENDBRANCH  11  12
ENDBRANCH  10  11
ENDBRANCH   9  10
ENDBRANCH   1   9
TORSDOF 10
ENDMDL
