MODEL 1
REMARK VINA RESULT:    -4.355      0.000      0.000
REMARK INTER + INTRA:          -9.752
REMARK INTER:                  -8.174
REMARK INTRA:                  -1.578
REMARK UNBOUND:                -1.578
REMARK SMILES CCCCCCCCC=CCCCCCCCC(=O)[O-]
REMARK SMILES IDX 10 1 9 2 11 3 12 4 13 5 14 6 15 7 16 8 17 9 18 10 19 11
REMARK SMILES IDX 20 12 8 13 7 14 6 15 5 16 4 17 3 18 2 19 1 20
REMARK H PARENT
REMARK Flexibility Score: inf
ROOT
ATOM      1  C   UNL     1      37.515  49.218  68.363  1.00  0.00    -0.031 C 
ATOM      2  C   UNL     1      38.643  49.084  69.077  1.00  0.00    -0.031 C 
ENDROOT
BRANCH   1   3
ATOM      3  C   UNL     1      37.259  50.432  67.515  1.00  0.00     0.027 C 
BRANCH   3   4
ATOM      4  C   UNL     1      35.871  51.024  67.802  1.00  0.00     0.004 C 
BRANCH   4   5
ATOM      5  C   UNL     1      35.933  52.496  68.238  1.00  0.00     0.000 C 
BRANCH   5   6
ATOM      6  C   UNL     1      37.376  53.018  68.356  1.00  0.00     0.000 C 
BRANCH   6   7
ATOM      7  C   UNL     1      37.509  54.488  67.928  1.00  0.00     0.000 C 
BRANCH   7   8
ATOM      8  C   UNL     1      38.821  54.772  67.181  1.00  0.00     0.006 C 
BRANCH   8   9
ATOM      9  C   UNL     1      39.180  53.615  66.245  1.00  0.00     0.053 C 
BRANCH   9  10
ATOM     10  C   UNL     1      39.766  54.132  64.970  1.00  0.00     0.041 C 
ATOM     11  O   UNL     1      40.615  55.061  64.994  1.00  0.00    -0.550 OA
ATOM     12  O   UNL     1      39.335  53.625  63.750  1.00  0.00    -0.550 OA
ENDBRANCH   9  10
ENDBRANCH   8   9
ENDBRANCH   7   8
ENDBRANCH   6   7
ENDBRANCH   5   6
ENDBRANCH   4   5
ENDBRANCH   3   4
ENDBRANCH   1   3
BRANCH   2  13
ATOM     13  C   UNL     1      38.890  47.877  69.941  1.00  0.00     0.027 C 
BRANCH  13  14
ATOM     14  C   UNL     1      37.744  46.863  69.810  1.00  0.00     0.004 C 
BRANCH  14  15
ATOM     15  C   UNL     1      38.238  45.453  69.446  1.00  0.00     0.000 C 
BRANCH  15  16
ATOM     16  C   UNL     1      37.517  44.876  68.215  1.00  0.00     0.000 C 
BRANCH  16  17
ATOM     17  C   UNL     1      37.548  45.832  67.012  1.00  0.00    -0.000 C 
BRANCH  17  18
ATOM     18  C   UNL     1      38.973  46.092  66.497  1.00  0.00    -0.000 C 
BRANCH  18  19
ATOM     19  C   UNL     1      39.035  45.969  64.970  1.00  0.00    -0.003 C 
ATOM     20  C   UNL     1      37.650  45.719  64.380  1.00  0.00     0.004 C 
ENDBRANCH  18  19
ENDBRANCH  17  18
ENDBRANCH  16  17
ENDBRANCH  15  16
ENDBRANCH  14  15
ENDBRANCH  13  14
ENDBRANCH   2  13
TORSDOF 15
ENDMDL
MODEL 2
REMARK VINA RESULT:    -4.220      1.636      2.889
REMARK INTER + INTRA:          -9.498
REMARK INTER:                  -7.589
REMARK INTRA:                  -1.910
REMARK UNBOUND:                -1.578
REMARK SMILES CCCCCCCCC=CCCCCCCCC(=O)[O-]
REMARK SMILES IDX 10 1 9 2 11 3 12 4 13 5 14 6 15 7 16 8 17 9 18 10 19 11
REMARK SMILES IDX 20 12 8 13 7 14 6 15 5 16 4 17 3 18 2 19 1 20
REMARK H PARENT
REMARK Flexibility Score: inf
ROOT
ATOM      1  C   UNL     1      39.618  47.516  69.748  1.00  0.00    -0.031 C 
ATOM      2  C   UNL     1      40.470  46.488  69.874  1.00  0.00    -0.031 C 
ENDROOT
BRANCH   1   3
ATOM      3  C   UNL     1      40.100  48.939  69.708  1.00  0.00     0.027 C 
BRANCH   3   4
ATOM      4  C   UNL     1      38.986  49.912  70.125  1.00  0.00     0.004 C 
BRANCH   4   5
ATOM      5  C   UNL     1      37.611  49.514  69.565  1.00  0.00     0.000 C 
BRANCH   5   6
ATOM      6  C   UNL     1      37.528  49.670  68.037  1.00  0.00     0.000 C 
BRANCH   6   7
ATOM      7  C   UNL     1      36.497  50.725  67.606  1.00  0.00     0.000 C 
BRANCH   7   8
ATOM      8  C   UNL     1      36.955  52.161  67.910  1.00  0.00     0.006 C 
BRANCH   8   9
ATOM      9  C   UNL     1      38.372  52.406  67.386  1.00  0.00     0.053 C 
BRANCH   9  10
ATOM     10  C   UNL     1      38.908  53.702  67.906  1.00  0.00     0.041 C 
ATOM     11  O   UNL     1      38.137  54.529  68.460  1.00  0.00    -0.550 OA
ATOM     12  O   UNL     1      40.249  54.020  67.733  1.00  0.00    -0.550 OA
ENDBRANCH   9  10
ENDBRANCH   8   9
ENDBRANCH   7   8
ENDBRANCH   6   7
ENDBRANCH   5   6
ENDBRANCH   4   5
ENDBRANCH   3   4
ENDBRANCH   1   3
BRANCH   2  13
ATOM     13  C   UNL     1      39.986  45.065  69.933  1.00  0.00     0.027 C 
BRANCH  13  14
ATOM     14  C   UNL     1      38.450  45.006  69.925  1.00  0.00     0.004 C 
BRANCH  14  15
ATOM     15  C   UNL     1      37.878  44.645  68.544  1.00  0.00     0.000 C 
BRANCH  15  16
ATOM     16  C   UNL     1      36.915  45.718  68.006  1.00  0.00     0.000 C 
BRANCH  16  17
ATOM     17  C   UNL     1      37.487  46.467  66.791  1.00  0.00    -0.000 C 
BRANCH  17  18
ATOM     18  C   UNL     1      38.924  46.040  66.452  1.00  0.00    -0.000 C 
BRANCH  18  19
ATOM     19  C   UNL     1      39.112  45.906  64.936  1.00  0.00    -0.003 C 
ATOM     20  C   UNL     1      37.773  45.723  64.228  1.00  0.00     0.004 C 
ENDBRANCH  18  19
ENDBRANCH  17  18
ENDBRANCH  16  17
ENDBRANCH  15  16
ENDBRANCH  14  15
ENDBRANCH  13  14
ENDBRANCH   2  13
TORSDOF 15
ENDMDL
MODEL 3
REMARK VINA RESULT:    -4.189      2.154      3.205
REMARK INTER + INTRA:          -9.441
REMARK INTER:                  -6.999
REMARK INTRA:                  -2.443
REMARK UNBOUND:                -1.578
REMARK SMILES CCCCCCCCC=CCCCCCCCC(=O)[O-]
REMARK SMILES IDX 10 1 9 2 11 3 12 4 13 5 14 6 15 7 16 8 17 9 18 10 19 11
REMARK SMILES IDX 20 12 8 13 7 14 6 15 5 16 4 17 3 18 2 19 1 20
REMARK H PARENT
REMARK Flexibility Score: inf
ROOT
ATOM      1  C   UNL     1      38.097  48.913  68.441  1.00  0.00    -0.031 C 
ATOM      2  C   UNL     1      38.584  49.100  69.677  1.00  0.00    -0.031 C 
ENDROOT
BRANCH   1   3
ATOM      3  C   UNL     1      36.649  49.156  68.119  1.00  0.00     0.027 C 
BRANCH   3   4
ATOM      4  C   UNL     1      35.744  48.151  68.849  1.00  0.00     0.004 C 
BRANCH   4   5
ATOM      5  C   UNL     1      34.630  48.835  69.658  1.00  0.00     0.000 C 
BRANCH   5   6
ATOM      6  C   UNL     1      35.010  50.259  70.101  1.00  0.00     0.000 C 
BRANCH   6   7
ATOM      7  C   UNL     1      34.102  51.332  69.479  1.00  0.00     0.000 C 
BRANCH   7   8
ATOM      8  C   UNL     1      34.880  52.345  68.625  1.00  0.00     0.006 C 
BRANCH   8   9
ATOM      9  C   UNL     1      36.162  52.790  69.336  1.00  0.00     0.053 C 
BRANCH   9  10
ATOM     10  C   UNL     1      37.173  53.271  68.343  1.00  0.00     0.041 C 
ATOM     11  O   UNL     1      37.122  54.452  67.909  1.00  0.00    -0.550 OA
ATOM     12  O   UNL     1      38.140  52.400  67.858  1.00  0.00    -0.550 OA
ENDBRANCH   9  10
ENDBRANCH   8   9
ENDBRANCH   7   8
ENDBRANCH   6   7
ENDBRANCH   5   6
ENDBRANCH   4   5
ENDBRANCH   3   4
ENDBRANCH   1   3
BRANCH   2  13
ATOM     13  C   UNL     1      40.029  48.837  70.002  1.00  0.00     0.027 C 
BRANCH  13  14
ATOM     14  C   UNL     1      40.589  47.696  69.139  1.00  0.00     0.004 C 
BRANCH  14  15
ATOM     15  C   UNL     1      40.461  46.322  69.819  1.00  0.00     0.000 C 
BRANCH  15  16
ATOM     16  C   UNL     1      39.843  45.261  68.891  1.00  0.00     0.000 C 
BRANCH  16  17
ATOM     17  C   UNL     1      38.313  45.372  68.807  1.00  0.00    -0.000 C 
BRANCH  17  18
ATOM     18  C   UNL     1      37.794  45.360  67.361  1.00  0.00    -0.000 C 
BRANCH  18  19
ATOM     19  C   UNL     1      38.803  46.016  66.411  1.00  0.00    -0.003 C 
ATOM     20  C   UNL     1      38.337  45.925  64.961  1.00  0.00     0.004 C 
ENDBRANCH  18  19
ENDBRANCH  17  18
ENDBRANCH  16  17
ENDBRANCH  15  16
ENDBRANCH  14  15
ENDBRANCH  13  14
ENDBRANCH   2  13
TORSDOF 15
ENDMDL
MODEL 4
REMARK VINA RESULT:    -4.165      3.533      7.170
REMARK INTER + INTRA:          -9.396
REMARK INTER:                  -7.599
REMARK INTRA:                  -1.797
REMARK UNBOUND:                -1.578
REMARK SMILES CCCCCCCCC=CCCCCCCCC(=O)[O-]
REMARK SMILES IDX 10 1 9 2 11 3 12 4 13 5 14 6 15 7 16 8 17 9 18 10 19 11
REMARK SMILES IDX 20 12 8 13 7 14 6 15 5 16 4 17 3 18 2 19 1 20
REMARK H PARENT
REMARK Flexibility Score: inf
ROOT
ATOM      1  C   UNL     1      39.672  48.496  69.245  1.00  0.00    -0.031 C 
ATOM      2  C   UNL     1      39.462  49.724  69.743  1.00  0.00    -0.031 C 
ENDROOT
BRANCH   1   3
ATOM      3  C   UNL     1      40.987  47.788  69.421  1.00  0.00     0.027 C 
BRANCH   3   4
ATOM      4  C   UNL     1      40.797  46.436  70.125  1.00  0.00     0.004 C 
BRANCH   4   5
ATOM      5  C   UNL     1      40.172  45.372  69.207  1.00  0.00     0.000 C 
BRANCH   5   6
ATOM      6  C   UNL     1      38.806  44.882  69.716  1.00  0.00     0.000 C 
BRANCH   6   7
ATOM      7  C   UNL     1      37.632  45.647  69.085  1.00  0.00     0.000 C 
BRANCH   7   8
ATOM      8  C   UNL     1      37.369  45.237  67.628  1.00  0.00     0.006 C 
BRANCH   8   9
ATOM      9  C   UNL     1      37.657  46.398  66.672  1.00  0.00     0.053 C 
BRANCH   9  10
ATOM     10  C   UNL     1      37.562  45.943  65.250  1.00  0.00     0.041 C 
ATOM     11  O   UNL     1      36.441  45.678  64.743  1.00  0.00    -0.550 OA
ATOM     12  O   UNL     1      38.717  45.763  64.499  1.00  0.00    -0.550 OA
ENDBRANCH   9  10
ENDBRANCH   8   9
ENDBRANCH   7   8
ENDBRANCH   6   7
ENDBRANCH   5   6
ENDBRANCH   4   5
ENDBRANCH   3   4
ENDBRANCH   1   3
BRANCH   2  13
ATOM     13  C   UNL     1      38.153  50.439  69.549  1.00  0.00     0.027 C 
BRANCH  13  14
ATOM     14  C   UNL     1      37.903  50.735  68.062  1.00  0.00     0.004 C 
BRANCH  14  15
ATOM     15  C   UNL     1      36.591  50.119  67.547  1.00  0.00     0.000 C 
BRANCH  15  16
ATOM     16  C   UNL     1      35.906  49.230  68.599  1.00  0.00     0.000 C 
BRANCH  16  17
ATOM     17  C   UNL     1      34.552  49.796  69.057  1.00  0.00    -0.000 C 
BRANCH  17  18
ATOM     18  C   UNL     1      34.686  51.142  69.786  1.00  0.00    -0.000 C 
BRANCH  18  19
ATOM     19  C   UNL     1      33.439  52.007  69.573  1.00  0.00    -0.003 C 
ATOM     20  C   UNL     1      33.759  53.236  68.727  1.00  0.00     0.004 C 
ENDBRANCH  18  19
ENDBRANCH  17  18
ENDBRANCH  16  17
ENDBRANCH  15  16
ENDBRANCH  14  15
ENDBRANCH  13  14
ENDBRANCH   2  13
TORSDOF 15
ENDMDL
MODEL 5
REMARK VINA RESULT:    -4.131      2.856      7.356
REMARK INTER + INTRA:          -9.332
REMARK INTER:                  -8.054
REMARK INTRA:                  -1.278
REMARK UNBOUND:                -1.578
REMARK SMILES CCCCCCCCC=CCCCCCCCC(=O)[O-]
REMARK SMILES IDX 10 1 9 2 11 3 12 4 13 5 14 6 15 7 16 8 17 9 18 10 19 11
REMARK SMILES IDX 20 12 8 13 7 14 6 15 5 16 4 17 3 18 2 19 1 20
REMARK H PARENT
REMARK Flexibility Score: inf
ROOT
ATOM      1  C   UNL     1      36.556  50.795  67.586  1.00  0.00    -0.031 C 
ATOM      2  C   UNL     1      35.848  51.560  68.431  1.00  0.00    -0.031 C 
ENDROOT
BRANCH   1   3
ATOM      3  C   UNL     1      36.661  49.307  67.771  1.00  0.00     0.027 C 
BRANCH   3   4
ATOM      4  C   UNL     1      35.672  48.811  68.837  1.00  0.00     0.004 C 
BRANCH   4   5
ATOM      5  C   UNL     1      35.991  47.388  69.325  1.00  0.00     0.000 C 
BRANCH   5   6
ATOM      6  C   UNL     1      37.495  47.168  69.563  1.00  0.00     0.000 C 
BRANCH   6   7
ATOM      7  C   UNL     1      37.884  45.681  69.546  1.00  0.00     0.000 C 
BRANCH   7   8
ATOM      8  C   UNL     1      37.788  45.058  68.145  1.00  0.00     0.006 C 
BRANCH   8   9
ATOM      9  C   UNL     1      38.957  45.509  67.264  1.00  0.00     0.053 C 
BRANCH   9  10
ATOM     10  C   UNL     1      38.474  45.873  65.896  1.00  0.00     0.041 C 
ATOM     11  O   UNL     1      39.295  46.032  64.956  1.00  0.00    -0.550 OA
ATOM     12  O   UNL     1      37.120  46.089  65.671  1.00  0.00    -0.550 OA
ENDBRANCH   9  10
ENDBRANCH   8   9
ENDBRANCH   7   8
ENDBRANCH   6   7
ENDBRANCH   5   6
ENDBRANCH   4   5
ENDBRANCH   3   4
ENDBRANCH   1   3
BRANCH   2  13
ATOM     13  C   UNL     1      35.760  53.052  68.257  1.00  0.00     0.027 C 
BRANCH  13  14
ATOM     14  C   UNL     1      36.669  53.777  69.261  1.00  0.00     0.004 C 
BRANCH  14  15
ATOM     15  C   UNL     1      38.120  53.898  68.766  1.00  0.00     0.000 C 
BRANCH  15  16
ATOM     16  C   UNL     1      38.210  54.466  67.338  1.00  0.00     0.000 C 
BRANCH  16  17
ATOM     17  C   UNL     1      39.142  53.644  66.435  1.00  0.00    -0.000 C 
BRANCH  17  18
ATOM     18  C   UNL     1      39.698  54.458  65.255  1.00  0.00    -0.000 C 
BRANCH  18  19
ATOM     19  C   UNL     1      39.642  53.647  63.955  1.00  0.00    -0.003 C 
ATOM     20  C   UNL     1      38.977  54.444  62.837  1.00  0.00     0.004 C 
ENDBRANCH  18  19
ENDBRANCH  17  18
ENDBRANCH  16  17
ENDBRANCH  15  16
ENDBRANCH  14  15
ENDBRANCH  13  14
ENDBRANCH   2  13
TORSDOF 15
ENDMDL
MODEL 6
REMARK VINA RESULT:    -4.099      2.857      7.256
REMARK INTER + INTRA:          -9.272
REMARK INTER:                  -7.083
REMARK INTRA:                  -2.188
REMARK UNBOUND:                -1.578
REMARK SMILES CCCCCCCCC=CCCCCCCCC(=O)[O-]
REMARK SMILES IDX 10 1 9 2 11 3 12 4 13 5 14 6 15 7 16 8 17 9 18 10 19 11
REMARK SMILES IDX 20 12 8 13 7 14 6 15 5 16 4 17 3 18 2 19 1 20
REMARK H PARENT
REMARK Flexibility Score: inf
ROOT
ATOM      1  C   UNL     1      35.910  50.232  67.934  1.00  0.00    -0.031 C 
ATOM      2  C   UNL     1      35.487  50.678  69.127  1.00  0.00    -0.031 C 
ENDROOT
BRANCH   1   3
ATOM      3  C   UNL     1      37.158  49.405  67.799  1.00  0.00     0.027 C 
BRANCH   3   4
ATOM      4  C   UNL     1      38.086  49.603  69.008  1.00  0.00     0.004 C 
BRANCH   4   5
ATOM      5  C   UNL     1      38.412  48.285  69.728  1.00  0.00     0.000 C 
BRANCH   5   6
ATOM      6  C   UNL     1      37.309  47.227  69.553  1.00  0.00     0.000 C 
BRANCH   6   7
ATOM      7  C   UNL     1      37.866  45.795  69.511  1.00  0.00     0.000 C 
BRANCH   7   8
ATOM      8  C   UNL     1      37.743  45.151  68.121  1.00  0.00     0.006 C 
BRANCH   8   9
ATOM      9  C   UNL     1      38.937  45.524  67.238  1.00  0.00     0.053 C 
BRANCH   9  10
ATOM     10  C   UNL     1      38.474  45.951  65.881  1.00  0.00     0.041 C 
ATOM     11  O   UNL     1      37.259  46.209  65.679  1.00  0.00    -0.550 OA
ATOM     12  O   UNL     1      39.376  46.014  64.826  1.00  0.00    -0.550 OA
ENDBRANCH   9  10
ENDBRANCH   8   9
ENDBRANCH   7   8
ENDBRANCH   6   7
ENDBRANCH   5   6
ENDBRANCH   4   5
ENDBRANCH   3   4
ENDBRANCH   1   3
BRANCH   2  13
ATOM     13  C   UNL     1      34.249  51.522  69.258  1.00  0.00     0.027 C 
BRANCH  13  14
ATOM     14  C   UNL     1      34.611  52.989  69.541  1.00  0.00     0.004 C 
BRANCH  14  15
ATOM     15  C   UNL     1      34.926  53.779  68.259  1.00  0.00     0.000 C 
BRANCH  15  16
ATOM     16  C   UNL     1      36.331  54.407  68.286  1.00  0.00     0.000 C 
BRANCH  16  17
ATOM     17  C   UNL     1      37.245  53.763  69.339  1.00  0.00    -0.000 C 
BRANCH  17  18
ATOM     18  C   UNL     1      38.627  53.391  68.780  1.00  0.00    -0.000 C 
BRANCH  18  19
ATOM     19  C   UNL     1      38.515  52.875  67.341  1.00  0.00    -0.003 C 
ATOM     20  C   UNL     1      39.353  53.720  66.385  1.00  0.00     0.004 C 
ENDBRANCH  18  19
ENDBRANCH  17  18
ENDBRANCH  16  17
ENDBRANCH  15  16
ENDBRANCH  14  15
ENDBRANCH  13  14
ENDBRANCH   2  13
TORSDOF 15
ENDMDL
MODEL 7
REMARK VINA RESULT:    -4.037      2.973      6.944
REMARK INTER + INTRA:          -9.156
REMARK INTER:                  -7.106
REMARK INTRA:                  -2.049
REMARK UNBOUND:                -1.578
REMARK SMILES CCCCCCCCC=CCCCCCCCC(=O)[O-]
REMARK SMILES IDX 10 1 9 2 11 3 12 4 13 5 14 6 15 7 16 8 17 9 18 10 19 11
REMARK SMILES IDX 20 12 8 13 7 14 6 15 5 16 4 17 3 18 2 19 1 20
REMARK H PARENT
REMARK Flexibility Score: inf
ROOT
ATOM      1  C   UNL     1      37.452  50.767  67.499  1.00  0.00    -0.031 C 
ATOM      2  C   UNL     1      37.933  51.662  68.375  1.00  0.00    -0.031 C 
ENDROOT
BRANCH   1   3
ATOM      3  C   UNL     1      37.605  49.288  67.719  1.00  0.00     0.027 C 
BRANCH   3   4
ATOM      4  C   UNL     1      38.082  48.988  69.148  1.00  0.00     0.004 C 
BRANCH   4   5
ATOM      5  C   UNL     1      39.479  48.349  69.186  1.00  0.00     0.000 C 
BRANCH   5   6
ATOM      6  C   UNL     1      39.427  46.812  69.182  1.00  0.00     0.000 C 
BRANCH   6   7
ATOM      7  C   UNL     1      37.989  46.269  69.202  1.00  0.00     0.000 C 
BRANCH   7   8
ATOM      8  C   UNL     1      37.580  45.621  67.871  1.00  0.00     0.006 C 
BRANCH   8   9
ATOM      9  C   UNL     1      38.802  45.382  66.980  1.00  0.00     0.053 C 
BRANCH   9  10
ATOM     10  C   UNL     1      38.526  45.828  65.579  1.00  0.00     0.041 C 
ATOM     11  O   UNL     1      39.472  46.194  64.833  1.00  0.00    -0.550 OA
ATOM     12  O   UNL     1      37.219  45.889  65.113  1.00  0.00    -0.550 OA
ENDBRANCH   9  10
ENDBRANCH   8   9
ENDBRANCH   7   8
ENDBRANCH   6   7
ENDBRANCH   5   6
ENDBRANCH   4   5
ENDBRANCH   3   4
ENDBRANCH   1   3
BRANCH   2  13
ATOM     13  C   UNL     1      37.796  53.142  68.144  1.00  0.00     0.027 C 
BRANCH  13  14
ATOM     14  C   UNL     1      36.374  53.622  68.475  1.00  0.00     0.004 C 
BRANCH  14  15
ATOM     15  C   UNL     1      35.837  53.023  69.786  1.00  0.00     0.000 C 
BRANCH  15  16
ATOM     16  C   UNL     1      34.301  53.072  69.870  1.00  0.00     0.000 C 
BRANCH  16  17
ATOM     17  C   UNL     1      33.673  51.675  69.992  1.00  0.00    -0.000 C 
BRANCH  17  18
ATOM     18  C   UNL     1      34.720  50.550  69.986  1.00  0.00    -0.000 C 
BRANCH  18  19
ATOM     19  C   UNL     1      34.310  49.424  69.030  1.00  0.00    -0.003 C 
ATOM     20  C   UNL     1      34.576  48.053  69.645  1.00  0.00     0.004 C 
ENDBRANCH  18  19
ENDBRANCH  17  18
ENDBRANCH  16  17
ENDBRANCH  15  16
ENDBRANCH  14  15
ENDBRANCH  13  14
ENDBRANCH   2  13
TORSDOF 15
ENDMDL
MODEL 8
REMARK VINA RESULT:    -4.030      2.990      7.602
REMARK INTER + INTRA:          -9.142
REMARK INTER:                  -7.719
REMARK INTRA:                  -1.423
REMARK UNBOUND:                -1.578
REMARK SMILES CCCCCCCCC=CCCCCCCCC(=O)[O-]
REMARK SMILES IDX 10 1 9 2 11 3 12 4 13 5 14 6 15 7 16 8 17 9 18 10 19 11
REMARK SMILES IDX 20 12 8 13 7 14 6 15 5 16 4 17 3 18 2 19 1 20
REMARK H PARENT
REMARK Flexibility Score: inf
ROOT
ATOM      1  C   UNL     1      38.757  49.753  69.237  1.00  0.00    -0.031 C 
ATOM      2  C   UNL     1      37.831  50.089  68.327  1.00  0.00    -0.031 C 
ENDROOT
BRANCH   1   3
ATOM      3  C   UNL     1      38.851  48.358  69.788  1.00  0.00     0.027 C 
BRANCH   3   4
ATOM      4  C   UNL     1      40.120  47.650  69.289  1.00  0.00     0.004 C 
BRANCH   4   5
ATOM      5  C   UNL     1      39.973  46.120  69.257  1.00  0.00     0.000 C 
BRANCH   5   6
ATOM      6  C   UNL     1      38.552  45.656  69.620  1.00  0.00     0.000 C 
BRANCH   6   7
ATOM      7  C   UNL     1      37.819  45.014  68.432  1.00  0.00     0.000 C 
BRANCH   7   8
ATOM      8  C   UNL     1      36.792  45.958  67.788  1.00  0.00     0.006 C 
BRANCH   8   9
ATOM      9  C   UNL     1      37.455  46.854  66.738  1.00  0.00     0.053 C 
BRANCH   9  10
ATOM     10  C   UNL     1      37.798  46.064  65.514  1.00  0.00     0.041 C 
ATOM     11  O   UNL     1      36.885  45.638  64.759  1.00  0.00    -0.550 OA
ATOM     12  O   UNL     1      39.123  45.754  65.235  1.00  0.00    -0.550 OA
ENDBRANCH   9  10
ENDBRANCH   8   9
ENDBRANCH   7   8
ENDBRANCH   6   7
ENDBRANCH   5   6
ENDBRANCH   4   5
ENDBRANCH   3   4
ENDBRANCH   1   3
BRANCH   2  13
ATOM     13  C   UNL     1      37.725  51.490  67.790  1.00  0.00     0.027 C 
BRANCH  13  14
ATOM     14  C   UNL     1      38.831  52.386  68.370  1.00  0.00     0.004 C 
BRANCH  14  15
ATOM     15  C   UNL     1      38.464  53.879  68.335  1.00  0.00     0.000 C 
BRANCH  15  16
ATOM     16  C   UNL     1      39.461  54.712  67.510  1.00  0.00     0.000 C 
BRANCH  16  17
ATOM     17  C   UNL     1      38.961  54.985  66.083  1.00  0.00    -0.000 C 
BRANCH  17  18
ATOM     18  C   UNL     1      39.568  54.026  65.046  1.00  0.00    -0.000 C 
BRANCH  18  19
ATOM     19  C   UNL     1      39.885  54.761  63.739  1.00  0.00    -0.003 C 
ATOM     20  C   UNL     1      39.094  54.178  62.572  1.00  0.00     0.004 C 
ENDBRANCH  18  19
ENDBRANCH  17  18
ENDBRANCH  16  17
ENDBRANCH  15  16
ENDBRANCH  14  15
ENDBRANCH  13  14
ENDBRANCH   2  13
TORSDOF 15
ENDMDL
MODEL 9
REMARK VINA RESULT:    -3.986      3.240      6.868
REMARK INTER + INTRA:          -9.060
REMARK INTER:                  -6.996
REMARK INTRA:                  -2.064
REMARK UNBOUND:                -1.578
REMARK SMILES CCCCCCCCC=CCCCCCCCC(=O)[O-]
REMARK SMILES IDX 10 1 9 2 11 3 12 4 13 5 14 6 15 7 16 8 17 9 18 10 19 11
REMARK SMILES IDX 20 12 8 13 7 14 6 15 5 16 4 17 3 18 2 19 1 20
REMARK H PARENT
REMARK Flexibility Score: inf
ROOT
ATOM      1  C   UNL     1      39.118  49.771  69.439  1.00  0.00    -0.031 C 
ATOM      2  C   UNL     1      38.410  50.692  70.109  1.00  0.00    -0.031 C 
ENDROOT
BRANCH   1   3
ATOM      3  C   UNL     1      39.352  48.395  69.998  1.00  0.00     0.027 C 
BRANCH   3   4
ATOM      4  C   UNL     1      40.194  47.543  69.037  1.00  0.00     0.004 C 
BRANCH   4   5
ATOM      5  C   UNL     1      40.094  46.039  69.335  1.00  0.00     0.000 C 
BRANCH   5   6
ATOM      6  C   UNL     1      38.660  45.598  69.677  1.00  0.00     0.000 C 
BRANCH   6   7
ATOM      7  C   UNL     1      37.937  44.960  68.481  1.00  0.00     0.000 C 
BRANCH   7   8
ATOM      8  C   UNL     1      36.832  45.861  67.905  1.00  0.00     0.006 C 
BRANCH   8   9
ATOM      9  C   UNL     1      37.406  46.841  66.878  1.00  0.00     0.053 C 
BRANCH   9  10
ATOM     10  C   UNL     1      37.846  46.113  65.647  1.00  0.00     0.041 C 
ATOM     11  O   UNL     1      37.000  45.751  64.788  1.00  0.00    -0.550 OA
ATOM     12  O   UNL     1      39.186  45.789  65.473  1.00  0.00    -0.550 OA
ENDBRANCH   9  10
ENDBRANCH   8   9
ENDBRANCH   7   8
ENDBRANCH   6   7
ENDBRANCH   5   6
ENDBRANCH   4   5
ENDBRANCH   3   4
ENDBRANCH   1   3
BRANCH   2  13
ATOM     13  C   UNL     1      38.193  52.075  69.557  1.00  0.00     0.027 C 
BRANCH  13  14
ATOM     14  C   UNL     1      38.230  52.066  68.021  1.00  0.00     0.004 C 
BRANCH  14  15
ATOM     15  C   UNL     1      36.890  51.638  67.399  1.00  0.00     0.000 C 
BRANCH  15  16
ATOM     16  C   UNL     1      35.680  52.231  68.142  1.00  0.00     0.000 C 
BRANCH  16  17
ATOM     17  C   UNL     1      34.926  51.181  68.972  1.00  0.00    -0.000 C 
BRANCH  17  18
ATOM     18  C   UNL     1      35.279  49.740  68.570  1.00  0.00    -0.000 C 
BRANCH  18  19
ATOM     19  C   UNL     1      34.293  48.742  69.189  1.00  0.00    -0.003 C 
ATOM     20  C   UNL     1      35.013  47.741  70.088  1.00  0.00     0.004 C 
ENDBRANCH  18  19
ENDBRANCH  17  18
ENDBRANCH  16  17
ENDBRANCH  15  16
ENDBRANCH  14  15
ENDBRANCH  13  14
ENDBRANCH   2  13
TORSDOF 15
ENDMDL
