MODEL 1
REMARK VINA RESULT:    -3.768      0.000      0.000
REMARK INTER + INTRA:          -6.234
REMARK INTER:                  -5.531
REMARK INTRA:                  -0.703
REMARK UNBOUND:                -0.703
REMARK SMILES O=C([O-])CCCCCCCC(=O)[O-]
REMARK SMILES IDX 7 1 6 2 5 3 4 4 2 5 1 6 3 7 8 8 9 9 10 10 11 11 12 12 13 13
REMARK H PARENT
REMARK Flexibility Score: inf
ROOT
ATOM      1  C   UNL     1     -14.474   5.724 -42.373  1.00  0.00     0.000 C 
ENDROOT
BRANCH   1   2
ATOM      2  C   UNL     1     -14.202   7.233 -42.237  1.00  0.00     0.000 C 
BRANCH   2   3
ATOM      3  C   UNL     1     -15.396   8.143 -42.590  1.00  0.00     0.006 C 
BRANCH   3   4
ATOM      4  C   UNL     1     -16.099   8.771 -41.376  1.00  0.00     0.053 C 
BRANCH   4   5
ATOM      5  C   UNL     1     -17.396   8.089 -41.064  1.00  0.00     0.041 C 
ATOM      6  O   UNL     1     -18.172   7.747 -41.996  1.00  0.00    -0.550 OA
ATOM      7  O   UNL     1     -17.763   7.862 -39.745  1.00  0.00    -0.550 OA
ENDBRANCH   4   5
ENDBRANCH   3   4
ENDBRANCH   2   3
ENDBRANCH   1   2
BRANCH   1   8
ATOM      8  C   UNL     1     -14.533   5.003 -41.016  1.00  0.00     0.000 C 
BRANCH   8   9
ATOM      9  C   UNL     1     -15.971   4.797 -40.517  1.00  0.00     0.006 C 
BRANCH   9  10
ATOM     10  C   UNL     1     -16.948   4.477 -41.656  1.00  0.00     0.053 C 
BRANCH  10  11
ATOM     11  C   UNL     1     -18.016   3.544 -41.180  1.00  0.00     0.041 C 
ATOM     12  O   UNL     1     -19.214   3.723 -41.522  1.00  0.00    -0.550 OA
ATOM     13  O   UNL     1     -17.695   2.502 -40.317  1.00  0.00    -0.550 OA
ENDBRANCH  10  11
ENDBRANCH   9  10
ENDBRANCH   8   9
ENDBRANCH   1   8
TORSDOF 8
ENDMDL
MODEL 2
REMARK VINA RESULT:    -3.707      1.488      2.030
REMARK INTER + INTRA:          -6.143
REMARK INTER:                  -5.350
REMARK INTRA:                  -0.793
REMARK UNBOUND:                -0.703
REMARK SMILES O=C([O-])CCCCCCCC(=O)[O-]
REMARK SMILES IDX 7 1 6 2 5 3 4 4 2 5 1 6 3 7 8 8 9 9 10 10 11 11 12 12 13 13
REMARK H PARENT
REMARK Flexibility Score: inf
ROOT
ATOM      1  C   UNL     1     -14.972   5.276 -43.487  1.00  0.00     0.000 C 
ENDROOT
BRANCH   1   2
ATOM      2  C   UNL     1     -16.423   5.417 -43.982  1.00  0.00     0.000 C 
BRANCH   2   3
ATOM      3  C   UNL     1     -16.982   6.854 -43.952  1.00  0.00     0.006 C 
BRANCH   3   4
ATOM      4  C   UNL     1     -18.304   7.008 -43.185  1.00  0.00     0.053 C 
BRANCH   4   5
ATOM      5  C   UNL     1     -18.084   7.456 -41.772  1.00  0.00     0.041 C 
ATOM      6  O   UNL     1     -18.855   7.063 -40.856  1.00  0.00    -0.550 OA
ATOM      7  O   UNL     1     -17.050   8.332 -41.472  1.00  0.00    -0.550 OA
ENDBRANCH   4   5
ENDBRANCH   3   4
ENDBRANCH   2   3
ENDBRANCH   1   2
BRANCH   1   8
ATOM      8  C   UNL     1     -14.809   5.640 -42.001  1.00  0.00     0.000 C 
BRANCH   8   9
ATOM      9  C   UNL     1     -15.161   4.473 -41.065  1.00  0.00     0.006 C 
BRANCH   9  10
ATOM     10  C   UNL     1     -16.517   4.664 -40.373  1.00  0.00     0.053 C 
BRANCH  10  11
ATOM     11  C   UNL     1     -17.440   3.537 -40.714  1.00  0.00     0.041 C 
ATOM     12  O   UNL     1     -17.279   2.404 -40.191  1.00  0.00    -0.550 OA
ATOM     13  O   UNL     1     -18.451   3.727 -41.649  1.00  0.00    -0.550 OA
ENDBRANCH  10  11
ENDBRANCH   9  10
ENDBRANCH   8   9
ENDBRANCH   1   8
TORSDOF 8
ENDMDL
MODEL 3
REMARK VINA RESULT:    -3.677      8.202     10.355
REMARK INTER + INTRA:          -6.100
REMARK INTER:                  -5.528
REMARK INTRA:                  -0.572
REMARK UNBOUND:                -0.703
REMARK SMILES O=C([O-])CCCCCCCC(=O)[O-]
REMARK SMILES IDX 7 1 6 2 5 3 4 4 2 5 1 6 3 7 8 8 9 9 10 10 11 11 12 12 13 13
REMARK H PARENT
REMARK Flexibility Score: inf
ROOT
ATOM      1  C   UNL     1      -9.693  -1.065 -41.661  1.00  0.00     0.000 C 
ENDROOT
BRANCH   1   2
ATOM      2  C   UNL     1     -10.630   0.149 -41.529  1.00  0.00     0.000 C 
BRANCH   2   3
ATOM      3  C   UNL     1     -11.919  -0.110 -40.721  1.00  0.00     0.006 C 
BRANCH   3   4
ATOM      4  C   UNL     1     -11.936  -1.442 -39.956  1.00  0.00     0.053 C 
BRANCH   4   5
ATOM      5  C   UNL     1     -13.328  -1.954 -39.752  1.00  0.00     0.041 C 
ATOM      6  O   UNL     1     -13.520  -3.044 -39.152  1.00  0.00    -0.550 OA
ATOM      7  O   UNL     1     -14.412  -1.246 -40.254  1.00  0.00    -0.550 OA
ENDBRANCH   4   5
ENDBRANCH   3   4
ENDBRANCH   2   3
ENDBRANCH   1   2
BRANCH   1   8
ATOM      8  C   UNL     1      -8.269  -0.780 -41.155  1.00  0.00     0.000 C 
BRANCH   8   9
ATOM      9  C   UNL     1      -8.131  -0.978 -39.638  1.00  0.00     0.006 C 
BRANCH   9  10
ATOM     10  C   UNL     1      -8.578  -2.373 -39.183  1.00  0.00     0.053 C 
BRANCH  10  11
ATOM     11  C   UNL     1      -8.878  -2.374 -37.718  1.00  0.00     0.041 C 
ATOM     12  O   UNL     1      -9.465  -1.394 -37.190  1.00  0.00    -0.550 OA
ATOM     13  O   UNL     1      -8.464  -3.437 -36.925  1.00  0.00    -0.550 OA
ENDBRANCH  10  11
ENDBRANCH   9  10
ENDBRANCH   8   9
ENDBRANCH   1   8
TORSDOF 8
ENDMDL
MODEL 4
REMARK VINA RESULT:    -3.635      4.873      5.915
REMARK INTER + INTRA:          -6.038
REMARK INTER:                  -5.728
REMARK INTRA:                  -0.310
REMARK UNBOUND:                -0.703
REMARK SMILES O=C([O-])CCCCCCCC(=O)[O-]
REMARK SMILES IDX 7 1 6 2 5 3 4 4 2 5 1 6 3 7 8 8 9 9 10 10 11 11 12 12 13 13
REMARK H PARENT
REMARK Flexibility Score: inf
ROOT
ATOM      1  C   UNL     1     -10.849   2.085 -41.399  1.00  0.00     0.000 C 
ENDROOT
BRANCH   1   2
ATOM      2  C   UNL     1     -12.269   2.667 -41.279  1.00  0.00     0.000 C 
BRANCH   2   3
ATOM      3  C   UNL     1     -12.356   4.201 -41.416  1.00  0.00     0.006 C 
BRANCH   3   4
ATOM      4  C   UNL     1     -13.378   4.867 -40.482  1.00  0.00     0.053 C 
BRANCH   4   5
ATOM      5  C   UNL     1     -14.707   5.056 -41.147  1.00  0.00     0.041 C 
ATOM      6  O   UNL     1     -15.750   5.177 -40.453  1.00  0.00    -0.550 OA
ATOM      7  O   UNL     1     -14.797   5.065 -42.532  1.00  0.00    -0.550 OA
ENDBRANCH   4   5
ENDBRANCH   3   4
ENDBRANCH   2   3
ENDBRANCH   1   2
BRANCH   1   8
ATOM      8  C   UNL     1     -10.818   0.552 -41.277  1.00  0.00     0.000 C 
BRANCH   8   9
ATOM      9  C   UNL     1     -12.168  -0.033 -40.834  1.00  0.00     0.006 C 
BRANCH   9  10
ATOM     10  C   UNL     1     -12.009  -1.260 -39.928  1.00  0.00     0.053 C 
BRANCH  10  11
ATOM     11  C   UNL     1     -13.328  -1.940 -39.733  1.00  0.00     0.041 C 
ATOM     12  O   UNL     1     -13.385  -3.062 -39.166  1.00  0.00    -0.550 OA
ATOM     13  O   UNL     1     -14.489  -1.354 -40.222  1.00  0.00    -0.550 OA
ENDBRANCH  10  11
ENDBRANCH   9  10
ENDBRANCH   8   9
ENDBRANCH   1   8
TORSDOF 8
ENDMDL
MODEL 5
REMARK VINA RESULT:    -3.591      8.249      9.310
REMARK INTER + INTRA:          -5.973
REMARK INTER:                  -5.507
REMARK INTRA:                  -0.467
REMARK UNBOUND:                -0.703
REMARK SMILES O=C([O-])CCCCCCCC(=O)[O-]
REMARK SMILES IDX 7 1 6 2 5 3 4 4 2 5 1 6 3 7 8 8 9 9 10 10 11 11 12 12 13 13
REMARK H PARENT
REMARK Flexibility Score: inf
ROOT
ATOM      1  C   UNL     1      -9.631  -1.225 -37.017  1.00  0.00     0.000 C 
ENDROOT
BRANCH   1   2
ATOM      2  C   UNL     1      -9.798  -0.534 -35.652  1.00  0.00     0.000 C 
BRANCH   2   3
ATOM      3  C   UNL     1     -10.947   0.493 -35.580  1.00  0.00     0.006 C 
BRANCH   3   4
ATOM      4  C   UNL     1     -10.507   1.917 -35.208  1.00  0.00     0.053 C 
BRANCH   4   5
ATOM      5  C   UNL     1      -9.997   2.675 -36.395  1.00  0.00     0.041 C 
ATOM      6  O   UNL     1     -10.804   3.235 -37.182  1.00  0.00    -0.550 OA
ATOM      7  O   UNL     1      -8.634   2.733 -36.651  1.00  0.00    -0.550 OA
ENDBRANCH   4   5
ENDBRANCH   3   4
ENDBRANCH   2   3
ENDBRANCH   1   2
BRANCH   1   8
ATOM      8  C   UNL     1     -10.611  -0.696 -38.079  1.00  0.00     0.000 C 
BRANCH   8   9
ATOM      9  C   UNL     1     -10.835  -1.695 -39.225  1.00  0.00     0.006 C 
BRANCH   9  10
ATOM     10  C   UNL     1     -11.868  -1.197 -40.245  1.00  0.00     0.053 C 
BRANCH  10  11
ATOM     11  C   UNL     1     -13.231  -1.706 -39.897  1.00  0.00     0.041 C 
ATOM     12  O   UNL     1     -14.257  -1.095 -40.297  1.00  0.00    -0.550 OA
ATOM     13  O   UNL     1     -13.369  -2.828 -39.090  1.00  0.00    -0.550 OA
ENDBRANCH  10  11
ENDBRANCH   9  10
ENDBRANCH   8   9
ENDBRANCH   1   8
TORSDOF 8
ENDMDL
MODEL 6
REMARK VINA RESULT:    -3.582      7.626      9.829
REMARK INTER + INTRA:          -5.960
REMARK INTER:                  -5.392
REMARK INTRA:                  -0.569
REMARK UNBOUND:                -0.703
REMARK SMILES O=C([O-])CCCCCCCC(=O)[O-]
REMARK SMILES IDX 7 1 6 2 5 3 4 4 2 5 1 6 3 7 8 8 9 9 10 10 11 11 12 12 13 13
REMARK H PARENT
REMARK Flexibility Score: inf
ROOT
ATOM      1  C   UNL     1     -10.267   0.784 -39.378  1.00  0.00     0.000 C 
ENDROOT
BRANCH   1   2
ATOM      2  C   UNL     1      -8.748   0.987 -39.514  1.00  0.00     0.000 C 
BRANCH   2   3
ATOM      3  C   UNL     1      -7.895  -0.262 -39.213  1.00  0.00     0.006 C 
BRANCH   3   4
ATOM      4  C   UNL     1      -7.527  -1.097 -40.449  1.00  0.00     0.053 C 
BRANCH   4   5
ATOM      5  C   UNL     1      -8.664  -1.963 -40.900  1.00  0.00     0.041 C 
ATOM      6  O   UNL     1      -9.146  -1.823 -42.054  1.00  0.00    -0.550 OA
ATOM      7  O   UNL     1      -9.213  -2.899 -40.033  1.00  0.00    -0.550 OA
ENDBRANCH   4   5
ENDBRANCH   3   4
ENDBRANCH   2   3
ENDBRANCH   1   2
BRANCH   1   8
ATOM      8  C   UNL     1     -11.014   0.936 -40.714  1.00  0.00     0.000 C 
BRANCH   8   9
ATOM      9  C   UNL     1     -12.308   0.109 -40.765  1.00  0.00     0.006 C 
BRANCH   9  10
ATOM     10  C   UNL     1     -12.163  -1.255 -40.079  1.00  0.00     0.053 C 
BRANCH  10  11
ATOM     11  C   UNL     1     -13.505  -1.886 -39.883  1.00  0.00     0.041 C 
ATOM     12  O   UNL     1     -13.606  -2.991 -39.288  1.00  0.00    -0.550 OA
ATOM     13  O   UNL     1     -14.641  -1.276 -40.400  1.00  0.00    -0.550 OA
ENDBRANCH  10  11
ENDBRANCH   9  10
ENDBRANCH   8   9
ENDBRANCH   1   8
TORSDOF 8
ENDMDL
MODEL 7
REMARK VINA RESULT:    -3.578      8.117      9.914
REMARK INTER + INTRA:          -5.955
REMARK INTER:                  -5.333
REMARK INTRA:                  -0.622
REMARK UNBOUND:                -0.703
REMARK SMILES O=C([O-])CCCCCCCC(=O)[O-]
REMARK SMILES IDX 7 1 6 2 5 3 4 4 2 5 1 6 3 7 8 8 9 9 10 10 11 11 12 12 13 13
REMARK H PARENT
REMARK Flexibility Score: inf
ROOT
ATOM      1  C   UNL     1      -9.369  -1.961 -38.290  1.00  0.00     0.000 C 
ENDROOT
BRANCH   1   2
ATOM      2  C   UNL     1      -8.634  -2.413 -39.564  1.00  0.00     0.000 C 
BRANCH   2   3
ATOM      3  C   UNL     1      -7.419  -1.547 -39.955  1.00  0.00     0.006 C 
BRANCH   3   4
ATOM      4  C   UNL     1      -7.682  -0.560 -41.104  1.00  0.00     0.053 C 
BRANCH   4   5
ATOM      5  C   UNL     1      -8.302   0.714 -40.618  1.00  0.00     0.041 C 
ATOM      6  O   UNL     1      -9.398   1.107 -41.097  1.00  0.00    -0.550 OA
ATOM      7  O   UNL     1      -7.653   1.484 -39.663  1.00  0.00    -0.550 OA
ENDBRANCH   4   5
ENDBRANCH   3   4
ENDBRANCH   2   3
ENDBRANCH   1   2
BRANCH   1   8
ATOM      8  C   UNL     1     -10.766  -1.384 -38.577  1.00  0.00     0.000 C 
BRANCH   8   9
ATOM      9  C   UNL     1     -11.254  -1.698 -40.000  1.00  0.00     0.006 C 
BRANCH   9  10
ATOM     10  C   UNL     1     -12.500  -0.891 -40.386  1.00  0.00     0.053 C 
BRANCH  10  11
ATOM     11  C   UNL     1     -13.741  -1.653 -40.046  1.00  0.00     0.041 C 
ATOM     12  O   UNL     1     -13.663  -2.769 -39.470  1.00  0.00    -0.550 OA
ATOM     13  O   UNL     1     -14.985  -1.152 -40.410  1.00  0.00    -0.550 OA
ENDBRANCH  10  11
ENDBRANCH   9  10
ENDBRANCH   8   9
ENDBRANCH   1   8
TORSDOF 8
ENDMDL
MODEL 8
REMARK VINA RESULT:    -3.554      4.502      5.647
REMARK INTER + INTRA:          -5.920
REMARK INTER:                  -5.647
REMARK INTRA:                  -0.272
REMARK UNBOUND:                -0.703
REMARK SMILES O=C([O-])CCCCCCCC(=O)[O-]
REMARK SMILES IDX 7 1 6 2 5 3 4 4 2 5 1 6 3 7 8 8 9 9 10 10 11 11 12 12 13 13
REMARK H PARENT
REMARK Flexibility Score: inf
ROOT
ATOM      1  C   UNL     1     -11.708   3.288 -40.192  1.00  0.00     0.000 C 
ENDROOT
BRANCH   1   2
ATOM      2  C   UNL     1     -12.606   4.512 -40.443  1.00  0.00     0.000 C 
BRANCH   2   3
ATOM      3  C   UNL     1     -14.071   4.182 -40.794  1.00  0.00     0.006 C 
BRANCH   3   4
ATOM      4  C   UNL     1     -15.005   5.401 -40.846  1.00  0.00     0.053 C 
BRANCH   4   5
ATOM      5  C   UNL     1     -16.411   5.047 -40.469  1.00  0.00     0.041 C 
ATOM      6  O   UNL     1     -17.215   5.946 -40.105  1.00  0.00    -0.550 OA
ATOM      7  O   UNL     1     -16.824   3.721 -40.486  1.00  0.00    -0.550 OA
ENDBRANCH   4   5
ENDBRANCH   3   4
ENDBRANCH   2   3
ENDBRANCH   1   2
BRANCH   1   8
ATOM      8  C   UNL     1     -11.536   2.406 -41.440  1.00  0.00     0.000 C 
BRANCH   8   9
ATOM      9  C   UNL     1     -11.081   0.979 -41.098  1.00  0.00     0.006 C 
BRANCH   9  10
ATOM     10  C   UNL     1     -12.259   0.034 -40.832  1.00  0.00     0.053 C 
BRANCH  10  11
ATOM     11  C   UNL     1     -11.765  -1.295 -40.354  1.00  0.00     0.041 C 
ATOM     12  O   UNL     1     -12.372  -1.905 -39.436  1.00  0.00    -0.550 OA
ATOM     13  O   UNL     1     -10.604  -1.838 -40.891  1.00  0.00    -0.550 OA
ENDBRANCH  10  11
ENDBRANCH   9  10
ENDBRANCH   8   9
ENDBRANCH   1   8
TORSDOF 8
ENDMDL
MODEL 9
REMARK VINA RESULT:    -3.545      2.901      4.610
REMARK INTER + INTRA:          -5.906
REMARK INTER:                  -5.275
REMARK INTRA:                  -0.631
REMARK UNBOUND:                -0.703
REMARK SMILES O=C([O-])CCCCCCCC(=O)[O-]
REMARK SMILES IDX 7 1 6 2 5 3 4 4 2 5 1 6 3 7 8 8 9 9 10 10 11 11 12 12 13 13
REMARK H PARENT
REMARK Flexibility Score: inf
ROOT
ATOM      1  C   UNL     1     -15.312   5.157 -42.928  1.00  0.00     0.000 C 
ENDROOT
BRANCH   1   2
ATOM      2  C   UNL     1     -13.778   5.042 -42.997  1.00  0.00     0.000 C 
BRANCH   2   3
ATOM      3  C   UNL     1     -13.054   5.185 -41.643  1.00  0.00     0.006 C 
BRANCH   3   4
ATOM      4  C   UNL     1     -12.959   3.885 -40.830  1.00  0.00     0.053 C 
BRANCH   4   5
ATOM      5  C   UNL     1     -11.892   2.973 -41.352  1.00  0.00     0.041 C 
ATOM      6  O   UNL     1     -10.873   3.450 -41.919  1.00  0.00    -0.550 OA
ATOM      7  O   UNL     1     -12.038   1.596 -41.245  1.00  0.00    -0.550 OA
ENDBRANCH   4   5
ENDBRANCH   3   4
ENDBRANCH   2   3
ENDBRANCH   1   2
BRANCH   1   8
ATOM      8  C   UNL     1     -15.788   6.174 -41.878  1.00  0.00     0.000 C 
BRANCH   8   9
ATOM      9  C   UNL     1     -16.888   5.610 -40.965  1.00  0.00     0.006 C 
BRANCH   9  10
ATOM     10  C   UNL     1     -16.581   4.186 -40.484  1.00  0.00     0.053 C 
BRANCH  10  11
ATOM     11  C   UNL     1     -17.739   3.281 -40.759  1.00  0.00     0.041 C 
ATOM     12  O   UNL     1     -17.849   2.187 -40.145  1.00  0.00    -0.550 OA
ATOM     13  O   UNL     1     -18.673   3.623 -41.729  1.00  0.00    -0.550 OA
ENDBRANCH  10  11
ENDBRANCH   9  10
ENDBRANCH   8   9
ENDBRANCH   1   8
TORSDOF 8
ENDMDL
