MODEL 1
REMARK VINA RESULT:    -6.859      0.000      0.000
REMARK INTER + INTRA:          -7.461
REMARK INTER:                  -7.461
REMARK INTRA:                   0.000
REMARK UNBOUND:                 0.000
REMARK SMILES Cc1cc(O)c2c(c1)C(=O)c1cc(O)cc(O)c1C2=O
REMARK SMILES IDX 1 1 2 2 8 3 7 4 6 5 4 6 3 7 19 8 20 9 18 10 11 11 9 12 10 13
REMARK SMILES IDX 12 14 13 15 15 16 16 17 5 18 17 20 14 22
REMARK H PARENT 5 19 17 21 14 23
REMARK Flexibility Score: inf
ROOT
ATOM      1  C   UNL     1       9.510  18.994  27.473  1.00  0.00     0.044 C 
ATOM      2  C   UNL     1       9.604  17.826  26.537  1.00  0.00    -0.047 A 
ATOM      3  C   UNL     1      10.121  17.996  25.248  1.00  0.00     0.016 A 
ATOM      4  C   UNL     1      10.188  16.915  24.354  1.00  0.00     0.038 A 
ATOM      5  C   UNL     1       9.729  15.640  24.757  1.00  0.00     0.076 A 
ATOM      6  C   UNL     1       9.129  15.493  26.033  1.00  0.00     0.127 A 
ATOM      7  C   UNL     1       9.092  16.579  26.913  1.00  0.00     0.050 A 
ATOM      8  C   UNL     1       9.950  14.492  23.840  1.00  0.00     0.201 C 
ATOM      9  O   UNL     1      10.108  13.335  24.313  1.00  0.00    -0.288 OA
ATOM     10  C   UNL     1      10.173  14.736  22.391  1.00  0.00     0.076 A 
ATOM     11  C   UNL     1      10.630  16.012  21.992  1.00  0.00     0.041 A 
ATOM     12  C   UNL     1      10.730  17.106  22.987  1.00  0.00     0.194 C 
ATOM     13  O   UNL     1      11.254  18.207  22.665  1.00  0.00    -0.289 OA
ATOM     14  C   UNL     1      10.983  16.240  20.651  1.00  0.00     0.059 A 
ATOM     15  C   UNL     1      10.872  15.221  19.706  1.00  0.00     0.120 A 
ATOM     16  C   UNL     1      10.383  13.970  20.087  1.00  0.00     0.093 A 
ATOM     17  C   UNL     1      10.006  13.723  21.411  1.00  0.00     0.131 A 
ENDROOT
BRANCH   6  18
ATOM     18  O   UNL     1       8.527  14.304  26.451  1.00  0.00    -0.507 OA
ATOM     19  H   UNL     1       7.607  14.259  26.865  1.00  0.00     0.293 HD
ENDBRANCH   6  18
BRANCH  17  20
ATOM     20  O   UNL     1       9.441  12.478  21.699  1.00  0.00    -0.507 OA
ATOM     21  H   UNL     1       9.800  11.851  22.405  1.00  0.00     0.293 HD
ENDBRANCH  17  20
BRANCH  15  22
ATOM     22  O   UNL     1      11.241  15.467  18.385  1.00  0.00    -0.508 OA
ATOM     23  H   UNL     1      12.215  15.535  18.111  1.00  0.00     0.293 HD
ENDBRANCH  15  22
TORSDOF 3
ENDMDL
MODEL 2
REMARK VINA RESULT:    -6.593      2.061      3.743
REMARK INTER + INTRA:          -7.171
REMARK INTER:                  -7.171
REMARK INTRA:                   0.000
REMARK UNBOUND:                 0.000
REMARK SMILES Cc1cc(O)c2c(c1)C(=O)c1cc(O)cc(O)c1C2=O
REMARK SMILES IDX 1 1 2 2 8 3 7 4 6 5 4 6 3 7 19 8 20 9 18 10 11 11 9 12 10 13
REMARK SMILES IDX 12 14 13 15 15 16 16 17 5 18 17 20 14 22
REMARK H PARENT 5 19 17 21 14 23
REMARK Flexibility Score: inf
ROOT
ATOM      1  C   UNL     1       7.974  12.083  28.021  1.00  0.00     0.044 C 
ATOM      2  C   UNL     1       8.146  13.006  26.852  1.00  0.00    -0.047 A 
ATOM      3  C   UNL     1       8.577  12.507  25.618  1.00  0.00     0.016 A 
ATOM      4  C   UNL     1       8.767  13.368  24.524  1.00  0.00     0.038 A 
ATOM      5  C   UNL     1       8.524  14.753  24.668  1.00  0.00     0.076 A 
ATOM      6  C   UNL     1       8.169  15.264  25.943  1.00  0.00     0.127 A 
ATOM      7  C   UNL     1       7.965  14.384  27.011  1.00  0.00     0.050 A 
ATOM      8  C   UNL     1       8.593  15.608  23.456  1.00  0.00     0.201 C 
ATOM      9  O   UNL     1       7.875  16.640  23.375  1.00  0.00    -0.288 OA
ATOM     10  C   UNL     1       9.361  15.147  22.270  1.00  0.00     0.076 A 
ATOM     11  C   UNL     1       9.606  13.762  22.131  1.00  0.00     0.041 A 
ATOM     12  C   UNL     1       9.232  12.832  23.222  1.00  0.00     0.194 C 
ATOM     13  O   UNL     1       9.332  11.586  23.053  1.00  0.00    -0.289 OA
ATOM     14  C   UNL     1      10.207  13.273  20.958  1.00  0.00     0.059 A 
ATOM     15  C   UNL     1      10.579  14.145  19.936  1.00  0.00     0.120 A 
ATOM     16  C   UNL     1      10.377  15.518  20.086  1.00  0.00     0.093 A 
ATOM     17  C   UNL     1       9.799  16.033  21.250  1.00  0.00     0.131 A 
ENDROOT
BRANCH   6  18
ATOM     18  O   UNL     1       8.046  16.631  26.200  1.00  0.00    -0.507 OA
ATOM     19  H   UNL     1       8.182  17.346  25.500  1.00  0.00     0.293 HD
ENDBRANCH   6  18
BRANCH  17  20
ATOM     20  O   UNL     1       9.711  17.422  21.368  1.00  0.00    -0.507 OA
ATOM     21  H   UNL     1      10.227  18.066  20.786  1.00  0.00     0.293 HD
ENDBRANCH  17  20
BRANCH  15  22
ATOM     22  O   UNL     1      11.161  13.635  18.777  1.00  0.00    -0.508 OA
ATOM     23  H   UNL     1      11.013  12.674  18.489  1.00  0.00     0.293 HD
ENDBRANCH  15  22
TORSDOF 3
ENDMDL
MODEL 3
REMARK VINA RESULT:    -6.584      2.803      4.375
REMARK INTER + INTRA:          -7.161
REMARK INTER:                  -7.161
REMARK INTRA:                   0.000
REMARK UNBOUND:                 0.000
REMARK SMILES Cc1cc(O)c2c(c1)C(=O)c1cc(O)cc(O)c1C2=O
REMARK SMILES IDX 1 1 2 2 8 3 7 4 6 5 4 6 3 7 19 8 20 9 18 10 11 11 9 12 10 13
REMARK SMILES IDX 12 14 13 15 15 16 16 17 5 18 17 20 14 22
REMARK H PARENT 5 19 17 21 14 23
REMARK Flexibility Score: inf
ROOT
ATOM      1  C   UNL     1       8.059  10.740  28.111  1.00  0.00     0.044 C 
ATOM      2  C   UNL     1       8.596  11.069  26.749  1.00  0.00    -0.047 A 
ATOM      3  C   UNL     1       8.685  12.401  26.331  1.00  0.00     0.016 A 
ATOM      4  C   UNL     1       9.160  12.719  25.047  1.00  0.00     0.038 A 
ATOM      5  C   UNL     1       9.551  11.685  24.167  1.00  0.00     0.076 A 
ATOM      6  C   UNL     1       9.379  10.335  24.565  1.00  0.00     0.127 A 
ATOM      7  C   UNL     1       8.924  10.045  25.856  1.00  0.00     0.050 A 
ATOM      8  C   UNL     1      10.184  12.063  22.878  1.00  0.00     0.201 C 
ATOM      9  O   UNL     1      11.031  11.295  22.346  1.00  0.00    -0.288 OA
ATOM     10  C   UNL     1       9.964  13.421  22.316  1.00  0.00     0.076 A 
ATOM     11  C   UNL     1       9.569  14.452  23.199  1.00  0.00     0.041 A 
ATOM     12  C   UNL     1       9.244  14.133  24.609  1.00  0.00     0.194 C 
ATOM     13  O   UNL     1       9.015  15.062  25.431  1.00  0.00    -0.289 OA
ATOM     14  C   UNL     1       9.484  15.775  22.734  1.00  0.00     0.059 A 
ATOM     15  C   UNL     1       9.770  16.079  21.403  1.00  0.00     0.120 A 
ATOM     16  C   UNL     1      10.120  15.058  20.517  1.00  0.00     0.093 A 
ATOM     17  C   UNL     1      10.194  13.731  20.950  1.00  0.00     0.131 A 
ENDROOT
BRANCH   6  18
ATOM     18  O   UNL     1       9.610   9.259  23.706  1.00  0.00    -0.507 OA
ATOM     19  H   UNL     1       9.863   9.364  22.734  1.00  0.00     0.293 HD
ENDBRANCH   6  18
BRANCH  17  20
ATOM     20  O   UNL     1      10.460  12.753  19.988  1.00  0.00    -0.507 OA
ATOM     21  H   UNL     1      11.368  12.615  19.567  1.00  0.00     0.293 HD
ENDBRANCH  17  20
BRANCH  15  22
ATOM     22  O   UNL     1       9.691  17.401  20.969  1.00  0.00    -0.508 OA
ATOM     23  H   UNL     1       9.583  18.167  21.624  1.00  0.00     0.293 HD
ENDBRANCH  15  22
TORSDOF 3
ENDMDL
MODEL 4
REMARK VINA RESULT:    -6.420      2.708      5.300
REMARK INTER + INTRA:          -6.983
REMARK INTER:                  -6.983
REMARK INTRA:                   0.000
REMARK UNBOUND:                 0.000
REMARK SMILES Cc1cc(O)c2c(c1)C(=O)c1cc(O)cc(O)c1C2=O
REMARK SMILES IDX 1 1 2 2 8 3 7 4 6 5 4 6 3 7 19 8 20 9 18 10 11 11 9 12 10 13
REMARK SMILES IDX 12 14 13 15 15 16 16 17 5 18 17 20 14 22
REMARK H PARENT 5 19 17 21 14 23
REMARK Flexibility Score: inf
ROOT
ATOM      1  C   UNL     1      10.303  18.539  23.567  1.00  0.00     0.044 C 
ATOM      2  C   UNL     1      10.215  17.044  23.479  1.00  0.00    -0.047 A 
ATOM      3  C   UNL     1       9.550  16.319  24.473  1.00  0.00     0.016 A 
ATOM      4  C   UNL     1       9.486  14.916  24.415  1.00  0.00     0.038 A 
ATOM      5  C   UNL     1      10.099  14.228  23.343  1.00  0.00     0.076 A 
ATOM      6  C   UNL     1      10.843  14.963  22.385  1.00  0.00     0.127 A 
ATOM      7  C   UNL     1      10.875  16.359  22.453  1.00  0.00     0.050 A 
ATOM      8  C   UNL     1       9.885  12.762  23.237  1.00  0.00     0.201 C 
ATOM      9  O   UNL     1       9.884  12.210  22.103  1.00  0.00    -0.288 OA
ATOM     10  C   UNL     1       9.488  11.984  24.438  1.00  0.00     0.076 A 
ATOM     11  C   UNL     1       8.877  12.675  25.509  1.00  0.00     0.041 A 
ATOM     12  C   UNL     1       8.786  14.154  25.477  1.00  0.00     0.194 C 
ATOM     13  O   UNL     1       8.133  14.766  26.366  1.00  0.00    -0.289 OA
ATOM     14  C   UNL     1       8.363  11.957  26.602  1.00  0.00     0.059 A 
ATOM     15  C   UNL     1       8.464  10.567  26.648  1.00  0.00     0.120 A 
ATOM     16  C   UNL     1       9.103   9.883  25.612  1.00  0.00     0.093 A 
ATOM     17  C   UNL     1       9.639  10.575  24.522  1.00  0.00     0.131 A 
ENDROOT
BRANCH   6  18
ATOM     18  O   UNL     1      11.591  14.349  21.378  1.00  0.00    -0.507 OA
ATOM     19  H   UNL     1      11.215  14.106  20.472  1.00  0.00     0.293 HD
ENDBRANCH   6  18
BRANCH  17  20
ATOM     20  O   UNL     1      10.343   9.833  23.570  1.00  0.00    -0.507 OA
ATOM     21  H   UNL     1      11.221  10.128  23.168  1.00  0.00     0.293 HD
ENDBRANCH  17  20
BRANCH  15  22
ATOM     22  O   UNL     1       7.935   9.877  27.737  1.00  0.00    -0.508 OA
ATOM     23  H   UNL     1       7.650   8.907  27.660  1.00  0.00     0.293 HD
ENDBRANCH  15  22
TORSDOF 3
ENDMDL
MODEL 5
REMARK VINA RESULT:    -6.122      2.562      5.941
REMARK INTER + INTRA:          -6.659
REMARK INTER:                  -6.659
REMARK INTRA:                   0.000
REMARK UNBOUND:                 0.000
REMARK SMILES Cc1cc(O)c2c(c1)C(=O)c1cc(O)cc(O)c1C2=O
REMARK SMILES IDX 1 1 2 2 8 3 7 4 6 5 4 6 3 7 19 8 20 9 18 10 11 11 9 12 10 13
REMARK SMILES IDX 12 14 13 15 15 16 16 17 5 18 17 20 14 22
REMARK H PARENT 5 19 17 21 14 23
REMARK Flexibility Score: inf
ROOT
ATOM      1  C   UNL     1      10.855  15.303  19.123  1.00  0.00     0.044 C 
ATOM      2  C   UNL     1      10.452  15.109  20.555  1.00  0.00    -0.047 A 
ATOM      3  C   UNL     1      10.547  13.845  21.147  1.00  0.00     0.016 A 
ATOM      4  C   UNL     1      10.146  13.646  22.479  1.00  0.00     0.038 A 
ATOM      5  C   UNL     1       9.641  14.731  23.231  1.00  0.00     0.076 A 
ATOM      6  C   UNL     1       9.468  15.989  22.599  1.00  0.00     0.127 A 
ATOM      7  C   UNL     1       9.894  16.167  21.279  1.00  0.00     0.050 A 
ATOM      8  C   UNL     1       9.366  14.517  24.675  1.00  0.00     0.201 C 
ATOM      9  O   UNL     1       9.478  15.478  25.483  1.00  0.00    -0.288 OA
ATOM     10  C   UNL     1       9.147  13.141  25.190  1.00  0.00     0.076 A 
ATOM     11  C   UNL     1       9.651  12.058  24.434  1.00  0.00     0.041 A 
ATOM     12  C   UNL     1      10.242  12.302  23.097  1.00  0.00     0.194 C 
ATOM     13  O   UNL     1      10.806  11.360  22.474  1.00  0.00    -0.289 OA
ATOM     14  C   UNL     1       9.586  10.753  24.953  1.00  0.00     0.059 A 
ATOM     15  C   UNL     1       9.012  10.515  26.201  1.00  0.00     0.120 A 
ATOM     16  C   UNL     1       8.476  11.576  26.934  1.00  0.00     0.093 A 
ATOM     17  C   UNL     1       8.511  12.881  26.432  1.00  0.00     0.131 A 
ENDROOT
BRANCH   6  18
ATOM     18  O   UNL     1       8.849  17.071  23.229  1.00  0.00    -0.507 OA
ATOM     19  H   UNL     1       8.072  17.579  22.832  1.00  0.00     0.293 HD
ENDBRANCH   6  18
BRANCH  17  20
ATOM     20  O   UNL     1       7.875  13.876  27.178  1.00  0.00    -0.507 OA
ATOM     21  H   UNL     1       7.357  13.695  28.026  1.00  0.00     0.293 HD
ENDBRANCH  17  20
BRANCH  15  22
ATOM     22  O   UNL     1       8.971   9.214  26.700  1.00  0.00    -0.508 OA
ATOM     23  H   UNL     1       9.120   8.412  26.098  1.00  0.00     0.293 HD
ENDBRANCH  15  22
TORSDOF 3
ENDMDL
MODEL 6
REMARK VINA RESULT:    -6.055      1.853      4.221
REMARK INTER + INTRA:          -6.585
REMARK INTER:                  -6.585
REMARK INTRA:                   0.000
REMARK UNBOUND:                 0.000
REMARK SMILES Cc1cc(O)c2c(c1)C(=O)c1cc(O)cc(O)c1C2=O
REMARK SMILES IDX 1 1 2 2 8 3 7 4 6 5 4 6 3 7 19 8 20 9 18 10 11 11 9 12 10 13
REMARK SMILES IDX 12 14 13 15 15 16 16 17 5 18 17 20 14 22
REMARK H PARENT 5 19 17 21 14 23
REMARK Flexibility Score: inf
ROOT
ATOM      1  C   UNL     1      10.126  20.424  24.897  1.00  0.00     0.044 C 
ATOM      2  C   UNL     1      10.088  19.068  24.255  1.00  0.00    -0.047 A 
ATOM      3  C   UNL     1       9.781  17.937  25.019  1.00  0.00     0.016 A 
ATOM      4  C   UNL     1       9.770  16.660  24.434  1.00  0.00     0.038 A 
ATOM      5  C   UNL     1      10.072  16.512  23.062  1.00  0.00     0.076 A 
ATOM      6  C   UNL     1      10.465  17.651  22.313  1.00  0.00     0.127 A 
ATOM      7  C   UNL     1      10.448  18.915  22.913  1.00  0.00     0.050 A 
ATOM      8  C   UNL     1       9.907  15.170  22.447  1.00  0.00     0.201 C 
ATOM      9  O   UNL     1       9.599  15.073  21.229  1.00  0.00    -0.288 OA
ATOM     10  C   UNL     1       9.920  13.957  23.305  1.00  0.00     0.076 A 
ATOM     11  C   UNL     1       9.620  14.109  24.679  1.00  0.00     0.041 A 
ATOM     12  C   UNL     1       9.452  15.465  25.252  1.00  0.00     0.194 C 
ATOM     13  O   UNL     1       9.061  15.602  26.444  1.00  0.00    -0.289 OA
ATOM     14  C   UNL     1       9.486  12.973  25.494  1.00  0.00     0.059 A 
ATOM     15  C   UNL     1       9.663  11.695  24.964  1.00  0.00     0.120 A 
ATOM     16  C   UNL     1       9.999  11.542  23.618  1.00  0.00     0.093 A 
ATOM     17  C   UNL     1      10.157  12.656  22.789  1.00  0.00     0.131 A 
ENDROOT
BRANCH   6  18
ATOM     18  O   UNL     1      10.911  17.570  20.993  1.00  0.00    -0.507 OA
ATOM     19  H   UNL     1      11.844  17.282  20.735  1.00  0.00     0.293 HD
ENDBRANCH   6  18
BRANCH  17  20
ATOM     20  O   UNL     1      10.583  12.431  21.478  1.00  0.00    -0.507 OA
ATOM     21  H   UNL     1      10.406  11.575  20.972  1.00  0.00     0.293 HD
ENDBRANCH  17  20
BRANCH  15  22
ATOM     22  O   UNL     1       9.512  10.583  25.790  1.00  0.00    -0.508 OA
ATOM     23  H   UNL     1      10.248   9.892  25.887  1.00  0.00     0.293 HD
ENDBRANCH  15  22
TORSDOF 3
ENDMDL
MODEL 7
REMARK VINA RESULT:    -6.009      2.343      4.779
REMARK INTER + INTRA:          -6.536
REMARK INTER:                  -6.536
REMARK INTRA:                   0.000
REMARK UNBOUND:                 0.000
REMARK SMILES Cc1cc(O)c2c(c1)C(=O)c1cc(O)cc(O)c1C2=O
REMARK SMILES IDX 1 1 2 2 8 3 7 4 6 5 4 6 3 7 19 8 20 9 18 10 11 11 9 12 10 13
REMARK SMILES IDX 12 14 13 15 15 16 16 17 5 18 17 20 14 22
REMARK H PARENT 5 19 17 21 14 23
REMARK Flexibility Score: inf
ROOT
ATOM      1  C   UNL     1       8.481  10.469  26.202  1.00  0.00     0.044 C 
ATOM      2  C   UNL     1       9.011  11.544  25.300  1.00  0.00    -0.047 A 
ATOM      3  C   UNL     1       8.684  12.884  25.534  1.00  0.00     0.016 A 
ATOM      4  C   UNL     1       9.152  13.895  24.679  1.00  0.00     0.038 A 
ATOM      5  C   UNL     1       9.961  13.560  23.569  1.00  0.00     0.076 A 
ATOM      6  C   UNL     1      10.219  12.193  23.290  1.00  0.00     0.127 A 
ATOM      7  C   UNL     1       9.759  11.206  24.167  1.00  0.00     0.050 A 
ATOM      8  C   UNL     1      10.557  14.664  22.776  1.00  0.00     0.201 C 
ATOM      9  O   UNL     1      11.665  14.494  22.198  1.00  0.00    -0.288 OA
ATOM     10  C   UNL     1       9.946  16.018  22.818  1.00  0.00     0.076 A 
ATOM     11  C   UNL     1       9.135  16.350  23.927  1.00  0.00     0.041 A 
ATOM     12  C   UNL     1       8.794  15.312  24.929  1.00  0.00     0.194 C 
ATOM     13  O   UNL     1       8.178  15.630  25.983  1.00  0.00    -0.289 OA
ATOM     14  C   UNL     1       8.653  17.661  24.073  1.00  0.00     0.059 A 
ATOM     15  C   UNL     1       8.954  18.637  23.124  1.00  0.00     0.120 A 
ATOM     16  C   UNL     1       9.721  18.304  22.005  1.00  0.00     0.093 A 
ATOM     17  C   UNL     1      10.197  17.002  21.826  1.00  0.00     0.131 A 
ENDROOT
BRANCH   6  18
ATOM     18  O   UNL     1      10.891  11.772  22.140  1.00  0.00    -0.507 OA
ATOM     19  H   UNL     1      10.619  10.964  21.599  1.00  0.00     0.293 HD
ENDBRANCH   6  18
BRANCH  17  20
ATOM     20  O   UNL     1      10.879  16.722  20.639  1.00  0.00    -0.507 OA
ATOM     21  H   UNL     1      10.432  16.357  19.810  1.00  0.00     0.293 HD
ENDBRANCH  17  20
BRANCH  15  22
ATOM     22  O   UNL     1       8.475  19.934  23.297  1.00  0.00    -0.508 OA
ATOM     23  H   UNL     1       8.918  20.727  22.847  1.00  0.00     0.293 HD
ENDBRANCH  15  22
TORSDOF 3
ENDMDL
MODEL 8
REMARK VINA RESULT:    -5.874      2.802      4.954
REMARK INTER + INTRA:          -6.389
REMARK INTER:                  -6.389
REMARK INTRA:                   0.000
REMARK UNBOUND:                 0.000
REMARK SMILES Cc1cc(O)c2c(c1)C(=O)c1cc(O)cc(O)c1C2=O
REMARK SMILES IDX 1 1 2 2 8 3 7 4 6 5 4 6 3 7 19 8 20 9 18 10 11 11 9 12 10 13
REMARK SMILES IDX 12 14 13 15 15 16 16 17 5 18 17 20 14 22
REMARK H PARENT 5 19 17 21 14 23
REMARK Flexibility Score: inf
ROOT
ATOM      1  C   UNL     1       9.375   8.340  25.129  1.00  0.00     0.044 C 
ATOM      2  C   UNL     1       9.236   9.833  25.119  1.00  0.00    -0.047 A 
ATOM      3  C   UNL     1       9.638  10.570  24.000  1.00  0.00     0.016 A 
ATOM      4  C   UNL     1       9.538  11.971  23.991  1.00  0.00     0.038 A 
ATOM      5  C   UNL     1       9.026  12.647  25.122  1.00  0.00     0.076 A 
ATOM      6  C   UNL     1       8.698  11.901  26.283  1.00  0.00     0.127 A 
ATOM      7  C   UNL     1       8.788  10.506  26.260  1.00  0.00     0.050 A 
ATOM      8  C   UNL     1       8.797  14.111  25.021  1.00  0.00     0.201 C 
ATOM      9  O   UNL     1       7.875  14.649  25.691  1.00  0.00    -0.288 OA
ATOM     10  C   UNL     1       9.525  14.904  23.996  1.00  0.00     0.076 A 
ATOM     11  C   UNL     1      10.038  14.224  22.868  1.00  0.00     0.041 A 
ATOM     12  C   UNL     1       9.975  12.745  22.804  1.00  0.00     0.194 C 
ATOM     13  O   UNL     1      10.315  12.143  21.749  1.00  0.00    -0.289 OA
ATOM     14  C   UNL     1      10.610  14.955  21.812  1.00  0.00     0.059 A 
ATOM     15  C   UNL     1      10.692  16.346  21.875  1.00  0.00     0.120 A 
ATOM     16  C   UNL     1      10.222  17.018  23.006  1.00  0.00     0.093 A 
ATOM     17  C   UNL     1       9.666  16.314  24.078  1.00  0.00     0.131 A 
ENDROOT
BRANCH   6  18
ATOM     18  O   UNL     1       8.319  12.504  27.484  1.00  0.00    -0.507 OA
ATOM     19  H   UNL     1       8.945  13.052  28.057  1.00  0.00     0.293 HD
ENDBRANCH   6  18
BRANCH  17  20
ATOM     20  O   UNL     1       9.303  17.045  25.211  1.00  0.00    -0.507 OA
ATOM     21  H   UNL     1       8.530  17.695  25.234  1.00  0.00     0.293 HD
ENDBRANCH  17  20
BRANCH  15  22
ATOM     22  O   UNL     1      11.251  17.049  20.811  1.00  0.00    -0.508 OA
ATOM     23  H   UNL     1      12.007  17.710  20.952  1.00  0.00     0.293 HD
ENDBRANCH  15  22
TORSDOF 3
ENDMDL
MODEL 9
REMARK VINA RESULT:    -5.634     17.453     18.558
REMARK INTER + INTRA:          -6.128
REMARK INTER:                  -6.128
REMARK INTRA:                   0.000
REMARK UNBOUND:                 0.000
REMARK SMILES Cc1cc(O)c2c(c1)C(=O)c1cc(O)cc(O)c1C2=O
REMARK SMILES IDX 1 1 2 2 8 3 7 4 6 5 4 6 3 7 19 8 20 9 18 10 11 11 9 12 10 13
REMARK SMILES IDX 12 14 13 15 15 16 16 17 5 18 17 20 14 22
REMARK H PARENT 5 19 17 21 14 23
REMARK Flexibility Score: inf
ROOT
ATOM      1  C   UNL     1      22.108   1.539  33.356  1.00  0.00     0.044 C 
ATOM      2  C   UNL     1      22.493   2.192  32.061  1.00  0.00    -0.047 A 
ATOM      3  C   UNL     1      22.719   3.571  32.008  1.00  0.00     0.016 A 
ATOM      4  C   UNL     1      23.053   4.196  30.795  1.00  0.00     0.038 A 
ATOM      5  C   UNL     1      23.161   3.427  29.614  1.00  0.00     0.076 A 
ATOM      6  C   UNL     1      22.848   2.044  29.658  1.00  0.00     0.127 A 
ATOM      7  C   UNL     1      22.538   1.442  30.882  1.00  0.00     0.050 A 
ATOM      8  C   UNL     1      23.658   4.095  28.384  1.00  0.00     0.201 C 
ATOM      9  O   UNL     1      24.299   3.431  27.526  1.00  0.00    -0.288 OA
ATOM     10  C   UNL     1      23.564   5.573  28.257  1.00  0.00     0.076 A 
ATOM     11  C   UNL     1      23.453   6.339  29.439  1.00  0.00     0.041 A 
ATOM     12  C   UNL     1      23.283   5.660  30.746  1.00  0.00     0.194 C 
ATOM     13  O   UNL     1      23.310   6.331  31.814  1.00  0.00    -0.289 OA
ATOM     14  C   UNL     1      23.501   7.742  29.371  1.00  0.00     0.059 A 
ATOM     15  C   UNL     1      23.640   8.387  28.142  1.00  0.00     0.120 A 
ATOM     16  C   UNL     1      23.710   7.635  26.967  1.00  0.00     0.093 A 
ATOM     17  C   UNL     1      23.645   6.240  27.006  1.00  0.00     0.131 A 
ENDROOT
BRANCH   6  18
ATOM     18  O   UNL     1      22.796   1.246  28.514  1.00  0.00    -0.507 OA
ATOM     19  H   UNL     1      22.315   0.358  28.473  1.00  0.00     0.293 HD
ENDBRANCH   6  18
BRANCH  17  20
ATOM     20  O   UNL     1      23.629   5.560  25.785  1.00  0.00    -0.507 OA
ATOM     21  H   UNL     1      22.920   4.887  25.529  1.00  0.00     0.293 HD
ENDBRANCH  17  20
BRANCH  15  22
ATOM     22  O   UNL     1      23.699   9.778  28.101  1.00  0.00    -0.508 OA
ATOM     23  H   UNL     1      23.978  10.272  27.260  1.00  0.00     0.293 HD
ENDBRANCH  15  22
TORSDOF 3
ENDMDL
