MODEL 1
REMARK VINA RESULT:    -6.180      0.000      0.000
REMARK INTER + INTRA:          -7.754
REMARK INTER:                  -7.444
REMARK INTRA:                  -0.310
REMARK UNBOUND:                -0.310
REMARK SMILES O=c1c(O)c(-c2ccc(O)c(O)c2)oc2cc(O)cc(O)c12
REMARK SMILES IDX 5 1 3 2 2 3 1 4 22 5 20 6 19 7 17 8 16 9 15 10 14 11 6 12
REMARK SMILES IDX 7 13 8 14 9 15 13 16 11 17 10 18 12 20 4 22 21 24 18 26
REMARK H PARENT 10 19 12 21 4 23 21 25 18 27
REMARK Flexibility Score: inf
ROOT
ATOM      1  C   UNL     1      26.126  16.486  -3.764  1.00  0.00     0.180 A 
ATOM      2  C   UNL     1      27.138  17.204  -3.104  1.00  0.00     0.208 A 
ATOM      3  C   UNL     1      26.777  18.158  -2.138  1.00  0.00     0.238 A 
ATOM      4  O   UNL     1      27.684  18.835  -1.590  1.00  0.00    -0.285 OA
ATOM      5  C   UNL     1      25.411  18.369  -1.833  1.00  0.00     0.111 A 
ATOM      6  C   UNL     1      24.933  19.280  -0.844  1.00  0.00     0.134 A 
ATOM      7  C   UNL     1      23.556  19.504  -0.717  1.00  0.00     0.093 A 
ATOM      8  C   UNL     1      22.639  18.802  -1.498  1.00  0.00     0.123 A 
ATOM      9  C   UNL     1      23.092  17.865  -2.427  1.00  0.00     0.094 A 
ATOM     10  C   UNL     1      24.460  17.647  -2.601  1.00  0.00     0.146 A 
ATOM     11  O   UNL     1      24.851  16.754  -3.503  1.00  0.00    -0.452 OA
ENDROOT
BRANCH   1  12
ATOM     12  C   UNL     1      26.428  15.449  -4.776  1.00  0.00     0.025 A 
ATOM     13  C   UNL     1      26.524  14.105  -4.381  1.00  0.00     0.016 A 
ATOM     14  C   UNL     1      26.828  13.112  -5.316  1.00  0.00     0.051 A 
ATOM     15  C   UNL     1      27.057  13.446  -6.654  1.00  0.00     0.157 A 
ATOM     16  C   UNL     1      26.680  15.786  -6.119  1.00  0.00     0.062 A 
ATOM     17  C   UNL     1      26.988  14.790  -7.058  1.00  0.00     0.158 A 
BRANCH  15  18
ATOM     18  O   UNL     1      27.357  12.434  -7.564  1.00  0.00    -0.504 OA
ATOM     19  H   UNL     1      28.026  12.565  -8.314  1.00  0.00     0.293 HD
ENDBRANCH  15  18
BRANCH  17  20
ATOM     20  O   UNL     1      27.229  15.133  -8.387  1.00  0.00    -0.504 OA
ATOM     21  H   UNL     1      27.368  16.095  -8.671  1.00  0.00     0.293 HD
ENDBRANCH  17  20
ENDBRANCH   1  12
BRANCH   2  22
ATOM     22  O   UNL     1      28.479  16.995  -3.436  1.00  0.00    -0.502 OA
ATOM     23  H   UNL     1      28.762  16.524  -4.287  1.00  0.00     0.293 HD
ENDBRANCH   2  22
BRANCH   6  24
ATOM     24  O   UNL     1      25.761  19.964   0.052  1.00  0.00    -0.507 OA
ATOM     25  H   UNL     1      26.281  20.799  -0.169  1.00  0.00     0.293 HD
ENDBRANCH   6  24
BRANCH   8  26
ATOM     26  O   UNL     1      21.275  19.039  -1.334  1.00  0.00    -0.508 OA
ATOM     27  H   UNL     1      20.879  19.962  -1.467  1.00  0.00     0.293 HD
ENDBRANCH   8  26
TORSDOF 6
ENDMDL
MODEL 2
REMARK VINA RESULT:    -5.973      2.528      3.265
REMARK INTER + INTRA:          -7.505
REMARK INTER:                  -7.217
REMARK INTRA:                  -0.288
REMARK UNBOUND:                -0.310
REMARK SMILES O=c1c(O)c(-c2ccc(O)c(O)c2)oc2cc(O)cc(O)c12
REMARK SMILES IDX 5 1 3 2 2 3 1 4 22 5 20 6 19 7 17 8 16 9 15 10 14 11 6 12
REMARK SMILES IDX 7 13 8 14 9 15 13 16 11 17 10 18 12 20 4 22 21 24 18 26
REMARK H PARENT 10 19 12 21 4 23 21 25 18 27
REMARK Flexibility Score: inf
ROOT
ATOM      1  C   UNL     1      25.890  15.795  -5.670  1.00  0.00     0.180 A 
ATOM      2  C   UNL     1      26.014  15.898  -4.274  1.00  0.00     0.208 A 
ATOM      3  C   UNL     1      25.520  17.044  -3.629  1.00  0.00     0.238 A 
ATOM      4  O   UNL     1      25.683  17.154  -2.386  1.00  0.00    -0.285 OA
ATOM      5  C   UNL     1      24.894  18.063  -4.385  1.00  0.00     0.111 A 
ATOM      6  C   UNL     1      24.322  19.248  -3.831  1.00  0.00     0.134 A 
ATOM      7  C   UNL     1      23.846  20.250  -4.686  1.00  0.00     0.093 A 
ATOM      8  C   UNL     1      23.860  20.082  -6.070  1.00  0.00     0.123 A 
ATOM      9  C   UNL     1      24.362  18.903  -6.620  1.00  0.00     0.094 A 
ATOM     10  C   UNL     1      24.878  17.901  -5.795  1.00  0.00     0.146 A 
ATOM     11  O   UNL     1      25.356  16.798  -6.359  1.00  0.00    -0.452 OA
ENDROOT
BRANCH   1  12
ATOM     12  C   UNL     1      26.363  14.608  -6.417  1.00  0.00     0.025 A 
ATOM     13  C   UNL     1      27.527  14.701  -7.198  1.00  0.00     0.016 A 
ATOM     14  C   UNL     1      27.979  13.600  -7.928  1.00  0.00     0.051 A 
ATOM     15  C   UNL     1      27.271  12.395  -7.903  1.00  0.00     0.157 A 
ATOM     16  C   UNL     1      25.639  13.401  -6.411  1.00  0.00     0.062 A 
ATOM     17  C   UNL     1      26.092  12.295  -7.146  1.00  0.00     0.158 A 
BRANCH  15  18
ATOM     18  O   UNL     1      27.748  11.312  -8.640  1.00  0.00    -0.504 OA
ATOM     19  H   UNL     1      28.086  11.413  -9.589  1.00  0.00     0.293 HD
ENDBRANCH  15  18
BRANCH  17  20
ATOM     20  O   UNL     1      25.372  11.101  -7.128  1.00  0.00    -0.504 OA
ATOM     21  H   UNL     1      25.809  10.222  -6.879  1.00  0.00     0.293 HD
ENDBRANCH  17  20
ENDBRANCH   1  12
BRANCH   2  22
ATOM     22  O   UNL     1      26.655  14.890  -3.549  1.00  0.00    -0.502 OA
ATOM     23  H   UNL     1      26.276  14.513  -2.688  1.00  0.00     0.293 HD
ENDBRANCH   2  22
BRANCH   6  24
ATOM     24  O   UNL     1      24.174  19.475  -2.460  1.00  0.00    -0.507 OA
ATOM     25  H   UNL     1      23.767  20.305  -2.056  1.00  0.00     0.293 HD
ENDBRANCH   6  24
BRANCH   8  26
ATOM     26  O   UNL     1      23.363  21.094  -6.889  1.00  0.00    -0.508 OA
ATOM     27  H   UNL     1      23.188  22.026  -6.532  1.00  0.00     0.293 HD
ENDBRANCH   8  26
TORSDOF 6
ENDMDL
MODEL 3
REMARK VINA RESULT:    -5.899      1.632      7.137
REMARK INTER + INTRA:          -7.415
REMARK INTER:                  -7.325
REMARK INTRA:                  -0.090
REMARK UNBOUND:                -0.310
REMARK SMILES O=c1c(O)c(-c2ccc(O)c(O)c2)oc2cc(O)cc(O)c12
REMARK SMILES IDX 5 1 3 2 2 3 1 4 22 5 20 6 19 7 17 8 16 9 15 10 14 11 6 12
REMARK SMILES IDX 7 13 8 14 9 15 13 16 11 17 10 18 12 20 4 22 21 24 18 26
REMARK H PARENT 10 19 12 21 4 23 21 25 18 27
REMARK Flexibility Score: inf
ROOT
ATOM      1  C   UNL     1      25.460  17.182  -3.735  1.00  0.00     0.180 A 
ATOM      2  C   UNL     1      25.091  17.382  -5.076  1.00  0.00     0.208 A 
ATOM      3  C   UNL     1      25.719  16.621  -6.076  1.00  0.00     0.238 A 
ATOM      4  O   UNL     1      25.422  16.843  -7.279  1.00  0.00    -0.285 OA
ATOM      5  C   UNL     1      26.694  15.659  -5.721  1.00  0.00     0.111 A 
ATOM      6  C   UNL     1      27.364  14.805  -6.648  1.00  0.00     0.134 A 
ATOM      7  C   UNL     1      28.405  13.981  -6.201  1.00  0.00     0.093 A 
ATOM      8  C   UNL     1      28.756  13.933  -4.852  1.00  0.00     0.123 A 
ATOM      9  C   UNL     1      28.067  14.720  -3.929  1.00  0.00     0.094 A 
ATOM     10  C   UNL     1      27.049  15.578  -4.349  1.00  0.00     0.146 A 
ATOM     11  O   UNL     1      26.425  16.318  -3.440  1.00  0.00    -0.452 OA
ENDROOT
BRANCH   1  12
ATOM     12  C   UNL     1      24.827  17.927  -2.624  1.00  0.00     0.025 A 
ATOM     13  C   UNL     1      25.635  18.612  -1.702  1.00  0.00     0.016 A 
ATOM     14  C   UNL     1      25.059  19.305  -0.634  1.00  0.00     0.051 A 
ATOM     15  C   UNL     1      23.672  19.312  -0.461  1.00  0.00     0.157 A 
ATOM     16  C   UNL     1      23.433  17.917  -2.435  1.00  0.00     0.062 A 
ATOM     17  C   UNL     1      22.854  18.611  -1.362  1.00  0.00     0.158 A 
BRANCH  15  18
ATOM     18  O   UNL     1      23.126  20.014   0.613  1.00  0.00    -0.504 OA
ATOM     19  H   UNL     1      23.595  20.077   1.509  1.00  0.00     0.293 HD
ENDBRANCH  15  18
BRANCH  17  20
ATOM     20  O   UNL     1      21.471  18.601  -1.187  1.00  0.00    -0.504 OA
ATOM     21  H   UNL     1      20.867  18.023  -1.759  1.00  0.00     0.293 HD
ENDBRANCH  17  20
ENDBRANCH   1  12
BRANCH   2  22
ATOM     22  O   UNL     1      24.142  18.353  -5.406  1.00  0.00    -0.502 OA
ATOM     23  H   UNL     1      24.368  19.339  -5.461  1.00  0.00     0.293 HD
ENDBRANCH   2  22
BRANCH   6  24
ATOM     24  O   UNL     1      27.029  14.706  -8.002  1.00  0.00    -0.507 OA
ATOM     25  H   UNL     1      27.169  13.885  -8.570  1.00  0.00     0.293 HD
ENDBRANCH   6  24
BRANCH   8  26
ATOM     26  O   UNL     1      29.786  13.091  -4.440  1.00  0.00    -0.508 OA
ATOM     27  H   UNL     1      29.621  12.332  -3.789  1.00  0.00     0.293 HD
ENDBRANCH   8  26
TORSDOF 6
ENDMDL
MODEL 4
REMARK VINA RESULT:    -5.815      0.743      1.467
REMARK INTER + INTRA:          -7.314
REMARK INTER:                  -6.990
REMARK INTRA:                  -0.324
REMARK UNBOUND:                -0.310
REMARK SMILES O=c1c(O)c(-c2ccc(O)c(O)c2)oc2cc(O)cc(O)c12
REMARK SMILES IDX 5 1 3 2 2 3 1 4 22 5 20 6 19 7 17 8 16 9 15 10 14 11 6 12
REMARK SMILES IDX 7 13 8 14 9 15 13 16 11 17 10 18 12 20 4 22 21 24 18 26
REMARK H PARENT 10 19 12 21 4 23 21 25 18 27
REMARK Flexibility Score: inf
ROOT
ATOM      1  C   UNL     1      25.923  16.945  -3.738  1.00  0.00     0.180 A 
ATOM      2  C   UNL     1      26.903  17.562  -2.941  1.00  0.00     0.208 A 
ATOM      3  C   UNL     1      26.497  18.396  -1.886  1.00  0.00     0.238 A 
ATOM      4  O   UNL     1      27.378  18.987  -1.211  1.00  0.00    -0.285 OA
ATOM      5  C   UNL     1      25.118  18.587  -1.630  1.00  0.00     0.111 A 
ATOM      6  C   UNL     1      24.594  19.378  -0.563  1.00  0.00     0.134 A 
ATOM      7  C   UNL     1      23.214  19.604  -0.484  1.00  0.00     0.093 A 
ATOM      8  C   UNL     1      22.335  19.016  -1.392  1.00  0.00     0.123 A 
ATOM      9  C   UNL     1      22.831  18.194  -2.404  1.00  0.00     0.094 A 
ATOM     10  C   UNL     1      24.205  17.978  -2.531  1.00  0.00     0.146 A 
ATOM     11  O   UNL     1      24.638  17.197  -3.513  1.00  0.00    -0.452 OA
ENDROOT
BRANCH   1  12
ATOM     12  C   UNL     1      26.272  16.035  -4.852  1.00  0.00     0.025 A 
ATOM     13  C   UNL     1      26.480  16.563  -6.136  1.00  0.00     0.016 A 
ATOM     14  C   UNL     1      26.790  15.720  -7.206  1.00  0.00     0.051 A 
ATOM     15  C   UNL     1      26.881  14.338  -7.015  1.00  0.00     0.157 A 
ATOM     16  C   UNL     1      26.342  14.642  -4.666  1.00  0.00     0.062 A 
ATOM     17  C   UNL     1      26.651  13.794  -5.740  1.00  0.00     0.158 A 
BRANCH  15  18
ATOM     18  O   UNL     1      27.194  13.521  -8.101  1.00  0.00    -0.504 OA
ATOM     19  H   UNL     1      27.257  13.882  -9.045  1.00  0.00     0.293 HD
ENDBRANCH  15  18
BRANCH  17  20
ATOM     20  O   UNL     1      26.725  12.416  -5.544  1.00  0.00    -0.504 OA
ATOM     21  H   UNL     1      26.755  12.012  -4.616  1.00  0.00     0.293 HD
ENDBRANCH  17  20
ENDBRANCH   1  12
BRANCH   2  22
ATOM     22  O   UNL     1      28.258  17.377  -3.225  1.00  0.00    -0.502 OA
ATOM     23  H   UNL     1      28.911  17.010  -2.543  1.00  0.00     0.293 HD
ENDBRANCH   2  22
BRANCH   6  24
ATOM     24  O   UNL     1      25.376  19.935   0.453  1.00  0.00    -0.507 OA
ATOM     25  H   UNL     1      25.285  20.878   0.797  1.00  0.00     0.293 HD
ENDBRANCH   6  24
BRANCH   8  26
ATOM     26  O   UNL     1      20.967  19.250  -1.274  1.00  0.00    -0.508 OA
ATOM     27  H   UNL     1      20.486  19.900  -1.885  1.00  0.00     0.293 HD
ENDBRANCH   8  26
TORSDOF 6
ENDMDL
MODEL 5
REMARK VINA RESULT:    -5.594      1.519      1.874
REMARK INTER + INTRA:          -7.049
REMARK INTER:                  -6.721
REMARK INTRA:                  -0.328
REMARK UNBOUND:                -0.310
REMARK SMILES O=c1c(O)c(-c2ccc(O)c(O)c2)oc2cc(O)cc(O)c12
REMARK SMILES IDX 5 1 3 2 2 3 1 4 22 5 20 6 19 7 17 8 16 9 15 10 14 11 6 12
REMARK SMILES IDX 7 13 8 14 9 15 13 16 11 17 10 18 12 20 4 22 21 24 18 26
REMARK H PARENT 10 19 12 21 4 23 21 25 18 27
REMARK Flexibility Score: inf
ROOT
ATOM      1  C   UNL     1      26.389  17.293  -4.474  1.00  0.00     0.180 A 
ATOM      2  C   UNL     1      27.080  18.508  -4.323  1.00  0.00     0.208 A 
ATOM      3  C   UNL     1      26.530  19.506  -3.502  1.00  0.00     0.238 A 
ATOM      4  O   UNL     1      27.125  20.610  -3.414  1.00  0.00    -0.285 OA
ATOM      5  C   UNL     1      25.308  19.269  -2.829  1.00  0.00     0.111 A 
ATOM      6  C   UNL     1      24.680  20.194  -1.940  1.00  0.00     0.134 A 
ATOM      7  C   UNL     1      23.406  19.909  -1.432  1.00  0.00     0.093 A 
ATOM      8  C   UNL     1      22.767  18.706  -1.727  1.00  0.00     0.123 A 
ATOM      9  C   UNL     1      23.397  17.769  -2.547  1.00  0.00     0.094 A 
ATOM     10  C   UNL     1      24.651  18.040  -3.098  1.00  0.00     0.146 A 
ATOM     11  O   UNL     1      25.212  17.127  -3.881  1.00  0.00    -0.452 OA
ENDROOT
BRANCH   1  12
ATOM     12  C   UNL     1      26.916  16.185  -5.302  1.00  0.00     0.025 A 
ATOM     13  C   UNL     1      26.446  16.019  -6.615  1.00  0.00     0.016 A 
ATOM     14  C   UNL     1      26.914  14.967  -7.407  1.00  0.00     0.051 A 
ATOM     15  C   UNL     1      27.846  14.058  -6.897  1.00  0.00     0.157 A 
ATOM     16  C   UNL     1      27.837  15.256  -4.784  1.00  0.00     0.062 A 
ATOM     17  C   UNL     1      28.307  14.199  -5.578  1.00  0.00     0.158 A 
BRANCH  15  18
ATOM     18  O   UNL     1      28.297  13.020  -7.712  1.00  0.00    -0.504 OA
ATOM     19  H   UNL     1      27.724  12.212  -7.920  1.00  0.00     0.293 HD
ENDBRANCH  15  18
BRANCH  17  20
ATOM     20  O   UNL     1      29.224  13.287  -5.058  1.00  0.00    -0.504 OA
ATOM     21  H   UNL     1      30.093  13.076  -5.536  1.00  0.00     0.293 HD
ENDBRANCH  17  20
ENDBRANCH   1  12
BRANCH   2  22
ATOM     22  O   UNL     1      28.274  18.728  -5.014  1.00  0.00    -0.502 OA
ATOM     23  H   UNL     1      28.330  19.329  -5.827  1.00  0.00     0.293 HD
ENDBRANCH   2  22
BRANCH   6  24
ATOM     24  O   UNL     1      25.272  21.384  -1.506  1.00  0.00    -0.507 OA
ATOM     25  H   UNL     1      25.174  22.276  -1.967  1.00  0.00     0.293 HD
ENDBRANCH   6  24
BRANCH   8  26
ATOM     26  O   UNL     1      21.507  18.448  -1.192  1.00  0.00    -0.508 OA
ATOM     27  H   UNL     1      21.023  19.135  -0.624  1.00  0.00     0.293 HD
ENDBRANCH   8  26
TORSDOF 6
ENDMDL
MODEL 6
REMARK VINA RESULT:    -5.342      2.156      3.010
REMARK INTER + INTRA:          -6.744
REMARK INTER:                  -7.219
REMARK INTRA:                   0.475
REMARK UNBOUND:                -0.310
REMARK SMILES O=c1c(O)c(-c2ccc(O)c(O)c2)oc2cc(O)cc(O)c12
REMARK SMILES IDX 5 1 3 2 2 3 1 4 22 5 20 6 19 7 17 8 16 9 15 10 14 11 6 12
REMARK SMILES IDX 7 13 8 14 9 15 13 16 11 17 10 18 12 20 4 22 21 24 18 26
REMARK H PARENT 10 19 12 21 4 23 21 25 18 27
REMARK Flexibility Score: inf
ROOT
ATOM      1  C   UNL     1      25.114  17.480  -4.773  1.00  0.00     0.180 A 
ATOM      2  C   UNL     1      24.340  18.251  -5.658  1.00  0.00     0.208 A 
ATOM      3  C   UNL     1      23.460  19.212  -5.132  1.00  0.00     0.238 A 
ATOM      4  O   UNL     1      22.732  19.861  -5.927  1.00  0.00    -0.285 OA
ATOM      5  C   UNL     1      23.378  19.401  -3.732  1.00  0.00     0.111 A 
ATOM      6  C   UNL     1      22.551  20.374  -3.093  1.00  0.00     0.134 A 
ATOM      7  C   UNL     1      22.450  20.384  -1.696  1.00  0.00     0.093 A 
ATOM      8  C   UNL     1      23.195  19.502  -0.914  1.00  0.00     0.123 A 
ATOM      9  C   UNL     1      24.052  18.587  -1.526  1.00  0.00     0.094 A 
ATOM     10  C   UNL     1      24.147  18.528  -2.918  1.00  0.00     0.146 A 
ATOM     11  O   UNL     1      24.966  17.636  -3.462  1.00  0.00    -0.452 OA
ENDROOT
BRANCH   1  12
ATOM     12  C   UNL     1      26.080  16.466  -5.251  1.00  0.00     0.025 A 
ATOM     13  C   UNL     1      26.934  15.837  -4.331  1.00  0.00     0.016 A 
ATOM     14  C   UNL     1      27.868  14.892  -4.764  1.00  0.00     0.051 A 
ATOM     15  C   UNL     1      27.975  14.572  -6.120  1.00  0.00     0.157 A 
ATOM     16  C   UNL     1      26.204  16.159  -6.619  1.00  0.00     0.062 A 
ATOM     17  C   UNL     1      27.143  15.212  -7.054  1.00  0.00     0.158 A 
BRANCH  15  18
ATOM     18  O   UNL     1      28.914  13.624  -6.522  1.00  0.00    -0.504 OA
ATOM     19  H   UNL     1      29.899  13.717  -6.307  1.00  0.00     0.293 HD
ENDBRANCH  15  18
BRANCH  17  20
ATOM     20  O   UNL     1      27.253  14.909  -8.411  1.00  0.00    -0.504 OA
ATOM     21  H   UNL     1      27.882  14.188  -8.744  1.00  0.00     0.293 HD
ENDBRANCH  17  20
ENDBRANCH   1  12
BRANCH   2  22
ATOM     22  O   UNL     1      24.421  18.033  -7.035  1.00  0.00    -0.502 OA
ATOM     23  H   UNL     1      25.063  18.542  -7.630  1.00  0.00     0.293 HD
ENDBRANCH   2  22
BRANCH   6  24
ATOM     24  O   UNL     1      21.837  21.361  -3.777  1.00  0.00    -0.507 OA
ATOM     25  H   UNL     1      21.724  22.312  -3.461  1.00  0.00     0.293 HD
ENDBRANCH   6  24
BRANCH   8  26
ATOM     26  O   UNL     1      23.082  19.552   0.474  1.00  0.00    -0.508 OA
ATOM     27  H   UNL     1      22.754  20.385   0.948  1.00  0.00     0.293 HD
ENDBRANCH   8  26
TORSDOF 6
ENDMDL
MODEL 7
REMARK VINA RESULT:    -5.316      1.782      6.776
REMARK INTER + INTRA:          -6.713
REMARK INTER:                  -6.503
REMARK INTRA:                  -0.210
REMARK UNBOUND:                -0.310
REMARK SMILES O=c1c(O)c(-c2ccc(O)c(O)c2)oc2cc(O)cc(O)c12
REMARK SMILES IDX 5 1 3 2 2 3 1 4 22 5 20 6 19 7 17 8 16 9 15 10 14 11 6 12
REMARK SMILES IDX 7 13 8 14 9 15 13 16 11 17 10 18 12 20 4 22 21 24 18 26
REMARK H PARENT 10 19 12 21 4 23 21 25 18 27
REMARK Flexibility Score: inf
ROOT
ATOM      1  C   UNL     1      25.899  16.789  -4.076  1.00  0.00     0.180 A 
ATOM      2  C   UNL     1      26.918  16.482  -3.158  1.00  0.00     0.208 A 
ATOM      3  C   UNL     1      27.898  15.543  -3.518  1.00  0.00     0.238 A 
ATOM      4  O   UNL     1      28.776  15.232  -2.672  1.00  0.00    -0.285 OA
ATOM      5  C   UNL     1      27.857  14.937  -4.796  1.00  0.00     0.111 A 
ATOM      6  C   UNL     1      28.822  14.003  -5.281  1.00  0.00     0.134 A 
ATOM      7  C   UNL     1      28.611  13.367  -6.511  1.00  0.00     0.093 A 
ATOM      8  C   UNL     1      27.506  13.679  -7.302  1.00  0.00     0.123 A 
ATOM      9  C   UNL     1      26.588  14.634  -6.865  1.00  0.00     0.094 A 
ATOM     10  C   UNL     1      26.752  15.259  -5.626  1.00  0.00     0.146 A 
ATOM     11  O   UNL     1      25.851  16.154  -5.242  1.00  0.00    -0.452 OA
ENDROOT
BRANCH   1  12
ATOM     12  C   UNL     1      24.845  17.785  -3.779  1.00  0.00     0.025 A 
ATOM     13  C   UNL     1      24.868  19.030  -4.427  1.00  0.00     0.016 A 
ATOM     14  C   UNL     1      23.895  19.992  -4.146  1.00  0.00     0.051 A 
ATOM     15  C   UNL     1      22.895  19.733  -3.204  1.00  0.00     0.157 A 
ATOM     16  C   UNL     1      23.850  17.534  -2.815  1.00  0.00     0.062 A 
ATOM     17  C   UNL     1      22.874  18.500  -2.531  1.00  0.00     0.158 A 
BRANCH  15  18
ATOM     18  O   UNL     1      21.936  20.712  -2.946  1.00  0.00    -0.504 OA
ATOM     19  H   UNL     1      21.650  20.950  -2.004  1.00  0.00     0.293 HD
ENDBRANCH  15  18
BRANCH  17  20
ATOM     20  O   UNL     1      21.888  18.240  -1.580  1.00  0.00    -0.504 OA
ATOM     21  H   UNL     1      21.836  17.351  -1.098  1.00  0.00     0.293 HD
ENDBRANCH  17  20
ENDBRANCH   1  12
BRANCH   2  22
ATOM     22  O   UNL     1      26.927  17.076  -1.893  1.00  0.00    -0.502 OA
ATOM     23  H   UNL     1      27.743  17.544  -1.517  1.00  0.00     0.293 HD
ENDBRANCH   2  22
BRANCH   6  24
ATOM     24  O   UNL     1      30.009  13.688  -4.613  1.00  0.00    -0.507 OA
ATOM     25  H   UNL     1      30.405  12.763  -4.549  1.00  0.00     0.293 HD
ENDBRANCH   6  24
BRANCH   8  26
ATOM     26  O   UNL     1      27.336  13.038  -8.528  1.00  0.00    -0.508 OA
ATOM     27  H   UNL     1      26.499  13.172  -9.083  1.00  0.00     0.293 HD
ENDBRANCH   8  26
TORSDOF 6
ENDMDL
MODEL 8
REMARK VINA RESULT:    -5.294      3.536      6.837
REMARK INTER + INTRA:          -6.687
REMARK INTER:                  -6.398
REMARK INTRA:                  -0.289
REMARK UNBOUND:                -0.310
REMARK SMILES O=c1c(O)c(-c2ccc(O)c(O)c2)oc2cc(O)cc(O)c12
REMARK SMILES IDX 5 1 3 2 2 3 1 4 22 5 20 6 19 7 17 8 16 9 15 10 14 11 6 12
REMARK SMILES IDX 7 13 8 14 9 15 13 16 11 17 10 18 12 20 4 22 21 24 18 26
REMARK H PARENT 10 19 12 21 4 23 21 25 18 27
REMARK Flexibility Score: inf
ROOT
ATOM      1  C   UNL     1      24.697  18.219  -5.633  1.00  0.00     0.180 A 
ATOM      2  C   UNL     1      24.823  17.905  -4.269  1.00  0.00     0.208 A 
ATOM      3  C   UNL     1      25.594  16.792  -3.895  1.00  0.00     0.238 A 
ATOM      4  O   UNL     1      25.659  16.485  -2.676  1.00  0.00    -0.285 OA
ATOM      5  C   UNL     1      26.242  16.018  -4.887  1.00  0.00     0.111 A 
ATOM      6  C   UNL     1      27.080  14.894  -4.619  1.00  0.00     0.134 A 
ATOM      7  C   UNL     1      27.563  14.123  -5.684  1.00  0.00     0.093 A 
ATOM      8  C   UNL     1      27.294  14.473  -7.007  1.00  0.00     0.123 A 
ATOM      9  C   UNL     1      26.525  15.604  -7.281  1.00  0.00     0.094 A 
ATOM     10  C   UNL     1      25.999  16.372  -6.240  1.00  0.00     0.146 A 
ATOM     11  O   UNL     1      25.263  17.435  -6.544  1.00  0.00    -0.452 OA
ENDROOT
BRANCH   1  12
ATOM     12  C   UNL     1      23.922  19.389  -6.103  1.00  0.00     0.025 A 
ATOM     13  C   UNL     1      24.594  20.581  -6.419  1.00  0.00     0.016 A 
ATOM     14  C   UNL     1      23.880  21.704  -6.844  1.00  0.00     0.051 A 
ATOM     15  C   UNL     1      22.486  21.660  -6.947  1.00  0.00     0.157 A 
ATOM     16  C   UNL     1      22.518  19.354  -6.186  1.00  0.00     0.062 A 
ATOM     17  C   UNL     1      21.800  20.481  -6.611  1.00  0.00     0.158 A 
BRANCH  15  18
ATOM     18  O   UNL     1      21.801  22.796  -7.377  1.00  0.00    -0.504 OA
ATOM     19  H   UNL     1      21.059  23.215  -6.830  1.00  0.00     0.293 HD
ENDBRANCH  15  18
BRANCH  17  20
ATOM     20  O   UNL     1      20.410  20.434  -6.697  1.00  0.00    -0.504 OA
ATOM     21  H   UNL     1      19.825  21.113  -6.224  1.00  0.00     0.293 HD
ENDBRANCH  17  20
ENDBRANCH   1  12
BRANCH   2  22
ATOM     22  O   UNL     1      24.158  18.669  -3.307  1.00  0.00    -0.502 OA
ATOM     23  H   UNL     1      24.618  19.400  -2.778  1.00  0.00     0.293 HD
ENDBRANCH   2  22
BRANCH   6  24
ATOM     24  O   UNL     1      27.488  14.512  -3.338  1.00  0.00    -0.507 OA
ATOM     25  H   UNL     1      28.249  14.933  -2.828  1.00  0.00     0.293 HD
ENDBRANCH   6  24
BRANCH   8  26
ATOM     26  O   UNL     1      27.804  13.692  -8.041  1.00  0.00    -0.508 OA
ATOM     27  H   UNL     1      28.465  12.944  -7.863  1.00  0.00     0.293 HD
ENDBRANCH   8  26
TORSDOF 6
ENDMDL
MODEL 9
REMARK VINA RESULT:    -5.128      2.435      2.569
REMARK INTER + INTRA:          -6.487
REMARK INTER:                  -6.168
REMARK INTRA:                  -0.318
REMARK UNBOUND:                -0.310
REMARK SMILES O=c1c(O)c(-c2ccc(O)c(O)c2)oc2cc(O)cc(O)c12
REMARK SMILES IDX 5 1 3 2 2 3 1 4 22 5 20 6 19 7 17 8 16 9 15 10 14 11 6 12
REMARK SMILES IDX 7 13 8 14 9 15 13 16 11 17 10 18 12 20 4 22 21 24 18 26
REMARK H PARENT 10 19 12 21 4 23 21 25 18 27
REMARK Flexibility Score: inf
ROOT
ATOM      1  C   UNL     1      25.333  17.866  -4.874  1.00  0.00     0.180 A 
ATOM      2  C   UNL     1      26.078  19.031  -4.621  1.00  0.00     0.208 A 
ATOM      3  C   UNL     1      25.407  20.191  -4.201  1.00  0.00     0.238 A 
ATOM      4  O   UNL     1      26.073  21.244  -4.028  1.00  0.00    -0.285 OA
ATOM      5  C   UNL     1      24.003  20.166  -4.022  1.00  0.00     0.111 A 
ATOM      6  C   UNL     1      23.226  21.271  -3.560  1.00  0.00     0.134 A 
ATOM      7  C   UNL     1      21.829  21.175  -3.546  1.00  0.00     0.093 A 
ATOM      8  C   UNL     1      21.185  19.994  -3.913  1.00  0.00     0.123 A 
ATOM      9  C   UNL     1      21.937  18.889  -4.309  1.00  0.00     0.094 A 
ATOM     10  C   UNL     1      23.331  18.965  -4.368  1.00  0.00     0.146 A 
ATOM     11  O   UNL     1      24.010  17.894  -4.760  1.00  0.00    -0.452 OA
ENDROOT
BRANCH   1  12
ATOM     12  C   UNL     1      25.971  16.599  -5.297  1.00  0.00     0.025 A 
ATOM     13  C   UNL     1      26.369  15.667  -4.325  1.00  0.00     0.016 A 
ATOM     14  C   UNL     1      26.992  14.475  -4.700  1.00  0.00     0.051 A 
ATOM     15  C   UNL     1      27.240  14.200  -6.048  1.00  0.00     0.157 A 
ATOM     16  C   UNL     1      26.242  16.331  -6.651  1.00  0.00     0.062 A 
ATOM     17  C   UNL     1      26.869  15.134  -7.029  1.00  0.00     0.158 A 
BRANCH  15  18
ATOM     18  O   UNL     1      27.862  13.001  -6.393  1.00  0.00    -0.504 OA
ATOM     19  H   UNL     1      28.336  12.876  -7.279  1.00  0.00     0.293 HD
ENDBRANCH  15  18
BRANCH  17  20
ATOM     20  O   UNL     1      27.127  14.875  -8.374  1.00  0.00    -0.504 OA
ATOM     21  H   UNL     1      27.154  13.929  -8.737  1.00  0.00     0.293 HD
ENDBRANCH  17  20
ENDBRANCH   1  12
BRANCH   2  22
ATOM     22  O   UNL     1      27.460  19.039  -4.826  1.00  0.00    -0.502 OA
ATOM     23  H   UNL     1      28.122  18.875  -4.077  1.00  0.00     0.293 HD
ENDBRANCH   2  22
BRANCH   6  24
ATOM     24  O   UNL     1      23.774  22.465  -3.082  1.00  0.00    -0.507 OA
ATOM     25  H   UNL     1      24.399  22.536  -2.294  1.00  0.00     0.293 HD
ENDBRANCH   6  24
BRANCH   8  26
ATOM     26  O   UNL     1      19.794  19.929  -3.871  1.00  0.00    -0.508 OA
ATOM     27  H   UNL     1      19.258  19.549  -4.643  1.00  0.00     0.293 HD
ENDBRANCH   8  26
TORSDOF 6
ENDMDL
