MODEL 1
REMARK VINA RESULT:    -3.170      0.000      0.000
REMARK INTER + INTRA:          -7.629
REMARK INTER:                  -5.580
REMARK INTRA:                  -2.049
REMARK UNBOUND:                -2.049
REMARK SMILES CCCCCCCCCCCCCCC(=O)[O-]
REMARK SMILES IDX 9 1 10 2 11 3 12 4 13 5 14 6 15 7 16 8 17 9 8 10 7 11 6 12
REMARK SMILES IDX 5 13 4 14 3 15 2 16 1 17
REMARK H PARENT
REMARK Flexibility Score: inf
ROOT
ATOM      1  C   UNL     1       7.315  10.486  10.517  1.00  0.00     0.000 C 
ENDROOT
BRANCH   1   2
ATOM      2  C   UNL     1       8.420  10.072   9.529  1.00  0.00     0.000 C 
BRANCH   2   3
ATOM      3  C   UNL     1       9.162  11.276   8.920  1.00  0.00     0.000 C 
BRANCH   3   4
ATOM      4  C   UNL     1       9.195  11.313   7.381  1.00  0.00     0.000 C 
BRANCH   4   5
ATOM      5  C   UNL     1       8.689  10.011   6.738  1.00  0.00     0.006 C 
BRANCH   5   6
ATOM      6  C   UNL     1       9.481   9.641   5.477  1.00  0.00     0.053 C 
BRANCH   6   7
ATOM      7  C   UNL     1      10.771   8.958   5.812  1.00  0.00     0.041 C 
ATOM      8  O   UNL     1      11.757   9.050   5.035  1.00  0.00    -0.550 OA
ATOM      9  O   UNL     1      10.895   8.250   7.000  1.00  0.00    -0.550 OA
ENDBRANCH   6   7
ENDBRANCH   5   6
ENDBRANCH   4   5
ENDBRANCH   3   4
ENDBRANCH   2   3
ENDBRANCH   1   2
BRANCH   1  10
ATOM     10  C   UNL     1       7.373  11.980  10.872  1.00  0.00     0.000 C 
BRANCH  10  11
ATOM     11  C   UNL     1       6.153  12.763  10.354  1.00  0.00    -0.000 C 
BRANCH  11  12
ATOM     12  C   UNL     1       6.530  13.796   9.280  1.00  0.00    -0.000 C 
BRANCH  12  13
ATOM     13  C   UNL     1       5.855  13.510   7.926  1.00  0.00    -0.000 C 
BRANCH  13  14
ATOM     14  C   UNL     1       5.610  12.010   7.686  1.00  0.00    -0.000 C 
BRANCH  14  15
ATOM     15  C   UNL     1       4.129  11.593   7.654  1.00  0.00    -0.000 C 
BRANCH  15  16
ATOM     16  C   UNL     1       3.925  10.088   7.883  1.00  0.00    -0.003 C 
ATOM     17  C   UNL     1       5.218   9.315   7.640  1.00  0.00     0.004 C 
ENDBRANCH  15  16
ENDBRANCH  14  15
ENDBRANCH  13  14
ENDBRANCH  12  13
ENDBRANCH  11  12
ENDBRANCH  10  11
ENDBRANCH   1  10
TORSDOF 13
ENDMDL
MODEL 2
REMARK VINA RESULT:    -3.098      1.161      3.251
REMARK INTER + INTRA:          -7.502
REMARK INTER:                  -5.540
REMARK INTRA:                  -1.962
REMARK UNBOUND:                -2.049
REMARK SMILES CCCCCCCCCCCCCCC(=O)[O-]
REMARK SMILES IDX 9 1 10 2 11 3 12 4 13 5 14 6 15 7 16 8 17 9 8 10 7 11 6 12
REMARK SMILES IDX 5 13 4 14 3 15 2 16 1 17
REMARK H PARENT
REMARK Flexibility Score: inf
ROOT
ATOM      1  C   UNL     1       5.115  10.212   7.517  1.00  0.00     0.000 C 
ENDROOT
BRANCH   1   2
ATOM      2  C   UNL     1       5.629   9.378   8.703  1.00  0.00     0.000 C 
BRANCH   2   3
ATOM      3  C   UNL     1       7.022   8.772   8.450  1.00  0.00     0.000 C 
BRANCH   3   4
ATOM      4  C   UNL     1       7.637   9.097   7.077  1.00  0.00     0.000 C 
BRANCH   4   5
ATOM      5  C   UNL     1       8.959   9.876   7.181  1.00  0.00     0.006 C 
BRANCH   5   6
ATOM      6  C   UNL     1       9.676   9.984   5.828  1.00  0.00     0.053 C 
BRANCH   6   7
ATOM      7  C   UNL     1      10.866   9.077   5.758  1.00  0.00     0.041 C 
ATOM      8  O   UNL     1      11.748   9.256   4.878  1.00  0.00    -0.550 OA
ATOM      9  O   UNL     1      11.018   8.055   6.687  1.00  0.00    -0.550 OA
ENDBRANCH   6   7
ENDBRANCH   5   6
ENDBRANCH   4   5
ENDBRANCH   3   4
ENDBRANCH   2   3
ENDBRANCH   1   2
BRANCH   1  10
ATOM     10  C   UNL     1       4.220  11.380   7.962  1.00  0.00     0.000 C 
BRANCH  10  11
ATOM     11  C   UNL     1       4.982  12.714   8.047  1.00  0.00    -0.000 C 
BRANCH  11  12
ATOM     12  C   UNL     1       6.455  12.577   7.627  1.00  0.00    -0.000 C 
BRANCH  12  13
ATOM     13  C   UNL     1       7.417  13.231   8.635  1.00  0.00    -0.000 C 
BRANCH  13  14
ATOM     14  C   UNL     1       6.979  13.028  10.097  1.00  0.00    -0.000 C 
BRANCH  14  15
ATOM     15  C   UNL     1       7.481  11.727  10.748  1.00  0.00    -0.000 C 
BRANCH  15  16
ATOM     16  C   UNL     1       8.936  11.398  10.385  1.00  0.00    -0.003 C 
ATOM     17  C   UNL     1       9.854  11.553  11.594  1.00  0.00     0.004 C 
ENDBRANCH  15  16
ENDBRANCH  14  15
ENDBRANCH  13  14
ENDBRANCH  12  13
ENDBRANCH  11  12
ENDBRANCH  10  11
ENDBRANCH   1  10
TORSDOF 13
ENDMDL
MODEL 3
REMARK VINA RESULT:    -3.058      1.890      4.113
REMARK INTER + INTRA:          -7.432
REMARK INTER:                  -5.567
REMARK INTRA:                  -1.865
REMARK UNBOUND:                -2.049
REMARK SMILES CCCCCCCCCCCCCCC(=O)[O-]
REMARK SMILES IDX 9 1 10 2 11 3 12 4 13 5 14 6 15 7 16 8 17 9 8 10 7 11 6 12
REMARK SMILES IDX 5 13 4 14 3 15 2 16 1 17
REMARK H PARENT
REMARK Flexibility Score: inf
ROOT
ATOM      1  C   UNL     1       4.719  12.626   7.897  1.00  0.00     0.000 C 
ENDROOT
BRANCH   1   2
ATOM      2  C   UNL     1       4.846  11.103   7.720  1.00  0.00     0.000 C 
BRANCH   2   3
ATOM      3  C   UNL     1       5.841  10.466   8.706  1.00  0.00     0.000 C 
BRANCH   3   4
ATOM      4  C   UNL     1       6.643   9.275   8.148  1.00  0.00     0.000 C 
BRANCH   4   5
ATOM      5  C   UNL     1       7.776   9.705   7.202  1.00  0.00     0.006 C 
BRANCH   5   6
ATOM      6  C   UNL     1       8.780  10.641   7.887  1.00  0.00     0.053 C 
BRANCH   6   7
ATOM      7  C   UNL     1       9.458  11.543   6.902  1.00  0.00     0.041 C 
ATOM      8  O   UNL     1       9.527  12.781   7.120  1.00  0.00    -0.550 OA
ATOM      9  O   UNL     1      10.045  11.013   5.760  1.00  0.00    -0.550 OA
ENDBRANCH   6   7
ENDBRANCH   5   6
ENDBRANCH   4   5
ENDBRANCH   3   4
ENDBRANCH   2   3
ENDBRANCH   1   2
BRANCH   1  10
ATOM     10  C   UNL     1       5.995  13.376   7.481  1.00  0.00     0.000 C 
BRANCH  10  11
ATOM     11  C   UNL     1       6.646  14.137   8.650  1.00  0.00    -0.000 C 
BRANCH  11  12
ATOM     12  C   UNL     1       5.791  14.095   9.927  1.00  0.00    -0.000 C 
BRANCH  12  13
ATOM     13  C   UNL     1       6.503  13.379  11.088  1.00  0.00    -0.000 C 
BRANCH  13  14
ATOM     14  C   UNL     1       7.896  12.850  10.700  1.00  0.00    -0.000 C 
BRANCH  14  15
ATOM     15  C   UNL     1       8.864  12.652  11.879  1.00  0.00    -0.000 C 
BRANCH  15  16
ATOM     16  C   UNL     1       9.844  11.489  11.661  1.00  0.00    -0.003 C 
ATOM     17  C   UNL     1       9.292  10.189  12.239  1.00  0.00     0.004 C 
ENDBRANCH  15  16
ENDBRANCH  14  15
ENDBRANCH  13  14
ENDBRANCH  12  13
ENDBRANCH  11  12
ENDBRANCH  10  11
ENDBRANCH   1  10
TORSDOF 13
ENDMDL
MODEL 4
REMARK VINA RESULT:    -3.055      2.602      5.576
REMARK INTER + INTRA:          -7.425
REMARK INTER:                  -5.832
REMARK INTRA:                  -1.594
REMARK UNBOUND:                -2.049
REMARK SMILES CCCCCCCCCCCCCCC(=O)[O-]
REMARK SMILES IDX 9 1 10 2 11 3 12 4 13 5 14 6 15 7 16 8 17 9 8 10 7 11 6 12
REMARK SMILES IDX 5 13 4 14 3 15 2 16 1 17
REMARK H PARENT
REMARK Flexibility Score: inf
ROOT
ATOM      1  C   UNL     1       5.695   8.376   7.713  1.00  0.00     0.000 C 
ENDROOT
BRANCH   1   2
ATOM      2  C   UNL     1       5.271   9.676   8.417  1.00  0.00     0.000 C 
BRANCH   2   3
ATOM      3  C   UNL     1       4.092  10.379   7.719  1.00  0.00     0.000 C 
BRANCH   3   4
ATOM      4  C   UNL     1       4.221  11.909   7.600  1.00  0.00     0.000 C 
BRANCH   4   5
ATOM      5  C   UNL     1       5.398  12.477   8.410  1.00  0.00     0.006 C 
BRANCH   5   6
ATOM      6  C   UNL     1       6.214  13.500   7.609  1.00  0.00     0.053 C 
BRANCH   6   7
ATOM      7  C   UNL     1       7.675  13.416   7.928  1.00  0.00     0.041 C 
ATOM      8  O   UNL     1       8.529  13.803   7.088  1.00  0.00    -0.550 OA
ATOM      9  O   UNL     1       8.091  12.943   9.166  1.00  0.00    -0.550 OA
ENDBRANCH   6   7
ENDBRANCH   5   6
ENDBRANCH   4   5
ENDBRANCH   3   4
ENDBRANCH   2   3
ENDBRANCH   1   2
BRANCH   1  10
ATOM     10  C   UNL     1       7.070   8.494   7.037  1.00  0.00     0.000 C 
BRANCH  10  11
ATOM     11  C   UNL     1       7.705   9.884   7.219  1.00  0.00    -0.000 C 
BRANCH  11  12
ATOM     12  C   UNL     1       9.179   9.806   7.647  1.00  0.00    -0.000 C 
BRANCH  12  13
ATOM     13  C   UNL     1       9.733   8.371   7.591  1.00  0.00    -0.000 C 
BRANCH  13  14
ATOM     14  C   UNL     1      10.861   8.206   6.556  1.00  0.00    -0.000 C 
BRANCH  14  15
ATOM     15  C   UNL     1      10.470   8.561   5.111  1.00  0.00    -0.000 C 
BRANCH  15  16
ATOM     16  C   UNL     1       9.418   7.608   4.523  1.00  0.00    -0.003 C 
ATOM     17  C   UNL     1       8.731   8.228   3.310  1.00  0.00     0.004 C 
ENDBRANCH  15  16
ENDBRANCH  14  15
ENDBRANCH  13  14
ENDBRANCH  12  13
ENDBRANCH  11  12
ENDBRANCH  10  11
ENDBRANCH   1  10
TORSDOF 13
ENDMDL
MODEL 5
REMARK VINA RESULT:    -3.036      2.651      4.842
REMARK INTER + INTRA:          -7.392
REMARK INTER:                  -5.542
REMARK INTRA:                  -1.850
REMARK UNBOUND:                -2.049
REMARK SMILES CCCCCCCCCCCCCCC(=O)[O-]
REMARK SMILES IDX 9 1 10 2 11 3 12 4 13 5 14 6 15 7 16 8 17 9 8 10 7 11 6 12
REMARK SMILES IDX 5 13 4 14 3 15 2 16 1 17
REMARK H PARENT
REMARK Flexibility Score: inf
ROOT
ATOM      1  C   UNL     1       5.190  10.894   7.638  1.00  0.00     0.000 C 
ENDROOT
BRANCH   1   2
ATOM      2  C   UNL     1       4.925   9.844   8.730  1.00  0.00     0.000 C 
BRANCH   2   3
ATOM      3  C   UNL     1       5.450  10.272  10.113  1.00  0.00     0.000 C 
BRANCH   3   4
ATOM      4  C   UNL     1       6.912   9.886  10.406  1.00  0.00     0.000 C 
BRANCH   4   5
ATOM      5  C   UNL     1       7.578  10.803  11.446  1.00  0.00     0.006 C 
BRANCH   5   6
ATOM      6  C   UNL     1       9.103  10.847  11.287  1.00  0.00     0.053 C 
BRANCH   6   7
ATOM      7  C   UNL     1       9.644  12.225  11.517  1.00  0.00     0.041 C 
ATOM      8  O   UNL     1      10.876  12.398  11.710  1.00  0.00    -0.550 OA
ATOM      9  O   UNL     1       8.793  13.322  11.484  1.00  0.00    -0.550 OA
ENDBRANCH   6   7
ENDBRANCH   5   6
ENDBRANCH   4   5
ENDBRANCH   3   4
ENDBRANCH   2   3
ENDBRANCH   1   2
BRANCH   1  10
ATOM     10  C   UNL     1       5.017  12.333   8.150  1.00  0.00     0.000 C 
BRANCH  10  11
ATOM     11  C   UNL     1       6.053  13.304   7.555  1.00  0.00    -0.000 C 
BRANCH  11  12
ATOM     12  C   UNL     1       7.426  13.189   8.238  1.00  0.00    -0.000 C 
BRANCH  12  13
ATOM     13  C   UNL     1       8.501  12.609   7.302  1.00  0.00    -0.000 C 
BRANCH  13  14
ATOM     14  C   UNL     1       9.043  11.251   7.784  1.00  0.00    -0.000 C 
BRANCH  14  15
ATOM     15  C   UNL     1       8.681  10.055   6.886  1.00  0.00    -0.000 C 
BRANCH  15  16
ATOM     16  C   UNL     1       9.639   9.886   5.698  1.00  0.00    -0.003 C 
ATOM     17  C   UNL     1       9.169   8.773   4.765  1.00  0.00     0.004 C 
ENDBRANCH  15  16
ENDBRANCH  14  15
ENDBRANCH  13  14
ENDBRANCH  12  13
ENDBRANCH  11  12
ENDBRANCH  10  11
ENDBRANCH   1  10
TORSDOF 13
ENDMDL
MODEL 6
REMARK VINA RESULT:    -3.010      1.403      2.131
REMARK INTER + INTRA:          -7.346
REMARK INTER:                  -5.807
REMARK INTRA:                  -1.539
REMARK UNBOUND:                -2.049
REMARK SMILES CCCCCCCCCCCCCCC(=O)[O-]
REMARK SMILES IDX 9 1 10 2 11 3 12 4 13 5 14 6 15 7 16 8 17 9 8 10 7 11 6 12
REMARK SMILES IDX 5 13 4 14 3 15 2 16 1 17
REMARK H PARENT
REMARK Flexibility Score: inf
ROOT
ATOM      1  C   UNL     1       8.366   9.729   9.585  1.00  0.00     0.000 C 
ENDROOT
BRANCH   1   2
ATOM      2  C   UNL     1       7.433   9.187   8.488  1.00  0.00     0.000 C 
BRANCH   2   3
ATOM      3  C   UNL     1       7.705   9.812   7.108  1.00  0.00     0.000 C 
BRANCH   3   4
ATOM      4  C   UNL     1       9.141  10.326   6.894  1.00  0.00     0.000 C 
BRANCH   4   5
ATOM      5  C   UNL     1       9.791   9.777   5.614  1.00  0.00     0.006 C 
BRANCH   5   6
ATOM      6  C   UNL     1      10.856   8.713   5.914  1.00  0.00     0.053 C 
BRANCH   6   7
ATOM      7  C   UNL     1      11.739   8.464   4.730  1.00  0.00     0.041 C 
ATOM      8  O   UNL     1      12.763   9.173   4.544  1.00  0.00    -0.550 OA
ATOM      9  O   UNL     1      11.452   7.427   3.853  1.00  0.00    -0.550 OA
ENDBRANCH   6   7
ENDBRANCH   5   6
ENDBRANCH   4   5
ENDBRANCH   3   4
ENDBRANCH   2   3
ENDBRANCH   1   2
BRANCH   1  10
ATOM     10  C   UNL     1       7.660  10.725  10.518  1.00  0.00     0.000 C 
BRANCH  10  11
ATOM     11  C   UNL     1       8.273  12.136  10.455  1.00  0.00    -0.000 C 
BRANCH  11  12
ATOM     12  C   UNL     1       7.307  13.170   9.856  1.00  0.00    -0.000 C 
BRANCH  12  13
ATOM     13  C   UNL     1       7.409  13.251   8.322  1.00  0.00    -0.000 C 
BRANCH  13  14
ATOM     14  C   UNL     1       6.032  13.311   7.634  1.00  0.00    -0.000 C 
BRANCH  14  15
ATOM     15  C   UNL     1       5.143  12.075   7.858  1.00  0.00    -0.000 C 
BRANCH  15  16
ATOM     16  C   UNL     1       3.647  12.374   7.681  1.00  0.00    -0.003 C 
ATOM     17  C   UNL     1       3.413  13.851   7.381  1.00  0.00     0.004 C 
ENDBRANCH  15  16
ENDBRANCH  14  15
ENDBRANCH  13  14
ENDBRANCH  12  13
ENDBRANCH  11  12
ENDBRANCH  10  11
ENDBRANCH   1  10
TORSDOF 13
ENDMDL
MODEL 7
REMARK VINA RESULT:    -2.971      2.605      4.972
REMARK INTER + INTRA:          -7.278
REMARK INTER:                  -5.030
REMARK INTRA:                  -2.248
REMARK UNBOUND:                -2.049
REMARK SMILES CCCCCCCCCCCCCCC(=O)[O-]
REMARK SMILES IDX 9 1 10 2 11 3 12 4 13 5 14 6 15 7 16 8 17 9 8 10 7 11 6 12
REMARK SMILES IDX 5 13 4 14 3 15 2 16 1 17
REMARK H PARENT
REMARK Flexibility Score: inf
ROOT
ATOM      1  C   UNL     1       5.553  11.287   7.629  1.00  0.00     0.000 C 
ENDROOT
BRANCH   1   2
ATOM      2  C   UNL     1       5.947  12.750   7.895  1.00  0.00     0.000 C 
BRANCH   2   3
ATOM      3  C   UNL     1       7.459  12.933   8.120  1.00  0.00     0.000 C 
BRANCH   3   4
ATOM      4  C   UNL     1       8.327  11.717   7.745  1.00  0.00     0.000 C 
BRANCH   4   5
ATOM      5  C   UNL     1       9.137  11.169   8.932  1.00  0.00     0.006 C 
BRANCH   5   6
ATOM      6  C   UNL     1       8.328  11.170  10.236  1.00  0.00     0.053 C 
BRANCH   6   7
ATOM      7  C   UNL     1       9.129  11.699  11.385  1.00  0.00     0.041 C 
ATOM      8  O   UNL     1      10.297  12.130  11.197  1.00  0.00    -0.550 OA
ATOM      9  O   UNL     1       8.574  11.750  12.657  1.00  0.00    -0.550 OA
ENDBRANCH   6   7
ENDBRANCH   5   6
ENDBRANCH   4   5
ENDBRANCH   3   4
ENDBRANCH   2   3
ENDBRANCH   1   2
BRANCH   1  10
ATOM     10  C   UNL     1       4.895  10.622   8.849  1.00  0.00     0.000 C 
BRANCH  10  11
ATOM     11  C   UNL     1       5.350   9.166   9.050  1.00  0.00    -0.000 C 
BRANCH  11  12
ATOM     12  C   UNL     1       6.162   8.634   7.858  1.00  0.00    -0.000 C 
BRANCH  12  13
ATOM     13  C   UNL     1       7.472   7.954   8.295  1.00  0.00    -0.000 C 
BRANCH  13  14
ATOM     14  C   UNL     1       8.542   7.951   7.187  1.00  0.00    -0.000 C 
BRANCH  14  15
ATOM     15  C   UNL     1       8.023   8.318   5.786  1.00  0.00    -0.000 C 
BRANCH  15  16
ATOM     16  C   UNL     1       9.125   8.858   4.862  1.00  0.00    -0.003 C 
ATOM     17  C   UNL     1      10.277   9.451   5.668  1.00  0.00     0.004 C 
ENDBRANCH  15  16
ENDBRANCH  14  15
ENDBRANCH  13  14
ENDBRANCH  12  13
ENDBRANCH  11  12
ENDBRANCH  10  11
ENDBRANCH   1  10
TORSDOF 13
ENDMDL
MODEL 8
REMARK VINA RESULT:    -2.953      0.867      2.708
REMARK INTER + INTRA:          -7.246
REMARK INTER:                  -5.283
REMARK INTRA:                  -1.963
REMARK UNBOUND:                -2.049
REMARK SMILES CCCCCCCCCCCCCCC(=O)[O-]
REMARK SMILES IDX 9 1 10 2 11 3 12 4 13 5 14 6 15 7 16 8 17 9 8 10 7 11 6 12
REMARK SMILES IDX 5 13 4 14 3 15 2 16 1 17
REMARK H PARENT
REMARK Flexibility Score: inf
ROOT
ATOM      1  C   UNL     1       6.862  10.337  10.137  1.00  0.00     0.000 C 
ENDROOT
BRANCH   1   2
ATOM      2  C   UNL     1       8.161   9.791   9.520  1.00  0.00     0.000 C 
BRANCH   2   3
ATOM      3  C   UNL     1       9.100  10.903   9.018  1.00  0.00     0.000 C 
BRANCH   3   4
ATOM      4  C   UNL     1       9.063  11.153   7.499  1.00  0.00     0.000 C 
BRANCH   4   5
ATOM      5  C   UNL     1       8.779   9.878   6.687  1.00  0.00     0.006 C 
BRANCH   5   6
ATOM      6  C   UNL     1       9.740   9.719   5.502  1.00  0.00     0.053 C 
BRANCH   6   7
ATOM      7  C   UNL     1      10.897   8.830   5.842  1.00  0.00     0.041 C 
ATOM      8  O   UNL     1      10.887   8.157   6.905  1.00  0.00    -0.550 OA
ATOM      9  O   UNL     1      11.971   8.719   4.968  1.00  0.00    -0.550 OA
ENDBRANCH   6   7
ENDBRANCH   5   6
ENDBRANCH   4   5
ENDBRANCH   3   4
ENDBRANCH   2   3
ENDBRANCH   1   2
BRANCH   1  10
ATOM     10  C   UNL     1       5.647   9.443   9.839  1.00  0.00     0.000 C 
BRANCH  10  11
ATOM     11  C   UNL     1       5.450   9.190   8.334  1.00  0.00    -0.000 C 
BRANCH  11  12
ATOM     12  C   UNL     1       5.375  10.494   7.524  1.00  0.00    -0.000 C 
BRANCH  12  13
ATOM     13  C   UNL     1       4.168  11.364   7.918  1.00  0.00    -0.000 C 
BRANCH  13  14
ATOM     14  C   UNL     1       4.516  12.860   8.016  1.00  0.00    -0.000 C 
BRANCH  14  15
ATOM     15  C   UNL     1       5.928  13.230   7.528  1.00  0.00    -0.000 C 
BRANCH  15  16
ATOM     16  C   UNL     1       6.809  13.822   8.638  1.00  0.00    -0.003 C 
ATOM     17  C   UNL     1       5.963  14.514   9.702  1.00  0.00     0.004 C 
ENDBRANCH  15  16
ENDBRANCH  14  15
ENDBRANCH  13  14
ENDBRANCH  12  13
ENDBRANCH  11  12
ENDBRANCH  10  11
ENDBRANCH   1  10
TORSDOF 13
ENDMDL
MODEL 9
REMARK VINA RESULT:    -2.901      2.943      5.498
REMARK INTER + INTRA:          -7.156
REMARK INTER:                  -5.225
REMARK INTRA:                  -1.931
REMARK UNBOUND:                -2.049
REMARK SMILES CCCCCCCCCCCCCCC(=O)[O-]
REMARK SMILES IDX 9 1 10 2 11 3 12 4 13 5 14 6 15 7 16 8 17 9 8 10 7 11 6 12
REMARK SMILES IDX 5 13 4 14 3 15 2 16 1 17
REMARK H PARENT
REMARK Flexibility Score: inf
ROOT
ATOM      1  C   UNL     1       7.226   9.857   8.665  1.00  0.00     0.000 C 
ENDROOT
BRANCH   1   2
ATOM      2  C   UNL     1       6.325  10.458   7.572  1.00  0.00     0.000 C 
BRANCH   2   3
ATOM      3  C   UNL     1       5.536  11.688   8.055  1.00  0.00     0.000 C 
BRANCH   3   4
ATOM      4  C   UNL     1       6.098  13.047   7.596  1.00  0.00     0.000 C 
BRANCH   4   5
ATOM      5  C   UNL     1       6.496  13.959   8.768  1.00  0.00     0.006 C 
BRANCH   5   6
ATOM      6  C   UNL     1       6.357  13.254  10.124  1.00  0.00     0.053 C 
BRANCH   6   7
ATOM      7  C   UNL     1       7.674  13.139  10.827  1.00  0.00     0.041 C 
ATOM      8  O   UNL     1       8.664  12.631  10.238  1.00  0.00    -0.550 OA
ATOM      9  O   UNL     1       7.819  13.626  12.120  1.00  0.00    -0.550 OA
ENDBRANCH   6   7
ENDBRANCH   5   6
ENDBRANCH   4   5
ENDBRANCH   3   4
ENDBRANCH   2   3
ENDBRANCH   1   2
BRANCH   1  10
ATOM     10  C   UNL     1       8.701   9.789   8.241  1.00  0.00     0.000 C 
BRANCH  10  11
ATOM     11  C   UNL     1       9.057  10.821   7.156  1.00  0.00    -0.000 C 
BRANCH  11  12
ATOM     12  C   UNL     1       9.804  10.193   5.969  1.00  0.00    -0.000 C 
BRANCH  12  13
ATOM     13  C   UNL     1      10.185   8.724   6.224  1.00  0.00    -0.000 C 
BRANCH  13  14
ATOM     14  C   UNL     1       9.669   7.774   5.128  1.00  0.00    -0.000 C 
BRANCH  14  15
ATOM     15  C   UNL     1       8.143   7.786   4.927  1.00  0.00    -0.000 C 
BRANCH  15  16
ATOM     16  C   UNL     1       7.381   7.126   6.085  1.00  0.00    -0.003 C 
ATOM     17  C   UNL     1       7.995   5.777   6.450  1.00  0.00     0.004 C 
ENDBRANCH  15  16
ENDBRANCH  14  15
ENDBRANCH  13  14
ENDBRANCH  12  13
ENDBRANCH  11  12
ENDBRANCH  10  11
ENDBRANCH   1  10
TORSDOF 13
ENDMDL
