MODEL 1
REMARK VINA RESULT:    -8.097      0.000      0.000
REMARK INTER + INTRA:          -9.794
REMARK INTER:                  -9.517
REMARK INTRA:                  -0.277
REMARK UNBOUND:                -0.277
REMARK SMILES O=c1c(O)c(-c2ccc(O)c(O)c2)oc2cc(O)ccc12
REMARK SMILES IDX 5 1 3 2 2 3 1 4 21 5 15 6 14 7 16 8 17 9 19 10 20 11 6 12
REMARK SMILES IDX 7 13 8 14 9 15 13 16 11 17 10 18 12 20 4 22 18 24
REMARK H PARENT 10 19 12 21 4 23 18 25
REMARK Flexibility Score: inf
ROOT
ATOM      1  C   UNL     1     -31.440  16.873  57.218  1.00  0.00     0.180 A 
ATOM      2  C   UNL     1     -30.185  16.253  57.050  1.00  0.00     0.208 A 
ATOM      3  C   UNL     1     -29.024  17.034  57.154  1.00  0.00     0.235 A 
ATOM      4  O   UNL     1     -27.889  16.501  57.019  1.00  0.00    -0.285 OA
ATOM      5  C   UNL     1     -29.140  18.412  57.399  1.00  0.00     0.069 A 
ATOM      6  C   UNL     1     -30.434  18.962  57.531  1.00  0.00     0.142 A 
ATOM      7  O   UNL     1     -31.506  18.185  57.435  1.00  0.00    -0.452 OA
ATOM      8  C   UNL     1     -30.591  20.332  57.765  1.00  0.00     0.094 A 
ATOM      9  C   UNL     1     -29.471  21.163  57.874  1.00  0.00     0.119 A 
ATOM     10  C   UNL     1     -28.185  20.620  57.745  1.00  0.00     0.047 A 
ATOM     11  C   UNL     1     -28.017  19.253  57.509  1.00  0.00     0.020 A 
ENDROOT
BRANCH   1  12
ATOM     12  C   UNL     1     -32.709  16.113  57.141  1.00  0.00     0.025 A 
ATOM     13  C   UNL     1     -33.110  15.327  58.234  1.00  0.00     0.016 A 
ATOM     14  C   UNL     1     -34.292  14.586  58.175  1.00  0.00     0.051 A 
ATOM     15  C   UNL     1     -35.084  14.606  57.020  1.00  0.00     0.157 A 
ATOM     16  C   UNL     1     -33.495  16.114  55.974  1.00  0.00     0.062 A 
ATOM     17  C   UNL     1     -34.679  15.371  55.913  1.00  0.00     0.158 A 
BRANCH  15  18
ATOM     18  O   UNL     1     -36.265  13.867  56.965  1.00  0.00    -0.504 OA
ATOM     19  H   UNL     1     -36.276  12.910  56.633  1.00  0.00     0.293 HD
ENDBRANCH  15  18
BRANCH  17  20
ATOM     20  O   UNL     1     -35.437  15.401  54.742  1.00  0.00    -0.504 OA
ATOM     21  H   UNL     1     -35.126  15.890  53.912  1.00  0.00     0.293 HD
ENDBRANCH  17  20
ENDBRANCH   1  12
BRANCH   2  22
ATOM     22  O   UNL     1     -30.104  14.889  56.759  1.00  0.00    -0.502 OA
ATOM     23  H   UNL     1     -30.043  14.183  57.483  1.00  0.00     0.293 HD
ENDBRANCH   2  22
BRANCH   9  24
ATOM     24  O   UNL     1     -29.645  22.525  58.108  1.00  0.00    -0.508 OA
ATOM     25  H   UNL     1     -28.902  23.192  57.938  1.00  0.00     0.293 HD
ENDBRANCH   9  24
TORSDOF 5
ENDMDL
MODEL 2
REMARK VINA RESULT:    -8.018      2.305      3.002
REMARK INTER + INTRA:          -9.701
REMARK INTER:                  -9.427
REMARK INTRA:                  -0.275
REMARK UNBOUND:                -0.277
REMARK SMILES O=c1c(O)c(-c2ccc(O)c(O)c2)oc2cc(O)ccc12
REMARK SMILES IDX 5 1 3 2 2 3 1 4 21 5 15 6 14 7 16 8 17 9 19 10 20 11 6 12
REMARK SMILES IDX 7 13 8 14 9 15 13 16 11 17 10 18 12 20 4 22 18 24
REMARK H PARENT 10 19 12 21 4 23 18 25
REMARK Flexibility Score: inf
ROOT
ATOM      1  C   UNL     1     -31.336  16.613  56.491  1.00  0.00     0.180 A 
ATOM      2  C   UNL     1     -31.410  17.254  57.744  1.00  0.00     0.208 A 
ATOM      3  C   UNL     1     -30.634  18.402  57.964  1.00  0.00     0.235 A 
ATOM      4  O   UNL     1     -30.691  19.001  59.074  1.00  0.00    -0.285 OA
ATOM      5  C   UNL     1     -29.792  18.872  56.943  1.00  0.00     0.069 A 
ATOM      6  C   UNL     1     -29.756  18.160  55.725  1.00  0.00     0.142 A 
ATOM      7  O   UNL     1     -30.513  17.082  55.555  1.00  0.00    -0.452 OA
ATOM      8  C   UNL     1     -28.921  18.589  54.687  1.00  0.00     0.094 A 
ATOM      9  C   UNL     1     -28.121  19.725  54.849  1.00  0.00     0.119 A 
ATOM     10  C   UNL     1     -28.156  20.436  56.057  1.00  0.00     0.047 A 
ATOM     11  C   UNL     1     -28.985  20.014  57.101  1.00  0.00     0.020 A 
ENDROOT
BRANCH   1  12
ATOM     12  C   UNL     1     -32.137  15.408  56.176  1.00  0.00     0.025 A 
ATOM     13  C   UNL     1     -33.502  15.545  55.878  1.00  0.00     0.016 A 
ATOM     14  C   UNL     1     -34.281  14.419  55.598  1.00  0.00     0.051 A 
ATOM     15  C   UNL     1     -33.712  13.139  55.628  1.00  0.00     0.157 A 
ATOM     16  C   UNL     1     -31.573  14.120  56.226  1.00  0.00     0.062 A 
ATOM     17  C   UNL     1     -32.352  12.991  55.949  1.00  0.00     0.158 A 
BRANCH  15  18
ATOM     18  O   UNL     1     -34.491  12.018  55.346  1.00  0.00    -0.504 OA
ATOM     19  H   UNL     1     -35.047  11.958  54.501  1.00  0.00     0.293 HD
ENDBRANCH  15  18
BRANCH  17  20
ATOM     20  O   UNL     1     -31.758  11.729  56.001  1.00  0.00    -0.504 OA
ATOM     21  H   UNL     1     -31.652  11.150  55.177  1.00  0.00     0.293 HD
ENDBRANCH  17  20
ENDBRANCH   1  12
BRANCH   2  22
ATOM     22  O   UNL     1     -32.221  16.736  58.757  1.00  0.00    -0.502 OA
ATOM     23  H   UNL     1     -33.233  16.761  58.707  1.00  0.00     0.293 HD
ENDBRANCH   2  22
BRANCH   9  24
ATOM     24  O   UNL     1     -27.297  20.140  53.806  1.00  0.00    -0.508 OA
ATOM     25  H   UNL     1     -26.608  19.519  53.396  1.00  0.00     0.293 HD
ENDBRANCH   9  24
TORSDOF 5
ENDMDL
MODEL 3
REMARK VINA RESULT:    -7.832      2.223      2.993
REMARK INTER + INTRA:          -9.482
REMARK INTER:                  -9.208
REMARK INTRA:                  -0.275
REMARK UNBOUND:                -0.277
REMARK SMILES O=c1c(O)c(-c2ccc(O)c(O)c2)oc2cc(O)ccc12
REMARK SMILES IDX 5 1 3 2 2 3 1 4 21 5 15 6 14 7 16 8 17 9 19 10 20 11 6 12
REMARK SMILES IDX 7 13 8 14 9 15 13 16 11 17 10 18 12 20 4 22 18 24
REMARK H PARENT 10 19 12 21 4 23 18 25
REMARK Flexibility Score: inf
ROOT
ATOM      1  C   UNL     1     -30.980  16.337  57.095  1.00  0.00     0.180 A 
ATOM      2  C   UNL     1     -31.277  17.243  56.057  1.00  0.00     0.208 A 
ATOM      3  C   UNL     1     -30.383  18.293  55.798  1.00  0.00     0.235 A 
ATOM      4  O   UNL     1     -30.621  19.111  54.866  1.00  0.00    -0.285 OA
ATOM      5  C   UNL     1     -29.231  18.428  56.588  1.00  0.00     0.069 A 
ATOM      6  C   UNL     1     -29.016  17.495  57.625  1.00  0.00     0.142 A 
ATOM      7  O   UNL     1     -29.884  16.510  57.831  1.00  0.00    -0.452 OA
ATOM      8  C   UNL     1     -27.885  17.602  58.441  1.00  0.00     0.094 A 
ATOM      9  C   UNL     1     -26.960  18.630  58.234  1.00  0.00     0.119 A 
ATOM     10  C   UNL     1     -27.168  19.558  57.204  1.00  0.00     0.047 A 
ATOM     11  C   UNL     1     -28.296  19.461  56.384  1.00  0.00     0.020 A 
ENDROOT
BRANCH   1  12
ATOM     12  C   UNL     1     -31.864  15.194  57.418  1.00  0.00     0.025 A 
ATOM     13  C   UNL     1     -31.843  14.053  56.599  1.00  0.00     0.016 A 
ATOM     14  C   UNL     1     -32.683  12.971  56.873  1.00  0.00     0.051 A 
ATOM     15  C   UNL     1     -33.568  13.019  57.958  1.00  0.00     0.157 A 
ATOM     16  C   UNL     1     -32.769  15.248  58.494  1.00  0.00     0.062 A 
ATOM     17  C   UNL     1     -33.613  14.166  58.768  1.00  0.00     0.158 A 
BRANCH  15  18
ATOM     18  O   UNL     1     -34.404  11.937  58.230  1.00  0.00    -0.504 OA
ATOM     19  H   UNL     1     -34.030  11.030  58.483  1.00  0.00     0.293 HD
ENDBRANCH  15  18
BRANCH  17  20
ATOM     20  O   UNL     1     -34.493  14.251  59.847  1.00  0.00    -0.504 OA
ATOM     21  H   UNL     1     -35.022  13.452  60.175  1.00  0.00     0.293 HD
ENDBRANCH  17  20
ENDBRANCH   1  12
BRANCH   2  22
ATOM     22  O   UNL     1     -32.457  17.111  55.319  1.00  0.00    -0.502 OA
ATOM     23  H   UNL     1     -33.054  17.902  55.107  1.00  0.00     0.293 HD
ENDBRANCH   2  22
BRANCH   9  24
ATOM     24  O   UNL     1     -25.839  18.722  59.055  1.00  0.00    -0.508 OA
ATOM     25  H   UNL     1     -25.702  19.508  59.679  1.00  0.00     0.293 HD
ENDBRANCH   9  24
TORSDOF 5
ENDMDL
MODEL 4
REMARK VINA RESULT:    -7.655      1.755      7.037
REMARK INTER + INTRA:          -9.274
REMARK INTER:                  -8.961
REMARK INTRA:                  -0.313
REMARK UNBOUND:                -0.277
REMARK SMILES O=c1c(O)c(-c2ccc(O)c(O)c2)oc2cc(O)ccc12
REMARK SMILES IDX 5 1 3 2 2 3 1 4 21 5 15 6 14 7 16 8 17 9 19 10 20 11 6 12
REMARK SMILES IDX 7 13 8 14 9 15 13 16 11 17 10 18 12 20 4 22 18 24
REMARK H PARENT 10 19 12 21 4 23 18 25
REMARK Flexibility Score: inf
ROOT
ATOM      1  C   UNL     1     -32.015  16.363  57.338  1.00  0.00     0.180 A 
ATOM      2  C   UNL     1     -32.695  16.504  56.111  1.00  0.00     0.208 A 
ATOM      3  C   UNL     1     -33.885  15.788  55.910  1.00  0.00     0.235 A 
ATOM      4  O   UNL     1     -34.518  15.906  54.824  1.00  0.00    -0.285 OA
ATOM      5  C   UNL     1     -34.357  14.937  56.922  1.00  0.00     0.069 A 
ATOM      6  C   UNL     1     -33.607  14.832  58.113  1.00  0.00     0.142 A 
ATOM      7  O   UNL     1     -32.489  15.534  58.266  1.00  0.00    -0.452 OA
ATOM      8  C   UNL     1     -34.038  13.987  59.140  1.00  0.00     0.094 A 
ATOM      9  C   UNL     1     -35.215  13.244  58.996  1.00  0.00     0.119 A 
ATOM     10  C   UNL     1     -35.964  13.347  57.815  1.00  0.00     0.047 A 
ATOM     11  C   UNL     1     -35.541  14.188  56.782  1.00  0.00     0.020 A 
ENDROOT
BRANCH   1  12
ATOM     12  C   UNL     1     -30.764  17.098  57.632  1.00  0.00     0.025 A 
ATOM     13  C   UNL     1     -30.835  18.405  58.141  1.00  0.00     0.016 A 
ATOM     14  C   UNL     1     -29.667  19.124  58.407  1.00  0.00     0.051 A 
ATOM     15  C   UNL     1     -28.412  18.556  58.153  1.00  0.00     0.157 A 
ATOM     16  C   UNL     1     -29.503  16.538  57.358  1.00  0.00     0.062 A 
ATOM     17  C   UNL     1     -28.332  17.258  57.621  1.00  0.00     0.158 A 
BRANCH  15  18
ATOM     18  O   UNL     1     -27.249  19.275  58.421  1.00  0.00    -0.504 OA
ATOM     19  H   UNL     1     -26.362  18.810  58.573  1.00  0.00     0.293 HD
ENDBRANCH  15  18
BRANCH  17  20
ATOM     20  O   UNL     1     -27.098  16.668  57.344  1.00  0.00    -0.504 OA
ATOM     21  H   UNL     1     -27.022  15.774  56.876  1.00  0.00     0.293 HD
ENDBRANCH  17  20
ENDBRANCH   1  12
BRANCH   2  22
ATOM     22  O   UNL     1     -32.175  17.321  55.104  1.00  0.00    -0.502 OA
ATOM     23  H   UNL     1     -32.476  18.280  54.975  1.00  0.00     0.293 HD
ENDBRANCH   2  22
BRANCH   9  24
ATOM     24  O   UNL     1     -35.631  12.408  60.029  1.00  0.00    -0.508 OA
ATOM     25  H   UNL     1     -35.422  12.618  60.998  1.00  0.00     0.293 HD
ENDBRANCH   9  24
TORSDOF 5
ENDMDL
MODEL 5
REMARK VINA RESULT:    -7.636      2.452      7.068
REMARK INTER + INTRA:          -9.252
REMARK INTER:                  -9.018
REMARK INTRA:                  -0.235
REMARK UNBOUND:                -0.277
REMARK SMILES O=c1c(O)c(-c2ccc(O)c(O)c2)oc2cc(O)ccc12
REMARK SMILES IDX 5 1 3 2 2 3 1 4 21 5 15 6 14 7 16 8 17 9 19 10 20 11 6 12
REMARK SMILES IDX 7 13 8 14 9 15 13 16 11 17 10 18 12 20 4 22 18 24
REMARK H PARENT 10 19 12 21 4 23 18 25
REMARK Flexibility Score: inf
ROOT
ATOM      1  C   UNL     1     -31.503  15.928  56.952  1.00  0.00     0.180 A 
ATOM      2  C   UNL     1     -32.237  16.095  58.144  1.00  0.00     0.208 A 
ATOM      3  C   UNL     1     -33.226  15.155  58.467  1.00  0.00     0.235 A 
ATOM      4  O   UNL     1     -33.890  15.276  59.534  1.00  0.00    -0.285 OA
ATOM      5  C   UNL     1     -33.475  14.086  57.591  1.00  0.00     0.069 A 
ATOM      6  C   UNL     1     -32.713  14.001  56.405  1.00  0.00     0.142 A 
ATOM      7  O   UNL     1     -31.780  14.909  56.141  1.00  0.00    -0.452 OA
ATOM      8  C   UNL     1     -32.938  12.958  55.501  1.00  0.00     0.094 A 
ATOM      9  C   UNL     1     -33.914  11.992  55.767  1.00  0.00     0.119 A 
ATOM     10  C   UNL     1     -34.671  12.071  56.944  1.00  0.00     0.047 A 
ATOM     11  C   UNL     1     -34.456  13.111  57.853  1.00  0.00     0.020 A 
ENDROOT
BRANCH   1  12
ATOM     12  C   UNL     1     -30.430  16.868  56.551  1.00  0.00     0.025 A 
ATOM     13  C   UNL     1     -29.212  16.863  57.248  1.00  0.00     0.016 A 
ATOM     14  C   UNL     1     -28.195  17.755  56.900  1.00  0.00     0.051 A 
ATOM     15  C   UNL     1     -28.385  18.675  55.861  1.00  0.00     0.157 A 
ATOM     16  C   UNL     1     -30.627  17.807  55.522  1.00  0.00     0.062 A 
ATOM     17  C   UNL     1     -29.610  18.703  55.173  1.00  0.00     0.158 A 
BRANCH  15  18
ATOM     18  O   UNL     1     -27.367  19.562  55.514  1.00  0.00    -0.504 OA
ATOM     19  H   UNL     1     -27.311  20.489  55.921  1.00  0.00     0.293 HD
ENDBRANCH  15  18
BRANCH  17  20
ATOM     20  O   UNL     1     -29.836  19.616  54.143  1.00  0.00    -0.504 OA
ATOM     21  H   UNL     1     -29.192  20.371  53.942  1.00  0.00     0.293 HD
ENDBRANCH  17  20
ENDBRANCH   1  12
BRANCH   2  22
ATOM     22  O   UNL     1     -32.000  17.196  58.972  1.00  0.00    -0.502 OA
ATOM     23  H   UNL     1     -32.324  17.231  59.931  1.00  0.00     0.293 HD
ENDBRANCH   2  22
BRANCH   9  24
ATOM     24  O   UNL     1     -34.125  10.959  54.857  1.00  0.00    -0.508 OA
ATOM     25  H   UNL     1     -34.690  10.152  55.093  1.00  0.00     0.293 HD
ENDBRANCH   9  24
TORSDOF 5
ENDMDL
MODEL 6
REMARK VINA RESULT:    -7.625      1.816      7.196
REMARK INTER + INTRA:          -9.239
REMARK INTER:                  -8.928
REMARK INTRA:                  -0.310
REMARK UNBOUND:                -0.277
REMARK SMILES O=c1c(O)c(-c2ccc(O)c(O)c2)oc2cc(O)ccc12
REMARK SMILES IDX 5 1 3 2 2 3 1 4 21 5 15 6 14 7 16 8 17 9 19 10 20 11 6 12
REMARK SMILES IDX 7 13 8 14 9 15 13 16 11 17 10 18 12 20 4 22 18 24
REMARK H PARENT 10 19 12 21 4 23 18 25
REMARK Flexibility Score: inf
ROOT
ATOM      1  C   UNL     1     -32.975  15.830  57.195  1.00  0.00     0.180 A 
ATOM      2  C   UNL     1     -33.673  15.690  55.978  1.00  0.00     0.208 A 
ATOM      3  C   UNL     1     -34.847  14.922  55.955  1.00  0.00     0.235 A 
ATOM      4  O   UNL     1     -35.495  14.790  54.881  1.00  0.00    -0.285 OA
ATOM      5  C   UNL     1     -35.286  14.298  57.134  1.00  0.00     0.069 A 
ATOM      6  C   UNL     1     -34.518  14.467  58.307  1.00  0.00     0.142 A 
ATOM      7  O   UNL     1     -33.417  15.210  58.287  1.00  0.00    -0.452 OA
ATOM      8  C   UNL     1     -34.916  13.853  59.499  1.00  0.00     0.094 A 
ATOM      9  C   UNL     1     -36.076  13.071  59.537  1.00  0.00     0.119 A 
ATOM     10  C   UNL     1     -36.841  12.902  58.375  1.00  0.00     0.047 A 
ATOM     11  C   UNL     1     -36.451  13.510  57.178  1.00  0.00     0.020 A 
ENDROOT
BRANCH   1  12
ATOM     12  C   UNL     1     -31.739  16.639  57.304  1.00  0.00     0.025 A 
ATOM     13  C   UNL     1     -30.500  16.049  57.011  1.00  0.00     0.016 A 
ATOM     14  C   UNL     1     -29.320  16.787  57.127  1.00  0.00     0.051 A 
ATOM     15  C   UNL     1     -29.359  18.121  57.553  1.00  0.00     0.157 A 
ATOM     16  C   UNL     1     -31.773  17.973  57.752  1.00  0.00     0.062 A 
ATOM     17  C   UNL     1     -30.593  18.713  57.871  1.00  0.00     0.158 A 
BRANCH  15  18
ATOM     18  O   UNL     1     -28.180  18.856  57.666  1.00  0.00    -0.504 OA
ATOM     19  H   UNL     1     -27.306  18.519  57.280  1.00  0.00     0.293 HD
ENDBRANCH  15  18
BRANCH  17  20
ATOM     20  O   UNL     1     -30.664  20.035  58.312  1.00  0.00    -0.504 OA
ATOM     21  H   UNL     1     -29.845  20.627  58.372  1.00  0.00     0.293 HD
ENDBRANCH  17  20
ENDBRANCH   1  12
BRANCH   2  22
ATOM     22  O   UNL     1     -33.185  16.283  54.810  1.00  0.00    -0.502 OA
ATOM     23  H   UNL     1     -32.924  15.740  53.996  1.00  0.00     0.293 HD
ENDBRANCH   2  22
BRANCH   9  24
ATOM     24  O   UNL     1     -36.458  12.467  60.733  1.00  0.00    -0.508 OA
ATOM     25  H   UNL     1     -37.307  12.738  61.216  1.00  0.00     0.293 HD
ENDBRANCH   9  24
TORSDOF 5
ENDMDL
MODEL 7
REMARK VINA RESULT:    -7.584      1.774      6.805
REMARK INTER + INTRA:          -9.191
REMARK INTER:                  -8.941
REMARK INTRA:                  -0.250
REMARK UNBOUND:                -0.277
REMARK SMILES O=c1c(O)c(-c2ccc(O)c(O)c2)oc2cc(O)ccc12
REMARK SMILES IDX 5 1 3 2 2 3 1 4 21 5 15 6 14 7 16 8 17 9 19 10 20 11 6 12
REMARK SMILES IDX 7 13 8 14 9 15 13 16 11 17 10 18 12 20 4 22 18 24
REMARK H PARENT 10 19 12 21 4 23 18 25
REMARK Flexibility Score: inf
ROOT
ATOM      1  C   UNL     1     -31.599  16.672  57.552  1.00  0.00     0.180 A 
ATOM      2  C   UNL     1     -31.892  16.191  56.259  1.00  0.00     0.208 A 
ATOM      3  C   UNL     1     -32.951  15.285  56.097  1.00  0.00     0.235 A 
ATOM      4  O   UNL     1     -33.240  14.849  54.949  1.00  0.00    -0.285 OA
ATOM      5  C   UNL     1     -33.677  14.864  57.223  1.00  0.00     0.069 A 
ATOM      6  C   UNL     1     -33.307  15.373  58.487  1.00  0.00     0.142 A 
ATOM      7  O   UNL     1     -32.303  16.236  58.595  1.00  0.00    -0.452 OA
ATOM      8  C   UNL     1     -33.998  14.969  59.634  1.00  0.00     0.094 A 
ATOM      9  C   UNL     1     -35.061  14.064  59.536  1.00  0.00     0.119 A 
ATOM     10  C   UNL     1     -35.433  13.559  58.283  1.00  0.00     0.047 A 
ATOM     11  C   UNL     1     -34.747  13.954  57.131  1.00  0.00     0.020 A 
ENDROOT
BRANCH   1  12
ATOM     12  C   UNL     1     -30.510  17.643  57.802  1.00  0.00     0.025 A 
ATOM     13  C   UNL     1     -29.177  17.204  57.787  1.00  0.00     0.016 A 
ATOM     14  C   UNL     1     -28.135  18.100  58.041  1.00  0.00     0.051 A 
ATOM     15  C   UNL     1     -28.410  19.443  58.329  1.00  0.00     0.157 A 
ATOM     16  C   UNL     1     -30.785  18.988  58.112  1.00  0.00     0.062 A 
ATOM     17  C   UNL     1     -29.743  19.886  58.368  1.00  0.00     0.158 A 
BRANCH  15  18
ATOM     18  O   UNL     1     -27.368  20.334  58.579  1.00  0.00    -0.504 OA
ATOM     19  H   UNL     1     -26.547  20.370  57.986  1.00  0.00     0.293 HD
ENDBRANCH  15  18
BRANCH  17  20
ATOM     20  O   UNL     1     -30.051  21.214  58.666  1.00  0.00    -0.504 OA
ATOM     21  H   UNL     1     -29.705  21.673  59.499  1.00  0.00     0.293 HD
ENDBRANCH  17  20
ENDBRANCH   1  12
BRANCH   2  22
ATOM     22  O   UNL     1     -31.121  16.592  55.165  1.00  0.00    -0.502 OA
ATOM     23  H   UNL     1     -31.476  16.568  54.215  1.00  0.00     0.293 HD
ENDBRANCH   2  22
BRANCH   9  24
ATOM     24  O   UNL     1     -35.739  13.674  60.688  1.00  0.00    -0.508 OA
ATOM     25  H   UNL     1     -36.638  14.072  60.934  1.00  0.00     0.293 HD
ENDBRANCH   9  24
TORSDOF 5
ENDMDL
MODEL 8
REMARK VINA RESULT:    -7.563      1.845      6.770
REMARK INTER + INTRA:          -9.166
REMARK INTER:                  -8.849
REMARK INTRA:                  -0.317
REMARK UNBOUND:                -0.277
REMARK SMILES O=c1c(O)c(-c2ccc(O)c(O)c2)oc2cc(O)ccc12
REMARK SMILES IDX 5 1 3 2 2 3 1 4 21 5 15 6 14 7 16 8 17 9 19 10 20 11 6 12
REMARK SMILES IDX 7 13 8 14 9 15 13 16 11 17 10 18 12 20 4 22 18 24
REMARK H PARENT 10 19 12 21 4 23 18 25
REMARK Flexibility Score: inf
ROOT
ATOM      1  C   UNL     1     -31.786  16.369  56.382  1.00  0.00     0.180 A 
ATOM      2  C   UNL     1     -31.121  15.150  56.628  1.00  0.00     0.208 A 
ATOM      3  C   UNL     1     -31.806  13.947  56.400  1.00  0.00     0.235 A 
ATOM      4  O   UNL     1     -31.229  12.843  56.602  1.00  0.00    -0.285 OA
ATOM      5  C   UNL     1     -33.137  13.985  55.955  1.00  0.00     0.069 A 
ATOM      6  C   UNL     1     -33.741  15.245  55.755  1.00  0.00     0.142 A 
ATOM      7  O   UNL     1     -33.054  16.361  55.974  1.00  0.00    -0.452 OA
ATOM      8  C   UNL     1     -35.069  15.325  55.322  1.00  0.00     0.094 A 
ATOM      9  C   UNL     1     -35.804  14.159  55.083  1.00  0.00     0.119 A 
ATOM     10  C   UNL     1     -35.208  12.906  55.278  1.00  0.00     0.047 A 
ATOM     11  C   UNL     1     -33.882  12.816  55.712  1.00  0.00     0.020 A 
ENDROOT
BRANCH   1  12
ATOM     12  C   UNL     1     -31.126  17.680  56.581  1.00  0.00     0.025 A 
ATOM     13  C   UNL     1     -30.401  18.255  55.525  1.00  0.00     0.016 A 
ATOM     14  C   UNL     1     -29.753  19.480  55.697  1.00  0.00     0.051 A 
ATOM     15  C   UNL     1     -29.805  20.141  56.931  1.00  0.00     0.157 A 
ATOM     16  C   UNL     1     -31.158  18.335  57.825  1.00  0.00     0.062 A 
ATOM     17  C   UNL     1     -30.508  19.561  58.000  1.00  0.00     0.158 A 
BRANCH  15  18
ATOM     18  O   UNL     1     -29.159  21.365  57.099  1.00  0.00    -0.504 OA
ATOM     19  H   UNL     1     -28.496  21.712  56.416  1.00  0.00     0.293 HD
ENDBRANCH  15  18
BRANCH  17  20
ATOM     20  O   UNL     1     -30.567  20.187  59.246  1.00  0.00    -0.504 OA
ATOM     21  H   UNL     1     -30.920  19.715  60.069  1.00  0.00     0.293 HD
ENDBRANCH  17  20
ENDBRANCH   1  12
BRANCH   2  22
ATOM     22  O   UNL     1     -29.812  15.145  57.117  1.00  0.00    -0.502 OA
ATOM     23  H   UNL     1     -29.539  15.673  57.937  1.00  0.00     0.293 HD
ENDBRANCH   2  22
BRANCH   9  24
ATOM     24  O   UNL     1     -37.125  14.257  54.651  1.00  0.00    -0.508 OA
ATOM     25  H   UNL     1     -37.355  14.558  53.712  1.00  0.00     0.293 HD
ENDBRANCH   9  24
TORSDOF 5
ENDMDL
MODEL 9
REMARK VINA RESULT:    -7.420      1.743      6.571
REMARK INTER + INTRA:          -8.999
REMARK INTER:                  -8.676
REMARK INTRA:                  -0.323
REMARK UNBOUND:                -0.277
REMARK SMILES O=c1c(O)c(-c2ccc(O)c(O)c2)oc2cc(O)ccc12
REMARK SMILES IDX 5 1 3 2 2 3 1 4 21 5 15 6 14 7 16 8 17 9 19 10 20 11 6 12
REMARK SMILES IDX 7 13 8 14 9 15 13 16 11 17 10 18 12 20 4 22 18 24
REMARK H PARENT 10 19 12 21 4 23 18 25
REMARK Flexibility Score: inf
ROOT
ATOM      1  C   UNL     1     -31.623  16.540  56.611  1.00  0.00     0.180 A 
ATOM      2  C   UNL     1     -30.871  15.348  56.556  1.00  0.00     0.208 A 
ATOM      3  C   UNL     1     -31.541  14.134  56.340  1.00  0.00     0.235 A 
ATOM      4  O   UNL     1     -30.889  13.056  56.275  1.00  0.00    -0.285 OA
ATOM      5  C   UNL     1     -32.938  14.132  56.206  1.00  0.00     0.069 A 
ATOM      6  C   UNL     1     -33.622  15.364  56.298  1.00  0.00     0.142 A 
ATOM      7  O   UNL     1     -32.949  16.492  56.494  1.00  0.00    -0.452 OA
ATOM      8  C   UNL     1     -35.015  15.402  56.180  1.00  0.00     0.094 A 
ATOM      9  C   UNL     1     -35.738  14.223  55.969  1.00  0.00     0.119 A 
ATOM     10  C   UNL     1     -35.063  12.998  55.875  1.00  0.00     0.047 A 
ATOM     11  C   UNL     1     -33.671  12.949  55.993  1.00  0.00     0.020 A 
ENDROOT
BRANCH   1  12
ATOM     12  C   UNL     1     -30.988  17.862  56.817  1.00  0.00     0.025 A 
ATOM     13  C   UNL     1     -30.904  18.393  58.114  1.00  0.00     0.016 A 
ATOM     14  C   UNL     1     -30.328  19.647  58.328  1.00  0.00     0.051 A 
ATOM     15  C   UNL     1     -29.842  20.397  57.249  1.00  0.00     0.157 A 
ATOM     16  C   UNL     1     -30.519  18.626  55.733  1.00  0.00     0.062 A 
ATOM     17  C   UNL     1     -29.943  19.883  55.945  1.00  0.00     0.158 A 
BRANCH  15  18
ATOM     18  O   UNL     1     -29.265  21.647  57.466  1.00  0.00    -0.504 OA
ATOM     19  H   UNL     1     -29.805  22.501  57.383  1.00  0.00     0.293 HD
ENDBRANCH  15  18
BRANCH  17  20
ATOM     20  O   UNL     1     -29.482  20.611  54.847  1.00  0.00    -0.504 OA
ATOM     21  H   UNL     1     -29.487  21.623  54.832  1.00  0.00     0.293 HD
ENDBRANCH  17  20
ENDBRANCH   1  12
BRANCH   2  22
ATOM     22  O   UNL     1     -29.486  15.377  56.741  1.00  0.00    -0.502 OA
ATOM     23  H   UNL     1     -28.859  14.772  56.225  1.00  0.00     0.293 HD
ENDBRANCH   2  22
BRANCH   9  24
ATOM     24  O   UNL     1     -37.125  14.279  55.853  1.00  0.00    -0.508 OA
ATOM     25  H   UNL     1     -37.586  14.199  54.954  1.00  0.00     0.293 HD
ENDBRANCH   9  24
TORSDOF 5
ENDMDL
