MODEL 1
REMARK VINA RESULT:    -2.477      0.000      0.000
REMARK INTER + INTRA:          -2.477
REMARK INTER:                  -2.477
REMARK INTRA:                   0.000
REMARK UNBOUND:                 0.000
REMARK SMILES CC(=O)[O-]
REMARK SMILES IDX 1 1 2 2 3 3 4 4
REMARK H PARENT
REMARK Flexibility Score: inf
ROOT
ATOM      1  C   UNL     1     -97.136 -58.045 -65.845  1.00  0.00     0.063 C 
ATOM      2  C   UNL     1     -97.908 -58.725 -66.925  1.00  0.00     0.038 C 
ATOM      3  O   UNL     1     -97.340 -59.039 -68.004  1.00  0.00    -0.550 OA
ATOM      4  O   UNL     1     -99.239 -59.063 -66.722  1.00  0.00    -0.550 OA
ENDROOT
TORSDOF 0
ENDMDL
MODEL 2
REMARK VINA RESULT:    -2.323      2.776      3.056
REMARK INTER + INTRA:          -2.323
REMARK INTER:                  -2.323
REMARK INTRA:                   0.000
REMARK UNBOUND:                 0.000
REMARK SMILES CC(=O)[O-]
REMARK SMILES IDX 1 1 2 2 3 3 4 4
REMARK H PARENT
REMARK Flexibility Score: inf
ROOT
ATOM      1  C   UNL     1     -99.115 -59.502 -66.706  1.00  0.00     0.063 C 
ATOM      2  C   UNL     1    -100.387 -60.281 -66.670  1.00  0.00     0.038 C 
ATOM      3  O   UNL     1    -100.488 -61.355 -67.320  1.00  0.00    -0.550 OA
ATOM      4  O   UNL     1    -101.443 -59.853 -65.878  1.00  0.00    -0.550 OA
ENDROOT
TORSDOF 0
ENDMDL
MODEL 3
REMARK VINA RESULT:    -2.319      2.691      3.247
REMARK INTER + INTRA:          -2.319
REMARK INTER:                  -2.319
REMARK INTRA:                   0.000
REMARK UNBOUND:                 0.000
REMARK SMILES CC(=O)[O-]
REMARK SMILES IDX 1 1 2 2 3 3 4 4
REMARK H PARENT
REMARK Flexibility Score: inf
ROOT
ATOM      1  C   UNL     1     -99.994 -61.544 -67.021  1.00  0.00     0.063 C 
ATOM      2  C   UNL     1    -100.288 -60.162 -66.545  1.00  0.00     0.038 C 
ATOM      3  O   UNL     1     -99.484 -59.224 -66.793  1.00  0.00    -0.550 OA
ATOM      4  O   UNL     1    -101.473 -59.894 -65.874  1.00  0.00    -0.550 OA
ENDROOT
TORSDOF 0
ENDMDL
MODEL 4
REMARK VINA RESULT:    -2.285      4.574      4.886
REMARK INTER + INTRA:          -2.285
REMARK INTER:                  -2.285
REMARK INTRA:                   0.000
REMARK UNBOUND:                 0.000
REMARK SMILES CC(=O)[O-]
REMARK SMILES IDX 1 1 2 2 3 3 4 4
REMARK H PARENT
REMARK Flexibility Score: inf
ROOT
ATOM      1  C   UNL     1     -98.945 -63.778 -63.781  1.00  0.00     0.063 C 
ATOM      2  C   UNL     1     -98.862 -62.439 -64.430  1.00  0.00     0.038 C 
ATOM      3  O   UNL     1     -98.063 -61.571 -63.989  1.00  0.00    -0.550 OA
ATOM      4  O   UNL     1     -99.626 -62.162 -65.556  1.00  0.00    -0.550 OA
ENDROOT
TORSDOF 0
ENDMDL
MODEL 5
REMARK VINA RESULT:    -2.227      2.683      3.482
REMARK INTER + INTRA:          -2.227
REMARK INTER:                  -2.227
REMARK INTRA:                   0.000
REMARK UNBOUND:                 0.000
REMARK SMILES CC(=O)[O-]
REMARK SMILES IDX 1 1 2 2 3 3 4 4
REMARK H PARENT
REMARK Flexibility Score: inf
ROOT
ATOM      1  C   UNL     1     -99.666 -61.501 -65.879  1.00  0.00     0.063 C 
ATOM      2  C   UNL     1    -100.269 -60.196 -66.275  1.00  0.00     0.038 C 
ATOM      3  O   UNL     1    -101.481 -59.960 -66.030  1.00  0.00    -0.550 OA
ATOM      4  O   UNL     1     -99.482 -59.217 -66.866  1.00  0.00    -0.550 OA
ENDROOT
TORSDOF 0
ENDMDL
MODEL 6
REMARK VINA RESULT:    -2.223      4.479      4.862
REMARK INTER + INTRA:          -2.223
REMARK INTER:                  -2.223
REMARK INTRA:                   0.000
REMARK UNBOUND:                 0.000
REMARK SMILES CC(=O)[O-]
REMARK SMILES IDX 1 1 2 2 3 3 4 4
REMARK H PARENT
REMARK Flexibility Score: inf
ROOT
ATOM      1  C   UNL     1     -99.652 -61.768 -65.605  1.00  0.00     0.063 C 
ATOM      2  C   UNL     1     -99.091 -62.321 -64.339  1.00  0.00     0.038 C 
ATOM      3  O   UNL     1     -98.024 -61.850 -63.864  1.00  0.00    -0.550 OA
ATOM      4  O   UNL     1     -99.770 -63.318 -63.654  1.00  0.00    -0.550 OA
ENDROOT
TORSDOF 0
ENDMDL
MODEL 7
REMARK VINA RESULT:    -2.193      3.887      4.337
REMARK INTER + INTRA:          -2.193
REMARK INTER:                  -2.193
REMARK INTRA:                   0.000
REMARK UNBOUND:                 0.000
REMARK SMILES CC(=O)[O-]
REMARK SMILES IDX 1 1 2 2 3 3 4 4
REMARK H PARENT
REMARK Flexibility Score: inf
ROOT
ATOM      1  C   UNL     1     -99.681 -62.807 -68.225  1.00  0.00     0.063 C 
ATOM      2  C   UNL     1    -100.013 -61.885 -67.101  1.00  0.00     0.038 C 
ATOM      3  O   UNL     1    -100.745 -60.880 -67.303  1.00  0.00    -0.550 OA
ATOM      4  O   UNL     1     -99.560 -62.161 -65.818  1.00  0.00    -0.550 OA
ENDROOT
TORSDOF 0
ENDMDL
MODEL 8
REMARK VINA RESULT:    -1.981      2.275      2.498
REMARK INTER + INTRA:          -1.981
REMARK INTER:                  -1.981
REMARK INTRA:                   0.000
REMARK UNBOUND:                 0.000
REMARK SMILES CC(=O)[O-]
REMARK SMILES IDX 1 1 2 2 3 3 4 4
REMARK H PARENT
REMARK Flexibility Score: inf
ROOT
ATOM      1  C   UNL     1     -98.119 -59.014 -66.426  1.00  0.00     0.063 C 
ATOM      2  C   UNL     1     -97.014 -58.480 -65.579  1.00  0.00     0.038 C 
ATOM      3  O   UNL     1     -96.455 -57.393 -65.883  1.00  0.00    -0.550 OA
ATOM      4  O   UNL     1     -96.637 -59.150 -64.424  1.00  0.00    -0.550 OA
ENDROOT
TORSDOF 0
ENDMDL
MODEL 9
REMARK VINA RESULT:    -1.933      5.400      5.455
REMARK INTER + INTRA:          -1.933
REMARK INTER:                  -1.933
REMARK INTRA:                   0.000
REMARK UNBOUND:                 0.000
REMARK SMILES CC(=O)[O-]
REMARK SMILES IDX 1 1 2 2 3 3 4 4
REMARK H PARENT
REMARK Flexibility Score: inf
ROOT
ATOM      1  C   UNL     1     -95.874 -60.381 -71.118  1.00  0.00     0.063 C 
ATOM      2  C   UNL     1     -95.111 -61.412 -70.357  1.00  0.00     0.038 C 
ATOM      3  O   UNL     1     -94.059 -61.093 -69.742  1.00  0.00    -0.550 OA
ATOM      4  O   UNL     1     -95.587 -62.714 -70.280  1.00  0.00    -0.550 OA
ENDROOT
TORSDOF 0
ENDMDL
