MODEL 1
REMARK VINA RESULT:    -2.881      0.000      0.000
REMARK INTER + INTRA:          -3.899
REMARK INTER:                  -3.723
REMARK INTRA:                  -0.176
REMARK UNBOUND:                -0.176
REMARK SMILES CCCCCCC(=O)[O-]
REMARK SMILES IDX 5 1 6 2 7 3 8 4 9 5 4 6 3 7 2 8 1 9
REMARK H PARENT
REMARK Flexibility Score: inf
ROOT
ATOM      1  C   UNL     1     -99.714 -29.159 -12.851  1.00  0.00     0.006 C 
ENDROOT
BRANCH   1   2
ATOM      2  C   UNL     1     -98.282 -29.499 -13.289  1.00  0.00     0.053 C 
BRANCH   2   3
ATOM      3  C   UNL     1     -97.420 -29.763 -12.097  1.00  0.00     0.041 C 
ATOM      4  O   UNL     1     -96.171 -29.863 -12.227  1.00  0.00    -0.550 OA
ATOM      5  O   UNL     1     -97.988 -29.850 -10.832  1.00  0.00    -0.550 OA
ENDBRANCH   2   3
ENDBRANCH   1   2
BRANCH   1   6
ATOM      6  C   UNL     1    -100.188 -27.808 -13.412  1.00  0.00     0.000 C 
BRANCH   6   7
ATOM      7  C   UNL     1    -101.704 -27.766 -13.705  1.00  0.00    -0.000 C 
BRANCH   7   8
ATOM      8  C   UNL     1    -102.044 -27.230 -15.106  1.00  0.00    -0.003 C 
ATOM      9  C   UNL     1    -101.708 -28.223 -16.218  1.00  0.00     0.004 C 
ENDBRANCH   7   8
ENDBRANCH   6   7
ENDBRANCH   1   6
TORSDOF 5
ENDMDL
MODEL 2
REMARK VINA RESULT:    -2.855      1.471      2.059
REMARK INTER + INTRA:          -3.865
REMARK INTER:                  -3.558
REMARK INTRA:                  -0.307
REMARK UNBOUND:                -0.176
REMARK SMILES CCCCCCC(=O)[O-]
REMARK SMILES IDX 5 1 6 2 7 3 8 4 9 5 4 6 3 7 2 8 1 9
REMARK H PARENT
REMARK Flexibility Score: inf
ROOT
ATOM      1  C   UNL     1    -100.361 -27.712 -13.425  1.00  0.00     0.006 C 
ENDROOT
BRANCH   1   2
ATOM      2  C   UNL     1     -99.863 -28.973 -12.704  1.00  0.00     0.053 C 
BRANCH   2   3
ATOM      3  C   UNL     1     -98.759 -29.617 -13.480  1.00  0.00     0.041 C 
ATOM      4  O   UNL     1     -97.569 -29.537 -13.076  1.00  0.00    -0.550 OA
ATOM      5  O   UNL     1     -99.048 -30.350 -14.625  1.00  0.00    -0.550 OA
ENDBRANCH   2   3
ENDBRANCH   1   2
BRANCH   1   6
ATOM      6  C   UNL     1    -101.851 -27.805 -13.795  1.00  0.00     0.000 C 
BRANCH   6   7
ATOM      7  C   UNL     1    -102.178 -27.187 -15.173  1.00  0.00    -0.000 C 
BRANCH   7   8
ATOM      8  C   UNL     1    -101.763 -28.075 -16.358  1.00  0.00    -0.003 C 
ATOM      9  C   UNL     1    -102.177 -29.534 -16.180  1.00  0.00     0.004 C 
ENDBRANCH   7   8
ENDBRANCH   6   7
ENDBRANCH   1   6
TORSDOF 5
ENDMDL
MODEL 3
REMARK VINA RESULT:    -2.820      4.483      6.279
REMARK INTER + INTRA:          -3.820
REMARK INTER:                  -3.506
REMARK INTRA:                  -0.314
REMARK UNBOUND:                -0.176
REMARK SMILES CCCCCCC(=O)[O-]
REMARK SMILES IDX 5 1 6 2 7 3 8 4 9 5 4 6 3 7 2 8 1 9
REMARK H PARENT
REMARK Flexibility Score: inf
ROOT
ATOM      1  C   UNL     1    -103.282 -27.591 -16.356  1.00  0.00     0.006 C 
ENDROOT
BRANCH   1   2
ATOM      2  C   UNL     1    -103.495 -26.103 -16.668  1.00  0.00     0.053 C 
BRANCH   2   3
ATOM      3  C   UNL     1    -103.982 -25.379 -15.453  1.00  0.00     0.041 C 
ATOM      4  O   UNL     1    -104.345 -24.175 -15.535  1.00  0.00    -0.550 OA
ATOM      5  O   UNL     1    -104.084 -26.047 -14.239  1.00  0.00    -0.550 OA
ENDBRANCH   2   3
ENDBRANCH   1   2
BRANCH   1   6
ATOM      6  C   UNL     1    -101.791 -27.957 -16.262  1.00  0.00     0.000 C 
BRANCH   6   7
ATOM      7  C   UNL     1    -101.420 -28.673 -14.944  1.00  0.00    -0.000 C 
BRANCH   7   8
ATOM      8  C   UNL     1    -100.809 -27.737 -13.888  1.00  0.00    -0.003 C 
ATOM      9  C   UNL     1    -101.477 -27.870 -12.520  1.00  0.00     0.004 C 
ENDBRANCH   7   8
ENDBRANCH   6   7
ENDBRANCH   1   6
TORSDOF 5
ENDMDL
MODEL 4
REMARK VINA RESULT:    -2.786      1.509      2.354
REMARK INTER + INTRA:          -3.776
REMARK INTER:                  -3.557
REMARK INTRA:                  -0.218
REMARK UNBOUND:                -0.176
REMARK SMILES CCCCCCC(=O)[O-]
REMARK SMILES IDX 5 1 6 2 7 3 8 4 9 5 4 6 3 7 2 8 1 9
REMARK H PARENT
REMARK Flexibility Score: inf
ROOT
ATOM      1  C   UNL     1    -101.493 -28.434 -13.929  1.00  0.00     0.006 C 
ENDROOT
BRANCH   1   2
ATOM      2  C   UNL     1    -100.171 -27.956 -13.313  1.00  0.00     0.053 C 
BRANCH   2   3
ATOM      3  C   UNL     1     -99.329 -29.125 -12.913  1.00  0.00     0.041 C 
ATOM      4  O   UNL     1     -98.128 -29.199 -13.286  1.00  0.00    -0.550 OA
ATOM      5  O   UNL     1     -99.853 -30.111 -12.086  1.00  0.00    -0.550 OA
ENDBRANCH   2   3
ENDBRANCH   1   2
BRANCH   1   6
ATOM      6  C   UNL     1    -101.323 -28.889 -15.389  1.00  0.00     0.000 C 
BRANCH   6   7
ATOM      7  C   UNL     1    -102.053 -27.979 -16.401  1.00  0.00    -0.000 C 
BRANCH   7   8
ATOM      8  C   UNL     1    -102.738 -26.765 -15.753  1.00  0.00    -0.003 C 
ATOM      9  C   UNL     1    -103.581 -25.961 -16.741  1.00  0.00     0.004 C 
ENDBRANCH   7   8
ENDBRANCH   6   7
ENDBRANCH   1   6
TORSDOF 5
ENDMDL
MODEL 5
REMARK VINA RESULT:    -2.775      2.529      3.880
REMARK INTER + INTRA:          -3.762
REMARK INTER:                  -3.612
REMARK INTRA:                  -0.150
REMARK UNBOUND:                -0.176
REMARK SMILES CCCCCCC(=O)[O-]
REMARK SMILES IDX 5 1 6 2 7 3 8 4 9 5 4 6 3 7 2 8 1 9
REMARK H PARENT
REMARK Flexibility Score: inf
ROOT
ATOM      1  C   UNL     1    -102.076 -27.271 -14.835  1.00  0.00     0.006 C 
ENDROOT
BRANCH   1   2
ATOM      2  C   UNL     1    -101.111 -28.438 -14.582  1.00  0.00     0.053 C 
BRANCH   2   3
ATOM      3  C   UNL     1    -100.428 -28.275 -13.262  1.00  0.00     0.041 C 
ATOM      4  O   UNL     1    -101.054 -27.798 -12.279  1.00  0.00    -0.550 OA
ATOM      5  O   UNL     1     -99.114 -28.696 -13.102  1.00  0.00    -0.550 OA
ENDBRANCH   2   3
ENDBRANCH   1   2
BRANCH   1   6
ATOM      6  C   UNL     1    -102.538 -27.206 -16.301  1.00  0.00     0.000 C 
BRANCH   6   7
ATOM      7  C   UNL     1    -103.497 -26.030 -16.587  1.00  0.00    -0.000 C 
BRANCH   7   8
ATOM      8  C   UNL     1    -104.150 -25.448 -15.322  1.00  0.00    -0.003 C 
ATOM      9  C   UNL     1    -104.581 -23.992 -15.492  1.00  0.00     0.004 C 
ENDBRANCH   7   8
ENDBRANCH   6   7
ENDBRANCH   1   6
TORSDOF 5
ENDMDL
MODEL 6
REMARK VINA RESULT:    -2.771      4.525      6.060
REMARK INTER + INTRA:          -3.757
REMARK INTER:                  -3.546
REMARK INTRA:                  -0.211
REMARK UNBOUND:                -0.176
REMARK SMILES CCCCCCC(=O)[O-]
REMARK SMILES IDX 5 1 6 2 7 3 8 4 9 5 4 6 3 7 2 8 1 9
REMARK H PARENT
REMARK Flexibility Score: inf
ROOT
ATOM      1  C   UNL     1    -101.707 -27.561 -15.441  1.00  0.00     0.006 C 
ENDROOT
BRANCH   1   2
ATOM      2  C   UNL     1    -102.613 -27.966 -16.612  1.00  0.00     0.053 C 
BRANCH   2   3
ATOM      3  C   UNL     1    -103.733 -26.988 -16.769  1.00  0.00     0.041 C 
ATOM      4  O   UNL     1    -103.498 -25.751 -16.777  1.00  0.00    -0.550 OA
ATOM      5  O   UNL     1    -105.033 -27.442 -16.956  1.00  0.00    -0.550 OA
ENDBRANCH   2   3
ENDBRANCH   1   2
BRANCH   1   6
ATOM      6  C   UNL     1    -102.435 -27.641 -14.089  1.00  0.00     0.000 C 
BRANCH   6   7
ATOM      7  C   UNL     1    -101.494 -27.958 -12.905  1.00  0.00    -0.000 C 
BRANCH   7   8
ATOM      8  C   UNL     1    -100.003 -27.799 -13.248  1.00  0.00    -0.003 C 
ATOM      9  C   UNL     1     -99.199 -29.075 -13.003  1.00  0.00     0.004 C 
ENDBRANCH   7   8
ENDBRANCH   6   7
ENDBRANCH   1   6
TORSDOF 5
ENDMDL
MODEL 7
REMARK VINA RESULT:    -2.762      3.232      4.839
REMARK INTER + INTRA:          -3.745
REMARK INTER:                  -3.329
REMARK INTRA:                  -0.415
REMARK UNBOUND:                -0.176
REMARK SMILES CCCCCCC(=O)[O-]
REMARK SMILES IDX 5 1 6 2 7 3 8 4 9 5 4 6 3 7 2 8 1 9
REMARK H PARENT
REMARK Flexibility Score: inf
ROOT
ATOM      1  C   UNL     1    -101.978 -27.273 -15.375  1.00  0.00     0.006 C 
ENDROOT
BRANCH   1   2
ATOM      2  C   UNL     1    -102.401 -28.147 -16.564  1.00  0.00     0.053 C 
BRANCH   2   3
ATOM      3  C   UNL     1    -101.940 -29.556 -16.367  1.00  0.00     0.041 C 
ATOM      4  O   UNL     1    -102.773 -30.501 -16.366  1.00  0.00    -0.550 OA
ATOM      5  O   UNL     1    -100.585 -29.833 -16.234  1.00  0.00    -0.550 OA
ENDBRANCH   2   3
ENDBRANCH   1   2
BRANCH   1   6
ATOM      6  C   UNL     1    -102.650 -27.713 -14.063  1.00  0.00     0.000 C 
BRANCH   6   7
ATOM      7  C   UNL     1    -101.642 -28.031 -12.936  1.00  0.00    -0.000 C 
BRANCH   7   8
ATOM      8  C   UNL     1    -100.178 -27.781 -13.334  1.00  0.00    -0.003 C 
ATOM      9  C   UNL     1     -99.279 -28.990 -13.078  1.00  0.00     0.004 C 
ENDBRANCH   7   8
ENDBRANCH   6   7
ENDBRANCH   1   6
TORSDOF 5
ENDMDL
MODEL 8
REMARK VINA RESULT:    -2.730      3.571      5.532
REMARK INTER + INTRA:          -3.703
REMARK INTER:                  -3.624
REMARK INTRA:                  -0.079
REMARK UNBOUND:                -0.176
REMARK SMILES CCCCCCC(=O)[O-]
REMARK SMILES IDX 5 1 6 2 7 3 8 4 9 5 4 6 3 7 2 8 1 9
REMARK H PARENT
REMARK Flexibility Score: inf
ROOT
ATOM      1  C   UNL     1    -100.475 -27.630 -13.753  1.00  0.00     0.006 C 
ENDROOT
BRANCH   1   2
ATOM      2  C   UNL     1    -101.975 -27.700 -14.073  1.00  0.00     0.053 C 
BRANCH   2   3
ATOM      3  C   UNL     1    -102.225 -27.293 -15.490  1.00  0.00     0.041 C 
ATOM      4  O   UNL     1    -101.655 -27.900 -16.435  1.00  0.00    -0.550 OA
ATOM      5  O   UNL     1    -103.128 -26.275 -15.773  1.00  0.00    -0.550 OA
ENDBRANCH   2   3
ENDBRANCH   1   2
BRANCH   1   6
ATOM      6  C   UNL     1    -100.008 -28.818 -12.895  1.00  0.00     0.000 C 
BRANCH   6   7
ATOM      7  C   UNL     1     -98.511 -29.152 -13.077  1.00  0.00    -0.000 C 
BRANCH   7   8
ATOM      8  C   UNL     1     -97.900 -29.904 -11.883  1.00  0.00    -0.003 C 
ATOM      9  C   UNL     1     -96.378 -30.007 -11.962  1.00  0.00     0.004 C 
ENDBRANCH   7   8
ENDBRANCH   6   7
ENDBRANCH   1   6
TORSDOF 5
ENDMDL
MODEL 9
REMARK VINA RESULT:    -2.710      3.931      5.619
REMARK INTER + INTRA:          -3.677
REMARK INTER:                  -3.340
REMARK INTRA:                  -0.338
REMARK UNBOUND:                -0.176
REMARK SMILES CCCCCCC(=O)[O-]
REMARK SMILES IDX 5 1 6 2 7 3 8 4 9 5 4 6 3 7 2 8 1 9
REMARK H PARENT
REMARK Flexibility Score: inf
ROOT
ATOM      1  C   UNL     1    -103.118 -26.245 -16.770  1.00  0.00     0.006 C 
ENDROOT
BRANCH   1   2
ATOM      2  C   UNL     1    -102.455 -27.542 -16.284  1.00  0.00     0.053 C 
BRANCH   2   3
ATOM      3  C   UNL     1    -102.155 -27.459 -14.822  1.00  0.00     0.041 C 
ATOM      4  O   UNL     1    -100.962 -27.459 -14.417  1.00  0.00    -0.550 OA
ATOM      5  O   UNL     1    -103.191 -27.333 -13.905  1.00  0.00    -0.550 OA
ENDBRANCH   2   3
ENDBRANCH   1   2
BRANCH   1   6
ATOM      6  C   UNL     1    -104.632 -26.412 -16.985  1.00  0.00     0.000 C 
BRANCH   6   7
ATOM      7  C   UNL     1    -105.470 -25.304 -16.310  1.00  0.00    -0.000 C 
BRANCH   7   8
ATOM      8  C   UNL     1    -104.621 -24.244 -15.589  1.00  0.00    -0.003 C 
ATOM      9  C   UNL     1    -104.789 -24.281 -14.071  1.00  0.00     0.004 C 
ENDBRANCH   7   8
ENDBRANCH   6   7
ENDBRANCH   1   6
TORSDOF 5
ENDMDL
