MODEL 1
REMARK VINA RESULT:    -3.120      0.000      0.000
REMARK INTER + INTRA:          -3.793
REMARK INTER:                  -3.667
REMARK INTRA:                  -0.126
REMARK UNBOUND:                -0.126
REMARK SMILES O=C([O-])CCC(=O)[O-]
REMARK SMILES IDX 4 1 2 2 1 3 3 4 5 5 6 6 7 7 8 8
REMARK H PARENT
REMARK Flexibility Score: inf
ROOT
ATOM      1  C   UNL     1     150.780 149.416 137.036  1.00  0.00     0.059 C 
ENDROOT
BRANCH   1   2
ATOM      2  C   UNL     1     150.419 150.572 136.156  1.00  0.00     0.042 C 
ATOM      3  O   UNL     1     150.426 151.744 136.617  1.00  0.00    -0.550 OA
ATOM      4  O   UNL     1     150.027 150.350 134.843  1.00  0.00    -0.550 OA
ENDBRANCH   1   2
BRANCH   1   5
ATOM      5  C   UNL     1     151.642 148.411 136.271  1.00  0.00     0.059 C 
BRANCH   5   6
ATOM      6  C   UNL     1     153.079 148.826 136.301  1.00  0.00     0.042 C 
ATOM      7  O   UNL     1     153.600 149.230 137.374  1.00  0.00    -0.550 OA
ATOM      8  O   UNL     1     153.858 148.719 135.156  1.00  0.00    -0.550 OA
ENDBRANCH   5   6
ENDBRANCH   1   5
TORSDOF 3
ENDMDL
MODEL 2
REMARK VINA RESULT:    -3.115      0.106      3.456
REMARK INTER + INTRA:          -3.787
REMARK INTER:                  -3.676
REMARK INTRA:                  -0.110
REMARK UNBOUND:                -0.126
REMARK SMILES O=C([O-])CCC(=O)[O-]
REMARK SMILES IDX 4 1 2 2 1 3 3 4 5 5 6 6 7 7 8 8
REMARK H PARENT
REMARK Flexibility Score: inf
ROOT
ATOM      1  C   UNL     1     151.729 148.453 136.133  1.00  0.00     0.059 C 
ENDROOT
BRANCH   1   2
ATOM      2  C   UNL     1     153.179 148.810 136.234  1.00  0.00     0.042 C 
ATOM      3  O   UNL     1     153.649 149.249 137.317  1.00  0.00    -0.550 OA
ATOM      4  O   UNL     1     154.001 148.705 135.120  1.00  0.00    -0.550 OA
ENDBRANCH   1   2
BRANCH   1   5
ATOM      5  C   UNL     1     150.885 149.399 136.988  1.00  0.00     0.059 C 
BRANCH   5   6
ATOM      6  C   UNL     1     150.421 150.566 136.175  1.00  0.00     0.042 C 
ATOM      7  O   UNL     1     150.425 151.724 136.670  1.00  0.00    -0.550 OA
ATOM      8  O   UNL     1     150.031 150.382 134.854  1.00  0.00    -0.550 OA
ENDBRANCH   5   6
ENDBRANCH   1   5
TORSDOF 3
ENDMDL
MODEL 3
REMARK VINA RESULT:    -2.895      2.052      4.283
REMARK INTER + INTRA:          -3.529
REMARK INTER:                  -3.494
REMARK INTRA:                  -0.035
REMARK UNBOUND:                -0.126
REMARK SMILES O=C([O-])CCC(=O)[O-]
REMARK SMILES IDX 4 1 2 2 1 3 3 4 5 5 6 6 7 7 8 8
REMARK H PARENT
REMARK Flexibility Score: inf
ROOT
ATOM      1  C   UNL     1     154.249 148.826 136.010  1.00  0.00     0.059 C 
ENDROOT
BRANCH   1   2
ATOM      2  C   UNL     1     155.218 148.566 134.900  1.00  0.00     0.042 C 
ATOM      3  O   UNL     1     154.805 148.428 133.718  1.00  0.00    -0.550 OA
ATOM      4  O   UNL     1     156.572 148.426 135.177  1.00  0.00    -0.550 OA
ENDBRANCH   1   2
BRANCH   1   5
ATOM      5  C   UNL     1     152.811 148.676 135.510  1.00  0.00     0.059 C 
BRANCH   5   6
ATOM      6  C   UNL     1     151.867 148.551 136.664  1.00  0.00     0.042 C 
ATOM      7  O   UNL     1     151.688 149.523 137.444  1.00  0.00    -0.550 OA
ATOM      8  O   UNL     1     151.147 147.377 136.850  1.00  0.00    -0.550 OA
ENDBRANCH   5   6
ENDBRANCH   1   5
TORSDOF 3
ENDMDL
MODEL 4
REMARK VINA RESULT:    -2.872      1.233      3.636
REMARK INTER + INTRA:          -3.501
REMARK INTER:                  -3.416
REMARK INTRA:                  -0.086
REMARK UNBOUND:                -0.126
REMARK SMILES O=C([O-])CCC(=O)[O-]
REMARK SMILES IDX 4 1 2 2 1 3 3 4 5 5 6 6 7 7 8 8
REMARK H PARENT
REMARK Flexibility Score: inf
ROOT
ATOM      1  C   UNL     1     152.415 149.134 136.911  1.00  0.00     0.059 C 
ENDROOT
BRANCH   1   2
ATOM      2  C   UNL     1     152.800 148.578 135.576  1.00  0.00     0.042 C 
ATOM      3  O   UNL     1     153.975 148.721 135.145  1.00  0.00    -0.550 OA
ATOM      4  O   UNL     1     151.849 147.945 134.786  1.00  0.00    -0.550 OA
ENDBRANCH   1   2
BRANCH   1   5
ATOM      5  C   UNL     1     150.893 149.218 137.037  1.00  0.00     0.059 C 
BRANCH   5   6
ATOM      6  C   UNL     1     150.459 150.640 137.199  1.00  0.00     0.042 C 
ATOM      7  O   UNL     1     150.437 151.413 136.204  1.00  0.00    -0.550 OA
ATOM      8  O   UNL     1     150.030 151.100 138.438  1.00  0.00    -0.550 OA
ENDBRANCH   5   6
ENDBRANCH   1   5
TORSDOF 3
ENDMDL
MODEL 5
REMARK VINA RESULT:    -2.856      2.005      2.957
REMARK INTER + INTRA:          -3.483
REMARK INTER:                  -3.451
REMARK INTRA:                  -0.032
REMARK UNBOUND:                -0.126
REMARK SMILES O=C([O-])CCC(=O)[O-]
REMARK SMILES IDX 4 1 2 2 1 3 3 4 5 5 6 6 7 7 8 8
REMARK H PARENT
REMARK Flexibility Score: inf
ROOT
ATOM      1  C   UNL     1     152.740 148.717 135.507  1.00  0.00     0.059 C 
ENDROOT
BRANCH   1   2
ATOM      2  C   UNL     1     151.760 148.534 136.623  1.00  0.00     0.042 C 
ATOM      3  O   UNL     1     151.248 147.404 136.837  1.00  0.00    -0.550 OA
ATOM      4  O   UNL     1     151.374 149.623 137.395  1.00  0.00    -0.550 OA
ENDBRANCH   1   2
BRANCH   1   5
ATOM      5  C   UNL     1     154.162 148.830 136.057  1.00  0.00     0.059 C 
BRANCH   5   6
ATOM      6  C   UNL     1     155.163 148.530 134.986  1.00  0.00     0.042 C 
ATOM      7  O   UNL     1     156.367 148.313 135.287  1.00  0.00    -0.550 OA
ATOM      8  O   UNL     1     154.757 148.441 133.661  1.00  0.00    -0.550 OA
ENDBRANCH   5   6
ENDBRANCH   1   5
TORSDOF 3
ENDMDL
MODEL 6
REMARK VINA RESULT:    -2.830      2.030      2.229
REMARK INTER + INTRA:          -3.453
REMARK INTER:                  -3.340
REMARK INTRA:                  -0.113
REMARK UNBOUND:                -0.126
REMARK SMILES O=C([O-])CCC(=O)[O-]
REMARK SMILES IDX 4 1 2 2 1 3 3 4 5 5 6 6 7 7 8 8
REMARK H PARENT
REMARK Flexibility Score: inf
ROOT
ATOM      1  C   UNL     1     151.953 149.482 137.145  1.00  0.00     0.059 C 
ENDROOT
BRANCH   1   2
ATOM      2  C   UNL     1     150.680 150.244 136.944  1.00  0.00     0.042 C 
ATOM      3  O   UNL     1     150.673 151.293 136.247  1.00  0.00    -0.550 OA
ATOM      4  O   UNL     1     149.513 149.823 137.568  1.00  0.00    -0.550 OA
ENDBRANCH   1   2
BRANCH   1   5
ATOM      5  C   UNL     1     152.346 148.750 135.860  1.00  0.00     0.059 C 
BRANCH   5   6
ATOM      6  C   UNL     1     151.420 147.602 135.608  1.00  0.00     0.042 C 
ATOM      7  O   UNL     1     150.993 146.910 136.570  1.00  0.00    -0.550 OA
ATOM      8  O   UNL     1     150.989 147.327 134.317  1.00  0.00    -0.550 OA
ENDBRANCH   5   6
ENDBRANCH   1   5
TORSDOF 3
ENDMDL
MODEL 7
REMARK VINA RESULT:    -2.546      8.999      9.221
REMARK INTER + INTRA:          -3.118
REMARK INTER:                  -3.075
REMARK INTRA:                  -0.043
REMARK UNBOUND:                -0.126
REMARK SMILES O=C([O-])CCC(=O)[O-]
REMARK SMILES IDX 4 1 2 2 1 3 3 4 5 5 6 6 7 7 8 8
REMARK H PARENT
REMARK Flexibility Score: inf
ROOT
ATOM      1  C   UNL     1     147.927 153.508 129.026  1.00  0.00     0.059 C 
ENDROOT
BRANCH   1   2
ATOM      2  C   UNL     1     147.290 154.758 129.545  1.00  0.00     0.042 C 
ATOM      3  O   UNL     1     147.743 155.885 129.212  1.00  0.00    -0.550 OA
ATOM      4  O   UNL     1     146.227 154.679 130.436  1.00  0.00    -0.550 OA
ENDBRANCH   1   2
BRANCH   1   5
ATOM      5  C   UNL     1     149.439 153.697 128.886  1.00  0.00     0.059 C 
BRANCH   5   6
ATOM      6  C   UNL     1     150.000 152.711 127.910  1.00  0.00     0.042 C 
ATOM      7  O   UNL     1     149.398 151.628 127.686  1.00  0.00    -0.550 OA
ATOM      8  O   UNL     1     151.163 153.009 127.212  1.00  0.00    -0.550 OA
ENDBRANCH   5   6
ENDBRANCH   1   5
TORSDOF 3
ENDMDL
MODEL 8
REMARK VINA RESULT:    -2.543      7.052      8.285
REMARK INTER + INTRA:          -3.115
REMARK INTER:                  -3.085
REMARK INTRA:                  -0.029
REMARK UNBOUND:                -0.126
REMARK SMILES O=C([O-])CCC(=O)[O-]
REMARK SMILES IDX 4 1 2 2 1 3 3 4 5 5 6 6 7 7 8 8
REMARK H PARENT
REMARK Flexibility Score: inf
ROOT
ATOM      1  C   UNL     1     148.273 152.606 129.145  1.00  0.00     0.059 C 
ENDROOT
BRANCH   1   2
ATOM      2  C   UNL     1     149.330 153.620 128.841  1.00  0.00     0.042 C 
ATOM      3  O   UNL     1     149.202 154.808 129.239  1.00  0.00    -0.550 OA
ATOM      4  O   UNL     1     150.434 153.266 128.075  1.00  0.00    -0.550 OA
ENDBRANCH   1   2
BRANCH   1   5
ATOM      5  C   UNL     1     148.876 151.408 129.879  1.00  0.00     0.059 C 
BRANCH   5   6
ATOM      6  C   UNL     1     147.816 150.402 130.199  1.00  0.00     0.042 C 
ATOM      7  O   UNL     1     147.107 149.914 129.279  1.00  0.00    -0.550 OA
ATOM      8  O   UNL     1     147.643 149.966 131.506  1.00  0.00    -0.550 OA
ENDBRANCH   5   6
ENDBRANCH   1   5
TORSDOF 3
ENDMDL
MODEL 9
REMARK VINA RESULT:    -2.537      8.981      9.789
REMARK INTER + INTRA:          -3.107
REMARK INTER:                  -3.075
REMARK INTRA:                  -0.033
REMARK UNBOUND:                -0.126
REMARK SMILES O=C([O-])CCC(=O)[O-]
REMARK SMILES IDX 4 1 2 2 1 3 3 4 5 5 6 6 7 7 8 8
REMARK H PARENT
REMARK Flexibility Score: inf
ROOT
ATOM      1  C   UNL     1     149.509 153.666 128.833  1.00  0.00     0.059 C 
ENDROOT
BRANCH   1   2
ATOM      2  C   UNL     1     150.107 152.699 127.861  1.00  0.00     0.042 C 
ATOM      3  O   UNL     1     151.155 153.001 127.231  1.00  0.00    -0.550 OA
ATOM      4  O   UNL     1     149.481 151.483 127.615  1.00  0.00    -0.550 OA
ENDBRANCH   1   2
BRANCH   1   5
ATOM      5  C   UNL     1     147.982 153.576 128.805  1.00  0.00     0.059 C 
BRANCH   5   6
ATOM      6  C   UNL     1     147.376 154.747 129.514  1.00  0.00     0.042 C 
ATOM      7  O   UNL     1     146.449 154.572 130.348  1.00  0.00    -0.550 OA
ATOM      8  O   UNL     1     147.869 156.026 129.290  1.00  0.00    -0.550 OA
ENDBRANCH   5   6
ENDBRANCH   1   5
TORSDOF 3
ENDMDL
