MODEL 1
REMARK VINA RESULT:    17.647      0.000      0.000
REMARK INTER + INTRA:          19.954
REMARK INTER:                  19.195
REMARK INTRA:                   0.759
REMARK UNBOUND:                 0.759
REMARK SMILES CC1(C)CC[C@]2(C(=O)[O-])CC[C@@]3(C)C(=CC[C@H]4[C@]5(C)CC[C@H](O)C(C)(C)[C@H]5CC[C@@]43C)[C@H]2C1
REMARK SMILES IDX 6 1 5 2 10 3 32 4 4 5 11 6 14 7 33 8 2 9 12 10 15 11 1 12
REMARK SMILES IDX 3 13 13 14 30 15 16 16 17 17 29 18 31 19 18 20 28 21 27 22
REMARK SMILES IDX 20 23 19 24 24 25 21 26 22 27 25 28 26 29 7 30 8 31 9 32
REMARK SMILES IDX 23 33
REMARK H PARENT 23 34
REMARK Flexibility Score: inf
ROOT
ATOM      1  C   UNL     1     -18.526   0.265  24.210  1.00  0.00     0.017 C 
ATOM      2  C   UNL     1     -16.994   0.450  24.499  1.00  0.00     0.014 C 
ATOM      3  C   UNL     1     -19.218   1.655  23.970  1.00  0.00     0.014 C 
ATOM      4  C   UNL     1     -19.243  -0.423  25.417  1.00  0.00     0.028 C 
ATOM      5  C   UNL     1     -16.635   0.343  25.985  1.00  0.00     0.007 C 
ATOM      6  C   UNL     1     -20.687   1.778  24.480  1.00  0.00     0.013 C 
ATOM      7  C   UNL     1     -20.701  -0.709  25.056  1.00  0.00    -0.064 C 
ATOM      8  C   UNL     1     -18.394  -1.568  26.014  1.00  0.00     0.015 C 
ATOM      9  C   UNL     1     -17.035  -1.041  26.593  1.00  0.00    -0.035 C 
ATOM     10  C   UNL     1     -21.522   0.446  24.471  1.00  0.00    -0.006 C 
ATOM     11  C   UNL     1     -21.314  -1.879  25.365  1.00  0.00    -0.027 C 
ATOM     12  C   UNL     1     -17.154  -0.875  28.125  1.00  0.00     0.011 C 
ATOM     13  C   UNL     1     -15.925  -2.077  26.309  1.00  0.00     0.011 C 
ATOM     14  C   UNL     1     -21.798   0.112  22.962  1.00  0.00     0.017 C 
ATOM     15  C   UNL     1     -22.865   0.545  25.348  1.00  0.00    -0.020 C 
ATOM     16  C   UNL     1     -22.821  -2.076  25.352  1.00  0.00     0.032 C 
ATOM     17  C   UNL     1     -23.675  -0.789  25.099  1.00  0.00     0.006 C 
ATOM     18  C   UNL     1     -23.733   1.780  24.940  1.00  0.00     0.008 C 
ATOM     19  C   UNL     1     -22.510   0.706  26.869  1.00  0.00     0.012 C 
ATOM     20  C   UNL     1     -25.155  -0.834  25.671  1.00  0.00    -0.025 C 
ATOM     21  C   UNL     1     -25.172   1.751  25.489  1.00  0.00     0.005 C 
ATOM     22  C   UNL     1     -25.901   0.436  25.103  1.00  0.00     0.003 C 
ATOM     23  C   UNL     1     -25.863  -2.105  25.100  1.00  0.00     0.010 C 
ATOM     24  C   UNL     1     -25.167  -0.918  27.234  1.00  0.00     0.012 C 
ATOM     25  C   UNL     1     -27.472   0.457  25.294  1.00  0.00    -0.006 C 
ATOM     26  C   UNL     1     -27.384  -2.124  25.322  1.00  0.00     0.033 C 
ATOM     27  C   UNL     1     -28.072  -0.877  24.741  1.00  0.00     0.120 C 
ATOM     28  C   UNL     1     -28.095   1.625  24.480  1.00  0.00     0.014 C 
ATOM     29  C   UNL     1     -27.911   0.666  26.765  1.00  0.00     0.014 C 
ENDROOT
BRANCH   1  30
ATOM     30  C   UNL     1     -18.615  -0.567  22.928  1.00  0.00     0.048 C 
ATOM     31  O   UNL     1     -19.419  -0.272  22.003  1.00  0.00    -0.550 OA
ATOM     32  O   UNL     1     -17.844  -1.717  22.798  1.00  0.00    -0.550 OA
ENDBRANCH   1  30
BRANCH  27  33
ATOM     33  O   UNL     1     -27.969  -0.911  23.337  1.00  0.00    -0.393 OA
ATOM     34  H   UNL     1     -27.002  -0.893  23.113  1.00  0.00     0.210 HD
ENDBRANCH  27  33
TORSDOF 2
ENDMDL
MODEL 2
REMARK VINA RESULT:    18.477      3.026      8.798
REMARK INTER + INTRA:          20.856
REMARK INTER:                  19.936
REMARK INTRA:                   0.920
REMARK UNBOUND:                 0.759
REMARK SMILES CC1(C)CC[C@]2(C(=O)[O-])CC[C@@]3(C)C(=CC[C@H]4[C@]5(C)CC[C@H](O)C(C)(C)[C@H]5CC[C@@]43C)[C@H]2C1
REMARK SMILES IDX 6 1 5 2 10 3 32 4 4 5 11 6 14 7 33 8 2 9 12 10 15 11 1 12
REMARK SMILES IDX 3 13 13 14 30 15 16 16 17 17 29 18 31 19 18 20 28 21 27 22
REMARK SMILES IDX 20 23 19 24 24 25 21 26 22 27 25 28 26 29 7 30 8 31 9 32
REMARK SMILES IDX 23 33
REMARK H PARENT 23 34
REMARK Flexibility Score: inf
ROOT
ATOM      1  C   UNL     1     -21.133  -1.440  25.604  1.00  0.00     0.017 C 
ATOM      2  C   UNL     1     -22.528  -2.125  25.826  1.00  0.00     0.014 C 
ATOM      3  C   UNL     1     -20.060  -2.034  26.587  1.00  0.00     0.014 C 
ATOM      4  C   UNL     1     -21.217   0.099  25.864  1.00  0.00     0.028 C 
ATOM      5  C   UNL     1     -23.504  -1.270  26.641  1.00  0.00     0.007 C 
ATOM      6  C   UNL     1     -18.979  -1.032  27.096  1.00  0.00     0.013 C 
ATOM      7  C   UNL     1     -19.882   0.755  25.512  1.00  0.00    -0.064 C 
ATOM      8  C   UNL     1     -22.513   0.710  25.283  1.00  0.00     0.015 C 
ATOM      9  C   UNL     1     -23.793   0.109  25.965  1.00  0.00    -0.035 C 
ATOM     10  C   UNL     1     -18.613   0.133  26.105  1.00  0.00    -0.006 C 
ATOM     11  C   UNL     1     -19.800   1.925  24.830  1.00  0.00    -0.027 C 
ATOM     12  C   UNL     1     -24.303   1.080  27.053  1.00  0.00     0.011 C 
ATOM     13  C   UNL     1     -24.905  -0.050  24.905  1.00  0.00     0.011 C 
ATOM     14  C   UNL     1     -17.817  -0.530  24.926  1.00  0.00     0.017 C 
ATOM     15  C   UNL     1     -17.805   1.327  26.816  1.00  0.00    -0.020 C 
ATOM     16  C   UNL     1     -18.548   2.784  24.768  1.00  0.00     0.032 C 
ATOM     17  C   UNL     1     -17.358   2.322  25.673  1.00  0.00     0.006 C 
ATOM     18  C   UNL     1     -16.550   0.799  27.585  1.00  0.00     0.008 C 
ATOM     19  C   UNL     1     -18.722   2.055  27.862  1.00  0.00     0.012 C 
ATOM     20  C   UNL     1     -16.339   3.466  26.090  1.00  0.00    -0.025 C 
ATOM     21  C   UNL     1     -15.552   1.898  27.998  1.00  0.00     0.005 C 
ATOM     22  C   UNL     1     -15.111   2.752  26.780  1.00  0.00     0.003 C 
ATOM     23  C   UNL     1     -15.824   4.163  24.790  1.00  0.00     0.010 C 
ATOM     24  C   UNL     1     -17.023   4.544  26.996  1.00  0.00     0.012 C 
ATOM     25  C   UNL     1     -13.833   3.654  27.018  1.00  0.00    -0.006 C 
ATOM     26  C   UNL     1     -14.613   5.084  25.013  1.00  0.00     0.033 C 
ATOM     27  C   UNL     1     -13.437   4.345  25.672  1.00  0.00     0.120 C 
ATOM     28  C   UNL     1     -12.632   2.775  27.467  1.00  0.00     0.014 C 
ATOM     29  C   UNL     1     -14.030   4.722  28.124  1.00  0.00     0.014 C 
ENDROOT
BRANCH   1  30
ATOM     30  C   UNL     1     -20.729  -1.768  24.164  1.00  0.00     0.048 C 
ATOM     31  O   UNL     1     -19.538  -2.045  23.859  1.00  0.00    -0.550 OA
ATOM     32  O   UNL     1     -21.676  -1.695  23.149  1.00  0.00    -0.550 OA
ENDBRANCH   1  30
BRANCH  27  33
ATOM     33  O   UNL     1     -12.931   3.391  24.767  1.00  0.00    -0.393 OA
ATOM     34  H   UNL     1     -13.656   2.734  24.599  1.00  0.00     0.210 HD
ENDBRANCH  27  33
TORSDOF 2
ENDMDL
