MODEL 1
REMARK VINA RESULT:    -6.094      0.000      0.000
REMARK INTER + INTRA:          -6.094
REMARK INTER:                  -6.094
REMARK INTRA:                   0.000
REMARK UNBOUND:                 0.000
REMARK SMILES C[NH+]1CCN(C2=[NH+]c3ccccc3Oc3ccc(Cl)cc32)CC1
REMARK SMILES IDX 7 1 6 2 21 3 5 4 8 5 9 6 13 7 10 8 12 9 14 10 11 11 15 12
REMARK SMILES IDX 16 13 17 14 18 15 20 16 19 17 4 18 22 19 3 20 23 21 2 22
REMARK SMILES IDX 1 23
REMARK H PARENT 7 24 2 25
REMARK Flexibility Score: inf
ROOT
ATOM      1  N   UNL     1      99.739 119.491  95.566  1.00  0.00    -0.237 N 
ATOM      2  C   UNL     1      99.514 120.777  95.648  1.00  0.00     0.286 C 
ATOM      3  C   UNL     1     100.541 121.812  95.357  1.00  0.00     0.108 A 
ATOM      4  N   UNL     1      98.189 121.230  95.993  1.00  0.00    -0.250 N 
ATOM      5  C   UNL     1     100.966 118.837  95.201  1.00  0.00     0.168 A 
ATOM      6  C   UNL     1     100.887 117.604  94.529  1.00  0.00     0.056 A 
ATOM      7  C   UNL     1     102.223 119.284  95.657  1.00  0.00     0.173 A 
ATOM      8  C   UNL     1     102.031 116.836  94.307  1.00  0.00     0.005 A 
ATOM      9  C   UNL     1     103.360 118.489  95.459  1.00  0.00     0.052 A 
ATOM     10  O   UNL     1     102.388 120.505  96.304  1.00  0.00    -0.452 OA
ATOM     11  C   UNL     1     103.267 117.275  94.778  1.00  0.00     0.004 A 
ATOM     12  C   UNL     1     101.878 121.692  95.786  1.00  0.00     0.143 A 
ATOM     13  C   UNL     1     102.746 122.787  95.687  1.00  0.00     0.049 A 
ATOM     14  C   UNL     1     102.315 123.984  95.114  1.00  0.00     0.024 A 
ATOM     15  C   UNL     1     101.007 124.100  94.645  1.00  0.00     0.042 A 
ATOM     16  C   UNL     1     100.124 123.023  94.772  1.00  0.00     0.041 A 
ATOM     17  Cl  UNL     1     100.462 125.602  93.923  1.00  0.00    -0.084 Cl
ATOM     18  C   UNL     1      97.009 120.671  95.329  1.00  0.00     0.298 C 
ATOM     19  C   UNL     1      97.987 122.044  97.194  1.00  0.00     0.298 C 
ATOM     20  C   UNL     1      95.965 121.772  95.119  1.00  0.00     0.308 C 
ATOM     21  C   UNL     1      96.911 123.103  96.926  1.00  0.00     0.308 C 
ATOM     22  N   UNL     1      95.681 122.483  96.385  1.00  0.00    -0.331 N 
ATOM     23  C   UNL     1      94.652 123.512  96.166  1.00  0.00     0.332 C 
ATOM     24  H   UNL     1      98.932 118.851  95.748  1.00  0.00     0.312 HD
ATOM     25  H   UNL     1      95.305 121.798  97.084  1.00  0.00     0.348 HD
ENDROOT
TORSDOF 0
ENDMDL
MODEL 2
REMARK VINA RESULT:    -6.006      2.977      4.429
REMARK INTER + INTRA:          -6.006
REMARK INTER:                  -6.006
REMARK INTRA:                   0.000
REMARK UNBOUND:                 0.000
REMARK SMILES C[NH+]1CCN(C2=[NH+]c3ccccc3Oc3ccc(Cl)cc32)CC1
REMARK SMILES IDX 7 1 6 2 21 3 5 4 8 5 9 6 13 7 10 8 12 9 14 10 11 11 15 12
REMARK SMILES IDX 16 13 17 14 18 15 20 16 19 17 4 18 22 19 3 20 23 21 2 22
REMARK SMILES IDX 1 23
REMARK H PARENT 7 24 2 25
REMARK Flexibility Score: inf
ROOT
ATOM      1  N   UNL     1     101.875 120.002  94.965  1.00  0.00    -0.237 N 
ATOM      2  C   UNL     1     101.087 120.710  95.732  1.00  0.00     0.286 C 
ATOM      3  C   UNL     1     100.257 120.129  96.820  1.00  0.00     0.108 A 
ATOM      4  N   UNL     1     101.047 122.141  95.554  1.00  0.00    -0.250 N 
ATOM      5  C   UNL     1     102.092 118.581  95.005  1.00  0.00     0.168 A 
ATOM      6  C   UNL     1     103.360 118.092  94.643  1.00  0.00     0.056 A 
ATOM      7  C   UNL     1     101.040 117.663  95.202  1.00  0.00     0.173 A 
ATOM      8  C   UNL     1     103.582 116.723  94.489  1.00  0.00     0.005 A 
ATOM      9  C   UNL     1     101.264 116.293  95.011  1.00  0.00     0.052 A 
ATOM     10  O   UNL     1      99.765 118.066  95.589  1.00  0.00    -0.452 OA
ATOM     11  C   UNL     1     102.531 115.823  94.665  1.00  0.00     0.004 A 
ATOM     12  C   UNL     1      99.554 118.918  96.669  1.00  0.00     0.143 A 
ATOM     13  C   UNL     1      98.613 118.530  97.632  1.00  0.00     0.049 A 
ATOM     14  C   UNL     1      98.404 119.306  98.772  1.00  0.00     0.024 A 
ATOM     15  C   UNL     1      99.127 120.484  98.954  1.00  0.00     0.042 A 
ATOM     16  C   UNL     1     100.043 120.897  97.982  1.00  0.00     0.041 A 
ATOM     17  Cl  UNL     1      98.868 121.462 100.387  1.00  0.00    -0.084 Cl
ATOM     18  C   UNL     1     102.284 122.917  95.445  1.00  0.00     0.298 C 
ATOM     19  C   UNL     1      99.785 122.797  95.205  1.00  0.00     0.298 C 
ATOM     20  C   UNL     1     102.112 124.266  96.151  1.00  0.00     0.308 C 
ATOM     21  C   UNL     1      99.691 124.151  95.918  1.00  0.00     0.308 C 
ATOM     22  N   UNL     1     100.900 124.965  95.671  1.00  0.00    -0.331 N 
ATOM     23  C   UNL     1     100.773 126.271  96.338  1.00  0.00     0.332 C 
ATOM     24  H   UNL     1     102.450 120.519  94.260  1.00  0.00     0.312 HD
ATOM     25  H   UNL     1     100.992 125.140  94.641  1.00  0.00     0.348 HD
ENDROOT
TORSDOF 0
ENDMDL
MODEL 3
REMARK VINA RESULT:    -5.992      2.656      3.283
REMARK INTER + INTRA:          -5.992
REMARK INTER:                  -5.992
REMARK INTRA:                   0.000
REMARK UNBOUND:                 0.000
REMARK SMILES C[NH+]1CCN(C2=[NH+]c3ccccc3Oc3ccc(Cl)cc32)CC1
REMARK SMILES IDX 7 1 6 2 21 3 5 4 8 5 9 6 13 7 10 8 12 9 14 10 11 11 15 12
REMARK SMILES IDX 16 13 17 14 18 15 20 16 19 17 4 18 22 19 3 20 23 21 2 22
REMARK SMILES IDX 1 23
REMARK H PARENT 7 24 2 25
REMARK Flexibility Score: inf
ROOT
ATOM      1  N   UNL     1     100.450 116.765  94.830  1.00  0.00    -0.237 N 
ATOM      2  C   UNL     1     100.123 117.810  95.545  1.00  0.00     0.286 C 
ATOM      3  C   UNL     1     100.944 119.048  95.616  1.00  0.00     0.108 A 
ATOM      4  N   UNL     1      98.877 117.793  96.271  1.00  0.00    -0.250 N 
ATOM      5  C   UNL     1     101.617 116.596  94.007  1.00  0.00     0.168 A 
ATOM      6  C   UNL     1     101.508 115.797  92.855  1.00  0.00     0.056 A 
ATOM      7  C   UNL     1     102.895 117.036  94.411  1.00  0.00     0.173 A 
ATOM      8  C   UNL     1     102.639 115.449  92.115  1.00  0.00     0.005 A 
ATOM      9  C   UNL     1     104.028 116.652  93.680  1.00  0.00     0.052 A 
ATOM     10  O   UNL     1     103.083 117.852  95.521  1.00  0.00    -0.452 OA
ATOM     11  C   UNL     1     103.901 115.870  92.532  1.00  0.00     0.004 A 
ATOM     12  C   UNL     1     102.349 119.019  95.716  1.00  0.00     0.143 A 
ATOM     13  C   UNL     1     103.054 120.193  96.007  1.00  0.00     0.049 A 
ATOM     14  C   UNL     1     102.383 121.408  96.146  1.00  0.00     0.024 A 
ATOM     15  C   UNL     1     100.997 121.457  96.005  1.00  0.00     0.042 A 
ATOM     16  C   UNL     1     100.281 120.284  95.748  1.00  0.00     0.041 A 
ATOM     17  Cl  UNL     1     100.149 122.983  96.177  1.00  0.00    -0.084 Cl
ATOM     18  C   UNL     1      97.637 117.362  95.621  1.00  0.00     0.298 C 
ATOM     19  C   UNL     1      98.881 117.937  97.728  1.00  0.00     0.298 C 
ATOM     20  C   UNL     1      96.467 118.212  96.127  1.00  0.00     0.308 C 
ATOM     21  C   UNL     1      97.671 118.768  98.169  1.00  0.00     0.308 C 
ATOM     22  N   UNL     1      96.418 118.220  97.605  1.00  0.00    -0.331 N 
ATOM     23  C   UNL     1      95.268 119.014  98.068  1.00  0.00     0.332 C 
ATOM     24  H   UNL     1      99.777 115.964  94.814  1.00  0.00     0.312 HD
ATOM     25  H   UNL     1      96.287 117.238  97.948  1.00  0.00     0.348 HD
ENDROOT
TORSDOF 0
ENDMDL
MODEL 4
REMARK VINA RESULT:    -5.951      2.924      4.642
REMARK INTER + INTRA:          -5.951
REMARK INTER:                  -5.951
REMARK INTRA:                   0.000
REMARK UNBOUND:                 0.000
REMARK SMILES C[NH+]1CCN(C2=[NH+]c3ccccc3Oc3ccc(Cl)cc32)CC1
REMARK SMILES IDX 7 1 6 2 21 3 5 4 8 5 9 6 13 7 10 8 12 9 14 10 11 11 15 12
REMARK SMILES IDX 16 13 17 14 18 15 20 16 19 17 4 18 22 19 3 20 23 21 2 22
REMARK SMILES IDX 1 23
REMARK H PARENT 7 24 2 25
REMARK Flexibility Score: inf
ROOT
ATOM      1  N   UNL     1     101.561 118.675  94.478  1.00  0.00    -0.237 N 
ATOM      2  C   UNL     1     100.569 119.189  95.159  1.00  0.00     0.286 C 
ATOM      3  C   UNL     1      99.851 118.465  96.240  1.00  0.00     0.108 A 
ATOM      4  N   UNL     1     100.172 120.548  94.888  1.00  0.00    -0.250 N 
ATOM      5  C   UNL     1     102.135 117.365  94.620  1.00  0.00     0.168 A 
ATOM      6  C   UNL     1     103.507 117.208  94.352  1.00  0.00     0.056 A 
ATOM      7  C   UNL     1     101.346 116.214  94.823  1.00  0.00     0.173 A 
ATOM      8  C   UNL     1     104.085 115.939  94.297  1.00  0.00     0.005 A 
ATOM      9  C   UNL     1     101.929 114.943  94.732  1.00  0.00     0.052 A 
ATOM     10  O   UNL     1      99.989 116.286  95.121  1.00  0.00    -0.452 OA
ATOM     11  C   UNL     1     103.294 114.805  94.479  1.00  0.00     0.004 A 
ATOM     12  C   UNL     1      99.495 117.105  96.133  1.00  0.00     0.143 A 
ATOM     13  C   UNL     1      98.628 116.533  97.072  1.00  0.00     0.049 A 
ATOM     14  C   UNL     1      98.153 117.282  98.148  1.00  0.00     0.024 A 
ATOM     15  C   UNL     1      98.534 118.616  98.289  1.00  0.00     0.042 A 
ATOM     16  C   UNL     1      99.371 119.206  97.338  1.00  0.00     0.041 A 
ATOM     17  Cl  UNL     1      97.940 119.561  99.642  1.00  0.00    -0.084 Cl
ATOM     18  C   UNL     1     101.170 121.616  94.789  1.00  0.00     0.298 C 
ATOM     19  C   UNL     1      98.808 120.833  94.436  1.00  0.00     0.298 C 
ATOM     20  C   UNL     1     100.610 122.905  95.398  1.00  0.00     0.308 C 
ATOM     21  C   UNL     1      98.321 122.148  95.055  1.00  0.00     0.308 C 
ATOM     22  N   UNL     1      99.291 123.238  94.816  1.00  0.00    -0.331 N 
ATOM     23  C   UNL     1      98.789 124.496  95.391  1.00  0.00     0.332 C 
ATOM     24  H   UNL     1     102.026 119.289  93.770  1.00  0.00     0.312 HD
ATOM     25  H   UNL     1      99.400 123.380  93.783  1.00  0.00     0.348 HD
ENDROOT
TORSDOF 0
ENDMDL
MODEL 5
REMARK VINA RESULT:    -5.899      1.136      1.187
REMARK INTER + INTRA:          -5.899
REMARK INTER:                  -5.899
REMARK INTRA:                   0.000
REMARK UNBOUND:                 0.000
REMARK SMILES C[NH+]1CCN(C2=[NH+]c3ccccc3Oc3ccc(Cl)cc32)CC1
REMARK SMILES IDX 7 1 6 2 21 3 5 4 8 5 9 6 13 7 10 8 12 9 14 10 11 11 15 12
REMARK SMILES IDX 16 13 17 14 18 15 20 16 19 17 4 18 22 19 3 20 23 21 2 22
REMARK SMILES IDX 1 23
REMARK H PARENT 7 24 2 25
REMARK Flexibility Score: inf
ROOT
ATOM      1  N   UNL     1      99.737 118.441  95.375  1.00  0.00    -0.237 N 
ATOM      2  C   UNL     1      99.334 119.676  95.529  1.00  0.00     0.286 C 
ATOM      3  C   UNL     1     100.193 120.861  95.269  1.00  0.00     0.108 A 
ATOM      4  N   UNL     1      97.969 119.916  95.928  1.00  0.00    -0.250 N 
ATOM      5  C   UNL     1     101.034 117.989  94.948  1.00  0.00     0.168 A 
ATOM      6  C   UNL     1     101.112 116.791  94.216  1.00  0.00     0.056 A 
ATOM      7  C   UNL     1     102.228 118.591  95.398  1.00  0.00     0.173 A 
ATOM      8  C   UNL     1     102.346 116.208  93.928  1.00  0.00     0.005 A 
ATOM      9  C   UNL     1     103.460 117.979  95.133  1.00  0.00     0.052 A 
ATOM     10  O   UNL     1     102.236 119.790  96.103  1.00  0.00    -0.452 OA
ATOM     11  C   UNL     1     103.521 116.797  94.393  1.00  0.00     0.004 A 
ATOM     12  C   UNL     1     101.546 120.914  95.660  1.00  0.00     0.143 A 
ATOM     13  C   UNL     1     102.244 122.127  95.597  1.00  0.00     0.049 A 
ATOM     14  C   UNL     1     101.630 123.275  95.097  1.00  0.00     0.024 A 
ATOM     15  C   UNL     1     100.305 123.223  94.665  1.00  0.00     0.042 A 
ATOM     16  C   UNL     1      99.589 122.026  94.757  1.00  0.00     0.041 A 
ATOM     17  Cl  UNL     1      99.529 124.664  94.035  1.00  0.00    -0.084 Cl
ATOM     18  C   UNL     1      96.862 119.225  95.263  1.00  0.00     0.298 C 
ATOM     19  C   UNL     1      97.689 120.634  97.173  1.00  0.00     0.298 C 
ATOM     20  C   UNL     1      95.665 120.172  95.134  1.00  0.00     0.308 C 
ATOM     21  C   UNL     1      96.464 121.537  96.986  1.00  0.00     0.308 C 
ATOM     22  N   UNL     1      95.321 120.773  96.442  1.00  0.00    -0.331 N 
ATOM     23  C   UNL     1      94.148 121.652  96.300  1.00  0.00     0.332 C 
ATOM     24  H   UNL     1      99.037 117.683  95.542  1.00  0.00     0.312 HD
ATOM     25  H   UNL     1      95.068 120.009  97.113  1.00  0.00     0.348 HD
ENDROOT
TORSDOF 0
ENDMDL
MODEL 6
REMARK VINA RESULT:    -5.891      2.906      4.423
REMARK INTER + INTRA:          -5.891
REMARK INTER:                  -5.891
REMARK INTRA:                   0.000
REMARK UNBOUND:                 0.000
REMARK SMILES C[NH+]1CCN(C2=[NH+]c3ccccc3Oc3ccc(Cl)cc32)CC1
REMARK SMILES IDX 7 1 6 2 21 3 5 4 8 5 9 6 13 7 10 8 12 9 14 10 11 11 15 12
REMARK SMILES IDX 16 13 17 14 18 15 20 16 19 17 4 18 22 19 3 20 23 21 2 22
REMARK SMILES IDX 1 23
REMARK H PARENT 7 24 2 25
REMARK Flexibility Score: inf
ROOT
ATOM      1  N   UNL     1     100.531 122.742  95.334  1.00  0.00    -0.237 N 
ATOM      2  C   UNL     1      99.241 122.952  95.358  1.00  0.00     0.286 C 
ATOM      3  C   UNL     1      98.237 121.885  95.611  1.00  0.00     0.108 A 
ATOM      4  N   UNL     1      98.753 124.297  95.179  1.00  0.00    -0.250 N 
ATOM      5  C   UNL     1     101.220 121.496  95.530  1.00  0.00     0.168 A 
ATOM      6  C   UNL     1     102.494 121.527  96.125  1.00  0.00     0.056 A 
ATOM      7  C   UNL     1     100.756 120.283  94.979  1.00  0.00     0.173 A 
ATOM      8  C   UNL     1     103.287 120.379  96.181  1.00  0.00     0.005 A 
ATOM      9  C   UNL     1     101.574 119.145  95.010  1.00  0.00     0.052 A 
ATOM     10  O   UNL     1      99.497 120.163  94.400  1.00  0.00    -0.452 OA
ATOM     11  C   UNL     1     102.830 119.189  95.616  1.00  0.00     0.004 A 
ATOM     12  C   UNL     1      98.342 120.600  95.042  1.00  0.00     0.143 A 
ATOM     13  C   UNL     1      97.264 119.708  95.125  1.00  0.00     0.049 A 
ATOM     14  C   UNL     1      96.104 120.060  95.815  1.00  0.00     0.024 A 
ATOM     15  C   UNL     1      96.007 121.313  96.419  1.00  0.00     0.042 A 
ATOM     16  C   UNL     1      97.063 122.222  96.313  1.00  0.00     0.041 A 
ATOM     17  Cl  UNL     1      94.550 121.758  97.288  1.00  0.00    -0.084 Cl
ATOM     18  C   UNL     1      99.343 125.414  95.921  1.00  0.00     0.298 C 
ATOM     19  C   UNL     1      97.859 124.606  94.060  1.00  0.00     0.298 C 
ATOM     20  C   UNL     1      98.248 126.414  96.306  1.00  0.00     0.308 C 
ATOM     21  C   UNL     1      96.810 125.632  94.503  1.00  0.00     0.308 C 
ATOM     22  N   UNL     1      97.453 126.811  95.124  1.00  0.00    -0.331 N 
ATOM     23  C   UNL     1      96.430 127.797  95.512  1.00  0.00     0.332 C 
ATOM     24  H   UNL     1     101.151 123.573  95.193  1.00  0.00     0.312 HD
ATOM     25  H   UNL     1      98.085 127.267  94.424  1.00  0.00     0.348 HD
ENDROOT
TORSDOF 0
ENDMDL
MODEL 7
REMARK VINA RESULT:    -5.870     13.566     15.620
REMARK INTER + INTRA:          -5.870
REMARK INTER:                  -5.870
REMARK INTRA:                   0.000
REMARK UNBOUND:                 0.000
REMARK SMILES C[NH+]1CCN(C2=[NH+]c3ccccc3Oc3ccc(Cl)cc32)CC1
REMARK SMILES IDX 7 1 6 2 21 3 5 4 8 5 9 6 13 7 10 8 12 9 14 10 11 11 15 12
REMARK SMILES IDX 16 13 17 14 18 15 20 16 19 17 4 18 22 19 3 20 23 21 2 22
REMARK SMILES IDX 1 23
REMARK H PARENT 7 24 2 25
REMARK Flexibility Score: inf
ROOT
ATOM      1  N   UNL     1      88.193 113.997 104.964  1.00  0.00    -0.237 N 
ATOM      2  C   UNL     1      89.125 114.694 104.370  1.00  0.00     0.286 C 
ATOM      3  C   UNL     1      89.980 114.163 103.276  1.00  0.00     0.108 A 
ATOM      4  N   UNL     1      89.314 116.071 104.755  1.00  0.00    -0.250 N 
ATOM      5  C   UNL     1      87.817 112.633 104.704  1.00  0.00     0.168 A 
ATOM      6  C   UNL     1      86.473 112.266 104.894  1.00  0.00     0.056 A 
ATOM      7  C   UNL     1      88.770 111.623 104.457  1.00  0.00     0.173 A 
ATOM      8  C   UNL     1      86.081 110.928 104.831  1.00  0.00     0.005 A 
ATOM      9  C   UNL     1      88.372 110.280 104.431  1.00  0.00     0.052 A 
ATOM     10  O   UNL     1      90.113 111.907 104.231  1.00  0.00    -0.452 OA
ATOM     11  C   UNL     1      87.032 109.933 104.608  1.00  0.00     0.004 A 
ATOM     12  C   UNL     1      90.522 112.862 103.304  1.00  0.00     0.143 A 
ATOM     13  C   UNL     1      91.497 112.490 102.370  1.00  0.00     0.049 A 
ATOM     14  C   UNL     1      91.900 113.378 101.373  1.00  0.00     0.024 A 
ATOM     15  C   UNL     1      91.338 114.653 101.308  1.00  0.00     0.042 A 
ATOM     16  C   UNL     1      90.389 115.045 102.257  1.00  0.00     0.041 A 
ATOM     17  Cl  UNL     1      91.841 115.773 100.055  1.00  0.00    -0.084 Cl
ATOM     18  C   UNL     1      88.170 116.978 104.881  1.00  0.00     0.298 C 
ATOM     19  C   UNL     1      90.605 116.508 105.291  1.00  0.00     0.298 C 
ATOM     20  C   UNL     1      88.563 118.375 104.391  1.00  0.00     0.308 C 
ATOM     21  C   UNL     1      90.922 117.922 104.790  1.00  0.00     0.308 C 
ATOM     22  N   UNL     1      89.797 118.844 105.059  1.00  0.00    -0.331 N 
ATOM     23  C   UNL     1      90.136 120.201 104.598  1.00  0.00     0.332 C 
ATOM     24  H   UNL     1      87.618 114.483 105.690  1.00  0.00     0.312 HD
ATOM     25  H   UNL     1      89.631 118.890 106.093  1.00  0.00     0.348 HD
ENDROOT
TORSDOF 0
ENDMDL
MODEL 8
REMARK VINA RESULT:    -5.682      4.573      7.547
REMARK INTER + INTRA:          -5.682
REMARK INTER:                  -5.682
REMARK INTRA:                   0.000
REMARK UNBOUND:                 0.000
REMARK SMILES C[NH+]1CCN(C2=[NH+]c3ccccc3Oc3ccc(Cl)cc32)CC1
REMARK SMILES IDX 7 1 6 2 21 3 5 4 8 5 9 6 13 7 10 8 12 9 14 10 11 11 15 12
REMARK SMILES IDX 16 13 17 14 18 15 20 16 19 17 4 18 22 19 3 20 23 21 2 22
REMARK SMILES IDX 1 23
REMARK H PARENT 7 24 2 25
REMARK Flexibility Score: inf
ROOT
ATOM      1  N   UNL     1     102.808 115.333  92.814  1.00  0.00    -0.237 N 
ATOM      2  C   UNL     1     101.942 115.913  93.602  1.00  0.00     0.286 C 
ATOM      3  C   UNL     1     100.774 115.213  94.200  1.00  0.00     0.108 A 
ATOM      4  N   UNL     1     102.145 117.296  93.959  1.00  0.00    -0.250 N 
ATOM      5  C   UNL     1     102.814 113.964  92.373  1.00  0.00     0.168 A 
ATOM      6  C   UNL     1     104.055 113.348  92.133  1.00  0.00     0.056 A 
ATOM      7  C   UNL     1     101.635 113.290  91.992  1.00  0.00     0.173 A 
ATOM      8  C   UNL     1     104.125 112.088  91.537  1.00  0.00     0.005 A 
ATOM      9  C   UNL     1     101.717 112.040  91.364  1.00  0.00     0.052 A 
ATOM     10  O   UNL     1     100.369 113.820  92.222  1.00  0.00    -0.452 OA
ATOM     11  C   UNL     1     102.956 111.437  91.144  1.00  0.00     0.004 A 
ATOM     12  C   UNL     1      99.984 114.304  93.469  1.00  0.00     0.143 A 
ATOM     13  C   UNL     1      98.771 113.847  94.001  1.00  0.00     0.049 A 
ATOM     14  C   UNL     1      98.362 114.241  95.275  1.00  0.00     0.024 A 
ATOM     15  C   UNL     1      99.158 115.106  96.025  1.00  0.00     0.042 A 
ATOM     16  C   UNL     1     100.353 115.594  95.489  1.00  0.00     0.041 A 
ATOM     17  Cl  UNL     1      98.647 115.602  97.628  1.00  0.00    -0.084 Cl
ATOM     18  C   UNL     1     103.456 117.770  94.406  1.00  0.00     0.298 C 
ATOM     19  C   UNL     1     101.127 118.293  93.617  1.00  0.00     0.298 C 
ATOM     20  C   UNL     1     103.278 118.822  95.505  1.00  0.00     0.308 C 
ATOM     21  C   UNL     1     101.022 119.331  94.741  1.00  0.00     0.308 C 
ATOM     22  N   UNL     1     102.351 119.891  95.071  1.00  0.00    -0.331 N 
ATOM     23  C   UNL     1     102.221 120.906  96.129  1.00  0.00     0.332 C 
ATOM     24  H   UNL     1     103.619 115.907  92.486  1.00  0.00     0.312 HD
ATOM     25  H   UNL     1     102.746 120.362  94.222  1.00  0.00     0.348 HD
ENDROOT
TORSDOF 0
ENDMDL
MODEL 9
REMARK VINA RESULT:    -5.624      5.256      9.259
REMARK INTER + INTRA:          -5.624
REMARK INTER:                  -5.624
REMARK INTRA:                   0.000
REMARK UNBOUND:                 0.000
REMARK SMILES C[NH+]1CCN(C2=[NH+]c3ccccc3Oc3ccc(Cl)cc32)CC1
REMARK SMILES IDX 7 1 6 2 21 3 5 4 8 5 9 6 13 7 10 8 12 9 14 10 11 11 15 12
REMARK SMILES IDX 16 13 17 14 18 15 20 16 19 17 4 18 22 19 3 20 23 21 2 22
REMARK SMILES IDX 1 23
REMARK H PARENT 7 24 2 25
REMARK Flexibility Score: inf
ROOT
ATOM      1  N   UNL     1     102.330 115.932  94.269  1.00  0.00    -0.237 N 
ATOM      2  C   UNL     1     101.726 114.782  94.123  1.00  0.00     0.286 C 
ATOM      3  C   UNL     1     100.253 114.606  94.231  1.00  0.00     0.108 A 
ATOM      4  N   UNL     1     102.514 113.620  93.792  1.00  0.00    -0.250 N 
ATOM      5  C   UNL     1     101.731 117.207  94.556  1.00  0.00     0.168 A 
ATOM      6  C   UNL     1     102.345 118.362  94.037  1.00  0.00     0.056 A 
ATOM      7  C   UNL     1     100.681 117.354  95.486  1.00  0.00     0.173 A 
ATOM      8  C   UNL     1     101.920 119.633  94.425  1.00  0.00     0.005 A 
ATOM      9  C   UNL     1     100.284 118.635  95.894  1.00  0.00     0.052 A 
ATOM     10  O   UNL     1     100.005 116.263  96.022  1.00  0.00    -0.452 OA
ATOM     11  C   UNL     1     100.894 119.771  95.359  1.00  0.00     0.004 A 
ATOM     12  C   UNL     1      99.487 115.248  95.224  1.00  0.00     0.143 A 
ATOM     13  C   UNL     1      98.151 114.876  95.425  1.00  0.00     0.049 A 
ATOM     14  C   UNL     1      97.552 113.914  94.612  1.00  0.00     0.024 A 
ATOM     15  C   UNL     1      98.289 113.304  93.597  1.00  0.00     0.042 A 
ATOM     16  C   UNL     1      99.632 113.643  93.411  1.00  0.00     0.041 A 
ATOM     17  Cl  UNL     1      97.539 112.094  92.573  1.00  0.00    -0.084 Cl
ATOM     18  C   UNL     1     103.514 113.673  92.723  1.00  0.00     0.298 C 
ATOM     19  C   UNL     1     102.524 112.465  94.693  1.00  0.00     0.298 C 
ATOM     20  C   UNL     1     103.530 112.341  91.966  1.00  0.00     0.308 C 
ATOM     21  C   UNL     1     102.572 111.170  93.874  1.00  0.00     0.308 C 
ATOM     22  N   UNL     1     103.683 111.202  92.898  1.00  0.00    -0.331 N 
ATOM     23  C   UNL     1     103.730 109.938  92.146  1.00  0.00     0.332 C 
ATOM     24  H   UNL     1     103.367 115.952  94.127  1.00  0.00     0.312 HD
ATOM     25  H   UNL     1     104.591 111.302  93.413  1.00  0.00     0.348 HD
ENDROOT
TORSDOF 0
ENDMDL
