MODEL 1
REMARK VINA RESULT:    -3.943      0.000      0.000
REMARK INTER + INTRA:          -5.380
REMARK INTER:                  -5.096
REMARK INTRA:                  -0.285
REMARK UNBOUND:                -0.285
REMARK SMILES CCCCCCC(=O)[O-]
REMARK SMILES IDX 5 1 6 2 7 3 8 4 9 5 4 6 3 7 2 8 1 9
REMARK H PARENT
REMARK Flexibility Score: inf
ROOT
ATOM      1  C   UNL     1      28.191 -11.239  13.962  1.00  0.00     0.006 C 
ENDROOT
BRANCH   1   2
ATOM      2  C   UNL     1      27.874 -10.053  14.879  1.00  0.00     0.053 C 
BRANCH   2   3
ATOM      3  C   UNL     1      28.703 -10.115  16.123  1.00  0.00     0.041 C 
ATOM      4  O   UNL     1      28.775  -9.118  16.887  1.00  0.00    -0.550 OA
ATOM      5  O   UNL     1      29.358 -11.292  16.462  1.00  0.00    -0.550 OA
ENDBRANCH   2   3
ENDBRANCH   1   2
BRANCH   1   6
ATOM      6  C   UNL     1      26.958 -12.136  13.778  1.00  0.00     0.000 C 
BRANCH   6   7
ATOM      7  C   UNL     1      26.876 -13.251  14.832  1.00  0.00    -0.000 C 
BRANCH   7   8
ATOM      8  C   UNL     1      27.618 -14.526  14.405  1.00  0.00    -0.003 C 
ATOM      9  C   UNL     1      28.738 -14.864  15.387  1.00  0.00     0.004 C 
ENDBRANCH   7   8
ENDBRANCH   6   7
ENDBRANCH   1   6
TORSDOF 5
ENDMDL
MODEL 2
REMARK VINA RESULT:    -3.934      1.702      3.818
REMARK INTER + INTRA:          -5.369
REMARK INTER:                  -4.974
REMARK INTRA:                  -0.395
REMARK UNBOUND:                -0.285
REMARK SMILES CCCCCCC(=O)[O-]
REMARK SMILES IDX 5 1 6 2 7 3 8 4 9 5 4 6 3 7 2 8 1 9
REMARK H PARENT
REMARK Flexibility Score: inf
ROOT
ATOM      1  C   UNL     1      26.968 -12.887  13.945  1.00  0.00     0.006 C 
ENDROOT
BRANCH   1   2
ATOM      2  C   UNL     1      26.876 -13.405  15.384  1.00  0.00     0.053 C 
BRANCH   2   3
ATOM      3  C   UNL     1      28.226 -13.816  15.882  1.00  0.00     0.041 C 
ATOM      4  O   UNL     1      28.762 -14.874  15.461  1.00  0.00    -0.550 OA
ATOM      5  O   UNL     1      28.914 -13.002  16.774  1.00  0.00    -0.550 OA
ENDBRANCH   2   3
ENDBRANCH   1   2
BRANCH   1   6
ATOM      6  C   UNL     1      27.117 -11.359  13.920  1.00  0.00     0.000 C 
BRANCH   6   7
ATOM      7  C   UNL     1      28.582 -10.909  13.811  1.00  0.00    -0.000 C 
BRANCH   7   8
ATOM      8  C   UNL     1      28.950  -9.832  14.842  1.00  0.00    -0.003 C 
ATOM      9  C   UNL     1      27.844  -9.669  15.882  1.00  0.00     0.004 C 
ENDBRANCH   7   8
ENDBRANCH   6   7
ENDBRANCH   1   6
TORSDOF 5
ENDMDL
MODEL 3
REMARK VINA RESULT:    -3.889      1.530      1.827
REMARK INTER + INTRA:          -5.310
REMARK INTER:                  -5.098
REMARK INTRA:                  -0.213
REMARK UNBOUND:                -0.285
REMARK SMILES CCCCCCC(=O)[O-]
REMARK SMILES IDX 5 1 6 2 7 3 8 4 9 5 4 6 3 7 2 8 1 9
REMARK H PARENT
REMARK Flexibility Score: inf
ROOT
ATOM      1  C   UNL     1      28.342 -10.900  15.087  1.00  0.00     0.006 C 
ENDROOT
BRANCH   1   2
ATOM      2  C   UNL     1      27.825  -9.719  15.914  1.00  0.00     0.053 C 
BRANCH   2   3
ATOM      3  C   UNL     1      28.966  -8.942  16.491  1.00  0.00     0.041 C 
ATOM      4  O   UNL     1      29.013  -8.706  17.726  1.00  0.00    -0.550 OA
ATOM      5  O   UNL     1      30.004  -8.520  15.669  1.00  0.00    -0.550 OA
ENDBRANCH   2   3
ENDBRANCH   1   2
BRANCH   1   6
ATOM      6  C   UNL     1      28.824 -12.039  15.998  1.00  0.00     0.000 C 
BRANCH   6   7
ATOM      7  C   UNL     1      27.827 -13.206  16.065  1.00  0.00    -0.000 C 
BRANCH   7   8
ATOM      8  C   UNL     1      28.211 -14.367  15.136  1.00  0.00    -0.003 C 
ATOM      9  C   UNL     1      27.403 -14.323  13.841  1.00  0.00     0.004 C 
ENDBRANCH   7   8
ENDBRANCH   6   7
ENDBRANCH   1   6
TORSDOF 5
ENDMDL
MODEL 4
REMARK VINA RESULT:    -3.846      2.637      4.582
REMARK INTER + INTRA:          -5.255
REMARK INTER:                  -5.087
REMARK INTRA:                  -0.168
REMARK UNBOUND:                -0.285
REMARK SMILES CCCCCCC(=O)[O-]
REMARK SMILES IDX 5 1 6 2 7 3 8 4 9 5 4 6 3 7 2 8 1 9
REMARK H PARENT
REMARK Flexibility Score: inf
ROOT
ATOM      1  C   UNL     1      28.127 -11.993  15.883  1.00  0.00     0.006 C 
ENDROOT
BRANCH   1   2
ATOM      2  C   UNL     1      27.228 -13.200  15.594  1.00  0.00     0.053 C 
BRANCH   2   3
ATOM      3  C   UNL     1      27.978 -14.241  14.824  1.00  0.00     0.041 C 
ATOM      4  O   UNL     1      27.847 -14.323  13.575  1.00  0.00    -0.550 OA
ATOM      5  O   UNL     1      28.861 -15.089  15.481  1.00  0.00    -0.550 OA
ENDBRANCH   2   3
ENDBRANCH   1   2
BRANCH   1   6
ATOM      6  C   UNL     1      27.815 -10.834  14.926  1.00  0.00     0.000 C 
BRANCH   6   7
ATOM      7  C   UNL     1      27.884  -9.462  15.615  1.00  0.00    -0.000 C 
BRANCH   7   8
ATOM      8  C   UNL     1      29.326  -8.999  15.867  1.00  0.00    -0.003 C 
ATOM      9  C   UNL     1      29.498  -8.496  17.299  1.00  0.00     0.004 C 
ENDBRANCH   7   8
ENDBRANCH   6   7
ENDBRANCH   1   6
TORSDOF 5
ENDMDL
MODEL 5
REMARK VINA RESULT:    -3.843      2.616      4.579
REMARK INTER + INTRA:          -5.251
REMARK INTER:                  -5.066
REMARK INTRA:                  -0.184
REMARK UNBOUND:                -0.285
REMARK SMILES CCCCCCC(=O)[O-]
REMARK SMILES IDX 5 1 6 2 7 3 8 4 9 5 4 6 3 7 2 8 1 9
REMARK H PARENT
REMARK Flexibility Score: inf
ROOT
ATOM      1  C   UNL     1      28.162 -11.935  15.792  1.00  0.00     0.006 C 
ENDROOT
BRANCH   1   2
ATOM      2  C   UNL     1      27.292 -13.189  15.666  1.00  0.00     0.053 C 
BRANCH   2   3
ATOM      3  C   UNL     1      27.987 -14.231  14.847  1.00  0.00     0.041 C 
ATOM      4  O   UNL     1      28.830 -14.998  15.379  1.00  0.00    -0.550 OA
ATOM      5  O   UNL     1      27.666 -14.386  13.504  1.00  0.00    -0.550 OA
ENDBRANCH   2   3
ENDBRANCH   1   2
BRANCH   1   6
ATOM      6  C   UNL     1      27.549 -10.761  15.015  1.00  0.00     0.000 C 
BRANCH   6   7
ATOM      7  C   UNL     1      28.112  -9.401  15.456  1.00  0.00    -0.000 C 
BRANCH   7   8
ATOM      8  C   UNL     1      29.402  -9.533  16.280  1.00  0.00    -0.003 C 
ATOM      9  C   UNL     1      29.426  -8.525  17.427  1.00  0.00     0.004 C 
ENDBRANCH   7   8
ENDBRANCH   6   7
ENDBRANCH   1   6
TORSDOF 5
ENDMDL
MODEL 6
REMARK VINA RESULT:    -3.806      1.846      2.601
REMARK INTER + INTRA:          -5.203
REMARK INTER:                  -4.862
REMARK INTRA:                  -0.341
REMARK UNBOUND:                -0.285
REMARK SMILES CCCCCCC(=O)[O-]
REMARK SMILES IDX 5 1 6 2 7 3 8 4 9 5 4 6 3 7 2 8 1 9
REMARK H PARENT
REMARK Flexibility Score: inf
ROOT
ATOM      1  C   UNL     1      29.494 -12.313  16.369  1.00  0.00     0.006 C 
ENDROOT
BRANCH   1   2
ATOM      2  C   UNL     1      29.148 -10.871  15.984  1.00  0.00     0.053 C 
BRANCH   2   3
ATOM      3  C   UNL     1      28.540 -10.824  14.618  1.00  0.00     0.041 C 
ATOM      4  O   UNL     1      29.231 -11.116  13.607  1.00  0.00    -0.550 OA
ATOM      5  O   UNL     1      27.196 -10.506  14.466  1.00  0.00    -0.550 OA
ENDBRANCH   2   3
ENDBRANCH   1   2
BRANCH   1   6
ATOM      6  C   UNL     1      28.253 -13.214  16.294  1.00  0.00     0.000 C 
BRANCH   6   7
ATOM      7  C   UNL     1      28.461 -14.434  15.382  1.00  0.00    -0.000 C 
BRANCH   7   8
ATOM      8  C   UNL     1      27.175 -14.860  14.660  1.00  0.00    -0.003 C 
ATOM      9  C   UNL     1      26.901 -13.966  13.453  1.00  0.00     0.004 C 
ENDBRANCH   7   8
ENDBRANCH   6   7
ENDBRANCH   1   6
TORSDOF 5
ENDMDL
MODEL 7
REMARK VINA RESULT:    -3.797      0.978      1.303
REMARK INTER + INTRA:          -5.192
REMARK INTER:                  -5.011
REMARK INTRA:                  -0.181
REMARK UNBOUND:                -0.285
REMARK SMILES CCCCCCC(=O)[O-]
REMARK SMILES IDX 5 1 6 2 7 3 8 4 9 5 4 6 3 7 2 8 1 9
REMARK H PARENT
REMARK Flexibility Score: inf
ROOT
ATOM      1  C   UNL     1      27.579 -10.744  15.603  1.00  0.00     0.006 C 
ENDROOT
BRANCH   1   2
ATOM      2  C   UNL     1      28.017  -9.288  15.785  1.00  0.00     0.053 C 
BRANCH   2   3
ATOM      3  C   UNL     1      29.276  -9.215  16.590  1.00  0.00     0.041 C 
ATOM      4  O   UNL     1      29.552  -8.175  17.244  1.00  0.00    -0.550 OA
ATOM      5  O   UNL     1      30.122 -10.315  16.656  1.00  0.00    -0.550 OA
ENDBRANCH   2   3
ENDBRANCH   1   2
BRANCH   1   6
ATOM      6  C   UNL     1      27.175 -11.018  14.147  1.00  0.00     0.000 C 
BRANCH   6   7
ATOM      7  C   UNL     1      26.875 -12.503  13.886  1.00  0.00    -0.000 C 
BRANCH   7   8
ATOM      8  C   UNL     1      27.120 -13.382  15.120  1.00  0.00    -0.003 C 
ATOM      9  C   UNL     1      27.976 -14.597  14.768  1.00  0.00     0.004 C 
ENDBRANCH   7   8
ENDBRANCH   6   7
ENDBRANCH   1   6
TORSDOF 5
ENDMDL
MODEL 8
REMARK VINA RESULT:    -3.790      1.842      3.853
REMARK INTER + INTRA:          -5.183
REMARK INTER:                  -4.897
REMARK INTRA:                  -0.285
REMARK UNBOUND:                -0.285
REMARK SMILES CCCCCCC(=O)[O-]
REMARK SMILES IDX 5 1 6 2 7 3 8 4 9 5 4 6 3 7 2 8 1 9
REMARK H PARENT
REMARK Flexibility Score: inf
ROOT
ATOM      1  C   UNL     1      27.461 -12.133  14.364  1.00  0.00     0.006 C 
ENDROOT
BRANCH   1   2
ATOM      2  C   UNL     1      27.396 -12.755  15.762  1.00  0.00     0.053 C 
BRANCH   2   3
ATOM      3  C   UNL     1      28.658 -13.499  16.065  1.00  0.00     0.041 C 
ATOM      4  O   UNL     1      29.529 -12.991  16.818  1.00  0.00    -0.550 OA
ATOM      5  O   UNL     1      28.850 -14.777  15.554  1.00  0.00    -0.550 OA
ENDBRANCH   2   3
ENDBRANCH   1   2
BRANCH   1   6
ATOM      6  C   UNL     1      27.478 -10.599  14.445  1.00  0.00     0.000 C 
BRANCH   6   7
ATOM      7  C   UNL     1      27.552 -10.084  15.891  1.00  0.00    -0.000 C 
BRANCH   7   8
ATOM      8  C   UNL     1      28.748  -9.150  16.126  1.00  0.00    -0.003 C 
ATOM      9  C   UNL     1      29.560  -8.966  14.845  1.00  0.00     0.004 C 
ENDBRANCH   7   8
ENDBRANCH   6   7
ENDBRANCH   1   6
TORSDOF 5
ENDMDL
MODEL 9
REMARK VINA RESULT:    -3.674      2.610      4.532
REMARK INTER + INTRA:          -5.033
REMARK INTER:                  -4.870
REMARK INTRA:                  -0.163
REMARK UNBOUND:                -0.285
REMARK SMILES CCCCCCC(=O)[O-]
REMARK SMILES IDX 5 1 6 2 7 3 8 4 9 5 4 6 3 7 2 8 1 9
REMARK H PARENT
REMARK Flexibility Score: inf
ROOT
ATOM      1  C   UNL     1      28.187 -11.700  15.212  1.00  0.00     0.006 C 
ENDROOT
BRANCH   1   2
ATOM      2  C   UNL     1      27.291 -12.925  15.424  1.00  0.00     0.053 C 
BRANCH   2   3
ATOM      3  C   UNL     1      27.864 -14.120  14.729  1.00  0.00     0.041 C 
ATOM      4  O   UNL     1      27.574 -14.354  13.527  1.00  0.00    -0.550 OA
ATOM      5  O   UNL     1      28.758 -14.948  15.396  1.00  0.00    -0.550 OA
ENDBRANCH   2   3
ENDBRANCH   1   2
BRANCH   1   6
ATOM      6  C   UNL     1      27.417 -10.401  15.493  1.00  0.00     0.000 C 
BRANCH   6   7
ATOM      7  C   UNL     1      28.308  -9.153  15.402  1.00  0.00    -0.000 C 
BRANCH   7   8
ATOM      8  C   UNL     1      29.742  -9.481  14.962  1.00  0.00    -0.003 C 
ATOM      9  C   UNL     1      30.227  -8.501  13.896  1.00  0.00     0.004 C 
ENDBRANCH   7   8
ENDBRANCH   6   7
ENDBRANCH   1   6
TORSDOF 5
ENDMDL
