MODEL 1
REMARK VINA RESULT:    -6.563      0.000      0.000
REMARK INTER + INTRA:          -8.011
REMARK INTER:                  -7.714
REMARK INTRA:                  -0.297
REMARK UNBOUND:                -0.297
REMARK SMILES O=c1cc(-c2ccc(O)c(O)c2)oc2cc(O)cc(O)c12
REMARK SMILES IDX 4 1 3 2 2 3 1 4 21 5 19 6 18 7 16 8 15 9 14 10 13 11 5 12
REMARK SMILES IDX 6 13 7 14 8 15 12 16 10 17 9 18 11 20 20 22 17 24
REMARK H PARENT 9 19 11 21 20 23 17 25
REMARK Flexibility Score: inf
ROOT
ATOM      1  C   UNL     1      22.366  32.396   7.190  1.00  0.00     0.138 A 
ATOM      2  C   UNL     1      23.413  32.524   8.112  1.00  0.00     0.100 A 
ATOM      3  C   UNL     1      24.371  31.514   8.215  1.00  0.00     0.197 A 
ATOM      4  O   UNL     1      25.328  31.684   9.012  1.00  0.00    -0.289 OA
ATOM      5  C   UNL     1      24.257  30.354   7.412  1.00  0.00     0.107 A 
ATOM      6  C   UNL     1      25.155  29.243   7.455  1.00  0.00     0.134 A 
ATOM      7  C   UNL     1      24.997  28.193   6.542  1.00  0.00     0.093 A 
ATOM      8  C   UNL     1      23.940  28.185   5.629  1.00  0.00     0.123 A 
ATOM      9  C   UNL     1      23.030  29.238   5.613  1.00  0.00     0.094 A 
ATOM     10  C   UNL     1      23.180  30.317   6.487  1.00  0.00     0.146 A 
ATOM     11  O   UNL     1      22.300  31.311   6.426  1.00  0.00    -0.456 OA
ENDROOT
BRANCH   1  12
ATOM     12  C   UNL     1      21.318  33.438   7.042  1.00  0.00     0.021 A 
ATOM     13  C   UNL     1      20.310  33.271   6.076  1.00  0.00     0.016 A 
ATOM     14  C   UNL     1      19.317  34.240   5.912  1.00  0.00     0.051 A 
ATOM     15  C   UNL     1      19.319  35.396   6.701  1.00  0.00     0.157 A 
ATOM     16  C   UNL     1      21.323  34.611   7.823  1.00  0.00     0.062 A 
ATOM     17  C   UNL     1      20.330  35.583   7.658  1.00  0.00     0.158 A 
BRANCH  15  18
ATOM     18  O   UNL     1      18.326  36.360   6.534  1.00  0.00    -0.504 OA
ATOM     19  H   UNL     1      17.344  36.138   6.656  1.00  0.00     0.293 HD
ENDBRANCH  15  18
BRANCH  17  20
ATOM     20  O   UNL     1      20.366  36.730   8.450  1.00  0.00    -0.504 OA
ATOM     21  H   UNL     1      20.543  36.692   9.446  1.00  0.00     0.293 HD
ENDBRANCH  17  20
ENDBRANCH   1  12
BRANCH   6  22
ATOM     22  O   UNL     1      26.195  29.112   8.380  1.00  0.00    -0.507 OA
ATOM     23  H   UNL     1      26.082  29.080   9.380  1.00  0.00     0.293 HD
ENDBRANCH   6  22
BRANCH   8  24
ATOM     24  O   UNL     1      23.782  27.127   4.735  1.00  0.00    -0.508 OA
ATOM     25  H   UNL     1      23.922  26.165   5.022  1.00  0.00     0.293 HD
ENDBRANCH   8  24
TORSDOF 5
ENDMDL
MODEL 2
REMARK VINA RESULT:    -6.467      2.119      2.480
REMARK INTER + INTRA:          -7.897
REMARK INTER:                  -7.618
REMARK INTRA:                  -0.280
REMARK UNBOUND:                -0.297
REMARK SMILES O=c1cc(-c2ccc(O)c(O)c2)oc2cc(O)cc(O)c12
REMARK SMILES IDX 4 1 3 2 2 3 1 4 21 5 19 6 18 7 16 8 15 9 14 10 13 11 5 12
REMARK SMILES IDX 6 13 7 14 8 15 12 16 10 17 9 18 11 20 20 22 17 24
REMARK H PARENT 9 19 11 21 20 23 17 25
REMARK Flexibility Score: inf
ROOT
ATOM      1  C   UNL     1      22.131  33.401   6.059  1.00  0.00     0.138 A 
ATOM      2  C   UNL     1      21.969  32.716   7.270  1.00  0.00     0.100 A 
ATOM      3  C   UNL     1      22.728  31.573   7.526  1.00  0.00     0.197 A 
ATOM      4  O   UNL     1      22.600  31.014   8.645  1.00  0.00    -0.289 OA
ATOM      5  C   UNL     1      23.630  31.095   6.546  1.00  0.00     0.107 A 
ATOM      6  C   UNL     1      24.433  29.922   6.681  1.00  0.00     0.134 A 
ATOM      7  C   UNL     1      25.362  29.602   5.683  1.00  0.00     0.093 A 
ATOM      8  C   UNL     1      25.477  30.381   4.529  1.00  0.00     0.123 A 
ATOM      9  C   UNL     1      24.663  31.499   4.364  1.00  0.00     0.094 A 
ATOM     10  C   UNL     1      23.751  31.864   5.357  1.00  0.00     0.146 A 
ATOM     11  O   UNL     1      23.008  32.949   5.168  1.00  0.00    -0.456 OA
ENDROOT
BRANCH   1  12
ATOM     12  C   UNL     1      21.347  34.619   5.734  1.00  0.00     0.021 A 
ATOM     13  C   UNL     1      21.992  35.719   5.143  1.00  0.00     0.016 A 
ATOM     14  C   UNL     1      21.278  36.880   4.834  1.00  0.00     0.051 A 
ATOM     15  C   UNL     1      19.910  36.966   5.119  1.00  0.00     0.157 A 
ATOM     16  C   UNL     1      19.973  34.717   6.031  1.00  0.00     0.062 A 
ATOM     17  C   UNL     1      19.257  35.880   5.724  1.00  0.00     0.158 A 
BRANCH  15  18
ATOM     18  O   UNL     1      19.201  38.125   4.808  1.00  0.00    -0.504 OA
ATOM     19  H   UNL     1      19.663  39.023   4.721  1.00  0.00     0.293 HD
ENDBRANCH  15  18
BRANCH  17  20
ATOM     20  O   UNL     1      17.898  35.939   6.032  1.00  0.00    -0.504 OA
ATOM     21  H   UNL     1      17.182  35.678   5.365  1.00  0.00     0.293 HD
ENDBRANCH  17  20
ENDBRANCH   1  12
BRANCH   6  22
ATOM     22  O   UNL     1      24.342  29.030   7.754  1.00  0.00    -0.507 OA
ATOM     23  H   UNL     1      23.566  28.412   7.930  1.00  0.00     0.293 HD
ENDBRANCH   6  22
BRANCH   8  24
ATOM     24  O   UNL     1      26.393  30.046   3.534  1.00  0.00    -0.508 OA
ATOM     25  H   UNL     1      26.127  29.479   2.737  1.00  0.00     0.293 HD
ENDBRANCH   8  24
TORSDOF 5
ENDMDL
MODEL 3
REMARK VINA RESULT:    -6.415      1.811      3.054
REMARK INTER + INTRA:          -7.837
REMARK INTER:                  -7.543
REMARK INTRA:                  -0.294
REMARK UNBOUND:                -0.297
REMARK SMILES O=c1cc(-c2ccc(O)c(O)c2)oc2cc(O)cc(O)c12
REMARK SMILES IDX 4 1 3 2 2 3 1 4 21 5 19 6 18 7 16 8 15 9 14 10 13 11 5 12
REMARK SMILES IDX 6 13 7 14 8 15 12 16 10 17 9 18 11 20 20 22 17 24
REMARK H PARENT 9 19 11 21 20 23 17 25
REMARK Flexibility Score: inf
ROOT
ATOM      1  C   UNL     1      22.211  33.164   6.228  1.00  0.00     0.138 A 
ATOM      2  C   UNL     1      22.456  32.990   4.860  1.00  0.00     0.100 A 
ATOM      3  C   UNL     1      23.455  32.109   4.443  1.00  0.00     0.197 A 
ATOM      4  O   UNL     1      23.612  31.932   3.208  1.00  0.00    -0.289 OA
ATOM      5  C   UNL     1      24.235  31.425   5.406  1.00  0.00     0.107 A 
ATOM      6  C   UNL     1      25.304  30.528   5.099  1.00  0.00     0.134 A 
ATOM      7  C   UNL     1      25.940  29.835   6.136  1.00  0.00     0.093 A 
ATOM      8  C   UNL     1      25.587  30.049   7.471  1.00  0.00     0.123 A 
ATOM      9  C   UNL     1      24.582  30.959   7.783  1.00  0.00     0.094 A 
ATOM     10  C   UNL     1      23.904  31.641   6.770  1.00  0.00     0.146 A 
ATOM     11  O   UNL     1      22.937  32.487   7.111  1.00  0.00    -0.456 OA
ENDROOT
BRANCH   1  12
ATOM     12  C   UNL     1      21.164  34.092   6.727  1.00  0.00     0.021 A 
ATOM     13  C   UNL     1      21.170  34.477   8.079  1.00  0.00     0.016 A 
ATOM     14  C   UNL     1      20.192  35.343   8.575  1.00  0.00     0.051 A 
ATOM     15  C   UNL     1      19.185  35.830   7.732  1.00  0.00     0.157 A 
ATOM     16  C   UNL     1      20.140  34.574   5.888  1.00  0.00     0.062 A 
ATOM     17  C   UNL     1      19.158  35.439   6.383  1.00  0.00     0.158 A 
BRANCH  15  18
ATOM     18  O   UNL     1      18.211  36.694   8.231  1.00  0.00    -0.504 OA
ATOM     19  H   UNL     1      18.449  37.611   8.591  1.00  0.00     0.293 HD
ENDBRANCH  15  18
BRANCH  17  20
ATOM     20  O   UNL     1      18.161  35.897   5.523  1.00  0.00    -0.504 OA
ATOM     21  H   UNL     1      18.261  35.864   4.515  1.00  0.00     0.293 HD
ENDBRANCH  17  20
ENDBRANCH   1  12
BRANCH   6  22
ATOM     22  O   UNL     1      25.790  30.301   3.809  1.00  0.00    -0.507 OA
ATOM     23  H   UNL     1      25.400  30.689   2.965  1.00  0.00     0.293 HD
ENDBRANCH   6  22
BRANCH   8  24
ATOM     24  O   UNL     1      26.238  29.365   8.496  1.00  0.00    -0.508 OA
ATOM     25  H   UNL     1      26.919  29.824   9.090  1.00  0.00     0.293 HD
ENDBRANCH   8  24
TORSDOF 5
ENDMDL
MODEL 4
REMARK VINA RESULT:    -6.080      1.758      3.180
REMARK INTER + INTRA:          -7.444
REMARK INTER:                  -7.180
REMARK INTRA:                  -0.264
REMARK UNBOUND:                -0.297
REMARK SMILES O=c1cc(-c2ccc(O)c(O)c2)oc2cc(O)cc(O)c12
REMARK SMILES IDX 4 1 3 2 2 3 1 4 21 5 19 6 18 7 16 8 15 9 14 10 13 11 5 12
REMARK SMILES IDX 6 13 7 14 8 15 12 16 10 17 9 18 11 20 20 22 17 24
REMARK H PARENT 9 19 11 21 20 23 17 25
REMARK Flexibility Score: inf
ROOT
ATOM      1  C   UNL     1      22.202  32.690   5.392  1.00  0.00     0.138 A 
ATOM      2  C   UNL     1      21.843  31.724   4.444  1.00  0.00     0.100 A 
ATOM      3  C   UNL     1      22.450  30.467   4.474  1.00  0.00     0.197 A 
ATOM      4  O   UNL     1      22.066  29.604   3.644  1.00  0.00    -0.289 OA
ATOM      5  C   UNL     1      23.448  30.191   5.439  1.00  0.00     0.107 A 
ATOM      6  C   UNL     1      24.159  28.957   5.544  1.00  0.00     0.134 A 
ATOM      7  C   UNL     1      25.055  28.766   6.603  1.00  0.00     0.093 A 
ATOM      8  C   UNL     1      25.309  29.784   7.526  1.00  0.00     0.123 A 
ATOM      9  C   UNL     1      24.658  31.008   7.402  1.00  0.00     0.094 A 
ATOM     10  C   UNL     1      23.733  31.218   6.378  1.00  0.00     0.146 A 
ATOM     11  O   UNL     1      23.119  32.395   6.308  1.00  0.00    -0.456 OA
ENDROOT
BRANCH   1  12
ATOM     12  C   UNL     1      21.592  34.045   5.404  1.00  0.00     0.021 A 
ATOM     13  C   UNL     1      22.366  35.154   5.023  1.00  0.00     0.016 A 
ATOM     14  C   UNL     1      21.818  36.439   5.032  1.00  0.00     0.051 A 
ATOM     15  C   UNL     1      20.492  36.640   5.433  1.00  0.00     0.157 A 
ATOM     16  C   UNL     1      20.262  34.255   5.820  1.00  0.00     0.062 A 
ATOM     17  C   UNL     1      19.713  35.541   5.832  1.00  0.00     0.158 A 
BRANCH  15  18
ATOM     18  O   UNL     1      19.949  37.924   5.440  1.00  0.00    -0.504 OA
ATOM     19  H   UNL     1      20.232  38.624   4.765  1.00  0.00     0.293 HD
ENDBRANCH  15  18
BRANCH  17  20
ATOM     20  O   UNL     1      18.392  35.710   6.249  1.00  0.00    -0.504 OA
ATOM     21  H   UNL     1      18.124  36.425   6.914  1.00  0.00     0.293 HD
ENDBRANCH  17  20
ENDBRANCH   1  12
BRANCH   6  22
ATOM     22  O   UNL     1      24.042  27.905   4.631  1.00  0.00    -0.507 OA
ATOM     23  H   UNL     1      23.196  27.393   4.441  1.00  0.00     0.293 HD
ENDBRANCH   6  22
BRANCH   8  24
ATOM     24  O   UNL     1      26.215  29.589   8.567  1.00  0.00    -0.508 OA
ATOM     25  H   UNL     1      26.937  28.880   8.516  1.00  0.00     0.293 HD
ENDBRANCH   8  24
TORSDOF 5
ENDMDL
MODEL 5
REMARK VINA RESULT:    -6.027      2.146      7.311
REMARK INTER + INTRA:          -7.380
REMARK INTER:                  -7.067
REMARK INTRA:                  -0.314
REMARK UNBOUND:                -0.297
REMARK SMILES O=c1cc(-c2ccc(O)c(O)c2)oc2cc(O)cc(O)c12
REMARK SMILES IDX 4 1 3 2 2 3 1 4 21 5 19 6 18 7 16 8 15 9 14 10 13 11 5 12
REMARK SMILES IDX 6 13 7 14 8 15 12 16 10 17 9 18 11 20 20 22 17 24
REMARK H PARENT 9 19 11 21 20 23 17 25
REMARK Flexibility Score: inf
ROOT
ATOM      1  C   UNL     1      22.418  33.315   5.875  1.00  0.00     0.138 A 
ATOM      2  C   UNL     1      22.599  34.414   5.025  1.00  0.00     0.100 A 
ATOM      3  C   UNL     1      21.799  35.547   5.181  1.00  0.00     0.197 A 
ATOM      4  O   UNL     1      22.023  36.537   4.439  1.00  0.00    -0.289 OA
ATOM      5  C   UNL     1      20.789  35.563   6.172  1.00  0.00     0.107 A 
ATOM      6  C   UNL     1      19.890  36.649   6.401  1.00  0.00     0.134 A 
ATOM      7  C   UNL     1      18.996  36.589   7.477  1.00  0.00     0.093 A 
ATOM      8  C   UNL     1      18.927  35.459   8.296  1.00  0.00     0.123 A 
ATOM      9  C   UNL     1      19.764  34.374   8.049  1.00  0.00     0.094 A 
ATOM     10  C   UNL     1      20.691  34.417   7.006  1.00  0.00     0.146 A 
ATOM     11  O   UNL     1      21.484  33.367   6.817  1.00  0.00    -0.456 OA
ENDROOT
BRANCH   1  12
ATOM     12  C   UNL     1      23.238  32.082   5.750  1.00  0.00     0.021 A 
ATOM     13  C   UNL     1      23.940  31.837   4.557  1.00  0.00     0.016 A 
ATOM     14  C   UNL     1      24.713  30.682   4.413  1.00  0.00     0.051 A 
ATOM     15  C   UNL     1      24.789  29.747   5.452  1.00  0.00     0.157 A 
ATOM     16  C   UNL     1      23.308  31.131   6.787  1.00  0.00     0.062 A 
ATOM     17  C   UNL     1      24.079  29.972   6.643  1.00  0.00     0.158 A 
BRANCH  15  18
ATOM     18  O   UNL     1      25.561  28.596   5.303  1.00  0.00    -0.504 OA
ATOM     19  H   UNL     1      25.883  28.286   4.394  1.00  0.00     0.293 HD
ENDBRANCH  15  18
BRANCH  17  20
ATOM     20  O   UNL     1      24.125  29.053   7.691  1.00  0.00    -0.504 OA
ATOM     21  H   UNL     1      24.305  29.335   8.647  1.00  0.00     0.293 HD
ENDBRANCH  17  20
ENDBRANCH   1  12
BRANCH   6  22
ATOM     22  O   UNL     1      19.819  37.790   5.596  1.00  0.00    -0.507 OA
ATOM     23  H   UNL     1      20.118  37.842   4.635  1.00  0.00     0.293 HD
ENDBRANCH   6  22
BRANCH   8  24
ATOM     24  O   UNL     1      18.022  35.403   9.354  1.00  0.00    -0.508 OA
ATOM     25  H   UNL     1      17.021  35.392   9.196  1.00  0.00     0.293 HD
ENDBRANCH   8  24
TORSDOF 5
ENDMDL
MODEL 6
REMARK VINA RESULT:    -6.017      1.824      2.710
REMARK INTER + INTRA:          -7.368
REMARK INTER:                  -7.071
REMARK INTRA:                  -0.297
REMARK UNBOUND:                -0.297
REMARK SMILES O=c1cc(-c2ccc(O)c(O)c2)oc2cc(O)cc(O)c12
REMARK SMILES IDX 4 1 3 2 2 3 1 4 21 5 19 6 18 7 16 8 15 9 14 10 13 11 5 12
REMARK SMILES IDX 6 13 7 14 8 15 12 16 10 17 9 18 11 20 20 22 17 24
REMARK H PARENT 9 19 11 21 20 23 17 25
REMARK Flexibility Score: inf
ROOT
ATOM      1  C   UNL     1      22.484  32.884   6.112  1.00  0.00     0.138 A 
ATOM      2  C   UNL     1      22.837  32.780   4.760  1.00  0.00     0.100 A 
ATOM      3  C   UNL     1      23.886  31.940   4.382  1.00  0.00     0.197 A 
ATOM      4  O   UNL     1      24.141  31.827   3.156  1.00  0.00    -0.289 OA
ATOM      5  C   UNL     1      24.606  31.227   5.370  1.00  0.00     0.107 A 
ATOM      6  C   UNL     1      25.715  30.366   5.106  1.00  0.00     0.134 A 
ATOM      7  C   UNL     1      26.287  29.637   6.156  1.00  0.00     0.093 A 
ATOM      8  C   UNL     1      25.828  29.779   7.467  1.00  0.00     0.123 A 
ATOM      9  C   UNL     1      24.780  30.654   7.742  1.00  0.00     0.094 A 
ATOM     10  C   UNL     1      24.166  31.370   6.712  1.00  0.00     0.146 A 
ATOM     11  O   UNL     1      23.156  32.179   7.016  1.00  0.00    -0.456 OA
ENDROOT
BRANCH   1  12
ATOM     12  C   UNL     1      21.380  33.765   6.571  1.00  0.00     0.021 A 
ATOM     13  C   UNL     1      20.209  33.864   5.799  1.00  0.00     0.016 A 
ATOM     14  C   UNL     1      19.160  34.692   6.204  1.00  0.00     0.051 A 
ATOM     15  C   UNL     1      19.265  35.444   7.381  1.00  0.00     0.157 A 
ATOM     16  C   UNL     1      21.486  34.535   7.746  1.00  0.00     0.062 A 
ATOM     17  C   UNL     1      20.436  35.367   8.152  1.00  0.00     0.158 A 
BRANCH  15  18
ATOM     18  O   UNL     1      18.215  36.268   7.782  1.00  0.00    -0.504 OA
ATOM     19  H   UNL     1      17.453  36.501   7.155  1.00  0.00     0.293 HD
ENDBRANCH  15  18
BRANCH  17  20
ATOM     20  O   UNL     1      20.576  36.112   9.322  1.00  0.00    -0.504 OA
ATOM     21  H   UNL     1      21.301  36.811   9.433  1.00  0.00     0.293 HD
ENDBRANCH  17  20
ENDBRANCH   1  12
BRANCH   6  22
ATOM     22  O   UNL     1      26.304  30.211   3.848  1.00  0.00    -0.507 OA
ATOM     23  H   UNL     1      27.211  29.805   3.677  1.00  0.00     0.293 HD
ENDBRANCH   6  22
BRANCH   8  24
ATOM     24  O   UNL     1      26.414  29.061   8.507  1.00  0.00    -0.508 OA
ATOM     25  H   UNL     1      26.592  28.066   8.430  1.00  0.00     0.293 HD
ENDBRANCH   8  24
TORSDOF 5
ENDMDL
MODEL 7
REMARK VINA RESULT:    -5.985      1.218      1.455
REMARK INTER + INTRA:          -7.331
REMARK INTER:                  -7.046
REMARK INTRA:                  -0.286
REMARK UNBOUND:                -0.297
REMARK SMILES O=c1cc(-c2ccc(O)c(O)c2)oc2cc(O)cc(O)c12
REMARK SMILES IDX 4 1 3 2 2 3 1 4 21 5 19 6 18 7 16 8 15 9 14 10 13 11 5 12
REMARK SMILES IDX 6 13 7 14 8 15 12 16 10 17 9 18 11 20 20 22 17 24
REMARK H PARENT 9 19 11 21 20 23 17 25
REMARK Flexibility Score: inf
ROOT
ATOM      1  C   UNL     1      23.162  31.440   6.988  1.00  0.00     0.138 A 
ATOM      2  C   UNL     1      24.187  31.798   7.873  1.00  0.00     0.100 A 
ATOM      3  C   UNL     1      25.267  30.934   8.066  1.00  0.00     0.197 A 
ATOM      4  O   UNL     1      26.198  31.308   8.823  1.00  0.00    -0.289 OA
ATOM      5  C   UNL     1      25.299  29.689   7.393  1.00  0.00     0.107 A 
ATOM      6  C   UNL     1      26.332  28.713   7.537  1.00  0.00     0.134 A 
ATOM      7  C   UNL     1      26.305  27.559   6.744  1.00  0.00     0.093 A 
ATOM      8  C   UNL     1      25.255  27.319   5.855  1.00  0.00     0.123 A 
ATOM      9  C   UNL     1      24.217  28.240   5.744  1.00  0.00     0.094 A 
ATOM     10  C   UNL     1      24.232  29.417   6.496  1.00  0.00     0.146 A 
ATOM     11  O   UNL     1      23.232  30.279   6.345  1.00  0.00    -0.456 OA
ENDROOT
BRANCH   1  12
ATOM     12  C   UNL     1      21.988  32.319   6.749  1.00  0.00     0.021 A 
ATOM     13  C   UNL     1      21.397  32.350   5.474  1.00  0.00     0.016 A 
ATOM     14  C   UNL     1      20.297  33.173   5.221  1.00  0.00     0.051 A 
ATOM     15  C   UNL     1      19.776  33.988   6.234  1.00  0.00     0.157 A 
ATOM     16  C   UNL     1      21.468  33.151   7.760  1.00  0.00     0.062 A 
ATOM     17  C   UNL     1      20.368  33.979   7.507  1.00  0.00     0.158 A 
BRANCH  15  18
ATOM     18  O   UNL     1      18.678  34.807   5.977  1.00  0.00    -0.504 OA
ATOM     19  H   UNL     1      18.215  34.809   5.075  1.00  0.00     0.293 HD
ENDBRANCH  15  18
BRANCH  17  20
ATOM     20  O   UNL     1      19.879  34.788   8.533  1.00  0.00    -0.504 OA
ATOM     21  H   UNL     1      20.159  34.664   9.498  1.00  0.00     0.293 HD
ENDBRANCH  17  20
ENDBRANCH   1  12
BRANCH   6  22
ATOM     22  O   UNL     1      27.384  28.814   8.452  1.00  0.00    -0.507 OA
ATOM     23  H   UNL     1      28.188  28.208   8.482  1.00  0.00     0.293 HD
ENDBRANCH   6  22
BRANCH   8  24
ATOM     24  O   UNL     1      25.229  26.160   5.082  1.00  0.00    -0.508 OA
ATOM     25  H   UNL     1      25.284  25.240   5.503  1.00  0.00     0.293 HD
ENDBRANCH   8  24
TORSDOF 5
ENDMDL
MODEL 8
REMARK VINA RESULT:    -5.943      1.504      7.414
REMARK INTER + INTRA:          -7.282
REMARK INTER:                  -6.995
REMARK INTRA:                  -0.287
REMARK UNBOUND:                -0.297
REMARK SMILES O=c1cc(-c2ccc(O)c(O)c2)oc2cc(O)cc(O)c12
REMARK SMILES IDX 4 1 3 2 2 3 1 4 21 5 19 6 18 7 16 8 15 9 14 10 13 11 5 12
REMARK SMILES IDX 6 13 7 14 8 15 12 16 10 17 9 18 11 20 20 22 17 24
REMARK H PARENT 9 19 11 21 20 23 17 25
REMARK Flexibility Score: inf
ROOT
ATOM      1  C   UNL     1      23.240  31.477   6.871  1.00  0.00     0.138 A 
ATOM      2  C   UNL     1      22.447  31.331   5.725  1.00  0.00     0.100 A 
ATOM      3  C   UNL     1      21.380  32.204   5.508  1.00  0.00     0.197 A 
ATOM      4  O   UNL     1      20.722  32.082   4.443  1.00  0.00    -0.289 OA
ATOM      5  C   UNL     1      21.085  33.206   6.462  1.00  0.00     0.107 A 
ATOM      6  C   UNL     1      20.001  34.131   6.364  1.00  0.00     0.134 A 
ATOM      7  C   UNL     1      19.869  35.142   7.323  1.00  0.00     0.093 A 
ATOM      8  C   UNL     1      20.745  35.227   8.408  1.00  0.00     0.123 A 
ATOM      9  C   UNL     1      21.774  34.299   8.540  1.00  0.00     0.094 A 
ATOM     10  C   UNL     1      21.954  33.300   7.582  1.00  0.00     0.146 A 
ATOM     11  O   UNL     1      22.961  32.446   7.736  1.00  0.00    -0.456 OA
ENDROOT
BRANCH   1  12
ATOM     12  C   UNL     1      24.385  30.574   7.155  1.00  0.00     0.021 A 
ATOM     13  C   UNL     1      25.496  31.069   7.859  1.00  0.00     0.016 A 
ATOM     14  C   UNL     1      26.589  30.242   8.132  1.00  0.00     0.051 A 
ATOM     15  C   UNL     1      26.596  28.912   7.697  1.00  0.00     0.157 A 
ATOM     16  C   UNL     1      24.404  29.238   6.707  1.00  0.00     0.062 A 
ATOM     17  C   UNL     1      25.499  28.410   6.978  1.00  0.00     0.158 A 
BRANCH  15  18
ATOM     18  O   UNL     1      27.688  28.090   7.972  1.00  0.00    -0.504 OA
ATOM     19  H   UNL     1      27.694  27.110   7.714  1.00  0.00     0.293 HD
ENDBRANCH  15  18
BRANCH  17  20
ATOM     20  O   UNL     1      25.481  27.093   6.520  1.00  0.00    -0.504 OA
ATOM     21  H   UNL     1      25.071  26.340   7.059  1.00  0.00     0.293 HD
ENDBRANCH  17  20
ENDBRANCH   1  12
BRANCH   6  22
ATOM     22  O   UNL     1      19.023  34.087   5.367  1.00  0.00    -0.507 OA
ATOM     23  H   UNL     1      18.514  34.884   5.017  1.00  0.00     0.293 HD
ENDBRANCH   6  22
BRANCH   8  24
ATOM     24  O   UNL     1      20.595  36.228   9.366  1.00  0.00    -0.508 OA
ATOM     25  H   UNL     1      20.154  36.045  10.260  1.00  0.00     0.293 HD
ENDBRANCH   8  24
TORSDOF 5
ENDMDL
