MODEL 1
REMARK VINA RESULT:    -6.230      0.000      0.000
REMARK INTER + INTRA:          -7.022
REMARK INTER:                  -6.777
REMARK INTRA:                  -0.245
REMARK UNBOUND:                -0.245
REMARK SMILES O=C([O-])c1ccccc1O
REMARK SMILES IDX 4 1 9 2 5 3 8 4 6 5 7 6 2 7 1 8 3 9 10 10
REMARK H PARENT 10 11
REMARK Flexibility Score: inf
ROOT
ATOM      1  C   UNL     1      13.128 -46.722  38.156  1.00  0.00     0.039 A 
ATOM      2  C   UNL     1      12.496 -47.111  39.365  1.00  0.00     0.124 A 
ATOM      3  C   UNL     1      12.361 -46.086  37.161  1.00  0.00     0.014 A 
ATOM      4  C   UNL     1      11.118 -46.915  39.520  1.00  0.00     0.047 A 
ATOM      5  C   UNL     1      10.992 -45.878  37.341  1.00  0.00     0.001 A 
ATOM      6  C   UNL     1      10.369 -46.301  38.514  1.00  0.00     0.004 A 
ENDROOT
BRANCH   1   7
ATOM      7  C   UNL     1      14.558 -46.992  37.884  1.00  0.00     0.075 C 
ATOM      8  O   UNL     1      15.410 -46.863  38.802  1.00  0.00    -0.545 OA
ATOM      9  O   UNL     1      14.988 -47.321  36.606  1.00  0.00    -0.545 OA
ENDBRANCH   1   7
BRANCH   2  10
ATOM     10  O   UNL     1      13.201 -47.658  40.438  1.00  0.00    -0.507 OA
ATOM     11  H   UNL     1      12.920 -48.502  40.916  1.00  0.00     0.293 HD
ENDBRANCH   2  10
TORSDOF 2
ENDMDL
MODEL 2
REMARK VINA RESULT:    -6.090      1.011      2.227
REMARK INTER + INTRA:          -6.870
REMARK INTER:                  -6.618
REMARK INTRA:                  -0.252
REMARK UNBOUND:                -0.245
REMARK SMILES O=C([O-])c1ccccc1O
REMARK SMILES IDX 4 1 9 2 5 3 8 4 6 5 7 6 2 7 1 8 3 9 10 10
REMARK H PARENT 10 11
REMARK Flexibility Score: inf
ROOT
ATOM      1  C   UNL     1      13.422 -46.955  38.147  1.00  0.00     0.039 A 
ATOM      2  C   UNL     1      12.849 -46.277  37.040  1.00  0.00     0.124 A 
ATOM      3  C   UNL     1      12.624 -47.203  39.281  1.00  0.00     0.014 A 
ATOM      4  C   UNL     1      11.530 -45.813  37.119  1.00  0.00     0.047 A 
ATOM      5  C   UNL     1      11.303 -46.753  39.334  1.00  0.00     0.001 A 
ATOM      6  C   UNL     1      10.760 -46.050  38.260  1.00  0.00     0.004 A 
ENDROOT
BRANCH   1   7
ATOM      7  C   UNL     1      14.839 -47.380  38.171  1.00  0.00     0.075 C 
ATOM      8  O   UNL     1      15.571 -47.083  39.151  1.00  0.00    -0.545 OA
ATOM      9  O   UNL     1      15.398 -48.048  37.089  1.00  0.00    -0.545 OA
ENDBRANCH   1   7
BRANCH   2  10
ATOM     10  O   UNL     1      13.538 -46.077  35.843  1.00  0.00    -0.507 OA
ATOM     11  H   UNL     1      14.021 -45.220  35.616  1.00  0.00     0.293 HD
ENDBRANCH   2  10
TORSDOF 2
ENDMDL
MODEL 3
REMARK VINA RESULT:    -5.591      1.762      3.446
REMARK INTER + INTRA:          -6.327
REMARK INTER:                  -6.079
REMARK INTRA:                  -0.248
REMARK UNBOUND:                -0.245
REMARK SMILES O=C([O-])c1ccccc1O
REMARK SMILES IDX 4 1 9 2 5 3 8 4 6 5 7 6 2 7 1 8 3 9 10 10
REMARK H PARENT 10 11
REMARK Flexibility Score: inf
ROOT
ATOM      1  C   UNL     1      12.172 -46.557  38.458  1.00  0.00     0.039 A 
ATOM      2  C   UNL     1      13.302 -47.110  39.113  1.00  0.00     0.124 A 
ATOM      3  C   UNL     1      12.326 -46.036  37.159  1.00  0.00     0.014 A 
ATOM      4  C   UNL     1      14.554 -47.071  38.487  1.00  0.00     0.047 A 
ATOM      5  C   UNL     1      13.578 -46.025  36.539  1.00  0.00     0.001 A 
ATOM      6  C   UNL     1      14.692 -46.532  37.206  1.00  0.00     0.004 A 
ENDROOT
BRANCH   1   7
ATOM      7  C   UNL     1      10.843 -46.472  39.103  1.00  0.00     0.075 C 
ATOM      8  O   UNL     1      10.346 -47.486  39.660  1.00  0.00    -0.545 OA
ATOM      9  O   UNL     1      10.098 -45.302  39.044  1.00  0.00    -0.545 OA
ENDBRANCH   1   7
BRANCH   2  10
ATOM     10  O   UNL     1      13.217 -47.734  40.360  1.00  0.00    -0.507 OA
ATOM     11  H   UNL     1      13.693 -47.396  41.184  1.00  0.00     0.293 HD
ENDBRANCH   2  10
TORSDOF 2
ENDMDL
MODEL 4
REMARK VINA RESULT:    -5.518      3.633      4.878
REMARK INTER + INTRA:          -6.248
REMARK INTER:                  -6.000
REMARK INTRA:                  -0.248
REMARK UNBOUND:                -0.245
REMARK SMILES O=C([O-])c1ccccc1O
REMARK SMILES IDX 4 1 9 2 5 3 8 4 6 5 7 6 2 7 1 8 3 9 10 10
REMARK H PARENT 10 11
REMARK Flexibility Score: inf
ROOT
ATOM      1  C   UNL     1       9.741 -46.831  36.506  1.00  0.00     0.039 A 
ATOM      2  C   UNL     1      10.959 -46.116  36.374  1.00  0.00     0.124 A 
ATOM      3  C   UNL     1       9.361 -47.298  37.779  1.00  0.00     0.014 A 
ATOM      4  C   UNL     1      11.787 -45.944  37.490  1.00  0.00     0.047 A 
ATOM      5  C   UNL     1      10.187 -47.098  38.887  1.00  0.00     0.001 A 
ATOM      6  C   UNL     1      11.403 -46.432  38.741  1.00  0.00     0.004 A 
ENDROOT
BRANCH   1   7
ATOM      7  C   UNL     1       8.871 -47.138  35.349  1.00  0.00     0.075 C 
ATOM      8  O   UNL     1       9.370 -47.593  34.286  1.00  0.00    -0.545 OA
ATOM      9  O   UNL     1       7.510 -46.864  35.391  1.00  0.00    -0.545 OA
ENDBRANCH   1   7
BRANCH   2  10
ATOM     10  O   UNL     1      11.363 -45.536  35.169  1.00  0.00    -0.507 OA
ATOM     11  H   UNL     1      11.436 -46.049  34.302  1.00  0.00     0.293 HD
ENDBRANCH   2  10
TORSDOF 2
ENDMDL
MODEL 5
REMARK VINA RESULT:    -5.509      2.056      3.844
REMARK INTER + INTRA:          -6.238
REMARK INTER:                  -5.988
REMARK INTRA:                  -0.250
REMARK UNBOUND:                -0.245
REMARK SMILES O=C([O-])c1ccccc1O
REMARK SMILES IDX 4 1 9 2 5 3 8 4 6 5 7 6 2 7 1 8 3 9 10 10
REMARK H PARENT 10 11
REMARK Flexibility Score: inf
ROOT
ATOM      1  C   UNL     1      13.146 -46.972  38.691  1.00  0.00     0.039 A 
ATOM      2  C   UNL     1      12.806 -46.177  37.566  1.00  0.00     0.124 A 
ATOM      3  C   UNL     1      14.404 -47.603  38.723  1.00  0.00     0.014 A 
ATOM      4  C   UNL     1      13.694 -46.087  36.487  1.00  0.00     0.047 A 
ATOM      5  C   UNL     1      15.288 -47.485  37.648  1.00  0.00     0.001 A 
ATOM      6  C   UNL     1      14.929 -46.737  36.527  1.00  0.00     0.004 A 
ENDROOT
BRANCH   1   7
ATOM      7  C   UNL     1      12.213 -47.194  39.818  1.00  0.00     0.075 C 
ATOM      8  O   UNL     1      10.983 -47.356  39.597  1.00  0.00    -0.545 OA
ATOM      9  O   UNL     1      12.663 -47.157  41.131  1.00  0.00    -0.545 OA
ENDBRANCH   1   7
BRANCH   2  10
ATOM     10  O   UNL     1      11.622 -45.441  37.498  1.00  0.00    -0.507 OA
ATOM     11  H   UNL     1      11.562 -44.521  37.084  1.00  0.00     0.293 HD
ENDBRANCH   2  10
TORSDOF 2
ENDMDL
MODEL 6
REMARK VINA RESULT:    -5.389      6.916      8.266
REMARK INTER + INTRA:          -6.107
REMARK INTER:                  -5.861
REMARK INTRA:                  -0.246
REMARK UNBOUND:                -0.245
REMARK SMILES O=C([O-])c1ccccc1O
REMARK SMILES IDX 4 1 9 2 5 3 8 4 6 5 7 6 2 7 1 8 3 9 10 10
REMARK H PARENT 10 11
REMARK Flexibility Score: inf
ROOT
ATOM      1  C   UNL     1      13.300 -47.487  45.921  1.00  0.00     0.039 A 
ATOM      2  C   UNL     1      13.490 -46.167  46.405  1.00  0.00     0.124 A 
ATOM      3  C   UNL     1      12.833 -48.476  46.809  1.00  0.00     0.014 A 
ATOM      4  C   UNL     1      13.273 -45.887  47.760  1.00  0.00     0.047 A 
ATOM      5  C   UNL     1      12.600 -48.174  48.152  1.00  0.00     0.001 A 
ATOM      6  C   UNL     1      12.830 -46.885  48.630  1.00  0.00     0.004 A 
ENDROOT
BRANCH   1   7
ATOM      7  C   UNL     1      13.610 -47.875  44.528  1.00  0.00     0.075 C 
ATOM      8  O   UNL     1      14.397 -48.831  44.298  1.00  0.00    -0.545 OA
ATOM      9  O   UNL     1      13.097 -47.152  43.458  1.00  0.00    -0.545 OA
ENDBRANCH   1   7
BRANCH   2  10
ATOM     10  O   UNL     1      13.857 -45.108  45.572  1.00  0.00    -0.507 OA
ATOM     11  H   UNL     1      14.461 -45.215  44.769  1.00  0.00     0.293 HD
ENDBRANCH   2  10
TORSDOF 2
ENDMDL
MODEL 7
REMARK VINA RESULT:    -5.343      3.759      4.607
REMARK INTER + INTRA:          -6.057
REMARK INTER:                  -5.814
REMARK INTRA:                  -0.243
REMARK UNBOUND:                -0.245
REMARK SMILES O=C([O-])c1ccccc1O
REMARK SMILES IDX 4 1 9 2 5 3 8 4 6 5 7 6 2 7 1 8 3 9 10 10
REMARK H PARENT 10 11
REMARK Flexibility Score: inf
ROOT
ATOM      1  C   UNL     1       9.725 -46.925  36.695  1.00  0.00     0.039 A 
ATOM      2  C   UNL     1       9.386 -47.536  37.929  1.00  0.00     0.124 A 
ATOM      3  C   UNL     1      10.884 -46.129  36.625  1.00  0.00     0.014 A 
ATOM      4  C   UNL     1      10.170 -47.288  39.064  1.00  0.00     0.047 A 
ATOM      5  C   UNL     1      11.668 -45.910  37.760  1.00  0.00     0.001 A 
ATOM      6  C   UNL     1      11.306 -46.480  38.980  1.00  0.00     0.004 A 
ENDROOT
BRANCH   1   7
ATOM      7  C   UNL     1       8.884 -47.061  35.485  1.00  0.00     0.075 C 
ATOM      8  O   UNL     1       9.419 -47.277  34.365  1.00  0.00    -0.545 OA
ATOM      9  O   UNL     1       7.508 -46.883  35.552  1.00  0.00    -0.545 OA
ENDBRANCH   1   7
BRANCH   2  10
ATOM     10  O   UNL     1       8.311 -48.416  38.062  1.00  0.00    -0.507 OA
ATOM     11  H   UNL     1       8.308 -49.352  37.684  1.00  0.00     0.293 HD
ENDBRANCH   2  10
TORSDOF 2
ENDMDL
MODEL 8
REMARK VINA RESULT:    -5.258      7.028      8.303
REMARK INTER + INTRA:          -5.964
REMARK INTER:                  -5.740
REMARK INTRA:                  -0.224
REMARK UNBOUND:                -0.245
REMARK SMILES O=C([O-])c1ccccc1O
REMARK SMILES IDX 4 1 9 2 5 3 8 4 6 5 7 6 2 7 1 8 3 9 10 10
REMARK H PARENT 10 11
REMARK Flexibility Score: inf
ROOT
ATOM      1  C   UNL     1       8.162 -45.235  32.149  1.00  0.00     0.039 A 
ATOM      2  C   UNL     1       7.797 -46.589  31.933  1.00  0.00     0.124 A 
ATOM      3  C   UNL     1       7.219 -44.225  31.878  1.00  0.00     0.014 A 
ATOM      4  C   UNL     1       6.538 -46.891  31.398  1.00  0.00     0.047 A 
ATOM      5  C   UNL     1       5.959 -44.545  31.367  1.00  0.00     0.001 A 
ATOM      6  C   UNL     1       5.623 -45.874  31.117  1.00  0.00     0.004 A 
ENDROOT
BRANCH   1   7
ATOM      7  C   UNL     1       9.511 -44.841  32.613  1.00  0.00     0.075 C 
ATOM      8  O   UNL     1      10.481 -45.633  32.481  1.00  0.00    -0.545 OA
ATOM      9  O   UNL     1       9.713 -43.629  33.259  1.00  0.00    -0.545 OA
ENDBRANCH   1   7
BRANCH   2  10
ATOM     10  O   UNL     1       8.635 -47.655  32.265  1.00  0.00    -0.507 OA
ATOM     11  H   UNL     1       9.403 -47.577  32.917  1.00  0.00     0.293 HD
ENDBRANCH   2  10
TORSDOF 2
ENDMDL
MODEL 9
REMARK VINA RESULT:    -5.212      5.511      6.342
REMARK INTER + INTRA:          -5.914
REMARK INTER:                  -5.662
REMARK INTRA:                  -0.252
REMARK UNBOUND:                -0.245
REMARK SMILES O=C([O-])c1ccccc1O
REMARK SMILES IDX 4 1 9 2 5 3 8 4 6 5 7 6 2 7 1 8 3 9 10 10
REMARK H PARENT 10 11
REMARK Flexibility Score: inf
ROOT
ATOM      1  C   UNL     1       8.885 -47.022  34.612  1.00  0.00     0.039 A 
ATOM      2  C   UNL     1       8.555 -48.226  33.937  1.00  0.00     0.124 A 
ATOM      3  C   UNL     1       8.843 -46.998  36.020  1.00  0.00     0.014 A 
ATOM      4  C   UNL     1       8.134 -49.340  34.673  1.00  0.00     0.047 A 
ATOM      5  C   UNL     1       8.443 -48.126  36.740  1.00  0.00     0.001 A 
ATOM      6  C   UNL     1       8.079 -49.292  36.068  1.00  0.00     0.004 A 
ENDROOT
BRANCH   1   7
ATOM      7  C   UNL     1       9.237 -45.779  33.892  1.00  0.00     0.075 C 
ATOM      8  O   UNL     1       8.664 -44.696  34.184  1.00  0.00    -0.545 OA
ATOM      9  O   UNL     1      10.147 -45.798  32.843  1.00  0.00    -0.545 OA
ENDBRANCH   1   7
BRANCH   2  10
ATOM     10  O   UNL     1       8.664 -48.364  32.552  1.00  0.00    -0.507 OA
ATOM     11  H   UNL     1       8.999 -47.630  31.945  1.00  0.00     0.293 HD
ENDBRANCH   2  10
TORSDOF 2
ENDMDL
