MODEL 1
REMARK VINA RESULT:    -6.817      0.000      0.000
REMARK INTER + INTRA:         -11.522
REMARK INTER:                 -10.005
REMARK INTRA:                  -1.516
REMARK UNBOUND:                -1.516
REMARK SMILES O=c1c(O[C@H]2O[C@H](CO)[C@@H](O)[C@@H](O)[C@H]2O)c(-c2ccc(O)c(O)c2)oc2cc(O)cc(O)c12
REMARK SMILES IDX 4 1 3 2 16 3 25 4 2 5 26 6 1 7 33 8 27 9 31 10 28 11 30 12
REMARK SMILES IDX 17 13 18 14 19 15 20 16 24 17 22 18 21 19 23 21 32 23 29 25
REMARK SMILES IDX 5 27 14 28 6 29 12 30 7 31 10 32 15 33 13 35 8 37 9 38 11 40
REMARK H PARENT 21 20 23 22 32 24 29 26 15 34 13 36 9 39 11 41
REMARK Flexibility Score: inf
ROOT
ATOM      1  O   UNL     1      -7.691  -8.033  17.908  1.00  0.00    -0.454 OA
ENDROOT
BRANCH   1   2
ATOM      2  C   UNL     1      -8.343  -9.046  17.170  1.00  0.00     0.214 A 
ATOM      3  C   UNL     1      -8.189  -9.044  15.770  1.00  0.00     0.180 A 
ATOM      4  O   UNL     1      -8.854  -9.915  15.022  1.00  0.00    -0.452 OA
ATOM      5  C   UNL     1      -9.173 -10.037  17.747  1.00  0.00     0.239 A 
ATOM      6  C   UNL     1      -9.637 -10.859  15.520  1.00  0.00     0.146 A 
ATOM      7  O   UNL     1      -9.391 -10.027  18.984  1.00  0.00    -0.285 OA
ATOM      8  C   UNL     1      -9.795 -11.006  16.921  1.00  0.00     0.111 A 
ATOM      9  C   UNL     1     -10.309 -11.707  14.636  1.00  0.00     0.094 A 
ATOM     10  C   UNL     1     -10.598 -12.083  17.404  1.00  0.00     0.134 A 
ATOM     11  C   UNL     1     -11.149 -12.708  15.117  1.00  0.00     0.123 A 
ATOM     12  C   UNL     1     -11.291 -12.891  16.494  1.00  0.00     0.093 A 
BRANCH   3  13
ATOM     13  C   UNL     1      -7.318  -8.069  15.086  1.00  0.00     0.025 A 
ATOM     14  C   UNL     1      -5.938  -8.295  14.969  1.00  0.00     0.016 A 
ATOM     15  C   UNL     1      -5.127  -7.374  14.300  1.00  0.00     0.051 A 
ATOM     16  C   UNL     1      -5.687  -6.225  13.726  1.00  0.00     0.157 A 
ATOM     17  C   UNL     1      -7.880  -6.930  14.490  1.00  0.00     0.062 A 
ATOM     18  C   UNL     1      -7.072  -6.006  13.819  1.00  0.00     0.158 A 
BRANCH  16  19
ATOM     19  O   UNL     1      -4.875  -5.306  13.062  1.00  0.00    -0.504 OA
ATOM     20  H   UNL     1      -4.041  -4.926  13.494  1.00  0.00     0.293 HD
ENDBRANCH  16  19
BRANCH  18  21
ATOM     21  O   UNL     1      -7.662  -4.876  13.250  1.00  0.00    -0.504 OA
ATOM     22  H   UNL     1      -8.464  -4.421  13.667  1.00  0.00     0.293 HD
ENDBRANCH  18  21
ENDBRANCH   3  13
BRANCH  10  23
ATOM     23  O   UNL     1     -10.720 -12.417  18.756  1.00  0.00    -0.507 OA
ATOM     24  H   UNL     1     -11.166 -13.256  19.098  1.00  0.00     0.293 HD
ENDBRANCH  10  23
BRANCH  11  25
ATOM     25  O   UNL     1     -11.827 -13.528  14.217  1.00  0.00    -0.508 OA
ATOM     26  H   UNL     1     -11.334 -14.185  13.624  1.00  0.00     0.293 HD
ENDBRANCH  11  25
ENDBRANCH   1   2
BRANCH   1  27
ATOM     27  C   UNL     1      -8.272  -6.833  18.432  1.00  0.00     0.339 C 
ATOM     28  C   UNL     1      -7.209  -5.732  18.611  1.00  0.00     0.214 C 
ATOM     29  O   UNL     1      -8.966  -7.076  19.647  1.00  0.00    -0.332 OA
ATOM     30  C   UNL     1      -6.241  -6.069  19.758  1.00  0.00     0.180 C 
ATOM     31  C   UNL     1      -8.099  -7.554  20.664  1.00  0.00     0.179 C 
ATOM     32  C   UNL     1      -7.038  -6.475  21.015  1.00  0.00     0.177 C 
BRANCH  28  33
ATOM     33  O   UNL     1      -6.506  -5.554  17.408  1.00  0.00    -0.384 OA
ATOM     34  H   UNL     1      -6.033  -4.685  17.481  1.00  0.00     0.211 HD
ENDBRANCH  28  33
BRANCH  30  35
ATOM     35  O   UNL     1      -5.374  -7.100  19.358  1.00  0.00    -0.387 OA
ATOM     36  H   UNL     1      -5.556  -7.279  18.399  1.00  0.00     0.211 HD
ENDBRANCH  30  35
BRANCH  31  37
ATOM     37  C   UNL     1      -8.965  -7.908  21.885  1.00  0.00     0.191 C 
BRANCH  37  38
ATOM     38  O   UNL     1      -9.339  -9.259  21.870  1.00  0.00    -0.394 OA
ATOM     39  H   UNL     1      -9.396  -9.528  20.915  1.00  0.00     0.210 HD
ENDBRANCH  37  38
ENDBRANCH  31  37
BRANCH  32  40
ATOM     40  O   UNL     1      -6.170  -6.896  22.040  1.00  0.00    -0.387 OA
ATOM     41  H   UNL     1      -6.368  -7.849  22.237  1.00  0.00     0.211 HD
ENDBRANCH  32  40
ENDBRANCH   1  27
TORSDOF 12
ENDMDL
MODEL 2
REMARK VINA RESULT:    -6.598     12.579     16.945
REMARK INTER + INTRA:         -11.201
REMARK INTER:                  -9.723
REMARK INTRA:                  -1.477
REMARK UNBOUND:                -1.516
REMARK SMILES O=c1c(O[C@H]2O[C@H](CO)[C@@H](O)[C@@H](O)[C@H]2O)c(-c2ccc(O)c(O)c2)oc2cc(O)cc(O)c12
REMARK SMILES IDX 4 1 3 2 16 3 25 4 2 5 26 6 1 7 33 8 27 9 31 10 28 11 30 12
REMARK SMILES IDX 17 13 18 14 19 15 20 16 24 17 22 18 21 19 23 21 32 23 29 25
REMARK SMILES IDX 5 27 14 28 6 29 12 30 7 31 10 32 15 33 13 35 8 37 9 38 11 40
REMARK H PARENT 21 20 23 22 32 24 29 26 15 34 13 36 9 39 11 41
REMARK Flexibility Score: inf
ROOT
ATOM      1  O   UNL     1     -20.888 -20.091  16.741  1.00  0.00    -0.454 OA
ENDROOT
BRANCH   1   2
ATOM      2  C   UNL     1     -20.081 -20.620  15.709  1.00  0.00     0.214 A 
ATOM      3  C   UNL     1     -18.743 -20.189  15.631  1.00  0.00     0.180 A 
ATOM      4  O   UNL     1     -17.969 -20.581  14.628  1.00  0.00    -0.452 OA
ATOM      5  C   UNL     1     -20.547 -21.526  14.726  1.00  0.00     0.239 A 
ATOM      6  C   UNL     1     -18.363 -21.429  13.689  1.00  0.00     0.146 A 
ATOM      7  O   UNL     1     -21.752 -21.877  14.720  1.00  0.00    -0.285 OA
ATOM      8  C   UNL     1     -19.663 -21.993  13.721  1.00  0.00     0.111 A 
ATOM      9  C   UNL     1     -17.471 -21.754  12.665  1.00  0.00     0.094 A 
ATOM     10  C   UNL     1     -20.011 -22.952  12.722  1.00  0.00     0.134 A 
ATOM     11  C   UNL     1     -17.847 -22.635  11.654  1.00  0.00     0.123 A 
ATOM     12  C   UNL     1     -19.111 -23.228  11.684  1.00  0.00     0.093 A 
BRANCH   3  13
ATOM     13  C   UNL     1     -18.163 -19.271  16.632  1.00  0.00     0.025 A 
ATOM     14  C   UNL     1     -18.015 -19.666  17.970  1.00  0.00     0.016 A 
ATOM     15  C   UNL     1     -17.446 -18.796  18.903  1.00  0.00     0.051 A 
ATOM     16  C   UNL     1     -17.002 -17.527  18.507  1.00  0.00     0.157 A 
ATOM     17  C   UNL     1     -17.696 -18.010  16.232  1.00  0.00     0.062 A 
ATOM     18  C   UNL     1     -17.125 -17.135  17.164  1.00  0.00     0.158 A 
BRANCH  16  19
ATOM     19  O   UNL     1     -16.437 -16.659  19.442  1.00  0.00    -0.504 OA
ATOM     20  H   UNL     1     -17.010 -16.138  20.095  1.00  0.00     0.293 HD
ENDBRANCH  16  19
BRANCH  18  21
ATOM     21  O   UNL     1     -16.685 -15.882  16.736  1.00  0.00    -0.504 OA
ATOM     22  H   UNL     1     -16.879 -15.037  17.257  1.00  0.00     0.293 HD
ENDBRANCH  18  21
ENDBRANCH   3  13
BRANCH  10  23
ATOM     23  O   UNL     1     -21.205 -23.679  12.723  1.00  0.00    -0.507 OA
ATOM     24  H   UNL     1     -22.067 -23.360  12.306  1.00  0.00     0.293 HD
ENDBRANCH  10  23
BRANCH  11  25
ATOM     25  O   UNL     1     -16.950 -22.928  10.628  1.00  0.00    -0.508 OA
ATOM     26  H   UNL     1     -16.920 -22.378   9.778  1.00  0.00     0.293 HD
ENDBRANCH  11  25
ENDBRANCH   1   2
BRANCH   1  27
ATOM     27  C   UNL     1     -21.761 -20.816  17.615  1.00  0.00     0.339 C 
ATOM     28  C   UNL     1     -23.213 -20.317  17.493  1.00  0.00     0.214 C 
ATOM     29  O   UNL     1     -21.313 -20.761  18.962  1.00  0.00    -0.332 OA
ATOM     30  C   UNL     1     -23.373 -18.905  18.085  1.00  0.00     0.180 C 
ATOM     31  C   UNL     1     -21.296 -19.431  19.459  1.00  0.00     0.179 C 
ATOM     32  C   UNL     1     -22.736 -18.851  19.488  1.00  0.00     0.177 C 
BRANCH  28  33
ATOM     33  O   UNL     1     -23.606 -20.333  16.144  1.00  0.00    -0.384 OA
ATOM     34  H   UNL     1     -23.166 -19.558  15.709  1.00  0.00     0.211 HD
ENDBRANCH  28  33
BRANCH  30  35
ATOM     35  O   UNL     1     -22.779 -17.963  17.227  1.00  0.00    -0.387 OA
ATOM     36  H   UNL     1     -21.996 -18.404  16.805  1.00  0.00     0.211 HD
ENDBRANCH  30  35
BRANCH  31  37
ATOM     37  C   UNL     1     -20.676 -19.468  20.866  1.00  0.00     0.191 C 
BRANCH  37  38
ATOM     38  O   UNL     1     -21.666 -19.470  21.859  1.00  0.00    -0.394 OA
ATOM     39  H   UNL     1     -21.233 -19.796  22.692  1.00  0.00     0.210 HD
ENDBRANCH  37  38
ENDBRANCH  31  37
BRANCH  32  40
ATOM     40  O   UNL     1     -22.771 -17.540  20.000  1.00  0.00    -0.387 OA
ATOM     41  H   UNL     1     -22.105 -16.999  19.501  1.00  0.00     0.211 HD
ENDBRANCH  32  40
ENDBRANCH   1  27
TORSDOF 12
ENDMDL
MODEL 3
REMARK VINA RESULT:    -6.512     12.557     16.997
REMARK INTER + INTRA:         -11.074
REMARK INTER:                  -8.928
REMARK INTRA:                  -2.146
REMARK UNBOUND:                -1.516
REMARK SMILES O=c1c(O[C@H]2O[C@H](CO)[C@@H](O)[C@@H](O)[C@H]2O)c(-c2ccc(O)c(O)c2)oc2cc(O)cc(O)c12
REMARK SMILES IDX 4 1 3 2 16 3 25 4 2 5 26 6 1 7 33 8 27 9 31 10 28 11 30 12
REMARK SMILES IDX 17 13 18 14 19 15 20 16 24 17 22 18 21 19 23 21 32 23 29 25
REMARK SMILES IDX 5 27 14 28 6 29 12 30 7 31 10 32 15 33 13 35 8 37 9 38 11 40
REMARK H PARENT 21 20 23 22 32 24 29 26 15 34 13 36 9 39 11 41
REMARK Flexibility Score: inf
ROOT
ATOM      1  O   UNL     1     -17.756 -22.100  16.155  1.00  0.00    -0.454 OA
ENDROOT
BRANCH   1   2
ATOM      2  C   UNL     1     -19.101 -22.020  16.577  1.00  0.00     0.214 A 
ATOM      3  C   UNL     1     -19.548 -20.805  17.131  1.00  0.00     0.180 A 
ATOM      4  O   UNL     1     -20.773 -20.704  17.628  1.00  0.00    -0.452 OA
ATOM      5  C   UNL     1     -20.018 -23.098  16.512  1.00  0.00     0.239 A 
ATOM      6  C   UNL     1     -21.662 -21.686  17.586  1.00  0.00     0.146 A 
ATOM      7  O   UNL     1     -19.637 -24.217  16.090  1.00  0.00    -0.285 OA
ATOM      8  C   UNL     1     -21.347 -22.923  16.972  1.00  0.00     0.111 A 
ATOM      9  C   UNL     1     -22.917 -21.477  18.163  1.00  0.00     0.094 A 
ATOM     10  C   UNL     1     -22.365 -23.922  16.895  1.00  0.00     0.134 A 
ATOM     11  C   UNL     1     -23.878 -22.485  18.148  1.00  0.00     0.123 A 
ATOM     12  C   UNL     1     -23.599 -23.700  17.518  1.00  0.00     0.093 A 
BRANCH   3  13
ATOM     13  C   UNL     1     -18.672 -19.619  17.209  1.00  0.00     0.025 A 
ATOM     14  C   UNL     1     -17.723 -19.491  18.235  1.00  0.00     0.016 A 
ATOM     15  C   UNL     1     -16.886 -18.374  18.286  1.00  0.00     0.051 A 
ATOM     16  C   UNL     1     -16.975 -17.379  17.303  1.00  0.00     0.157 A 
ATOM     17  C   UNL     1     -18.743 -18.634  16.212  1.00  0.00     0.062 A 
ATOM     18  C   UNL     1     -17.906 -17.513  16.259  1.00  0.00     0.158 A 
BRANCH  16  19
ATOM     19  O   UNL     1     -16.140 -16.263  17.358  1.00  0.00    -0.504 OA
ATOM     20  H   UNL     1     -15.235 -16.299  17.811  1.00  0.00     0.293 HD
ENDBRANCH  16  19
BRANCH  18  21
ATOM     21  O   UNL     1     -18.013 -16.545  15.261  1.00  0.00    -0.504 OA
ATOM     22  H   UNL     1     -17.830 -15.565  15.439  1.00  0.00     0.293 HD
ENDBRANCH  18  21
ENDBRANCH   3  13
BRANCH  10  23
ATOM     23  O   UNL     1     -22.224 -25.125  16.198  1.00  0.00    -0.507 OA
ATOM     24  H   UNL     1     -21.707 -25.923  16.535  1.00  0.00     0.293 HD
ENDBRANCH  10  23
BRANCH  11  25
ATOM     25  O   UNL     1     -25.115 -22.264  18.750  1.00  0.00    -0.508 OA
ATOM     26  H   UNL     1     -25.192 -22.029  19.733  1.00  0.00     0.293 HD
ENDBRANCH  11  25
ENDBRANCH   1   2
BRANCH   1  27
ATOM     27  C   UNL     1     -17.264 -22.031  14.811  1.00  0.00     0.339 C 
ATOM     28  C   UNL     1     -16.410 -23.266  14.466  1.00  0.00     0.214 C 
ATOM     29  O   UNL     1     -16.542 -20.830  14.581  1.00  0.00    -0.332 OA
ATOM     30  C   UNL     1     -15.074 -23.255  15.229  1.00  0.00     0.180 C 
ATOM     31  C   UNL     1     -15.394 -20.737  15.411  1.00  0.00     0.179 C 
ATOM     32  C   UNL     1     -14.396 -21.878  15.077  1.00  0.00     0.177 C 
BRANCH  28  33
ATOM     33  O   UNL     1     -17.133 -24.436  14.755  1.00  0.00    -0.384 OA
ATOM     34  H   UNL     1     -16.505 -25.053  15.213  1.00  0.00     0.211 HD
ENDBRANCH  28  33
BRANCH  30  35
ATOM     35  O   UNL     1     -15.299 -23.557  16.583  1.00  0.00    -0.387 OA
ATOM     36  H   UNL     1     -15.300 -24.546  16.666  1.00  0.00     0.211 HD
ENDBRANCH  30  35
BRANCH  31  37
ATOM     37  C   UNL     1     -14.764 -19.353  15.180  1.00  0.00     0.191 C 
BRANCH  37  38
ATOM     38  O   UNL     1     -13.945 -18.979  16.255  1.00  0.00    -0.394 OA
ATOM     39  H   UNL     1     -14.549 -18.636  16.966  1.00  0.00     0.210 HD
ENDBRANCH  37  38
ENDBRANCH  31  37
BRANCH  32  40
ATOM     40  O   UNL     1     -13.228 -21.810  15.860  1.00  0.00    -0.387 OA
ATOM     41  H   UNL     1     -12.552 -21.285  15.356  1.00  0.00     0.211 HD
ENDBRANCH  32  40
ENDBRANCH   1  27
TORSDOF 12
ENDMDL
MODEL 4
REMARK VINA RESULT:    -6.505     12.190     15.968
REMARK INTER + INTRA:         -11.064
REMARK INTER:                  -9.742
REMARK INTRA:                  -1.322
REMARK UNBOUND:                -1.516
REMARK SMILES O=c1c(O[C@H]2O[C@H](CO)[C@@H](O)[C@@H](O)[C@H]2O)c(-c2ccc(O)c(O)c2)oc2cc(O)cc(O)c12
REMARK SMILES IDX 4 1 3 2 16 3 25 4 2 5 26 6 1 7 33 8 27 9 31 10 28 11 30 12
REMARK SMILES IDX 17 13 18 14 19 15 20 16 24 17 22 18 21 19 23 21 32 23 29 25
REMARK SMILES IDX 5 27 14 28 6 29 12 30 7 31 10 32 15 33 13 35 8 37 9 38 11 40
REMARK H PARENT 21 20 23 22 32 24 29 26 15 34 13 36 9 39 11 41
REMARK Flexibility Score: inf
ROOT
ATOM      1  O   UNL     1     -16.524 -20.843  15.020  1.00  0.00    -0.454 OA
ENDROOT
BRANCH   1   2
ATOM      2  C   UNL     1     -17.916 -21.077  15.080  1.00  0.00     0.214 A 
ATOM      3  C   UNL     1     -18.674 -20.317  15.989  1.00  0.00     0.180 A 
ATOM      4  O   UNL     1     -19.968 -20.561  16.153  1.00  0.00    -0.452 OA
ATOM      5  C   UNL     1     -18.587 -22.057  14.309  1.00  0.00     0.239 A 
ATOM      6  C   UNL     1     -20.635 -21.465  15.451  1.00  0.00     0.146 A 
ATOM      7  O   UNL     1     -17.934 -22.803  13.539  1.00  0.00    -0.285 OA
ATOM      8  C   UNL     1     -19.988 -22.226  14.447  1.00  0.00     0.111 A 
ATOM      9  C   UNL     1     -21.992 -21.655  15.724  1.00  0.00     0.094 A 
ATOM     10  C   UNL     1     -20.770 -23.138  13.676  1.00  0.00     0.134 A 
ATOM     11  C   UNL     1     -22.730 -22.601  15.016  1.00  0.00     0.123 A 
ATOM     12  C   UNL     1     -22.118 -23.338  13.999  1.00  0.00     0.093 A 
BRANCH   3  13
ATOM     13  C   UNL     1     -18.064 -19.252  16.810  1.00  0.00     0.025 A 
ATOM     14  C   UNL     1     -17.696 -19.493  18.143  1.00  0.00     0.016 A 
ATOM     15  C   UNL     1     -17.100 -18.484  18.903  1.00  0.00     0.051 A 
ATOM     16  C   UNL     1     -16.849 -17.227  18.336  1.00  0.00     0.157 A 
ATOM     17  C   UNL     1     -17.790 -18.002  16.237  1.00  0.00     0.062 A 
ATOM     18  C   UNL     1     -17.193 -16.988  16.995  1.00  0.00     0.158 A 
BRANCH  16  19
ATOM     19  O   UNL     1     -16.257 -16.220  19.099  1.00  0.00    -0.504 OA
ATOM     20  H   UNL     1     -15.293 -16.283  19.403  1.00  0.00     0.293 HD
ENDBRANCH  16  19
BRANCH  18  21
ATOM     21  O   UNL     1     -16.948 -15.751  16.399  1.00  0.00    -0.504 OA
ATOM     22  H   UNL     1     -17.675 -15.226  15.929  1.00  0.00     0.293 HD
ENDBRANCH  18  21
ENDBRANCH   3  13
BRANCH  10  23
ATOM     23  O   UNL     1     -20.282 -23.843  12.572  1.00  0.00    -0.507 OA
ATOM     24  H   UNL     1     -20.346 -24.844  12.460  1.00  0.00     0.293 HD
ENDBRANCH  10  23
BRANCH  11  25
ATOM     25  O   UNL     1     -24.076 -22.791  15.320  1.00  0.00    -0.508 OA
ATOM     26  H   UNL     1     -24.698 -22.007  15.481  1.00  0.00     0.293 HD
ENDBRANCH  11  25
ENDBRANCH   1   2
BRANCH   1  27
ATOM     27  C   UNL     1     -15.850 -19.808  14.295  1.00  0.00     0.339 C 
ATOM     28  C   UNL     1     -15.437 -20.288  12.891  1.00  0.00     0.214 C 
ATOM     29  O   UNL     1     -14.731 -19.309  15.015  1.00  0.00    -0.332 OA
ATOM     30  C   UNL     1     -14.304 -21.327  12.965  1.00  0.00     0.180 C 
ATOM     31  C   UNL     1     -13.755 -20.316  15.235  1.00  0.00     0.179 C 
ATOM     32  C   UNL     1     -13.177 -20.808  13.881  1.00  0.00     0.177 C 
BRANCH  28  33
ATOM     33  O   UNL     1     -16.553 -20.823  12.227  1.00  0.00    -0.384 OA
ATOM     34  H   UNL     1     -17.357 -20.455  12.678  1.00  0.00     0.211 HD
ENDBRANCH  28  33
BRANCH  30  35
ATOM     35  O   UNL     1     -14.813 -22.549  13.438  1.00  0.00    -0.387 OA
ATOM     36  H   UNL     1     -14.081 -22.998  13.934  1.00  0.00     0.211 HD
ENDBRANCH  30  35
BRANCH  31  37
ATOM     37  C   UNL     1     -12.658 -19.712  16.128  1.00  0.00     0.191 C 
BRANCH  37  38
ATOM     38  O   UNL     1     -11.570 -19.264  15.366  1.00  0.00    -0.394 OA
ATOM     39  H   UNL     1     -11.614 -19.744  14.497  1.00  0.00     0.210 HD
ENDBRANCH  37  38
ENDBRANCH  31  37
BRANCH  32  40
ATOM     40  O   UNL     1     -12.184 -21.790  14.052  1.00  0.00    -0.387 OA
ATOM     41  H   UNL     1     -12.334 -22.229  14.930  1.00  0.00     0.211 HD
ENDBRANCH  32  40
ENDBRANCH   1  27
TORSDOF 12
ENDMDL
MODEL 5
REMARK VINA RESULT:    -6.463     12.220     18.257
REMARK INTER + INTRA:         -11.001
REMARK INTER:                  -9.060
REMARK INTRA:                  -1.942
REMARK UNBOUND:                -1.516
REMARK SMILES O=c1c(O[C@H]2O[C@H](CO)[C@@H](O)[C@@H](O)[C@H]2O)c(-c2ccc(O)c(O)c2)oc2cc(O)cc(O)c12
REMARK SMILES IDX 4 1 3 2 16 3 25 4 2 5 26 6 1 7 33 8 27 9 31 10 28 11 30 12
REMARK SMILES IDX 17 13 18 14 19 15 20 16 24 17 22 18 21 19 23 21 32 23 29 25
REMARK SMILES IDX 5 27 14 28 6 29 12 30 7 31 10 32 15 33 13 35 8 37 9 38 11 40
REMARK H PARENT 21 20 23 22 32 24 29 26 15 34 13 36 9 39 11 41
REMARK Flexibility Score: inf
ROOT
ATOM      1  O   UNL     1     -20.880 -21.188  16.077  1.00  0.00    -0.454 OA
ENDROOT
BRANCH   1   2
ATOM      2  C   UNL     1     -19.710 -20.407  16.203  1.00  0.00     0.214 A 
ATOM      3  C   UNL     1     -19.822 -19.145  16.817  1.00  0.00     0.180 A 
ATOM      4  O   UNL     1     -18.775 -18.332  16.877  1.00  0.00    -0.452 OA
ATOM      5  C   UNL     1     -18.440 -20.798  15.714  1.00  0.00     0.239 A 
ATOM      6  C   UNL     1     -17.570 -18.659  16.434  1.00  0.00     0.146 A 
ATOM      7  O   UNL     1     -18.315 -21.885  15.097  1.00  0.00    -0.285 OA
ATOM      8  C   UNL     1     -17.324 -19.939  15.877  1.00  0.00     0.111 A 
ATOM      9  C   UNL     1     -16.544 -17.715  16.526  1.00  0.00     0.094 A 
ATOM     10  C   UNL     1     -15.992 -20.261  15.478  1.00  0.00     0.134 A 
ATOM     11  C   UNL     1     -15.265 -18.014  16.066  1.00  0.00     0.123 A 
ATOM     12  C   UNL     1     -14.994 -19.281  15.544  1.00  0.00     0.093 A 
BRANCH   3  13
ATOM     13  C   UNL     1     -21.098 -18.668  17.385  1.00  0.00     0.025 A 
ATOM     14  C   UNL     1     -21.379 -18.820  18.751  1.00  0.00     0.016 A 
ATOM     15  C   UNL     1     -22.582 -18.346  19.281  1.00  0.00     0.051 A 
ATOM     16  C   UNL     1     -23.512 -17.699  18.454  1.00  0.00     0.157 A 
ATOM     17  C   UNL     1     -22.019 -18.000  16.564  1.00  0.00     0.062 A 
ATOM     18  C   UNL     1     -23.225 -17.523  17.091  1.00  0.00     0.158 A 
BRANCH  16  19
ATOM     19  O   UNL     1     -24.714 -17.230  18.985  1.00  0.00    -0.504 OA
ATOM     20  H   UNL     1     -25.164 -16.398  18.623  1.00  0.00     0.293 HD
ENDBRANCH  16  19
BRANCH  18  21
ATOM     21  O   UNL     1     -24.126 -16.876  16.244  1.00  0.00    -0.504 OA
ATOM     22  H   UNL     1     -25.100 -16.753  16.487  1.00  0.00     0.293 HD
ENDBRANCH  18  21
ENDBRANCH   3  13
BRANCH  10  23
ATOM     23  O   UNL     1     -15.594 -21.529  15.044  1.00  0.00    -0.507 OA
ATOM     24  H   UNL     1     -14.685 -21.931  15.215  1.00  0.00     0.293 HD
ENDBRANCH  10  23
BRANCH  11  25
ATOM     25  O   UNL     1     -14.262 -17.049  16.146  1.00  0.00    -0.508 OA
ATOM     26  H   UNL     1     -13.342 -17.208  15.751  1.00  0.00     0.293 HD
ENDBRANCH  11  25
ENDBRANCH   1   2
BRANCH   1  27
ATOM     27  C   UNL     1     -21.290 -22.274  16.915  1.00  0.00     0.339 C 
ATOM     28  C   UNL     1     -21.559 -23.546  16.089  1.00  0.00     0.214 C 
ATOM     29  O   UNL     1     -22.420 -21.928  17.703  1.00  0.00    -0.332 OA
ATOM     30  C   UNL     1     -22.825 -23.396  15.227  1.00  0.00     0.180 C 
ATOM     31  C   UNL     1     -23.549 -21.620  16.900  1.00  0.00     0.179 C 
ATOM     32  C   UNL     1     -23.989 -22.871  16.092  1.00  0.00     0.177 C 
BRANCH  28  33
ATOM     33  O   UNL     1     -20.445 -23.830  15.283  1.00  0.00    -0.384 OA
ATOM     34  H   UNL     1     -20.756 -24.452  14.575  1.00  0.00     0.211 HD
ENDBRANCH  28  33
BRANCH  30  35
ATOM     35  O   UNL     1     -22.566 -22.528  14.153  1.00  0.00    -0.387 OA
ATOM     36  H   UNL     1     -23.411 -22.434  13.642  1.00  0.00     0.211 HD
ENDBRANCH  30  35
BRANCH  31  37
ATOM     37  C   UNL     1     -24.668 -21.134  17.837  1.00  0.00     0.191 C 
BRANCH  37  38
ATOM     38  O   UNL     1     -24.351 -21.382  19.181  1.00  0.00    -0.394 OA
ATOM     39  H   UNL     1     -24.331 -22.370  19.291  1.00  0.00     0.210 HD
ENDBRANCH  37  38
ENDBRANCH  31  37
BRANCH  32  40
ATOM     40  O   UNL     1     -25.124 -22.620  15.299  1.00  0.00    -0.387 OA
ATOM     41  H   UNL     1     -25.466 -23.492  14.970  1.00  0.00     0.211 HD
ENDBRANCH  32  40
ENDBRANCH   1  27
TORSDOF 12
ENDMDL
MODEL 6
REMARK VINA RESULT:    -6.420     13.048     16.351
REMARK INTER + INTRA:         -10.939
REMARK INTER:                  -8.850
REMARK INTRA:                  -2.089
REMARK UNBOUND:                -1.516
REMARK SMILES O=c1c(O[C@H]2O[C@H](CO)[C@@H](O)[C@@H](O)[C@H]2O)c(-c2ccc(O)c(O)c2)oc2cc(O)cc(O)c12
REMARK SMILES IDX 4 1 3 2 16 3 25 4 2 5 26 6 1 7 33 8 27 9 31 10 28 11 30 12
REMARK SMILES IDX 17 13 18 14 19 15 20 16 24 17 22 18 21 19 23 21 32 23 29 25
REMARK SMILES IDX 5 27 14 28 6 29 12 30 7 31 10 32 15 33 13 35 8 37 9 38 11 40
REMARK H PARENT 21 20 23 22 32 24 29 26 15 34 13 36 9 39 11 41
REMARK Flexibility Score: inf
ROOT
ATOM      1  O   UNL     1     -16.396 -20.341  16.220  1.00  0.00    -0.454 OA
ENDROOT
BRANCH   1   2
ATOM      2  C   UNL     1     -15.535 -21.058  15.360  1.00  0.00     0.214 A 
ATOM      3  C   UNL     1     -15.979 -22.299  14.866  1.00  0.00     0.180 A 
ATOM      4  O   UNL     1     -15.174 -23.056  14.131  1.00  0.00    -0.452 OA
ATOM      5  C   UNL     1     -14.237 -20.623  14.997  1.00  0.00     0.239 A 
ATOM      6  C   UNL     1     -13.955 -22.687  13.767  1.00  0.00     0.146 A 
ATOM      7  O   UNL     1     -13.778 -19.557  15.474  1.00  0.00    -0.285 OA
ATOM      8  C   UNL     1     -13.441 -21.419  14.136  1.00  0.00     0.111 A 
ATOM      9  C   UNL     1     -13.185 -23.575  13.012  1.00  0.00     0.094 A 
ATOM     10  C   UNL     1     -12.147 -21.047  13.659  1.00  0.00     0.134 A 
ATOM     11  C   UNL     1     -11.896 -23.231  12.615  1.00  0.00     0.123 A 
ATOM     12  C   UNL     1     -11.382 -21.974  12.939  1.00  0.00     0.093 A 
BRANCH   3  13
ATOM     13  C   UNL     1     -17.329 -22.817  15.166  1.00  0.00     0.025 A 
ATOM     14  C   UNL     1     -18.409 -22.547  14.311  1.00  0.00     0.016 A 
ATOM     15  C   UNL     1     -19.677 -23.060  14.595  1.00  0.00     0.051 A 
ATOM     16  C   UNL     1     -19.879 -23.861  15.727  1.00  0.00     0.157 A 
ATOM     17  C   UNL     1     -17.527 -23.639  16.285  1.00  0.00     0.062 A 
ATOM     18  C   UNL     1     -18.796 -24.155  16.573  1.00  0.00     0.158 A 
BRANCH  16  19
ATOM     19  O   UNL     1     -21.146 -24.369  16.010  1.00  0.00    -0.504 OA
ATOM     20  H   UNL     1     -21.600 -24.196  16.899  1.00  0.00     0.293 HD
ENDBRANCH  16  19
BRANCH  18  21
ATOM     21  O   UNL     1     -18.961 -24.957  17.702  1.00  0.00    -0.504 OA
ATOM     22  H   UNL     1     -19.240 -25.928  17.637  1.00  0.00     0.293 HD
ENDBRANCH  18  21
ENDBRANCH   3  13
BRANCH  10  23
ATOM     23  O   UNL     1     -11.587 -19.778  13.837  1.00  0.00    -0.507 OA
ATOM     24  H   UNL     1     -10.730 -19.599  14.338  1.00  0.00     0.293 HD
ENDBRANCH  10  23
BRANCH  11  25
ATOM     25  O   UNL     1     -11.136 -24.141  11.882  1.00  0.00    -0.508 OA
ATOM     26  H   UNL     1     -10.966 -24.013  10.891  1.00  0.00     0.293 HD
ENDBRANCH  11  25
ENDBRANCH   1   2
BRANCH   1  27
ATOM     27  C   UNL     1     -17.296 -19.286  15.861  1.00  0.00     0.339 C 
ATOM     28  C   UNL     1     -17.014 -18.010  16.676  1.00  0.00     0.214 C 
ATOM     29  O   UNL     1     -18.652 -19.689  15.995  1.00  0.00    -0.332 OA
ATOM     30  C   UNL     1     -17.407 -18.190  18.153  1.00  0.00     0.180 C 
ATOM     31  C   UNL     1     -18.973 -20.023  17.336  1.00  0.00     0.179 C 
ATOM     32  C   UNL     1     -18.831 -18.774  18.248  1.00  0.00     0.177 C 
BRANCH  28  33
ATOM     33  O   UNL     1     -15.656 -17.670  16.565  1.00  0.00    -0.384 OA
ATOM     34  H   UNL     1     -15.318 -17.539  17.489  1.00  0.00     0.211 HD
ENDBRANCH  28  33
BRANCH  30  35
ATOM     35  O   UNL     1     -16.476 -19.029  18.791  1.00  0.00    -0.387 OA
ATOM     36  H   UNL     1     -16.148 -19.672  18.111  1.00  0.00     0.211 HD
ENDBRANCH  30  35
BRANCH  31  37
ATOM     37  C   UNL     1     -20.412 -20.567  17.349  1.00  0.00     0.191 C 
BRANCH  37  38
ATOM     38  O   UNL     1     -20.610 -21.460  18.412  1.00  0.00    -0.394 OA
ATOM     39  H   UNL     1     -19.770 -21.984  18.504  1.00  0.00     0.210 HD
ENDBRANCH  37  38
ENDBRANCH  31  37
BRANCH  32  40
ATOM     40  O   UNL     1     -19.166 -19.052  19.587  1.00  0.00    -0.387 OA
ATOM     41  H   UNL     1     -20.156 -19.095  19.653  1.00  0.00     0.211 HD
ENDBRANCH  32  40
ENDBRANCH   1  27
TORSDOF 12
ENDMDL
MODEL 7
REMARK VINA RESULT:    -6.343      2.154      3.027
REMARK INTER + INTRA:         -10.825
REMARK INTER:                  -9.453
REMARK INTRA:                  -1.372
REMARK UNBOUND:                -1.516
REMARK SMILES O=c1c(O[C@H]2O[C@H](CO)[C@@H](O)[C@@H](O)[C@H]2O)c(-c2ccc(O)c(O)c2)oc2cc(O)cc(O)c12
REMARK SMILES IDX 4 1 3 2 16 3 25 4 2 5 26 6 1 7 33 8 27 9 31 10 28 11 30 12
REMARK SMILES IDX 17 13 18 14 19 15 20 16 24 17 22 18 21 19 23 21 32 23 29 25
REMARK SMILES IDX 5 27 14 28 6 29 12 30 7 31 10 32 15 33 13 35 8 37 9 38 11 40
REMARK H PARENT 21 20 23 22 32 24 29 26 15 34 13 36 9 39 11 41
REMARK Flexibility Score: inf
ROOT
ATOM      1  O   UNL     1      -7.174 -10.039  18.341  1.00  0.00    -0.454 OA
ENDROOT
BRANCH   1   2
ATOM      2  C   UNL     1      -8.062 -10.686  17.453  1.00  0.00     0.214 A 
ATOM      3  C   UNL     1      -8.451  -9.995  16.290  1.00  0.00     0.180 A 
ATOM      4  O   UNL     1      -9.354 -10.516  15.470  1.00  0.00    -0.452 OA
ATOM      5  C   UNL     1      -8.614 -11.970  17.680  1.00  0.00     0.239 A 
ATOM      6  C   UNL     1      -9.894 -11.714  15.644  1.00  0.00     0.146 A 
ATOM      7  O   UNL     1      -8.346 -12.586  18.741  1.00  0.00    -0.285 OA
ATOM      8  C   UNL     1      -9.507 -12.532  16.735  1.00  0.00     0.111 A 
ATOM      9  C   UNL     1     -10.854 -12.154  14.730  1.00  0.00     0.094 A 
ATOM     10  C   UNL     1     -10.071 -13.840  16.836  1.00  0.00     0.134 A 
ATOM     11  C   UNL     1     -11.452 -13.402  14.879  1.00  0.00     0.123 A 
ATOM     12  C   UNL     1     -11.062 -14.238  15.929  1.00  0.00     0.093 A 
BRANCH   3  13
ATOM     13  C   UNL     1      -7.902  -8.666  15.955  1.00  0.00     0.025 A 
ATOM     14  C   UNL     1      -8.047  -7.584  16.838  1.00  0.00     0.016 A 
ATOM     15  C   UNL     1      -7.505  -6.337  16.520  1.00  0.00     0.051 A 
ATOM     16  C   UNL     1      -6.796  -6.159  15.323  1.00  0.00     0.157 A 
ATOM     17  C   UNL     1      -7.172  -8.492  14.770  1.00  0.00     0.062 A 
ATOM     18  C   UNL     1      -6.626  -7.244  14.448  1.00  0.00     0.158 A 
BRANCH  16  19
ATOM     19  O   UNL     1      -6.258  -4.912  15.006  1.00  0.00    -0.504 OA
ATOM     20  H   UNL     1      -5.722  -4.765  14.159  1.00  0.00     0.293 HD
ENDBRANCH  16  19
BRANCH  18  21
ATOM     21  O   UNL     1      -5.918  -7.102  13.254  1.00  0.00    -0.504 OA
ATOM     22  H   UNL     1      -6.190  -7.585  12.406  1.00  0.00     0.293 HD
ENDBRANCH  18  21
ENDBRANCH   3  13
BRANCH  10  23
ATOM     23  O   UNL     1      -9.672 -14.789  17.781  1.00  0.00    -0.507 OA
ATOM     24  H   UNL     1     -10.191 -15.625  18.004  1.00  0.00     0.293 HD
ENDBRANCH  10  23
BRANCH  11  25
ATOM     25  O   UNL     1     -12.425 -13.812  13.970  1.00  0.00    -0.508 OA
ATOM     26  H   UNL     1     -13.331 -13.360  13.925  1.00  0.00     0.293 HD
ENDBRANCH  11  25
ENDBRANCH   1   2
BRANCH   1  27
ATOM     27  C   UNL     1      -5.747  -9.969  18.241  1.00  0.00     0.339 C 
ATOM     28  C   UNL     1      -5.070 -10.904  19.261  1.00  0.00     0.214 C 
ATOM     29  O   UNL     1      -5.278  -8.636  18.380  1.00  0.00    -0.332 OA
ATOM     30  C   UNL     1      -5.250 -10.389  20.699  1.00  0.00     0.180 C 
ATOM     31  C   UNL     1      -5.597  -8.095  19.653  1.00  0.00     0.179 C 
ATOM     32  C   UNL     1      -4.875  -8.894  20.771  1.00  0.00     0.177 C 
BRANCH  28  33
ATOM     33  O   UNL     1      -5.593 -12.201  19.133  1.00  0.00    -0.384 OA
ATOM     34  H   UNL     1      -5.268 -12.718  19.914  1.00  0.00     0.211 HD
ENDBRANCH  28  33
BRANCH  30  35
ATOM     35  O   UNL     1      -6.578 -10.594  21.112  1.00  0.00    -0.387 OA
ATOM     36  H   UNL     1      -6.958  -9.703  21.330  1.00  0.00     0.211 HD
ENDBRANCH  30  35
BRANCH  31  37
ATOM     37  C   UNL     1      -5.167  -6.618  19.652  1.00  0.00     0.191 C 
BRANCH  37  38
ATOM     38  O   UNL     1      -5.854  -5.886  20.631  1.00  0.00    -0.394 OA
ATOM     39  H   UNL     1      -6.245  -6.549  21.260  1.00  0.00     0.210 HD
ENDBRANCH  37  38
ENDBRANCH  31  37
BRANCH  32  40
ATOM     40  O   UNL     1      -5.141  -8.376  22.053  1.00  0.00    -0.387 OA
ATOM     41  H   UNL     1      -4.438  -8.709  22.670  1.00  0.00     0.211 HD
ENDBRANCH  32  40
ENDBRANCH   1  27
TORSDOF 12
ENDMDL
MODEL 8
REMARK VINA RESULT:    -6.334      1.367      2.507
REMARK INTER + INTRA:         -10.813
REMARK INTER:                  -9.348
REMARK INTRA:                  -1.465
REMARK UNBOUND:                -1.516
REMARK SMILES O=c1c(O[C@H]2O[C@H](CO)[C@@H](O)[C@@H](O)[C@H]2O)c(-c2ccc(O)c(O)c2)oc2cc(O)cc(O)c12
REMARK SMILES IDX 4 1 3 2 16 3 25 4 2 5 26 6 1 7 33 8 27 9 31 10 28 11 30 12
REMARK SMILES IDX 17 13 18 14 19 15 20 16 24 17 22 18 21 19 23 21 32 23 29 25
REMARK SMILES IDX 5 27 14 28 6 29 12 30 7 31 10 32 15 33 13 35 8 37 9 38 11 40
REMARK H PARENT 21 20 23 22 32 24 29 26 15 34 13 36 9 39 11 41
REMARK Flexibility Score: inf
ROOT
ATOM      1  O   UNL     1      -8.810  -9.263  18.140  1.00  0.00    -0.454 OA
ENDROOT
BRANCH   1   2
ATOM      2  C   UNL     1      -9.135 -10.232  17.165  1.00  0.00     0.214 A 
ATOM      3  C   UNL     1      -8.566 -10.096  15.884  1.00  0.00     0.180 A 
ATOM      4  O   UNL     1      -8.910 -10.923  14.906  1.00  0.00    -0.452 OA
ATOM      5  C   UNL     1     -10.027 -11.309  17.386  1.00  0.00     0.239 A 
ATOM      6  C   UNL     1      -9.738 -11.944  15.070  1.00  0.00     0.146 A 
ATOM      7  O   UNL     1     -10.609 -11.423  18.493  1.00  0.00    -0.285 OA
ATOM      8  C   UNL     1     -10.300 -12.226  16.340  1.00  0.00     0.111 A 
ATOM      9  C   UNL     1     -10.049 -12.737  13.962  1.00  0.00     0.094 A 
ATOM     10  C   UNL     1     -11.133 -13.378  16.473  1.00  0.00     0.134 A 
ATOM     11  C   UNL     1     -10.921 -13.816  14.088  1.00  0.00     0.123 A 
ATOM     12  C   UNL     1     -11.460 -14.130  15.338  1.00  0.00     0.093 A 
BRANCH   3  13
ATOM     13  C   UNL     1      -7.601  -9.023  15.573  1.00  0.00     0.025 A 
ATOM     14  C   UNL     1      -6.220  -9.239  15.697  1.00  0.00     0.016 A 
ATOM     15  C   UNL     1      -5.316  -8.223  15.380  1.00  0.00     0.051 A 
ATOM     16  C   UNL     1      -5.780  -6.983  14.919  1.00  0.00     0.157 A 
ATOM     17  C   UNL     1      -8.062  -7.790  15.089  1.00  0.00     0.062 A 
ATOM     18  C   UNL     1      -7.160  -6.769  14.769  1.00  0.00     0.158 A 
BRANCH  16  19
ATOM     19  O   UNL     1      -4.875  -5.969  14.606  1.00  0.00    -0.504 OA
ATOM     20  H   UNL     1      -4.750  -5.644  13.655  1.00  0.00     0.293 HD
ENDBRANCH  16  19
BRANCH  18  21
ATOM     21  O   UNL     1      -7.653  -5.550  14.304  1.00  0.00    -0.504 OA
ATOM     22  H   UNL     1      -8.468  -5.491  13.706  1.00  0.00     0.293 HD
ENDBRANCH  18  21
ENDBRANCH   3  13
BRANCH  10  23
ATOM     23  O   UNL     1     -11.633 -13.840  17.694  1.00  0.00    -0.507 OA
ATOM     24  H   UNL     1     -11.088 -13.924  18.539  1.00  0.00     0.293 HD
ENDBRANCH  10  23
BRANCH  11  25
ATOM     25  O   UNL     1     -11.236 -14.580  12.966  1.00  0.00    -0.508 OA
ATOM     26  H   UNL     1     -10.520 -15.065  12.438  1.00  0.00     0.293 HD
ENDBRANCH  11  25
ENDBRANCH   1   2
BRANCH   1  27
ATOM     27  C   UNL     1      -7.564  -9.112  18.830  1.00  0.00     0.339 C 
ATOM     28  C   UNL     1      -7.581  -9.856  20.179  1.00  0.00     0.214 C 
ATOM     29  O   UNL     1      -7.226  -7.744  19.004  1.00  0.00    -0.332 OA
ATOM     30  C   UNL     1      -8.516  -9.166  21.188  1.00  0.00     0.180 C 
ATOM     31  C   UNL     1      -8.184  -7.061  19.797  1.00  0.00     0.179 C 
ATOM     32  C   UNL     1      -8.215  -7.654  21.232  1.00  0.00     0.177 C 
BRANCH  28  33
ATOM     33  O   UNL     1      -7.970 -11.190  19.979  1.00  0.00    -0.384 OA
ATOM     34  H   UNL     1      -7.230 -11.757  20.318  1.00  0.00     0.211 HD
ENDBRANCH  28  33
BRANCH  30  35
ATOM     35  O   UNL     1      -9.854  -9.402  20.829  1.00  0.00    -0.387 OA
ATOM     36  H   UNL     1     -10.250  -8.526  20.582  1.00  0.00     0.211 HD
ENDBRANCH  30  35
BRANCH  31  37
ATOM     37  C   UNL     1      -7.798  -5.571  19.813  1.00  0.00     0.191 C 
BRANCH  37  38
ATOM     38  O   UNL     1      -7.000  -5.264  20.925  1.00  0.00    -0.394 OA
ATOM     39  H   UNL     1      -6.445  -4.481  20.669  1.00  0.00     0.210 HD
ENDBRANCH  37  38
ENDBRANCH  31  37
BRANCH  32  40
ATOM     40  O   UNL     1      -9.135  -6.988  22.063  1.00  0.00    -0.387 OA
ATOM     41  H   UNL     1      -8.773  -6.085  22.259  1.00  0.00     0.211 HD
ENDBRANCH  32  40
ENDBRANCH   1  27
TORSDOF 12
ENDMDL
MODEL 9
REMARK VINA RESULT:    -6.315      1.606      2.126
REMARK INTER + INTRA:         -10.784
REMARK INTER:                 -10.064
REMARK INTRA:                  -0.720
REMARK UNBOUND:                -1.516
REMARK SMILES O=c1c(O[C@H]2O[C@H](CO)[C@@H](O)[C@@H](O)[C@H]2O)c(-c2ccc(O)c(O)c2)oc2cc(O)cc(O)c12
REMARK SMILES IDX 4 1 3 2 16 3 25 4 2 5 26 6 1 7 33 8 27 9 31 10 28 11 30 12
REMARK SMILES IDX 17 13 18 14 19 15 20 16 24 17 22 18 21 19 23 21 32 23 29 25
REMARK SMILES IDX 5 27 14 28 6 29 12 30 7 31 10 32 15 33 13 35 8 37 9 38 11 40
REMARK H PARENT 21 20 23 22 32 24 29 26 15 34 13 36 9 39 11 41
REMARK Flexibility Score: inf
ROOT
ATOM      1  O   UNL     1      -6.477  -9.471  17.905  1.00  0.00    -0.454 OA
ENDROOT
BRANCH   1   2
ATOM      2  C   UNL     1      -7.271 -10.378  17.169  1.00  0.00     0.214 A 
ATOM      3  C   UNL     1      -7.567 -10.061  15.830  1.00  0.00     0.180 A 
ATOM      4  O   UNL     1      -8.384 -10.830  15.123  1.00  0.00    -0.452 OA
ATOM      5  C   UNL     1      -7.820 -11.567  17.708  1.00  0.00     0.239 A 
ATOM      6  C   UNL     1      -8.917 -11.951  15.587  1.00  0.00     0.146 A 
ATOM      7  O   UNL     1      -7.637 -11.848  18.918  1.00  0.00    -0.285 OA
ATOM      8  C   UNL     1      -8.616 -12.410  16.893  1.00  0.00     0.111 A 
ATOM      9  C   UNL     1      -9.784 -12.671  14.762  1.00  0.00     0.094 A 
ATOM     10  C   UNL     1      -9.164 -13.659  17.316  1.00  0.00     0.134 A 
ATOM     11  C   UNL     1     -10.372 -13.850  15.212  1.00  0.00     0.123 A 
ATOM     12  C   UNL     1     -10.063 -14.337  16.484  1.00  0.00     0.093 A 
BRANCH   3  13
ATOM     13  C   UNL     1      -7.012  -8.859  15.176  1.00  0.00     0.025 A 
ATOM     14  C   UNL     1      -5.633  -8.740  14.942  1.00  0.00     0.016 A 
ATOM     15  C   UNL     1      -5.122  -7.607  14.303  1.00  0.00     0.051 A 
ATOM     16  C   UNL     1      -5.984  -6.587  13.876  1.00  0.00     0.157 A 
ATOM     17  C   UNL     1      -7.875  -7.849  14.726  1.00  0.00     0.062 A 
ATOM     18  C   UNL     1      -7.368  -6.713  14.086  1.00  0.00     0.158 A 
BRANCH  16  19
ATOM     19  O   UNL     1      -5.472  -5.456  13.242  1.00  0.00    -0.504 OA
ATOM     20  H   UNL     1      -6.051  -4.648  13.047  1.00  0.00     0.293 HD
ENDBRANCH  16  19
BRANCH  18  21
ATOM     21  O   UNL     1      -8.253  -5.720  13.665  1.00  0.00    -0.504 OA
ATOM     22  H   UNL     1      -8.533  -4.957  14.268  1.00  0.00     0.293 HD
ENDBRANCH  18  21
ENDBRANCH   3  13
BRANCH  10  23
ATOM     23  O   UNL     1      -8.835 -14.285  18.522  1.00  0.00    -0.507 OA
ATOM     24  H   UNL     1      -9.462 -14.876  19.047  1.00  0.00     0.293 HD
ENDBRANCH  10  23
BRANCH  11  25
ATOM     25  O   UNL     1     -11.253 -14.540  14.381  1.00  0.00    -0.508 OA
ATOM     26  H   UNL     1     -11.099 -15.511  14.136  1.00  0.00     0.293 HD
ENDBRANCH  11  25
ENDBRANCH   1   2
BRANCH   1  27
ATOM     27  C   UNL     1      -6.876  -8.198  18.429  1.00  0.00     0.339 C 
ATOM     28  C   UNL     1      -6.267  -7.953  19.822  1.00  0.00     0.214 C 
ATOM     29  O   UNL     1      -8.290  -8.066  18.459  1.00  0.00    -0.332 OA
ATOM     30  C   UNL     1      -6.899  -8.874  20.880  1.00  0.00     0.180 C 
ATOM     31  C   UNL     1      -8.892  -9.032  19.307  1.00  0.00     0.179 C 
ATOM     32  C   UNL     1      -8.436  -8.816  20.775  1.00  0.00     0.177 C 
BRANCH  28  33
ATOM     33  O   UNL     1      -4.876  -8.144  19.770  1.00  0.00    -0.384 OA
ATOM     34  H   UNL     1      -4.460  -7.261  19.948  1.00  0.00     0.211 HD
ENDBRANCH  28  33
BRANCH  30  35
ATOM     35  O   UNL     1      -6.433 -10.188  20.702  1.00  0.00    -0.387 OA
ATOM     36  H   UNL     1      -5.597 -10.133  20.170  1.00  0.00     0.211 HD
ENDBRANCH  30  35
BRANCH  31  37
ATOM     37  C   UNL     1     -10.418  -8.888  19.165  1.00  0.00     0.191 C 
BRANCH  37  38
ATOM     38  O   UNL     1     -11.060 -10.127  19.295  1.00  0.00    -0.394 OA
ATOM     39  H   UNL     1     -11.799  -9.998  19.947  1.00  0.00     0.210 HD
ENDBRANCH  37  38
ENDBRANCH  31  37
BRANCH  32  40
ATOM     40  O   UNL     1      -9.030  -9.736  21.658  1.00  0.00    -0.387 OA
ATOM     41  H   UNL     1      -9.926  -9.970  21.299  1.00  0.00     0.211 HD
ENDBRANCH  32  40
ENDBRANCH   1  27
TORSDOF 12
ENDMDL
