MODEL 1
REMARK VINA RESULT:    -3.589      0.000      0.000
REMARK INTER + INTRA:          -4.695
REMARK INTER:                  -4.428
REMARK INTRA:                  -0.267
REMARK UNBOUND:                -0.267
REMARK SMILES C=CCc1ccc(OC)c(OC)c1
REMARK SMILES IDX 7 1 10 2 13 3 4 4 5 5 6 6 8 7 9 8 11 9 12 10 3 11 2 12 1 13
REMARK H PARENT
REMARK Flexibility Score: inf
ROOT
ATOM      1  C   UNL     1      28.928  28.826  25.068  1.00  0.00     0.160 A 
ATOM      2  C   UNL     1      29.007  29.794  26.082  1.00  0.00     0.160 A 
ATOM      3  C   UNL     1      29.081  31.159  25.739  1.00  0.00     0.054 A 
ATOM      4  C   UNL     1      29.079  31.557  24.393  1.00  0.00    -0.040 A 
ATOM      5  C   UNL     1      28.988  30.586  23.388  1.00  0.00     0.008 A 
ATOM      6  C   UNL     1      28.917  29.232  23.719  1.00  0.00     0.051 A 
ENDROOT
BRANCH   1   7
ATOM      7  O   UNL     1      28.859  27.474  25.439  1.00  0.00    -0.493 OA
ATOM      8  C   UNL     1      27.648  26.755  25.648  1.00  0.00     0.278 C 
ENDBRANCH   1   7
BRANCH   2   9
ATOM      9  O   UNL     1      29.010  29.361  27.418  1.00  0.00    -0.493 OA
ATOM     10  C   UNL     1      27.899  29.462  28.302  1.00  0.00     0.278 C 
ENDBRANCH   2   9
BRANCH   4  11
ATOM     11  C   UNL     1      29.125  33.019  24.031  1.00  0.00     0.062 C 
BRANCH  11  12
ATOM     12  C   UNL     1      28.374  33.273  22.754  1.00  0.00    -0.030 C 
ATOM     13  C   UNL     1      28.990  33.706  21.650  1.00  0.00     0.004 C 
ENDBRANCH  11  12
ENDBRANCH   4  11
TORSDOF 4
ENDMDL
MODEL 2
REMARK VINA RESULT:    -2.850      2.534      6.504
REMARK INTER + INTRA:          -3.783
REMARK INTER:                  -3.664
REMARK INTRA:                  -0.120
REMARK UNBOUND:                -0.267
REMARK SMILES C=CCc1ccc(OC)c(OC)c1
REMARK SMILES IDX 7 1 10 2 13 3 4 4 5 5 6 6 8 7 9 8 11 9 12 10 3 11 2 12 1 13
REMARK H PARENT
REMARK Flexibility Score: inf
ROOT
ATOM      1  C   UNL     1      28.574  27.549  26.150  1.00  0.00     0.160 A 
ATOM      2  C   UNL     1      27.436  27.550  25.328  1.00  0.00     0.160 A 
ATOM      3  C   UNL     1      26.862  26.326  24.929  1.00  0.00     0.054 A 
ATOM      4  C   UNL     1      27.421  25.108  25.344  1.00  0.00    -0.040 A 
ATOM      5  C   UNL     1      28.550  25.116  26.174  1.00  0.00     0.008 A 
ATOM      6  C   UNL     1      29.125  26.324  26.571  1.00  0.00     0.051 A 
ENDROOT
BRANCH   1   7
ATOM      7  O   UNL     1      29.125  28.783  26.528  1.00  0.00    -0.493 OA
ATOM      8  C   UNL     1      28.684  29.558  27.638  1.00  0.00     0.278 C 
ENDBRANCH   1   7
BRANCH   2   9
ATOM      9  O   UNL     1      26.904  28.787  24.928  1.00  0.00    -0.493 OA
ATOM     10  C   UNL     1      27.492  29.641  23.953  1.00  0.00     0.278 C 
ENDBRANCH   2   9
BRANCH   4  11
ATOM     11  C   UNL     1      26.786  23.802  24.943  1.00  0.00     0.062 C 
BRANCH  11  12
ATOM     12  C   UNL     1      26.298  23.055  26.153  1.00  0.00    -0.030 C 
ATOM     13  C   UNL     1      25.012  23.068  26.516  1.00  0.00     0.004 C 
ENDBRANCH  11  12
ENDBRANCH   4  11
TORSDOF 4
ENDMDL
MODEL 3
REMARK VINA RESULT:    -2.724      2.341      4.300
REMARK INTER + INTRA:          -3.628
REMARK INTER:                  -3.509
REMARK INTRA:                  -0.119
REMARK UNBOUND:                -0.267
REMARK SMILES C=CCc1ccc(OC)c(OC)c1
REMARK SMILES IDX 7 1 10 2 13 3 4 4 5 5 6 6 8 7 9 8 11 9 12 10 3 11 2 12 1 13
REMARK H PARENT
REMARK Flexibility Score: inf
ROOT
ATOM      1  C   UNL     1      27.172  25.696  26.081  1.00  0.00     0.160 A 
ATOM      2  C   UNL     1      28.479  25.704  25.569  1.00  0.00     0.160 A 
ATOM      3  C   UNL     1      29.108  26.932  25.283  1.00  0.00     0.054 A 
ATOM      4  C   UNL     1      28.437  28.145  25.502  1.00  0.00    -0.040 A 
ATOM      5  C   UNL     1      27.138  28.128  26.024  1.00  0.00     0.008 A 
ATOM      6  C   UNL     1      26.507  26.916  26.308  1.00  0.00     0.051 A 
ENDROOT
BRANCH   1   7
ATOM      7  O   UNL     1      26.569  24.457  26.353  1.00  0.00    -0.493 OA
ATOM      8  C   UNL     1      25.478  24.270  27.249  1.00  0.00     0.278 C 
ENDBRANCH   1   7
BRANCH   2   9
ATOM      9  O   UNL     1      29.120  24.472  25.358  1.00  0.00    -0.493 OA
ATOM     10  C   UNL     1      28.880  23.617  24.246  1.00  0.00     0.278 C 
ENDBRANCH   2   9
BRANCH   4  11
ATOM     11  C   UNL     1      29.125  29.457  25.226  1.00  0.00     0.062 C 
BRANCH  11  12
ATOM     12  C   UNL     1      28.539  30.119  24.010  1.00  0.00    -0.030 C 
ATOM     13  C   UNL     1      29.055  31.243  23.504  1.00  0.00     0.004 C 
ENDBRANCH  11  12
ENDBRANCH   4  11
TORSDOF 4
ENDMDL
MODEL 4
REMARK VINA RESULT:    -2.718      2.989      4.765
REMARK INTER + INTRA:          -3.621
REMARK INTER:                  -3.432
REMARK INTRA:                  -0.188
REMARK UNBOUND:                -0.267
REMARK SMILES C=CCc1ccc(OC)c(OC)c1
REMARK SMILES IDX 7 1 10 2 13 3 4 4 5 5 6 6 8 7 9 8 11 9 12 10 3 11 2 12 1 13
REMARK H PARENT
REMARK Flexibility Score: inf
ROOT
ATOM      1  C   UNL     1      27.748  24.732  25.392  1.00  0.00     0.160 A 
ATOM      2  C   UNL     1      26.767  25.418  26.126  1.00  0.00     0.160 A 
ATOM      3  C   UNL     1      26.976  26.766  26.479  1.00  0.00     0.054 A 
ATOM      4  C   UNL     1      28.157  27.426  26.107  1.00  0.00    -0.040 A 
ATOM      5  C   UNL     1      29.125  26.738  25.365  1.00  0.00     0.008 A 
ATOM      6  C   UNL     1      28.927  25.402  25.013  1.00  0.00     0.051 A 
ENDROOT
BRANCH   1   7
ATOM      7  O   UNL     1      27.514  23.389  25.058  1.00  0.00    -0.493 OA
ATOM      8  C   UNL     1      26.677  22.958  23.989  1.00  0.00     0.278 C 
ENDBRANCH   1   7
BRANCH   2   9
ATOM      9  O   UNL     1      25.599  24.727  26.486  1.00  0.00    -0.493 OA
ATOM     10  C   UNL     1      25.450  23.955  27.673  1.00  0.00     0.278 C 
ENDBRANCH   2   9
BRANCH   4  11
ATOM     11  C   UNL     1      28.362  28.877  26.458  1.00  0.00     0.062 C 
BRANCH  11  12
ATOM     12  C   UNL     1      28.781  29.663  25.246  1.00  0.00    -0.030 C 
ATOM     13  C   UNL     1      27.922  29.950  24.263  1.00  0.00     0.004 C 
ENDBRANCH  11  12
ENDBRANCH   4  11
TORSDOF 4
ENDMDL
MODEL 5
REMARK VINA RESULT:    -2.408      4.894      7.239
REMARK INTER + INTRA:          -3.238
REMARK INTER:                  -3.465
REMARK INTRA:                   0.227
REMARK UNBOUND:                -0.267
REMARK SMILES C=CCc1ccc(OC)c(OC)c1
REMARK SMILES IDX 7 1 10 2 13 3 4 4 5 5 6 6 8 7 9 8 11 9 12 10 3 11 2 12 1 13
REMARK H PARENT
REMARK Flexibility Score: inf
ROOT
ATOM      1  C   UNL     1      24.750  23.437  26.037  1.00  0.00     0.160 A 
ATOM      2  C   UNL     1      25.643  23.830  27.046  1.00  0.00     0.160 A 
ATOM      3  C   UNL     1      26.945  24.244  26.701  1.00  0.00     0.054 A 
ATOM      4  C   UNL     1      27.356  24.263  25.360  1.00  0.00    -0.040 A 
ATOM      5  C   UNL     1      26.454  23.880  24.359  1.00  0.00     0.008 A 
ATOM      6  C   UNL     1      25.164  23.466  24.692  1.00  0.00     0.051 A 
ENDROOT
BRANCH   1   7
ATOM      7  O   UNL     1      23.460  23.026  26.412  1.00  0.00    -0.493 OA
ATOM      8  C   UNL     1      22.588  23.773  27.253  1.00  0.00     0.278 C 
ENDBRANCH   1   7
BRANCH   2   9
ATOM      9  O   UNL     1      25.202  23.796  28.379  1.00  0.00    -0.493 OA
ATOM     10  C   UNL     1      25.666  22.875  29.360  1.00  0.00     0.278 C 
ENDBRANCH   2   9
BRANCH   4  11
ATOM     11  C   UNL     1      28.738  24.738  24.992  1.00  0.00     0.062 C 
BRANCH  11  12
ATOM     12  C   UNL     1      29.122  25.940  25.809  1.00  0.00    -0.030 C 
ATOM     13  C   UNL     1      28.573  27.140  25.596  1.00  0.00     0.004 C 
ENDBRANCH  11  12
ENDBRANCH   4  11
TORSDOF 4
ENDMDL
MODEL 6
REMARK VINA RESULT:    -2.402      0.922      2.573
REMARK INTER + INTRA:          -3.231
REMARK INTER:                  -3.011
REMARK INTRA:                  -0.220
REMARK UNBOUND:                -0.267
REMARK SMILES C=CCc1ccc(OC)c(OC)c1
REMARK SMILES IDX 7 1 10 2 13 3 4 4 5 5 6 6 8 7 9 8 11 9 12 10 3 11 2 12 1 13
REMARK H PARENT
REMARK Flexibility Score: inf
ROOT
ATOM      1  C   UNL     1      28.633  29.199  26.455  1.00  0.00     0.160 A 
ATOM      2  C   UNL     1      28.312  28.554  25.250  1.00  0.00     0.160 A 
ATOM      3  C   UNL     1      28.397  29.263  24.035  1.00  0.00     0.054 A 
ATOM      4  C   UNL     1      28.796  30.608  24.020  1.00  0.00    -0.040 A 
ATOM      5  C   UNL     1      29.125  31.241  25.226  1.00  0.00     0.008 A 
ATOM      6  C   UNL     1      29.041  30.547  26.433  1.00  0.00     0.051 A 
ENDROOT
BRANCH   1   7
ATOM      7  O   UNL     1      28.535  28.469  27.650  1.00  0.00    -0.493 OA
ATOM      8  C   UNL     1      29.093  28.880  28.894  1.00  0.00     0.278 C 
ENDBRANCH   1   7
BRANCH   2   9
ATOM      9  O   UNL     1      27.914  27.208  25.300  1.00  0.00    -0.493 OA
ATOM     10  C   UNL     1      28.806  26.099  25.256  1.00  0.00     0.278 C 
ENDBRANCH   2   9
BRANCH   4  11
ATOM     11  C   UNL     1      28.917  31.353  22.717  1.00  0.00     0.062 C 
BRANCH  11  12
ATOM     12  C   UNL     1      29.039  32.832  22.959  1.00  0.00    -0.030 C 
ATOM     13  C   UNL     1      28.951  33.717  21.961  1.00  0.00     0.004 C 
ENDBRANCH  11  12
ENDBRANCH   4  11
TORSDOF 4
ENDMDL
MODEL 7
REMARK VINA RESULT:    -2.363      1.618      5.058
REMARK INTER + INTRA:          -3.182
REMARK INTER:                  -2.932
REMARK INTRA:                  -0.250
REMARK UNBOUND:                -0.267
REMARK SMILES C=CCc1ccc(OC)c(OC)c1
REMARK SMILES IDX 7 1 10 2 13 3 4 4 5 5 6 6 8 7 9 8 11 9 12 10 3 11 2 12 1 13
REMARK H PARENT
REMARK Flexibility Score: inf
ROOT
ATOM      1  C   UNL     1      29.016  29.969  25.329  1.00  0.00     0.160 A 
ATOM      2  C   UNL     1      28.908  29.278  26.546  1.00  0.00     0.160 A 
ATOM      3  C   UNL     1      28.905  27.869  26.549  1.00  0.00     0.054 A 
ATOM      4  C   UNL     1      29.005  27.152  25.347  1.00  0.00    -0.040 A 
ATOM      5  C   UNL     1      29.123  27.850  24.138  1.00  0.00     0.008 A 
ATOM      6  C   UNL     1      29.125  29.245  24.126  1.00  0.00     0.051 A 
ENDROOT
BRANCH   1   7
ATOM      7  O   UNL     1      29.012  31.373  25.356  1.00  0.00    -0.493 OA
ATOM      8  C   UNL     1      28.970  32.202  24.199  1.00  0.00     0.278 C 
ENDBRANCH   1   7
BRANCH   2   9
ATOM      9  O   UNL     1      28.806  30.025  27.730  1.00  0.00    -0.493 OA
ATOM     10  C   UNL     1      27.808  29.828  28.726  1.00  0.00     0.278 C 
ENDBRANCH   2   9
BRANCH   4  11
ATOM     11  C   UNL     1      29.035  25.646  25.357  1.00  0.00     0.062 C 
BRANCH  11  12
ATOM     12  C   UNL     1      27.773  25.094  25.960  1.00  0.00    -0.030 C 
ATOM     13  C   UNL     1      27.002  24.223  25.302  1.00  0.00     0.004 C 
ENDBRANCH  11  12
ENDBRANCH   4  11
TORSDOF 4
ENDMDL
MODEL 8
REMARK VINA RESULT:    -2.082      2.814      5.277
REMARK INTER + INTRA:          -2.836
REMARK INTER:                  -2.633
REMARK INTRA:                  -0.203
REMARK UNBOUND:                -0.267
REMARK SMILES C=CCc1ccc(OC)c(OC)c1
REMARK SMILES IDX 7 1 10 2 13 3 4 4 5 5 6 6 8 7 9 8 11 9 12 10 3 11 2 12 1 13
REMARK H PARENT
REMARK Flexibility Score: inf
ROOT
ATOM      1  C   UNL     1      28.883  32.831  22.586  1.00  0.00     0.160 A 
ATOM      2  C   UNL     1      28.671  33.035  23.959  1.00  0.00     0.160 A 
ATOM      3  C   UNL     1      28.683  31.933  24.837  1.00  0.00     0.054 A 
ATOM      4  C   UNL     1      28.902  30.635  24.351  1.00  0.00    -0.040 A 
ATOM      5  C   UNL     1      29.125  30.442  22.982  1.00  0.00     0.008 A 
ATOM      6  C   UNL     1      29.112  31.527  22.105  1.00  0.00     0.051 A 
ENDROOT
BRANCH   1   7
ATOM      7  O   UNL     1      28.861  33.947  21.734  1.00  0.00    -0.493 OA
ATOM      8  C   UNL     1      28.929  33.878  20.314  1.00  0.00     0.278 C 
ENDBRANCH   1   7
BRANCH   2   9
ATOM      9  O   UNL     1      28.451  34.346  24.412  1.00  0.00    -0.493 OA
ATOM     10  C   UNL     1      27.179  34.984  24.451  1.00  0.00     0.278 C 
ENDBRANCH   2   9
BRANCH   4  11
ATOM     11  C   UNL     1      28.948  29.464  25.298  1.00  0.00     0.062 C 
BRANCH  11  12
ATOM     12  C   UNL     1      29.088  29.935  26.719  1.00  0.00    -0.030 C 
ATOM     13  C   UNL     1      28.406  29.367  27.718  1.00  0.00     0.004 C 
ENDBRANCH  11  12
ENDBRANCH   4  11
TORSDOF 4
ENDMDL
MODEL 9
REMARK VINA RESULT:    -1.803      4.422      7.695
REMARK INTER + INTRA:          -2.492
REMARK INTER:                  -2.316
REMARK INTRA:                  -0.176
REMARK UNBOUND:                -0.267
REMARK SMILES C=CCc1ccc(OC)c(OC)c1
REMARK SMILES IDX 7 1 10 2 13 3 4 4 5 5 6 6 8 7 9 8 11 9 12 10 3 11 2 12 1 13
REMARK H PARENT
REMARK Flexibility Score: inf
ROOT
ATOM      1  C   UNL     1      26.806  23.841  24.992  1.00  0.00     0.160 A 
ATOM      2  C   UNL     1      26.815  24.933  25.874  1.00  0.00     0.160 A 
ATOM      3  C   UNL     1      25.795  25.058  26.839  1.00  0.00     0.054 A 
ATOM      4  C   UNL     1      24.771  24.103  26.922  1.00  0.00    -0.040 A 
ATOM      5  C   UNL     1      24.776  23.010  26.046  1.00  0.00     0.008 A 
ATOM      6  C   UNL     1      25.780  22.880  25.086  1.00  0.00     0.051 A 
ENDROOT
BRANCH   1   7
ATOM      7  O   UNL     1      27.832  23.744  24.038  1.00  0.00    -0.493 OA
ATOM      8  C   UNL     1      29.125  23.207  24.297  1.00  0.00     0.278 C 
ENDBRANCH   1   7
BRANCH   2   9
ATOM      9  O   UNL     1      27.853  25.872  25.761  1.00  0.00    -0.493 OA
ATOM     10  C   UNL     1      27.666  27.284  25.753  1.00  0.00     0.278 C 
ENDBRANCH   2   9
BRANCH   4  11
ATOM     11  C   UNL     1      23.701  24.222  27.977  1.00  0.00     0.062 C 
BRANCH  11  12
ATOM     12  C   UNL     1      23.186  25.633  28.054  1.00  0.00    -0.030 C 
ATOM     13  C   UNL     1      21.883  25.911  27.958  1.00  0.00     0.004 C 
ENDBRANCH  11  12
ENDBRANCH   4  11
TORSDOF 4
ENDMDL
