MODEL 1
REMARK VINA RESULT:    -3.987      0.000      0.000
REMARK INTER + INTRA:          -4.769
REMARK INTER:                  -4.687
REMARK INTRA:                  -0.083
REMARK UNBOUND:                -0.083
REMARK SMILES O=C([O-])CCC(=O)[O-]
REMARK SMILES IDX 4 1 2 2 1 3 3 4 5 5 6 6 7 7 8 8
REMARK H PARENT
REMARK Flexibility Score: inf
ROOT
ATOM      1  C   UNL     1      14.427  34.787  13.209  1.00  0.00     0.059 C 
ENDROOT
BRANCH   1   2
ATOM      2  C   UNL     1      13.669  35.994  12.754  1.00  0.00     0.042 C 
ATOM      3  O   UNL     1      12.781  36.500  13.490  1.00  0.00    -0.550 OA
ATOM      4  O   UNL     1      13.910  36.532  11.496  1.00  0.00    -0.550 OA
ENDBRANCH   1   2
BRANCH   1   5
ATOM      5  C   UNL     1      13.531  33.881  14.055  1.00  0.00     0.059 C 
BRANCH   5   6
ATOM      6  C   UNL     1      13.224  32.616  13.320  1.00  0.00     0.042 C 
ATOM      7  O   UNL     1      13.715  32.410  12.179  1.00  0.00    -0.550 OA
ATOM      8  O   UNL     1      12.355  31.683  13.873  1.00  0.00    -0.550 OA
ENDBRANCH   5   6
ENDBRANCH   1   5
TORSDOF 3
ENDMDL
MODEL 2
REMARK VINA RESULT:    -3.974      0.049      4.044
REMARK INTER + INTRA:          -4.753
REMARK INTER:                  -4.674
REMARK INTRA:                  -0.079
REMARK UNBOUND:                -0.083
REMARK SMILES O=C([O-])CCC(=O)[O-]
REMARK SMILES IDX 4 1 2 2 1 3 3 4 5 5 6 6 7 7 8 8
REMARK H PARENT
REMARK Flexibility Score: inf
ROOT
ATOM      1  C   UNL     1      13.499  33.913  14.021  1.00  0.00     0.059 C 
ENDROOT
BRANCH   1   2
ATOM      2  C   UNL     1      13.225  32.632  13.297  1.00  0.00     0.042 C 
ATOM      3  O   UNL     1      13.768  32.406  12.183  1.00  0.00    -0.550 OA
ATOM      4  O   UNL     1      12.334  31.709  13.828  1.00  0.00    -0.550 OA
ENDBRANCH   1   2
BRANCH   1   5
ATOM      5  C   UNL     1      14.412  34.814  13.187  1.00  0.00     0.059 C 
BRANCH   5   6
ATOM      6  C   UNL     1      13.668  36.026  12.724  1.00  0.00     0.042 C 
ATOM      7  O   UNL     1      12.798  36.557  13.465  1.00  0.00    -0.550 OA
ATOM      8  O   UNL     1      13.899  36.542  11.455  1.00  0.00    -0.550 OA
ENDBRANCH   5   6
ENDBRANCH   1   5
TORSDOF 3
ENDMDL
MODEL 3
REMARK VINA RESULT:    -3.762      1.620      2.125
REMARK INTER + INTRA:          -4.505
REMARK INTER:                  -4.437
REMARK INTRA:                  -0.068
REMARK UNBOUND:                -0.083
REMARK SMILES O=C([O-])CCC(=O)[O-]
REMARK SMILES IDX 4 1 2 2 1 3 3 4 5 5 6 6 7 7 8 8
REMARK H PARENT
REMARK Flexibility Score: inf
ROOT
ATOM      1  C   UNL     1      13.273  33.794  13.437  1.00  0.00     0.059 C 
ENDROOT
BRANCH   1   2
ATOM      2  C   UNL     1      14.204  34.948  13.240  1.00  0.00     0.042 C 
ATOM      3  O   UNL     1      15.372  34.908  13.710  1.00  0.00    -0.550 OA
ATOM      4  O   UNL     1      13.768  36.089  12.578  1.00  0.00    -0.550 OA
ENDBRANCH   1   2
BRANCH   1   5
ATOM      5  C   UNL     1      13.630  32.650  12.486  1.00  0.00     0.059 C 
BRANCH   5   6
ATOM      6  C   UNL     1      13.961  31.413  13.257  1.00  0.00     0.042 C 
ATOM      7  O   UNL     1      13.095  30.878  14.000  1.00  0.00    -0.550 OA
ATOM      8  O   UNL     1      15.241  30.875  13.194  1.00  0.00    -0.550 OA
ENDBRANCH   5   6
ENDBRANCH   1   5
TORSDOF 3
ENDMDL
MODEL 4
REMARK VINA RESULT:    -3.576     11.410     13.058
REMARK INTER + INTRA:          -4.286
REMARK INTER:                  -4.237
REMARK INTRA:                  -0.049
REMARK UNBOUND:                -0.083
REMARK SMILES O=C([O-])CCC(=O)[O-]
REMARK SMILES IDX 4 1 2 2 1 3 3 4 5 5 6 6 7 7 8 8
REMARK H PARENT
REMARK Flexibility Score: inf
ROOT
ATOM      1  C   UNL     1       2.843  41.067  12.308  1.00  0.00     0.059 C 
ENDROOT
BRANCH   1   2
ATOM      2  C   UNL     1       3.620  39.881  12.786  1.00  0.00     0.042 C 
ATOM      3  O   UNL     1       3.109  38.730  12.745  1.00  0.00    -0.550 OA
ATOM      4  O   UNL     1       4.891  40.050  13.320  1.00  0.00    -0.550 OA
ENDBRANCH   1   2
BRANCH   1   5
ATOM      5  C   UNL     1       3.789  42.151  11.787  1.00  0.00     0.059 C 
BRANCH   5   6
ATOM      6  C   UNL     1       3.332  43.502  12.236  1.00  0.00     0.042 C 
ATOM      7  O   UNL     1       4.165  44.340  12.673  1.00  0.00    -0.550 OA
ATOM      8  O   UNL     1       1.980  43.822  12.218  1.00  0.00    -0.550 OA
ENDBRANCH   5   6
ENDBRANCH   1   5
TORSDOF 3
ENDMDL
MODEL 5
REMARK VINA RESULT:    -3.575     11.404     12.537
REMARK INTER + INTRA:          -4.285
REMARK INTER:                  -4.236
REMARK INTRA:                  -0.048
REMARK UNBOUND:                -0.083
REMARK SMILES O=C([O-])CCC(=O)[O-]
REMARK SMILES IDX 4 1 2 2 1 3 3 4 5 5 6 6 7 7 8 8
REMARK H PARENT
REMARK Flexibility Score: inf
ROOT
ATOM      1  C   UNL     1       3.765  42.132  11.739  1.00  0.00     0.059 C 
ENDROOT
BRANCH   1   2
ATOM      2  C   UNL     1       3.291  43.485  12.164  1.00  0.00     0.042 C 
ATOM      3  O   UNL     1       4.116  44.350  12.563  1.00  0.00    -0.550 OA
ATOM      4  O   UNL     1       1.933  43.778  12.167  1.00  0.00    -0.550 OA
ENDBRANCH   1   2
BRANCH   1   5
ATOM      5  C   UNL     1       2.857  41.043  12.311  1.00  0.00     0.059 C 
BRANCH   5   6
ATOM      6  C   UNL     1       3.670  39.882  12.790  1.00  0.00     0.042 C 
ATOM      7  O   UNL     1       3.194  38.717  12.755  1.00  0.00    -0.550 OA
ATOM      8  O   UNL     1       4.938  40.092  13.320  1.00  0.00    -0.550 OA
ENDBRANCH   5   6
ENDBRANCH   1   5
TORSDOF 3
ENDMDL
MODEL 6
REMARK VINA RESULT:    -3.542      1.946      4.245
REMARK INTER + INTRA:          -4.246
REMARK INTER:                  -4.129
REMARK INTRA:                  -0.117
REMARK UNBOUND:                -0.083
REMARK SMILES O=C([O-])CCC(=O)[O-]
REMARK SMILES IDX 4 1 2 2 1 3 3 4 5 5 6 6 7 7 8 8
REMARK H PARENT
REMARK Flexibility Score: inf
ROOT
ATOM      1  C   UNL     1      13.573  32.387  12.348  1.00  0.00     0.059 C 
ENDROOT
BRANCH   1   2
ATOM      2  C   UNL     1      14.622  31.351  12.602  1.00  0.00     0.042 C 
ATOM      3  O   UNL     1      15.289  30.876  11.644  1.00  0.00    -0.550 OA
ATOM      4  O   UNL     1      14.833  30.875  13.889  1.00  0.00    -0.550 OA
ENDBRANCH   1   2
BRANCH   1   5
ATOM      5  C   UNL     1      13.401  33.286  13.573  1.00  0.00     0.059 C 
BRANCH   5   6
ATOM      6  C   UNL     1      14.230  34.522  13.435  1.00  0.00     0.042 C 
ATOM      7  O   UNL     1      15.376  34.579  13.954  1.00  0.00    -0.550 OA
ATOM      8  O   UNL     1      13.718  35.633  12.774  1.00  0.00    -0.550 OA
ENDBRANCH   5   6
ENDBRANCH   1   5
TORSDOF 3
ENDMDL
MODEL 7
REMARK VINA RESULT:    -3.527     13.035     13.930
REMARK INTER + INTRA:          -4.228
REMARK INTER:                  -4.135
REMARK INTRA:                  -0.093
REMARK UNBOUND:                -0.083
REMARK SMILES O=C([O-])CCC(=O)[O-]
REMARK SMILES IDX 4 1 2 2 1 3 3 4 5 5 6 6 7 7 8 8
REMARK H PARENT
REMARK Flexibility Score: inf
ROOT
ATOM      1  C   UNL     1       4.124  44.414  11.942  1.00  0.00     0.059 C 
ENDROOT
BRANCH   1   2
ATOM      2  C   UNL     1       4.142  45.378  10.797  1.00  0.00     0.042 C 
ATOM      3  O   UNL     1       3.911  46.600  10.994  1.00  0.00    -0.550 OA
ATOM      4  O   UNL     1       4.367  44.919   9.506  1.00  0.00    -0.550 OA
ENDBRANCH   1   2
BRANCH   1   5
ATOM      5  C   UNL     1       2.793  43.663  11.987  1.00  0.00     0.059 C 
BRANCH   5   6
ATOM      6  C   UNL     1       2.928  42.320  11.342  1.00  0.00     0.042 C 
ATOM      7  O   UNL     1       2.708  42.184  10.110  1.00  0.00    -0.550 OA
ATOM      8  O   UNL     1       3.251  41.208  12.111  1.00  0.00    -0.550 OA
ENDBRANCH   5   6
ENDBRANCH   1   5
TORSDOF 3
ENDMDL
MODEL 8
REMARK VINA RESULT:    -3.520     13.022     14.459
REMARK INTER + INTRA:          -4.220
REMARK INTER:                  -4.119
REMARK INTRA:                  -0.101
REMARK UNBOUND:                -0.083
REMARK SMILES O=C([O-])CCC(=O)[O-]
REMARK SMILES IDX 4 1 2 2 1 3 3 4 5 5 6 6 7 7 8 8
REMARK H PARENT
REMARK Flexibility Score: inf
ROOT
ATOM      1  C   UNL     1       2.843  43.728  11.988  1.00  0.00     0.059 C 
ENDROOT
BRANCH   1   2
ATOM      2  C   UNL     1       2.967  42.381  11.349  1.00  0.00     0.042 C 
ATOM      3  O   UNL     1       2.690  42.229  10.130  1.00  0.00    -0.550 OA
ATOM      4  O   UNL     1       3.343  41.282  12.111  1.00  0.00    -0.550 OA
ENDBRANCH   1   2
BRANCH   1   5
ATOM      5  C   UNL     1       4.167  44.488  11.894  1.00  0.00     0.059 C 
BRANCH   5   6
ATOM      6  C   UNL     1       4.146  45.434  10.736  1.00  0.00     0.042 C 
ATOM      7  O   UNL     1       3.884  46.652  10.917  1.00  0.00    -0.550 OA
ATOM      8  O   UNL     1       4.368  44.962   9.448  1.00  0.00    -0.550 OA
ENDBRANCH   5   6
ENDBRANCH   1   5
TORSDOF 3
ENDMDL
MODEL 9
REMARK VINA RESULT:    -3.517     13.144     14.004
REMARK INTER + INTRA:          -4.217
REMARK INTER:                  -4.119
REMARK INTRA:                  -0.098
REMARK UNBOUND:                -0.083
REMARK SMILES O=C([O-])CCC(=O)[O-]
REMARK SMILES IDX 4 1 2 2 1 3 3 4 5 5 6 6 7 7 8 8
REMARK H PARENT
REMARK Flexibility Score: inf
ROOT
ATOM      1  C   UNL     1       4.136  44.424  11.932  1.00  0.00     0.059 C 
ENDROOT
BRANCH   1   2
ATOM      2  C   UNL     1       4.126  45.376  10.777  1.00  0.00     0.042 C 
ATOM      3  O   UNL     1       3.839  46.589  10.959  1.00  0.00    -0.550 OA
ATOM      4  O   UNL     1       4.388  44.915   9.494  1.00  0.00    -0.550 OA
ENDBRANCH   1   2
BRANCH   1   5
ATOM      5  C   UNL     1       2.790  43.706  12.043  1.00  0.00     0.059 C 
BRANCH   5   6
ATOM      6  C   UNL     1       2.866  42.353  11.412  1.00  0.00     0.042 C 
ATOM      7  O   UNL     1       3.139  41.341  12.111  1.00  0.00    -0.550 OA
ATOM      8  O   UNL     1       2.683  42.213  10.041  1.00  0.00    -0.550 OA
ENDBRANCH   5   6
ENDBRANCH   1   5
TORSDOF 3
ENDMDL
