MODEL 1
REMARK VINA RESULT:    -5.387      0.000      0.000
REMARK INTER + INTRA:          -7.983
REMARK INTER:                  -7.276
REMARK INTRA:                  -0.707
REMARK UNBOUND:                -0.707
REMARK SMILES CC(=O)CCC=C(C)CCC=C(C)C
REMARK SMILES IDX 7 1 6 2 8 3 9 4 10 5 11 6 13 7 12 8 14 9 5 10 4 11 2 12 3 13
REMARK SMILES IDX 1 14
REMARK H PARENT
REMARK Flexibility Score: inf
ROOT
ATOM      1  C   UNL     1      -9.625  17.798   9.374  1.00  0.00    -0.077 C 
ATOM      2  C   UNL     1      -9.706  17.481  10.687  1.00  0.00    -0.028 C 
ATOM      3  C   UNL     1      -9.148  16.741   8.413  1.00  0.00     0.039 C 
ENDROOT
BRANCH   1   4
ATOM      4  C   UNL     1     -10.061  19.140   8.820  1.00  0.00     0.034 C 
BRANCH   4   5
ATOM      5  C   UNL     1      -9.663  19.268   7.346  1.00  0.00     0.032 C 
BRANCH   5   6
ATOM      6  C   UNL     1     -10.859  19.622   6.499  1.00  0.00    -0.028 C 
ATOM      7  C   UNL     1     -12.491  19.383   4.676  1.00  0.00     0.039 C 
ATOM      8  C   UNL     1     -11.305  18.881   5.459  1.00  0.00    -0.080 C 
ATOM      9  C   UNL     1     -10.662  17.568   5.077  1.00  0.00     0.039 C 
ENDBRANCH   5   6
ENDBRANCH   4   5
ENDBRANCH   1   4
BRANCH   2  10
ATOM     10  C   UNL     1     -10.141  18.428  11.781  1.00  0.00     0.035 C 
BRANCH  10  11
ATOM     11  C   UNL     1     -11.391  17.915  12.510  1.00  0.00     0.079 C 
BRANCH  11  12
ATOM     12  C   UNL     1     -11.157  16.559  13.124  1.00  0.00     0.130 C 
ATOM     13  O   UNL     1     -10.387  16.449  14.066  1.00  0.00    -0.300 OA
ATOM     14  C   UNL     1     -11.852  15.336  12.602  1.00  0.00     0.087 C 
ENDBRANCH  11  12
ENDBRANCH  10  11
ENDBRANCH   2  10
TORSDOF 6
ENDMDL
MODEL 2
REMARK VINA RESULT:    -5.371      2.744      6.184
REMARK INTER + INTRA:          -7.962
REMARK INTER:                  -7.106
REMARK INTRA:                  -0.856
REMARK UNBOUND:                -0.707
REMARK SMILES CC(=O)CCC=C(C)CCC=C(C)C
REMARK SMILES IDX 7 1 6 2 8 3 9 4 10 5 11 6 13 7 12 8 14 9 5 10 4 11 2 12 3 13
REMARK SMILES IDX 1 14
REMARK H PARENT
REMARK Flexibility Score: inf
ROOT
ATOM      1  C   UNL     1      -9.905  16.676   7.266  1.00  0.00    -0.077 C 
ATOM      2  C   UNL     1     -10.223  16.796   5.956  1.00  0.00    -0.028 C 
ATOM      3  C   UNL     1      -9.985  15.311   7.898  1.00  0.00     0.039 C 
ENDROOT
BRANCH   1   4
ATOM      4  C   UNL     1      -9.404  17.835   8.104  1.00  0.00     0.034 C 
BRANCH   4   5
ATOM      5  C   UNL     1      -8.905  17.340   9.466  1.00  0.00     0.032 C 
BRANCH   5   6
ATOM      6  C   UNL     1      -9.654  18.015  10.587  1.00  0.00    -0.028 C 
ATOM      7  C   UNL     1     -11.082  18.171  12.581  1.00  0.00     0.039 C 
ATOM      8  C   UNL     1     -10.348  17.360  11.545  1.00  0.00    -0.080 C 
ATOM      9  C   UNL     1     -10.394  15.851  11.611  1.00  0.00     0.039 C 
ENDBRANCH   5   6
ENDBRANCH   4   5
ENDBRANCH   1   4
BRANCH   2  10
ATOM     10  C   UNL     1     -10.217  18.092   5.180  1.00  0.00     0.035 C 
BRANCH  10  11
ATOM     11  C   UNL     1     -11.639  18.625   4.959  1.00  0.00     0.079 C 
BRANCH  11  12
ATOM     12  C   UNL     1     -11.917  19.836   5.812  1.00  0.00     0.130 C 
ATOM     13  O   UNL     1     -13.070  20.204   5.977  1.00  0.00    -0.300 OA
ATOM     14  C   UNL     1     -10.805  20.603   6.463  1.00  0.00     0.087 C 
ENDBRANCH  11  12
ENDBRANCH  10  11
ENDBRANCH   2  10
TORSDOF 6
ENDMDL
MODEL 3
REMARK VINA RESULT:    -5.227      2.584      6.554
REMARK INTER + INTRA:          -7.767
REMARK INTER:                  -7.055
REMARK INTRA:                  -0.713
REMARK UNBOUND:                -0.707
REMARK SMILES CC(=O)CCC=C(C)CCC=C(C)C
REMARK SMILES IDX 7 1 6 2 8 3 9 4 10 5 11 6 13 7 12 8 14 9 5 10 4 11 2 12 3 13
REMARK SMILES IDX 1 14
REMARK H PARENT
REMARK Flexibility Score: inf
ROOT
ATOM      1  C   UNL     1      -9.716  17.838   9.543  1.00  0.00    -0.077 C 
ATOM      2  C   UNL     1      -9.853  18.401   8.320  1.00  0.00    -0.028 C 
ATOM      3  C   UNL     1      -9.527  16.345   9.625  1.00  0.00     0.039 C 
ENDROOT
BRANCH   1   4
ATOM      4  C   UNL     1      -9.671  18.646  10.824  1.00  0.00     0.034 C 
BRANCH   4   5
ATOM      5  C   UNL     1     -10.825  18.250  11.752  1.00  0.00     0.032 C 
BRANCH   5   6
ATOM      6  C   UNL     1     -10.303  17.599  13.007  1.00  0.00    -0.028 C 
ATOM      7  C   UNL     1     -10.121  15.885  14.760  1.00  0.00     0.039 C 
ATOM      8  C   UNL     1     -10.702  16.391  13.464  1.00  0.00    -0.080 C 
ATOM      9  C   UNL     1     -11.694  15.536  12.709  1.00  0.00     0.039 C 
ENDBRANCH   5   6
ENDBRANCH   4   5
ENDBRANCH   1   4
BRANCH   2  10
ATOM     10  C   UNL     1     -10.074  19.873   8.066  1.00  0.00     0.035 C 
BRANCH  10  11
ATOM     11  C   UNL     1     -10.166  20.180   6.565  1.00  0.00     0.079 C 
BRANCH  11  12
ATOM     12  C   UNL     1     -11.484  19.731   5.986  1.00  0.00     0.130 C 
ATOM     13  O   UNL     1     -12.506  20.331   6.281  1.00  0.00    -0.300 OA
ATOM     14  C   UNL     1     -11.567  18.559   5.055  1.00  0.00     0.087 C 
ENDBRANCH  11  12
ENDBRANCH  10  11
ENDBRANCH   2  10
TORSDOF 6
ENDMDL
MODEL 4
REMARK VINA RESULT:    -5.211      2.746      6.103
REMARK INTER + INTRA:          -7.746
REMARK INTER:                  -6.892
REMARK INTRA:                  -0.854
REMARK UNBOUND:                -0.707
REMARK SMILES CC(=O)CCC=C(C)CCC=C(C)C
REMARK SMILES IDX 7 1 6 2 8 3 9 4 10 5 11 6 13 7 12 8 14 9 5 10 4 11 2 12 3 13
REMARK SMILES IDX 1 14
REMARK H PARENT
REMARK Flexibility Score: inf
ROOT
ATOM      1  C   UNL     1      -8.663  17.548   8.172  1.00  0.00    -0.077 C 
ATOM      2  C   UNL     1      -9.081  18.752   7.715  1.00  0.00    -0.028 C 
ATOM      3  C   UNL     1      -7.193  17.226   8.091  1.00  0.00     0.039 C 
ENDROOT
BRANCH   1   4
ATOM      4  C   UNL     1      -9.591  16.544   8.824  1.00  0.00     0.034 C 
BRANCH   4   5
ATOM      5  C   UNL     1      -9.112  16.207  10.240  1.00  0.00     0.032 C 
BRANCH   5   6
ATOM      6  C   UNL     1     -10.228  16.382  11.238  1.00  0.00    -0.028 C 
ATOM      7  C   UNL     1     -11.637  17.557  12.874  1.00  0.00     0.039 C 
ATOM      8  C   UNL     1     -10.515  17.544  11.868  1.00  0.00    -0.080 C 
ATOM      9  C   UNL     1      -9.757  18.819  11.581  1.00  0.00     0.039 C 
ENDBRANCH   5   6
ENDBRANCH   4   5
ENDBRANCH   1   4
BRANCH   2  10
ATOM     10  C   UNL     1     -10.517  19.220   7.702  1.00  0.00     0.035 C 
BRANCH  10  11
ATOM     11  C   UNL     1     -10.787  20.186   6.541  1.00  0.00     0.079 C 
BRANCH  11  12
ATOM     12  C   UNL     1     -11.989  19.764   5.735  1.00  0.00     0.130 C 
ATOM     13  O   UNL     1     -13.080  20.256   5.981  1.00  0.00    -0.300 OA
ATOM     14  C   UNL     1     -11.875  18.749   4.637  1.00  0.00     0.087 C 
ENDBRANCH  11  12
ENDBRANCH  10  11
ENDBRANCH   2  10
TORSDOF 6
ENDMDL
MODEL 5
REMARK VINA RESULT:    -5.118      1.847      2.394
REMARK INTER + INTRA:          -7.620
REMARK INTER:                  -7.006
REMARK INTRA:                  -0.613
REMARK UNBOUND:                -0.707
REMARK SMILES CC(=O)CCC=C(C)CCC=C(C)C
REMARK SMILES IDX 7 1 6 2 8 3 9 4 10 5 11 6 13 7 12 8 14 9 5 10 4 11 2 12 3 13
REMARK SMILES IDX 1 14
REMARK H PARENT
REMARK Flexibility Score: inf
ROOT
ATOM      1  C   UNL     1      -9.610  17.999   9.264  1.00  0.00    -0.077 C 
ATOM      2  C   UNL     1      -9.624  17.746  10.594  1.00  0.00    -0.028 C 
ATOM      3  C   UNL     1      -9.241  16.878   8.328  1.00  0.00     0.039 C 
ENDROOT
BRANCH   1   4
ATOM      4  C   UNL     1     -10.018  19.333   8.673  1.00  0.00     0.034 C 
BRANCH   4   5
ATOM      5  C   UNL     1      -9.656  19.397   7.185  1.00  0.00     0.032 C 
BRANCH   5   6
ATOM      6  C   UNL     1     -10.873  19.708   6.351  1.00  0.00    -0.028 C 
ATOM      7  C   UNL     1     -12.526  19.400   4.558  1.00  0.00     0.039 C 
ATOM      8  C   UNL     1     -11.316  18.940   5.330  1.00  0.00    -0.080 C 
ATOM      9  C   UNL     1     -10.645  17.638   4.958  1.00  0.00     0.039 C 
ENDBRANCH   5   6
ENDBRANCH   4   5
ENDBRANCH   1   4
BRANCH   2  10
ATOM     10  C   UNL     1      -9.947  18.762  11.664  1.00  0.00     0.035 C 
BRANCH  10  11
ATOM     11  C   UNL     1      -9.365  18.355  13.024  1.00  0.00     0.079 C 
BRANCH  11  12
ATOM     12  C   UNL     1      -8.288  19.309  13.476  1.00  0.00     0.130 C 
ATOM     13  O   UNL     1      -8.023  20.284  12.790  1.00  0.00    -0.300 OA
ATOM     14  C   UNL     1      -7.532  19.084  14.751  1.00  0.00     0.087 C 
ENDBRANCH  11  12
ENDBRANCH  10  11
ENDBRANCH   2  10
TORSDOF 6
ENDMDL
MODEL 6
REMARK VINA RESULT:    -5.040      1.735      2.880
REMARK INTER + INTRA:          -7.515
REMARK INTER:                  -6.445
REMARK INTRA:                  -1.070
REMARK UNBOUND:                -0.707
REMARK SMILES CC(=O)CCC=C(C)CCC=C(C)C
REMARK SMILES IDX 7 1 6 2 8 3 9 4 10 5 11 6 13 7 12 8 14 9 5 10 4 11 2 12 3 13
REMARK SMILES IDX 1 14
REMARK H PARENT
REMARK Flexibility Score: inf
ROOT
ATOM      1  C   UNL     1      -8.449  17.949   6.943  1.00  0.00    -0.077 C 
ATOM      2  C   UNL     1      -8.773  18.772   7.968  1.00  0.00    -0.028 C 
ATOM      3  C   UNL     1      -7.223  18.272   6.129  1.00  0.00     0.039 C 
ENDROOT
BRANCH   1   4
ATOM      4  C   UNL     1      -9.219  16.684   6.625  1.00  0.00     0.034 C 
BRANCH   4   5
ATOM      5  C   UNL     1      -9.785  16.741   5.202  1.00  0.00     0.032 C 
BRANCH   5   6
ATOM      6  C   UNL     1     -11.070  17.528   5.169  1.00  0.00    -0.028 C 
ATOM      7  C   UNL     1     -12.545  19.432   4.680  1.00  0.00     0.039 C 
ATOM      8  C   UNL     1     -11.206  18.746   4.599  1.00  0.00    -0.080 C 
ATOM      9  C   UNL     1     -10.065  19.424   3.875  1.00  0.00     0.039 C 
ENDBRANCH   5   6
ENDBRANCH   4   5
ENDBRANCH   1   4
BRANCH   2  10
ATOM     10  C   UNL     1      -9.978  18.605   8.863  1.00  0.00     0.035 C 
BRANCH  10  11
ATOM     11  C   UNL     1      -9.635  17.811  10.131  1.00  0.00     0.079 C 
BRANCH  11  12
ATOM     12  C   UNL     1      -9.897  18.616  11.378  1.00  0.00     0.130 C 
ATOM     13  O   UNL     1      -9.263  19.641  11.577  1.00  0.00    -0.300 OA
ATOM     14  C   UNL     1     -10.921  18.184  12.385  1.00  0.00     0.087 C 
ENDBRANCH  11  12
ENDBRANCH  10  11
ENDBRANCH   2  10
TORSDOF 6
ENDMDL
MODEL 7
REMARK VINA RESULT:    -5.010      2.979      4.880
REMARK INTER + INTRA:          -7.474
REMARK INTER:                  -6.028
REMARK INTRA:                  -1.446
REMARK UNBOUND:                -0.707
REMARK SMILES CC(=O)CCC=C(C)CCC=C(C)C
REMARK SMILES IDX 7 1 6 2 8 3 9 4 10 5 11 6 13 7 12 8 14 9 5 10 4 11 2 12 3 13
REMARK SMILES IDX 1 14
REMARK H PARENT
REMARK Flexibility Score: inf
ROOT
ATOM      1  C   UNL     1     -11.396  18.867   5.343  1.00  0.00    -0.077 C 
ATOM      2  C   UNL     1     -10.771  17.721   4.988  1.00  0.00    -0.028 C 
ATOM      3  C   UNL     1     -12.432  19.435   4.408  1.00  0.00     0.039 C 
ENDROOT
BRANCH   1   4
ATOM      4  C   UNL     1     -11.153  19.565   6.667  1.00  0.00     0.034 C 
BRANCH   4   5
ATOM      5  C   UNL     1     -10.330  20.841   6.460  1.00  0.00     0.032 C 
BRANCH   5   6
ATOM      6  C   UNL     1      -8.886  20.612   6.829  1.00  0.00    -0.028 C 
ATOM      7  C   UNL     1      -6.507  20.122   6.455  1.00  0.00     0.039 C 
ATOM      8  C   UNL     1      -7.899  20.374   5.936  1.00  0.00    -0.080 C 
ATOM      9  C   UNL     1      -8.150  20.371   4.446  1.00  0.00     0.039 C 
ENDBRANCH   5   6
ENDBRANCH   4   5
ENDBRANCH   1   4
BRANCH   2  10
ATOM     10  C   UNL     1      -9.695  17.035   5.797  1.00  0.00     0.035 C 
BRANCH  10  11
ATOM     11  C   UNL     1     -10.274  15.924   6.682  1.00  0.00     0.079 C 
BRANCH  11  12
ATOM     12  C   UNL     1      -9.700  15.969   8.076  1.00  0.00     0.130 C 
ATOM     13  O   UNL     1      -9.581  14.932   8.711  1.00  0.00    -0.300 OA
ATOM     14  C   UNL     1      -9.272  17.263   8.702  1.00  0.00     0.087 C 
ENDBRANCH  11  12
ENDBRANCH  10  11
ENDBRANCH   2  10
TORSDOF 6
ENDMDL
MODEL 8
REMARK VINA RESULT:    -4.912      3.798      6.198
REMARK INTER + INTRA:          -7.342
REMARK INTER:                  -6.017
REMARK INTRA:                  -1.326
REMARK UNBOUND:                -0.707
REMARK SMILES CC(=O)CCC=C(C)CCC=C(C)C
REMARK SMILES IDX 7 1 6 2 8 3 9 4 10 5 11 6 13 7 12 8 14 9 5 10 4 11 2 12 3 13
REMARK SMILES IDX 1 14
REMARK H PARENT
REMARK Flexibility Score: inf
ROOT
ATOM      1  C   UNL     1     -11.496  19.638   5.643  1.00  0.00    -0.077 C 
ATOM      2  C   UNL     1     -10.953  20.359   6.651  1.00  0.00    -0.028 C 
ATOM      3  C   UNL     1     -12.963  19.816   5.347  1.00  0.00     0.039 C 
ENDROOT
BRANCH   1   4
ATOM      4  C   UNL     1     -10.683  18.718   4.755  1.00  0.00     0.034 C 
BRANCH   4   5
ATOM      5  C   UNL     1     -10.711  17.284   5.296  1.00  0.00     0.032 C 
BRANCH   5   6
ATOM      6  C   UNL     1      -9.314  16.789   5.572  1.00  0.00    -0.028 C 
ATOM      7  C   UNL     1      -7.374  16.133   6.931  1.00  0.00     0.039 C 
ATOM      8  C   UNL     1      -8.804  16.592   6.809  1.00  0.00    -0.080 C 
ATOM      9  C   UNL     1      -9.628  16.803   8.058  1.00  0.00     0.039 C 
ENDBRANCH   5   6
ENDBRANCH   4   5
ENDBRANCH   1   4
BRANCH   2  10
ATOM     10  C   UNL     1      -9.510  20.282   7.090  1.00  0.00     0.035 C 
BRANCH  10  11
ATOM     11  C   UNL     1      -8.597  21.117   6.184  1.00  0.00     0.079 C 
BRANCH  11  12
ATOM     12  C   UNL     1      -7.257  20.456   5.984  1.00  0.00     0.130 C 
ATOM     13  O   UNL     1      -6.361  20.655   6.792  1.00  0.00    -0.300 OA
ATOM     14  C   UNL     1      -6.997  19.558   4.812  1.00  0.00     0.087 C 
ENDBRANCH  11  12
ENDBRANCH  10  11
ENDBRANCH   2  10
TORSDOF 6
ENDMDL
MODEL 9
REMARK VINA RESULT:    -4.899      2.909      4.746
REMARK INTER + INTRA:          -7.325
REMARK INTER:                  -6.262
REMARK INTRA:                  -1.063
REMARK UNBOUND:                -0.707
REMARK SMILES CC(=O)CCC=C(C)CCC=C(C)C
REMARK SMILES IDX 7 1 6 2 8 3 9 4 10 5 11 6 13 7 12 8 14 9 5 10 4 11 2 12 3 13
REMARK SMILES IDX 1 14
REMARK H PARENT
REMARK Flexibility Score: inf
ROOT
ATOM      1  C   UNL     1     -11.264  19.356   5.510  1.00  0.00    -0.077 C 
ATOM      2  C   UNL     1     -11.138  19.964   6.712  1.00  0.00    -0.028 C 
ATOM      3  C   UNL     1     -12.572  19.490   4.775  1.00  0.00     0.039 C 
ENDROOT
BRANCH   1   4
ATOM      4  C   UNL     1     -10.128  18.609   4.840  1.00  0.00     0.034 C 
BRANCH   4   5
ATOM      5  C   UNL     1     -10.500  17.137   4.632  1.00  0.00     0.032 C 
BRANCH   5   6
ATOM      6  C   UNL     1     -10.377  16.366   5.922  1.00  0.00    -0.028 C 
ATOM      7  C   UNL     1     -10.017  14.406   7.361  1.00  0.00     0.039 C 
ATOM      8  C   UNL     1     -10.064  15.053   6.000  1.00  0.00    -0.080 C 
ATOM      9  C   UNL     1      -9.747  14.230   4.773  1.00  0.00     0.039 C 
ENDBRANCH   5   6
ENDBRANCH   4   5
ENDBRANCH   1   4
BRANCH   2  10
ATOM     10  C   UNL     1      -9.907  19.909   7.586  1.00  0.00     0.035 C 
BRANCH  10  11
ATOM     11  C   UNL     1     -10.015  18.805   8.646  1.00  0.00     0.079 C 
BRANCH  11  12
ATOM     12  C   UNL     1      -8.737  18.014   8.757  1.00  0.00     0.130 C 
ATOM     13  O   UNL     1      -7.795  18.289   8.029  1.00  0.00    -0.300 OA
ATOM     14  C   UNL     1      -8.596  16.893   9.743  1.00  0.00     0.087 C 
ENDBRANCH  11  12
ENDBRANCH  10  11
ENDBRANCH   2  10
TORSDOF 6
ENDMDL
