MODEL 1
REMARK VINA RESULT:    -3.172      0.000      0.000
REMARK INTER + INTRA:         -10.977
REMARK INTER:                  -7.251
REMARK INTRA:                  -3.726
REMARK UNBOUND:                -3.726
REMARK SMILES CCCCCCCCCCCCCCCCCCCCCCCC(=O)[O-]
REMARK SMILES IDX 13 1 14 2 15 3 16 4 17 5 18 6 19 7 20 8 21 9 22 10 23 11
REMARK SMILES IDX 24 12 25 13 26 14 12 15 11 16 10 17 9 18 8 19 7 20 6 21 5 22
REMARK SMILES IDX 4 23 3 24 2 25 1 26
REMARK H PARENT
REMARK Flexibility Score: inf
ROOT
ATOM      1  C   UNL     1      71.039  16.490  80.134  1.00  0.00     0.000 C 
ENDROOT
BRANCH   1   2
ATOM      2  C   UNL     1      71.743  15.955  78.876  1.00  0.00     0.000 C 
BRANCH   2   3
ATOM      3  C   UNL     1      71.032  14.731  78.267  1.00  0.00     0.000 C 
BRANCH   3   4
ATOM      4  C   UNL     1      70.928  14.727  76.728  1.00  0.00     0.000 C 
BRANCH   4   5
ATOM      5  C   UNL     1      69.494  14.658  76.172  1.00  0.00     0.000 C 
BRANCH   5   6
ATOM      6  C   UNL     1      68.478  15.402  77.057  1.00  0.00     0.000 C 
BRANCH   6   7
ATOM      7  C   UNL     1      67.628  16.408  76.262  1.00  0.00     0.000 C 
BRANCH   7   8
ATOM      8  C   UNL     1      67.930  17.867  76.645  1.00  0.00     0.000 C 
BRANCH   8   9
ATOM      9  C   UNL     1      69.433  18.106  76.906  1.00  0.00     0.000 C 
BRANCH   9  10
ATOM     10  C   UNL     1      69.727  19.406  77.678  1.00  0.00     0.006 C 
BRANCH  10  11
ATOM     11  C   UNL     1      69.190  19.416  79.117  1.00  0.00     0.053 C 
BRANCH  11  12
ATOM     12  C   UNL     1      68.054  20.380  79.280  1.00  0.00     0.041 C 
ATOM     13  O   UNL     1      67.428  20.441  80.372  1.00  0.00    -0.550 OA
ATOM     14  O   UNL     1      67.660  21.182  78.217  1.00  0.00    -0.550 OA
ENDBRANCH  11  12
ENDBRANCH  10  11
ENDBRANCH   9  10
ENDBRANCH   8   9
ENDBRANCH   7   8
ENDBRANCH   6   7
ENDBRANCH   5   6
ENDBRANCH   4   5
ENDBRANCH   3   4
ENDBRANCH   2   3
ENDBRANCH   1   2
BRANCH   1  15
ATOM     15  C   UNL     1      69.740  15.735  80.454  1.00  0.00     0.000 C 
BRANCH  15  16
ATOM     16  C   UNL     1      68.835  16.495  81.437  1.00  0.00     0.000 C 
BRANCH  16  17
ATOM     17  C   UNL     1      67.368  16.078  81.270  1.00  0.00     0.000 C 
BRANCH  17  18
ATOM     18  C   UNL     1      66.750  16.736  80.028  1.00  0.00    -0.000 C 
BRANCH  18  19
ATOM     19  C   UNL     1      65.720  15.834  79.327  1.00  0.00    -0.000 C 
BRANCH  19  20
ATOM     20  C   UNL     1      64.269  16.001  79.824  1.00  0.00    -0.000 C 
BRANCH  20  21
ATOM     21  C   UNL     1      63.715  14.814  80.638  1.00  0.00    -0.000 C 
BRANCH  21  22
ATOM     22  C   UNL     1      62.660  13.962  79.908  1.00  0.00    -0.000 C 
BRANCH  22  23
ATOM     23  C   UNL     1      62.721  14.119  78.378  1.00  0.00    -0.000 C 
BRANCH  23  24
ATOM     24  C   UNL     1      63.297  12.878  77.677  1.00  0.00    -0.000 C 
BRANCH  24  25
ATOM     25  C   UNL     1      63.767  13.175  76.246  1.00  0.00    -0.003 C 
ATOM     26  C   UNL     1      65.236  13.588  76.223  1.00  0.00     0.004 C 
ENDBRANCH  24  25
ENDBRANCH  23  24
ENDBRANCH  22  23
ENDBRANCH  21  22
ENDBRANCH  20  21
ENDBRANCH  19  20
ENDBRANCH  18  19
ENDBRANCH  17  18
ENDBRANCH  16  17
ENDBRANCH  15  16
ENDBRANCH   1  15
TORSDOF 22
ENDMDL
MODEL 2
REMARK VINA RESULT:    -3.162      2.682      6.319
REMARK INTER + INTRA:         -10.954
REMARK INTER:                  -7.123
REMARK INTRA:                  -3.831
REMARK UNBOUND:                -3.726
REMARK SMILES CCCCCCCCCCCCCCCCCCCCCCCC(=O)[O-]
REMARK SMILES IDX 13 1 14 2 15 3 16 4 17 5 18 6 19 7 20 8 21 9 22 10 23 11
REMARK SMILES IDX 24 12 25 13 26 14 12 15 11 16 10 17 9 18 8 19 7 20 6 21 5 22
REMARK SMILES IDX 4 23 3 24 2 25 1 26
REMARK H PARENT
REMARK Flexibility Score: inf
ROOT
ATOM      1  C   UNL     1      68.090  15.558  80.975  1.00  0.00     0.000 C 
ENDROOT
BRANCH   1   2
ATOM      2  C   UNL     1      69.389  16.383  80.985  1.00  0.00     0.000 C 
BRANCH   2   3
ATOM      3  C   UNL     1      70.636  15.539  80.660  1.00  0.00     0.000 C 
BRANCH   3   4
ATOM      4  C   UNL     1      71.499  16.061  79.493  1.00  0.00     0.000 C 
BRANCH   4   5
ATOM      5  C   UNL     1      70.771  16.165  78.140  1.00  0.00     0.000 C 
BRANCH   5   6
ATOM      6  C   UNL     1      71.198  15.067  77.150  1.00  0.00     0.000 C 
BRANCH   6   7
ATOM      7  C   UNL     1      70.067  14.666  76.189  1.00  0.00     0.000 C 
BRANCH   7   8
ATOM      8  C   UNL     1      68.687  14.672  76.867  1.00  0.00     0.000 C 
BRANCH   8   9
ATOM      9  C   UNL     1      67.544  14.363  75.875  1.00  0.00     0.000 C 
BRANCH   9  10
ATOM     10  C   UNL     1      66.137  14.567  76.469  1.00  0.00     0.006 C 
BRANCH  10  11
ATOM     11  C   UNL     1      65.092  13.561  75.966  1.00  0.00     0.053 C 
BRANCH  11  12
ATOM     12  C   UNL     1      63.765  13.756  76.635  1.00  0.00     0.041 C 
ATOM     13  O   UNL     1      63.694  13.829  77.890  1.00  0.00    -0.550 OA
ATOM     14  O   UNL     1      62.603  13.818  75.877  1.00  0.00    -0.550 OA
ENDBRANCH  11  12
ENDBRANCH  10  11
ENDBRANCH   9  10
ENDBRANCH   8   9
ENDBRANCH   7   8
ENDBRANCH   6   7
ENDBRANCH   5   6
ENDBRANCH   4   5
ENDBRANCH   3   4
ENDBRANCH   2   3
ENDBRANCH   1   2
BRANCH   1  15
ATOM     15  C   UNL     1      66.959  16.222  81.775  1.00  0.00     0.000 C 
BRANCH  15  16
ATOM     16  C   UNL     1      66.066  17.124  80.909  1.00  0.00     0.000 C 
BRANCH  16  17
ATOM     17  C   UNL     1      65.969  16.588  79.475  1.00  0.00     0.000 C 
BRANCH  17  18
ATOM     18  C   UNL     1      66.180  17.715  78.454  1.00  0.00    -0.000 C 
BRANCH  18  19
ATOM     19  C   UNL     1      67.655  17.889  78.055  1.00  0.00    -0.000 C 
BRANCH  19  20
ATOM     20  C   UNL     1      67.894  18.148  76.554  1.00  0.00    -0.000 C 
BRANCH  20  21
ATOM     21  C   UNL     1      69.200  18.896  76.217  1.00  0.00    -0.000 C 
BRANCH  21  22
ATOM     22  C   UNL     1      69.090  20.432  76.229  1.00  0.00    -0.000 C 
BRANCH  22  23
ATOM     23  C   UNL     1      69.971  21.085  77.309  1.00  0.00    -0.000 C 
BRANCH  23  24
ATOM     24  C   UNL     1      70.713  20.053  78.174  1.00  0.00    -0.000 C 
BRANCH  24  25
ATOM     25  C   UNL     1      70.292  20.107  79.648  1.00  0.00    -0.003 C 
ATOM     26  C   UNL     1      71.361  19.495  80.549  1.00  0.00     0.004 C 
ENDBRANCH  24  25
ENDBRANCH  23  24
ENDBRANCH  22  23
ENDBRANCH  21  22
ENDBRANCH  20  21
ENDBRANCH  19  20
ENDBRANCH  18  19
ENDBRANCH  17  18
ENDBRANCH  16  17
ENDBRANCH  15  16
ENDBRANCH   1  15
TORSDOF 22
ENDMDL
MODEL 3
REMARK VINA RESULT:    -3.143      1.940      4.837
REMARK INTER + INTRA:         -10.912
REMARK INTER:                  -6.159
REMARK INTRA:                  -4.753
REMARK UNBOUND:                -3.726
REMARK SMILES CCCCCCCCCCCCCCCCCCCCCCCC(=O)[O-]
REMARK SMILES IDX 13 1 14 2 15 3 16 4 17 5 18 6 19 7 20 8 21 9 22 10 23 11
REMARK SMILES IDX 24 12 25 13 26 14 12 15 11 16 10 17 9 18 8 19 7 20 6 21 5 22
REMARK SMILES IDX 4 23 3 24 2 25 1 26
REMARK H PARENT
REMARK Flexibility Score: inf
ROOT
ATOM      1  C   UNL     1      66.576  16.960  77.561  1.00  0.00     0.000 C 
ENDROOT
BRANCH   1   2
ATOM      2  C   UNL     1      67.274  16.601  76.238  1.00  0.00     0.000 C 
BRANCH   2   3
ATOM      3  C   UNL     1      67.230  15.092  75.928  1.00  0.00     0.000 C 
BRANCH   3   4
ATOM      4  C   UNL     1      68.544  14.328  76.186  1.00  0.00     0.000 C 
BRANCH   4   5
ATOM      5  C   UNL     1      69.816  15.195  76.172  1.00  0.00     0.000 C 
BRANCH   5   6
ATOM      6  C   UNL     1      70.749  14.899  77.360  1.00  0.00     0.000 C 
BRANCH   6   7
ATOM      7  C   UNL     1      70.028  14.991  78.715  1.00  0.00     0.000 C 
BRANCH   7   8
ATOM      8  C   UNL     1      70.771  15.890  79.718  1.00  0.00     0.000 C 
BRANCH   8   9
ATOM      9  C   UNL     1      71.097  17.281  79.131  1.00  0.00     0.000 C 
BRANCH   9  10
ATOM     10  C   UNL     1      69.852  18.149  78.870  1.00  0.00     0.006 C 
BRANCH  10  11
ATOM     11  C   UNL     1      69.846  18.842  77.499  1.00  0.00     0.053 C 
BRANCH  11  12
ATOM     12  C   UNL     1      70.048  20.322  77.623  1.00  0.00     0.041 C 
ATOM     13  O   UNL     1      69.708  20.920  78.678  1.00  0.00    -0.550 OA
ATOM     14  O   UNL     1      70.573  21.047  76.562  1.00  0.00    -0.550 OA
ENDBRANCH  11  12
ENDBRANCH  10  11
ENDBRANCH   9  10
ENDBRANCH   8   9
ENDBRANCH   7   8
ENDBRANCH   6   7
ENDBRANCH   5   6
ENDBRANCH   4   5
ENDBRANCH   3   4
ENDBRANCH   2   3
ENDBRANCH   1   2
BRANCH   1  15
ATOM     15  C   UNL     1      65.665  15.834  78.076  1.00  0.00     0.000 C 
BRANCH  15  16
ATOM     16  C   UNL     1      65.611  15.766  79.610  1.00  0.00     0.000 C 
BRANCH  16  17
ATOM     17  C   UNL     1      66.970  16.124  80.225  1.00  0.00     0.000 C 
BRANCH  17  18
ATOM     18  C   UNL     1      66.856  16.286  81.747  1.00  0.00    -0.000 C 
BRANCH  18  19
ATOM     19  C   UNL     1      68.226  16.392  82.439  1.00  0.00    -0.000 C 
BRANCH  19  20
ATOM     20  C   UNL     1      68.494  17.738  83.141  1.00  0.00    -0.000 C 
BRANCH  20  21
ATOM     21  C   UNL     1      68.667  18.947  82.199  1.00  0.00    -0.000 C 
BRANCH  21  22
ATOM     22  C   UNL     1      67.874  20.204  82.603  1.00  0.00    -0.000 C 
BRANCH  22  23
ATOM     23  C   UNL     1      66.673  20.476  81.679  1.00  0.00    -0.000 C 
BRANCH  23  24
ATOM     24  C   UNL     1      66.798  19.767  80.321  1.00  0.00    -0.000 C 
BRANCH  24  25
ATOM     25  C   UNL     1      65.537  19.917  79.459  1.00  0.00    -0.003 C 
ATOM     26  C   UNL     1      64.355  19.175  80.079  1.00  0.00     0.004 C 
ENDBRANCH  24  25
ENDBRANCH  23  24
ENDBRANCH  22  23
ENDBRANCH  21  22
ENDBRANCH  20  21
ENDBRANCH  19  20
ENDBRANCH  18  19
ENDBRANCH  17  18
ENDBRANCH  16  17
ENDBRANCH  15  16
ENDBRANCH   1  15
TORSDOF 22
ENDMDL
MODEL 4
REMARK VINA RESULT:    -3.090      2.440      6.072
REMARK INTER + INTRA:         -10.790
REMARK INTER:                  -5.990
REMARK INTRA:                  -4.800
REMARK UNBOUND:                -3.726
REMARK SMILES CCCCCCCCCCCCCCCCCCCCCCCC(=O)[O-]
REMARK SMILES IDX 13 1 14 2 15 3 16 4 17 5 18 6 19 7 20 8 21 9 22 10 23 11
REMARK SMILES IDX 24 12 25 13 26 14 12 15 11 16 10 17 9 18 8 19 7 20 6 21 5 22
REMARK SMILES IDX 4 23 3 24 2 25 1 26
REMARK H PARENT
REMARK Flexibility Score: inf
ROOT
ATOM      1  C   UNL     1      68.666  15.588  77.132  1.00  0.00     0.000 C 
ENDROOT
BRANCH   1   2
ATOM      2  C   UNL     1      69.735  15.050  76.166  1.00  0.00     0.000 C 
BRANCH   2   3
ATOM      3  C   UNL     1      71.072  14.738  76.865  1.00  0.00     0.000 C 
BRANCH   3   4
ATOM      4  C   UNL     1      71.002  14.629  78.402  1.00  0.00     0.000 C 
BRANCH   4   5
ATOM      5  C   UNL     1      71.723  15.753  79.169  1.00  0.00     0.000 C 
BRANCH   5   6
ATOM      6  C   UNL     1      71.340  15.796  80.658  1.00  0.00     0.000 C 
BRANCH   6   7
ATOM      7  C   UNL     1      70.758  17.156  81.079  1.00  0.00     0.000 C 
BRANCH   7   8
ATOM      8  C   UNL     1      69.221  17.173  81.054  1.00  0.00     0.000 C 
BRANCH   8   9
ATOM      9  C   UNL     1      68.620  15.757  80.909  1.00  0.00     0.000 C 
BRANCH   9  10
ATOM     10  C   UNL     1      67.082  15.743  80.831  1.00  0.00     0.006 C 
BRANCH  10  11
ATOM     11  C   UNL     1      66.483  16.916  80.042  1.00  0.00     0.053 C 
BRANCH  11  12
ATOM     12  C   UNL     1      65.370  16.471  79.141  1.00  0.00     0.041 C 
ATOM     13  O   UNL     1      65.422  15.344  78.582  1.00  0.00    -0.550 OA
ATOM     14  O   UNL     1      64.296  17.314  78.889  1.00  0.00    -0.550 OA
ENDBRANCH  11  12
ENDBRANCH  10  11
ENDBRANCH   9  10
ENDBRANCH   8   9
ENDBRANCH   7   8
ENDBRANCH   6   7
ENDBRANCH   5   6
ENDBRANCH   4   5
ENDBRANCH   3   4
ENDBRANCH   2   3
ENDBRANCH   1   2
BRANCH   1  15
ATOM     15  C   UNL     1      68.322  17.063  76.875  1.00  0.00     0.000 C 
BRANCH  15  16
ATOM     16  C   UNL     1      69.563  17.925  76.596  1.00  0.00     0.000 C 
BRANCH  16  17
ATOM     17  C   UNL     1      69.976  18.716  77.843  1.00  0.00     0.000 C 
BRANCH  17  18
ATOM     18  C   UNL     1      70.265  20.182  77.491  1.00  0.00    -0.000 C 
BRANCH  18  19
ATOM     19  C   UNL     1      69.471  20.668  76.267  1.00  0.00    -0.000 C 
BRANCH  19  20
ATOM     20  C   UNL     1      68.165  21.419  76.599  1.00  0.00    -0.000 C 
BRANCH  20  21
ATOM     21  C   UNL     1      66.907  20.532  76.705  1.00  0.00    -0.000 C 
BRANCH  21  22
ATOM     22  C   UNL     1      66.467  20.200  78.143  1.00  0.00    -0.000 C 
BRANCH  22  23
ATOM     23  C   UNL     1      67.135  21.103  79.196  1.00  0.00    -0.000 C 
BRANCH  23  24
ATOM     24  C   UNL     1      67.633  20.318  80.420  1.00  0.00    -0.000 C 
BRANCH  24  25
ATOM     25  C   UNL     1      68.807  21.010  81.127  1.00  0.00    -0.003 C 
ATOM     26  C   UNL     1      69.243  22.262  80.371  1.00  0.00     0.004 C 
ENDBRANCH  24  25
ENDBRANCH  23  24
ENDBRANCH  22  23
ENDBRANCH  21  22
ENDBRANCH  20  21
ENDBRANCH  19  20
ENDBRANCH  18  19
ENDBRANCH  17  18
ENDBRANCH  16  17
ENDBRANCH  15  16
ENDBRANCH   1  15
TORSDOF 22
ENDMDL
MODEL 5
REMARK VINA RESULT:    -3.065      2.654      6.628
REMARK INTER + INTRA:         -10.732
REMARK INTER:                  -6.458
REMARK INTRA:                  -4.274
REMARK UNBOUND:                -3.726
REMARK SMILES CCCCCCCCCCCCCCCCCCCCCCCC(=O)[O-]
REMARK SMILES IDX 13 1 14 2 15 3 16 4 17 5 18 6 19 7 20 8 21 9 22 10 23 11
REMARK SMILES IDX 24 12 25 13 26 14 12 15 11 16 10 17 9 18 8 19 7 20 6 21 5 22
REMARK SMILES IDX 4 23 3 24 2 25 1 26
REMARK H PARENT
REMARK Flexibility Score: inf
ROOT
ATOM      1  C   UNL     1      70.835  14.729  77.933  1.00  0.00     0.000 C 
ENDROOT
BRANCH   1   2
ATOM      2  C   UNL     1      71.375  16.044  78.520  1.00  0.00     0.000 C 
BRANCH   2   3
ATOM      3  C   UNL     1      70.404  16.697  79.522  1.00  0.00     0.000 C 
BRANCH   3   4
ATOM      4  C   UNL     1      69.798  15.741  80.569  1.00  0.00     0.000 C 
BRANCH   4   5
ATOM      5  C   UNL     1      68.275  15.538  80.463  1.00  0.00     0.000 C 
BRANCH   5   6
ATOM      6  C   UNL     1      67.503  16.231  81.598  1.00  0.00     0.000 C 
BRANCH   6   7
ATOM      7  C   UNL     1      66.719  17.462  81.114  1.00  0.00     0.000 C 
BRANCH   7   8
ATOM      8  C   UNL     1      65.737  17.128  79.979  1.00  0.00     0.000 C 
BRANCH   8   9
ATOM      9  C   UNL     1      64.512  16.332  80.479  1.00  0.00     0.000 C 
BRANCH   9  10
ATOM     10  C   UNL     1      64.124  15.155  79.565  1.00  0.00     0.006 C 
BRANCH  10  11
ATOM     11  C   UNL     1      64.684  15.257  78.138  1.00  0.00     0.053 C 
BRANCH  11  12
ATOM     12  C   UNL     1      64.271  14.090  77.293  1.00  0.00     0.041 C 
ATOM     13  O   UNL     1      65.124  13.482  76.593  1.00  0.00    -0.550 OA
ATOM     14  O   UNL     1      62.940  13.697  77.247  1.00  0.00    -0.550 OA
ENDBRANCH  11  12
ENDBRANCH  10  11
ENDBRANCH   9  10
ENDBRANCH   8   9
ENDBRANCH   7   8
ENDBRANCH   6   7
ENDBRANCH   5   6
ENDBRANCH   4   5
ENDBRANCH   3   4
ENDBRANCH   2   3
ENDBRANCH   1   2
BRANCH   1  15
ATOM     15  C   UNL     1      70.279  14.897  76.511  1.00  0.00     0.000 C 
BRANCH  15  16
ATOM     16  C   UNL     1      68.822  14.425  76.381  1.00  0.00     0.000 C 
BRANCH  16  17
ATOM     17  C   UNL     1      67.912  15.569  75.920  1.00  0.00     0.000 C 
BRANCH  17  18
ATOM     18  C   UNL     1      67.780  16.639  77.013  1.00  0.00    -0.000 C 
BRANCH  18  19
ATOM     19  C   UNL     1      68.018  18.063  76.483  1.00  0.00    -0.000 C 
BRANCH  19  20
ATOM     20  C   UNL     1      69.498  18.490  76.416  1.00  0.00    -0.000 C 
BRANCH  20  21
ATOM     21  C   UNL     1      69.899  19.622  77.384  1.00  0.00    -0.000 C 
BRANCH  21  22
ATOM     22  C   UNL     1      68.848  19.963  78.456  1.00  0.00    -0.000 C 
BRANCH  22  23
ATOM     23  C   UNL     1      69.445  20.710  79.662  1.00  0.00    -0.000 C 
BRANCH  23  24
ATOM     24  C   UNL     1      69.018  20.102  81.008  1.00  0.00    -0.000 C 
BRANCH  24  25
ATOM     25  C   UNL     1      70.167  19.372  81.716  1.00  0.00    -0.003 C 
ATOM     26  C   UNL     1      69.753  18.918  83.113  1.00  0.00     0.004 C 
ENDBRANCH  24  25
ENDBRANCH  23  24
ENDBRANCH  22  23
ENDBRANCH  21  22
ENDBRANCH  20  21
ENDBRANCH  19  20
ENDBRANCH  18  19
ENDBRANCH  17  18
ENDBRANCH  16  17
ENDBRANCH  15  16
ENDBRANCH   1  15
TORSDOF 22
ENDMDL
MODEL 6
REMARK VINA RESULT:    -3.038      2.626      5.094
REMARK INTER + INTRA:         -10.672
REMARK INTER:                  -6.273
REMARK INTRA:                  -4.399
REMARK UNBOUND:                -3.726
REMARK SMILES CCCCCCCCCCCCCCCCCCCCCCCC(=O)[O-]
REMARK SMILES IDX 13 1 14 2 15 3 16 4 17 5 18 6 19 7 20 8 21 9 22 10 23 11
REMARK SMILES IDX 24 12 25 13 26 14 12 15 11 16 10 17 9 18 8 19 7 20 6 21 5 22
REMARK SMILES IDX 4 23 3 24 2 25 1 26
REMARK H PARENT
REMARK Flexibility Score: inf
ROOT
ATOM      1  C   UNL     1      66.900  17.729  76.246  1.00  0.00     0.000 C 
ENDROOT
BRANCH   1   2
ATOM      2  C   UNL     1      67.709  16.612  76.928  1.00  0.00     0.000 C 
BRANCH   2   3
ATOM      3  C   UNL     1      67.554  15.248  76.228  1.00  0.00     0.000 C 
BRANCH   3   4
ATOM      4  C   UNL     1      68.848  14.419  76.105  1.00  0.00     0.000 C 
BRANCH   4   5
ATOM      5  C   UNL     1      70.153  15.228  76.215  1.00  0.00     0.000 C 
BRANCH   5   6
ATOM      6  C   UNL     1      71.126  14.647  77.256  1.00  0.00     0.000 C 
BRANCH   6   7
ATOM      7  C   UNL     1      71.118  15.434  78.577  1.00  0.00     0.000 C 
BRANCH   7   8
ATOM      8  C   UNL     1      69.841  15.191  79.400  1.00  0.00     0.000 C 
BRANCH   8   9
ATOM      9  C   UNL     1      69.832  15.994  80.719  1.00  0.00     0.000 C 
BRANCH   9  10
ATOM     10  C   UNL     1      68.482  15.952  81.459  1.00  0.00     0.006 C 
BRANCH  10  11
ATOM     11  C   UNL     1      67.260  15.881  80.532  1.00  0.00     0.053 C 
BRANCH  11  12
ATOM     12  C   UNL     1      65.974  15.919  81.301  1.00  0.00     0.041 C 
ATOM     13  O   UNL     1      65.905  16.554  82.387  1.00  0.00    -0.550 OA
ATOM     14  O   UNL     1      64.863  15.225  80.841  1.00  0.00    -0.550 OA
ENDBRANCH  11  12
ENDBRANCH  10  11
ENDBRANCH   9  10
ENDBRANCH   8   9
ENDBRANCH   7   8
ENDBRANCH   6   7
ENDBRANCH   5   6
ENDBRANCH   4   5
ENDBRANCH   3   4
ENDBRANCH   2   3
ENDBRANCH   1   2
BRANCH   1  15
ATOM     15  C   UNL     1      67.763  18.945  75.875  1.00  0.00     0.000 C 
BRANCH  15  16
ATOM     16  C   UNL     1      69.261  18.714  76.133  1.00  0.00     0.000 C 
BRANCH  16  17
ATOM     17  C   UNL     1      69.801  19.711  77.166  1.00  0.00     0.000 C 
BRANCH  17  18
ATOM     18  C   UNL     1      70.278  18.983  78.432  1.00  0.00    -0.000 C 
BRANCH  18  19
ATOM     19  C   UNL     1      69.462  19.364  79.679  1.00  0.00    -0.000 C 
BRANCH  19  20
ATOM     20  C   UNL     1      67.935  19.392  79.470  1.00  0.00    -0.000 C 
BRANCH  20  21
ATOM     21  C   UNL     1      67.107  19.736  80.726  1.00  0.00    -0.000 C 
BRANCH  21  22
ATOM     22  C   UNL     1      65.581  19.628  80.547  1.00  0.00    -0.000 C 
BRANCH  22  23
ATOM     23  C   UNL     1      65.163  19.446  79.077  1.00  0.00    -0.000 C 
BRANCH  23  24
ATOM     24  C   UNL     1      64.382  18.144  78.839  1.00  0.00    -0.000 C 
BRANCH  24  25
ATOM     25  C   UNL     1      63.221  18.324  77.852  1.00  0.00    -0.003 C 
ATOM     26  C   UNL     1      63.331  19.652  77.109  1.00  0.00     0.004 C 
ENDBRANCH  24  25
ENDBRANCH  23  24
ENDBRANCH  22  23
ENDBRANCH  21  22
ENDBRANCH  20  21
ENDBRANCH  19  20
ENDBRANCH  18  19
ENDBRANCH  17  18
ENDBRANCH  16  17
ENDBRANCH  15  16
ENDBRANCH   1  15
TORSDOF 22
ENDMDL
MODEL 7
REMARK VINA RESULT:    -3.036      2.429      6.069
REMARK INTER + INTRA:         -10.668
REMARK INTER:                  -6.192
REMARK INTRA:                  -4.475
REMARK UNBOUND:                -3.726
REMARK SMILES CCCCCCCCCCCCCCCCCCCCCCCC(=O)[O-]
REMARK SMILES IDX 13 1 14 2 15 3 16 4 17 5 18 6 19 7 20 8 21 9 22 10 23 11
REMARK SMILES IDX 24 12 25 13 26 14 12 15 11 16 10 17 9 18 8 19 7 20 6 21 5 22
REMARK SMILES IDX 4 23 3 24 2 25 1 26
REMARK H PARENT
REMARK Flexibility Score: inf
ROOT
ATOM      1  C   UNL     1      67.686  15.150  77.023  1.00  0.00     0.000 C 
ENDROOT
BRANCH   1   2
ATOM      2  C   UNL     1      68.767  14.404  76.221  1.00  0.00     0.000 C 
BRANCH   2   3
ATOM      3  C   UNL     1      70.109  15.159  76.178  1.00  0.00     0.000 C 
BRANCH   3   4
ATOM      4  C   UNL     1      71.246  14.530  77.008  1.00  0.00     0.000 C 
BRANCH   4   5
ATOM      5  C   UNL     1      71.398  15.089  78.435  1.00  0.00     0.000 C 
BRANCH   5   6
ATOM      6  C   UNL     1      70.961  16.560  78.547  1.00  0.00     0.000 C 
BRANCH   6   7
ATOM      7  C   UNL     1      69.856  16.770  79.595  1.00  0.00     0.000 C 
BRANCH   7   8
ATOM      8  C   UNL     1      69.594  15.509  80.436  1.00  0.00     0.000 C 
BRANCH   8   9
ATOM      9  C   UNL     1      68.229  15.559  81.157  1.00  0.00     0.000 C 
BRANCH   9  10
ATOM     10  C   UNL     1      67.135  16.296  80.361  1.00  0.00     0.006 C 
BRANCH  10  11
ATOM     11  C   UNL     1      65.704  15.868  80.718  1.00  0.00     0.053 C 
BRANCH  11  12
ATOM     12  C   UNL     1      64.937  16.979  81.370  1.00  0.00     0.041 C 
ATOM     13  O   UNL     1      64.338  17.833  80.664  1.00  0.00    -0.550 OA
ATOM     14  O   UNL     1      64.916  17.094  82.753  1.00  0.00    -0.550 OA
ENDBRANCH  11  12
ENDBRANCH  10  11
ENDBRANCH   9  10
ENDBRANCH   8   9
ENDBRANCH   7   8
ENDBRANCH   6   7
ENDBRANCH   5   6
ENDBRANCH   4   5
ENDBRANCH   3   4
ENDBRANCH   2   3
ENDBRANCH   1   2
BRANCH   1  15
ATOM     15  C   UNL     1      67.096  16.343  76.256  1.00  0.00     0.000 C 
BRANCH  15  16
ATOM     16  C   UNL     1      67.445  17.696  76.896  1.00  0.00     0.000 C 
BRANCH  16  17
ATOM     17  C   UNL     1      68.292  18.552  75.946  1.00  0.00     0.000 C 
BRANCH  17  18
ATOM     18  C   UNL     1      69.493  19.162  76.682  1.00  0.00    -0.000 C 
BRANCH  18  19
ATOM     19  C   UNL     1      69.697  20.651  76.356  1.00  0.00    -0.000 C 
BRANCH  19  20
ATOM     20  C   UNL     1      68.653  21.600  76.979  1.00  0.00    -0.000 C 
BRANCH  20  21
ATOM     21  C   UNL     1      68.622  21.621  78.521  1.00  0.00    -0.000 C 
BRANCH  21  22
ATOM     22  C   UNL     1      67.318  21.101  79.152  1.00  0.00    -0.000 C 
BRANCH  22  23
ATOM     23  C   UNL     1      67.493  19.740  79.851  1.00  0.00    -0.000 C 
BRANCH  23  24
ATOM     24  C   UNL     1      67.662  19.873  81.373  1.00  0.00    -0.000 C 
BRANCH  24  25
ATOM     25  C   UNL     1      69.123  19.727  81.819  1.00  0.00    -0.003 C 
ATOM     26  C   UNL     1      69.279  18.599  82.835  1.00  0.00     0.004 C 
ENDBRANCH  24  25
ENDBRANCH  23  24
ENDBRANCH  22  23
ENDBRANCH  21  22
ENDBRANCH  20  21
ENDBRANCH  19  20
ENDBRANCH  18  19
ENDBRANCH  17  18
ENDBRANCH  16  17
ENDBRANCH  15  16
ENDBRANCH   1  15
TORSDOF 22
ENDMDL
MODEL 8
REMARK VINA RESULT:    -3.022      3.109      7.195
REMARK INTER + INTRA:         -10.635
REMARK INTER:                  -6.502
REMARK INTRA:                  -4.133
REMARK UNBOUND:                -3.726
REMARK SMILES CCCCCCCCCCCCCCCCCCCCCCCC(=O)[O-]
REMARK SMILES IDX 13 1 14 2 15 3 16 4 17 5 18 6 19 7 20 8 21 9 22 10 23 11
REMARK SMILES IDX 24 12 25 13 26 14 12 15 11 16 10 17 9 18 8 19 7 20 6 21 5 22
REMARK SMILES IDX 4 23 3 24 2 25 1 26
REMARK H PARENT
REMARK Flexibility Score: inf
ROOT
ATOM      1  C   UNL     1      67.274  15.857  79.266  1.00  0.00     0.000 C 
ENDROOT
BRANCH   1   2
ATOM      2  C   UNL     1      67.732  15.890  80.734  1.00  0.00     0.000 C 
BRANCH   2   3
ATOM      3  C   UNL     1      66.834  16.772  81.622  1.00  0.00     0.000 C 
BRANCH   3   4
ATOM      4  C   UNL     1      65.544  16.098  82.131  1.00  0.00     0.000 C 
BRANCH   4   5
ATOM      5  C   UNL     1      64.237  16.683  81.567  1.00  0.00     0.000 C 
BRANCH   5   6
ATOM      6  C   UNL     1      64.473  17.613  80.364  1.00  0.00     0.000 C 
BRANCH   6   7
ATOM      7  C   UNL     1      63.769  17.120  79.089  1.00  0.00     0.000 C 
BRANCH   7   8
ATOM      8  C   UNL     1      64.334  17.770  77.815  1.00  0.00     0.000 C 
BRANCH   8   9
ATOM      9  C   UNL     1      64.309  16.809  76.606  1.00  0.00     0.000 C 
BRANCH   9  10
ATOM     10  C   UNL     1      64.276  15.320  76.999  1.00  0.00     0.006 C 
BRANCH  10  11
ATOM     11  C   UNL     1      63.575  14.415  75.976  1.00  0.00     0.053 C 
BRANCH  11  12
ATOM     12  C   UNL     1      62.444  13.649  76.592  1.00  0.00     0.041 C 
ATOM     13  O   UNL     1      61.745  12.875  75.886  1.00  0.00    -0.550 OA
ATOM     14  O   UNL     1      62.135  13.819  77.935  1.00  0.00    -0.550 OA
ENDBRANCH  11  12
ENDBRANCH  10  11
ENDBRANCH   9  10
ENDBRANCH   8   9
ENDBRANCH   7   8
ENDBRANCH   6   7
ENDBRANCH   5   6
ENDBRANCH   4   5
ENDBRANCH   3   4
ENDBRANCH   2   3
ENDBRANCH   1   2
BRANCH   1  15
ATOM     15  C   UNL     1      67.834  17.028  78.443  1.00  0.00     0.000 C 
BRANCH  15  16
ATOM     16  C   UNL     1      68.122  16.646  76.983  1.00  0.00     0.000 C 
BRANCH  16  17
ATOM     17  C   UNL     1      67.734  15.188  76.708  1.00  0.00     0.000 C 
BRANCH  17  18
ATOM     18  C   UNL     1      68.949  14.376  76.239  1.00  0.00    -0.000 C 
BRANCH  18  19
ATOM     19  C   UNL     1      70.256  15.187  76.276  1.00  0.00    -0.000 C 
BRANCH  19  20
ATOM     20  C   UNL     1      71.279  14.717  77.330  1.00  0.00    -0.000 C 
BRANCH  20  21
ATOM     21  C   UNL     1      70.811  14.832  78.795  1.00  0.00    -0.000 C 
BRANCH  21  22
ATOM     22  C   UNL     1      71.654  15.773  79.675  1.00  0.00    -0.000 C 
BRANCH  22  23
ATOM     23  C   UNL     1      71.443  17.259  79.332  1.00  0.00    -0.000 C 
BRANCH  23  24
ATOM     24  C   UNL     1      70.706  18.025  80.443  1.00  0.00    -0.000 C 
BRANCH  24  25
ATOM     25  C   UNL     1      70.884  17.377  81.823  1.00  0.00    -0.003 C 
ATOM     26  C   UNL     1      70.220  18.214  82.914  1.00  0.00     0.004 C 
ENDBRANCH  24  25
ENDBRANCH  23  24
ENDBRANCH  22  23
ENDBRANCH  21  22
ENDBRANCH  20  21
ENDBRANCH  19  20
ENDBRANCH  18  19
ENDBRANCH  17  18
ENDBRANCH  16  17
ENDBRANCH  15  16
ENDBRANCH   1  15
TORSDOF 22
ENDMDL
MODEL 9
REMARK VINA RESULT:    -3.004      2.631      5.602
REMARK INTER + INTRA:         -10.593
REMARK INTER:                  -6.244
REMARK INTRA:                  -4.349
REMARK UNBOUND:                -3.726
REMARK SMILES CCCCCCCCCCCCCCCCCCCCCCCC(=O)[O-]
REMARK SMILES IDX 13 1 14 2 15 3 16 4 17 5 18 6 19 7 20 8 21 9 22 10 23 11
REMARK SMILES IDX 24 12 25 13 26 14 12 15 11 16 10 17 9 18 8 19 7 20 6 21 5 22
REMARK SMILES IDX 4 23 3 24 2 25 1 26
REMARK H PARENT
REMARK Flexibility Score: inf
ROOT
ATOM      1  C   UNL     1      67.534  15.992  77.686  1.00  0.00     0.000 C 
ENDROOT
BRANCH   1   2
ATOM      2  C   UNL     1      67.628  17.528  77.661  1.00  0.00     0.000 C 
BRANCH   2   3
ATOM      3  C   UNL     1      68.061  18.078  76.289  1.00  0.00     0.000 C 
BRANCH   3   4
ATOM      4  C   UNL     1      69.470  18.703  76.244  1.00  0.00     0.000 C 
BRANCH   4   5
ATOM      5  C   UNL     1      70.043  19.118  77.611  1.00  0.00     0.000 C 
BRANCH   5   6
ATOM      6  C   UNL     1      70.422  20.608  77.669  1.00  0.00     0.000 C 
BRANCH   6   7
ATOM      7  C   UNL     1      69.761  21.430  76.550  1.00  0.00     0.000 C 
BRANCH   7   8
ATOM      8  C   UNL     1      68.569  22.261  77.054  1.00  0.00     0.000 C 
BRANCH   8   9
ATOM      9  C   UNL     1      68.141  21.866  78.484  1.00  0.00     0.000 C 
BRANCH   9  10
ATOM     10  C   UNL     1      66.800  21.112  78.543  1.00  0.00     0.006 C 
BRANCH  10  11
ATOM     11  C   UNL     1      66.116  20.939  77.178  1.00  0.00     0.053 C 
BRANCH  11  12
ATOM     12  C   UNL     1      64.871  20.112  77.280  1.00  0.00     0.041 C 
ATOM     13  O   UNL     1      64.111  20.233  78.277  1.00  0.00    -0.550 OA
ATOM     14  O   UNL     1      64.569  19.181  76.295  1.00  0.00    -0.550 OA
ENDBRANCH  11  12
ENDBRANCH  10  11
ENDBRANCH   9  10
ENDBRANCH   8   9
ENDBRANCH   7   8
ENDBRANCH   6   7
ENDBRANCH   5   6
ENDBRANCH   4   5
ENDBRANCH   3   4
ENDBRANCH   2   3
ENDBRANCH   1   2
BRANCH   1  15
ATOM     15  C   UNL     1      67.728  15.363  76.298  1.00  0.00     0.000 C 
BRANCH  15  16
ATOM     16  C   UNL     1      68.903  14.373  76.252  1.00  0.00     0.000 C 
BRANCH  16  17
ATOM     17  C   UNL     1      70.246  15.113  76.242  1.00  0.00     0.000 C 
BRANCH  17  18
ATOM     18  C   UNL     1      71.086  14.741  77.472  1.00  0.00    -0.000 C 
BRANCH  18  19
ATOM     19  C   UNL     1      71.170  15.881  78.502  1.00  0.00    -0.000 C 
BRANCH  19  20
ATOM     20  C   UNL     1      70.672  15.516  79.915  1.00  0.00    -0.000 C 
BRANCH  20  21
ATOM     21  C   UNL     1      71.255  16.372  81.057  1.00  0.00    -0.000 C 
BRANCH  21  22
ATOM     22  C   UNL     1      70.215  17.167  81.869  1.00  0.00    -0.000 C 
BRANCH  22  23
ATOM     23  C   UNL     1      69.331  18.068  80.987  1.00  0.00    -0.000 C 
BRANCH  23  24
ATOM     24  C   UNL     1      67.830  17.879  81.263  1.00  0.00    -0.000 C 
BRANCH  24  25
ATOM     25  C   UNL     1      67.443  16.404  81.433  1.00  0.00    -0.003 C 
ATOM     26  C   UNL     1      66.137  16.263  82.209  1.00  0.00     0.004 C 
ENDBRANCH  24  25
ENDBRANCH  23  24
ENDBRANCH  22  23
ENDBRANCH  21  22
ENDBRANCH  20  21
ENDBRANCH  19  20
ENDBRANCH  18  19
ENDBRANCH  17  18
ENDBRANCH  16  17
ENDBRANCH  15  16
ENDBRANCH   1  15
TORSDOF 22
ENDMDL
