MODEL 1
REMARK VINA RESULT:    -5.138      0.000      0.000
REMARK INTER + INTRA:          -5.439
REMARK INTER:                  -5.439
REMARK INTRA:                   0.000
REMARK UNBOUND:                 0.000
REMARK SMILES O=c1ccc2cc(O)c(O)cc2o1
REMARK SMILES IDX 4 1 3 2 2 3 1 4 13 5 12 6 11 7 9 8 7 9 6 10 5 11 8 12 10 14
REMARK H PARENT 8 13 10 15
REMARK Flexibility Score: inf
ROOT
ATOM      1  C   UNL     1      10.220  -7.212  -9.619  1.00  0.00     0.019 A 
ATOM      2  C   UNL     1       9.452  -7.902 -10.556  1.00  0.00     0.094 A 
ATOM      3  C   UNL     1       8.072  -8.004 -10.359  1.00  0.00     0.336 A 
ATOM      4  O   UNL     1       7.362  -8.623 -11.195  1.00  0.00    -0.246 OA
ATOM      5  O   UNL     1       7.500  -7.451  -9.292  1.00  0.00    -0.423 OA
ATOM      6  C   UNL     1       8.196  -6.785  -8.374  1.00  0.00     0.142 A 
ATOM      7  C   UNL     1       7.541  -6.224  -7.272  1.00  0.00     0.098 A 
ATOM      8  C   UNL     1       8.268  -5.519  -6.301  1.00  0.00     0.161 A 
ATOM      9  C   UNL     1       9.658  -5.376  -6.433  1.00  0.00     0.158 A 
ATOM     10  C   UNL     1      10.320  -5.936  -7.536  1.00  0.00     0.062 A 
ATOM     11  C   UNL     1       9.593  -6.640  -8.507  1.00  0.00     0.022 A 
ENDROOT
BRANCH   9  12
ATOM     12  O   UNL     1      10.372  -4.675  -5.464  1.00  0.00    -0.504 OA
ATOM     13  H   UNL     1      11.038  -5.140  -4.856  1.00  0.00     0.293 HD
ENDBRANCH   9  12
BRANCH   8  14
ATOM     14  O   UNL     1       7.618  -4.960  -5.203  1.00  0.00    -0.504 OA
ATOM     15  H   UNL     1       7.466  -5.487  -4.352  1.00  0.00     0.293 HD
ENDBRANCH   8  14
TORSDOF 2
ENDMDL
MODEL 2
REMARK VINA RESULT:    -5.103      1.835      2.568
REMARK INTER + INTRA:          -5.402
REMARK INTER:                  -5.402
REMARK INTRA:                   0.000
REMARK UNBOUND:                 0.000
REMARK SMILES O=c1ccc2cc(O)c(O)cc2o1
REMARK SMILES IDX 4 1 3 2 2 3 1 4 13 5 12 6 11 7 9 8 7 9 6 10 5 11 8 12 10 14
REMARK H PARENT 8 13 10 15
REMARK Flexibility Score: inf
ROOT
ATOM      1  C   UNL     1       8.028  -8.450  -8.353  1.00  0.00     0.019 A 
ATOM      2  C   UNL     1       8.412  -7.933  -9.590  1.00  0.00     0.094 A 
ATOM      3  C   UNL     1       8.771  -6.585  -9.680  1.00  0.00     0.336 A 
ATOM      4  O   UNL     1       9.121  -6.100 -10.789  1.00  0.00    -0.246 OA
ATOM      5  O   UNL     1       8.747  -5.807  -8.601  1.00  0.00    -0.423 OA
ATOM      6  C   UNL     1       8.387  -6.260  -7.402  1.00  0.00     0.142 A 
ATOM      7  C   UNL     1       8.380  -5.396  -6.302  1.00  0.00     0.098 A 
ATOM      8  C   UNL     1       8.002  -5.867  -5.036  1.00  0.00     0.161 A 
ATOM      9  C   UNL     1       7.629  -7.209  -4.870  1.00  0.00     0.158 A 
ATOM     10  C   UNL     1       7.635  -8.080  -5.970  1.00  0.00     0.062 A 
ATOM     11  C   UNL     1       8.012  -7.610  -7.235  1.00  0.00     0.022 A 
ENDROOT
BRANCH   9  12
ATOM     12  O   UNL     1       7.255  -7.668  -3.609  1.00  0.00    -0.504 OA
ATOM     13  H   UNL     1       7.848  -8.294  -3.075  1.00  0.00     0.293 HD
ENDBRANCH   9  12
BRANCH   8  14
ATOM     14  O   UNL     1       7.995  -5.008  -3.939  1.00  0.00    -0.504 OA
ATOM     15  H   UNL     1       7.371  -5.155  -3.155  1.00  0.00     0.293 HD
ENDBRANCH   8  14
TORSDOF 2
ENDMDL
MODEL 3
REMARK VINA RESULT:    -5.099      1.618      2.057
REMARK INTER + INTRA:          -5.397
REMARK INTER:                  -5.397
REMARK INTRA:                   0.000
REMARK UNBOUND:                 0.000
REMARK SMILES O=c1ccc2cc(O)c(O)cc2o1
REMARK SMILES IDX 4 1 3 2 2 3 1 4 13 5 12 6 11 7 9 8 7 9 6 10 5 11 8 12 10 14
REMARK H PARENT 8 13 10 15
REMARK Flexibility Score: inf
ROOT
ATOM      1  C   UNL     1       8.749  -5.810  -8.704  1.00  0.00     0.019 A 
ATOM      2  C   UNL     1       8.733  -6.718  -9.761  1.00  0.00     0.094 A 
ATOM      3  C   UNL     1       8.345  -8.039  -9.515  1.00  0.00     0.336 A 
ATOM      4  O   UNL     1       8.323  -8.874 -10.457  1.00  0.00    -0.246 OA
ATOM      5  O   UNL     1       7.998  -8.422  -8.289  1.00  0.00    -0.423 OA
ATOM      6  C   UNL     1       8.000  -7.588  -7.252  1.00  0.00     0.142 A 
ATOM      7  C   UNL     1       7.625  -8.046  -5.985  1.00  0.00     0.098 A 
ATOM      8  C   UNL     1       7.625  -7.171  -4.888  1.00  0.00     0.161 A 
ATOM      9  C   UNL     1       8.002  -5.831  -5.060  1.00  0.00     0.158 A 
ATOM     10  C   UNL     1       8.379  -5.365  -6.329  1.00  0.00     0.062 A 
ATOM     11  C   UNL     1       8.379  -6.239  -7.425  1.00  0.00     0.022 A 
ENDROOT
BRANCH   9  12
ATOM     12  O   UNL     1       7.999  -4.969  -3.966  1.00  0.00    -0.504 OA
ATOM     13  H   UNL     1       7.166  -4.460  -3.694  1.00  0.00     0.293 HD
ENDBRANCH   9  12
BRANCH   8  14
ATOM     14  O   UNL     1       7.252  -7.626  -3.625  1.00  0.00    -0.504 OA
ATOM     15  H   UNL     1       6.402  -8.159  -3.483  1.00  0.00     0.293 HD
ENDBRANCH   8  14
TORSDOF 2
ENDMDL
MODEL 4
REMARK VINA RESULT:    -5.011      2.064      2.975
REMARK INTER + INTRA:          -5.304
REMARK INTER:                  -5.304
REMARK INTRA:                   0.000
REMARK UNBOUND:                 0.000
REMARK SMILES O=c1ccc2cc(O)c(O)cc2o1
REMARK SMILES IDX 4 1 3 2 2 3 1 4 13 5 12 6 11 7 9 8 7 9 6 10 5 11 8 12 10 14
REMARK H PARENT 8 13 10 15
REMARK Flexibility Score: inf
ROOT
ATOM      1  C   UNL     1       8.209  -6.918 -11.633  1.00  0.00     0.019 A 
ATOM      2  C   UNL     1       8.978  -7.642 -12.543  1.00  0.00     0.094 A 
ATOM      3  C   UNL     1      10.296  -7.968 -12.209  1.00  0.00     0.336 A 
ATOM      4  O   UNL     1      11.006  -8.622 -13.018  1.00  0.00    -0.246 OA
ATOM      5  O   UNL     1      10.808  -7.592 -11.040  1.00  0.00    -0.423 OA
ATOM      6  C   UNL     1      10.109  -6.900 -10.143  1.00  0.00     0.142 A 
ATOM      7  C   UNL     1      10.699  -6.532  -8.930  1.00  0.00     0.098 A 
ATOM      8  C   UNL     1       9.967  -5.804  -7.980  1.00  0.00     0.161 A 
ATOM      9  C   UNL     1       8.638  -5.441  -8.247  1.00  0.00     0.158 A 
ATOM     10  C   UNL     1       8.041  -5.808  -9.462  1.00  0.00     0.062 A 
ATOM     11  C   UNL     1       8.772  -6.536 -10.411  1.00  0.00     0.022 A 
ENDROOT
BRANCH   9  12
ATOM     12  O   UNL     1       7.919  -4.717  -7.298  1.00  0.00    -0.504 OA
ATOM     13  H   UNL     1       8.362  -4.011  -6.722  1.00  0.00     0.293 HD
ENDBRANCH   9  12
BRANCH   8  14
ATOM     14  O   UNL     1      10.553  -5.436  -6.771  1.00  0.00    -0.504 OA
ATOM     15  H   UNL     1      10.176  -4.686  -6.205  1.00  0.00     0.293 HD
ENDBRANCH   8  14
TORSDOF 2
ENDMDL
MODEL 5
REMARK VINA RESULT:    -5.000     21.643     22.527
REMARK INTER + INTRA:          -5.292
REMARK INTER:                  -5.292
REMARK INTRA:                   0.000
REMARK UNBOUND:                 0.000
REMARK SMILES O=c1ccc2cc(O)c(O)cc2o1
REMARK SMILES IDX 4 1 3 2 2 3 1 4 13 5 12 6 11 7 9 8 7 9 6 10 5 11 8 12 10 14
REMARK H PARENT 8 13 10 15
REMARK Flexibility Score: inf
ROOT
ATOM      1  C   UNL     1      21.641   7.182 -20.677  1.00  0.00     0.019 A 
ATOM      2  C   UNL     1      22.708   6.548 -21.314  1.00  0.00     0.094 A 
ATOM      3  C   UNL     1      22.482   5.897 -22.531  1.00  0.00     0.336 A 
ATOM      4  O   UNL     1      23.433   5.320 -23.120  1.00  0.00    -0.246 OA
ATOM      5  O   UNL     1      21.267   5.883 -23.072  1.00  0.00    -0.423 OA
ATOM      6  C   UNL     1      20.221   6.474 -22.498  1.00  0.00     0.142 A 
ATOM      7  C   UNL     1      18.966   6.427 -23.113  1.00  0.00     0.098 A 
ATOM      8  C   UNL     1      17.861   7.049 -22.514  1.00  0.00     0.161 A 
ATOM      9  C   UNL     1      18.013   7.721 -21.292  1.00  0.00     0.158 A 
ATOM     10  C   UNL     1      19.270   7.773 -20.670  1.00  0.00     0.062 A 
ATOM     11  C   UNL     1      20.374   7.152 -21.269  1.00  0.00     0.022 A 
ENDROOT
BRANCH   9  12
ATOM     12  O   UNL     1      16.910   8.336 -20.703  1.00  0.00    -0.504 OA
ATOM     13  H   UNL     1      16.224   8.837 -21.257  1.00  0.00     0.293 HD
ENDBRANCH   9  12
BRANCH   8  14
ATOM     14  O   UNL     1      16.610   7.003 -23.125  1.00  0.00    -0.504 OA
ATOM     15  H   UNL     1      15.754   7.009 -22.583  1.00  0.00     0.293 HD
ENDBRANCH   8  14
TORSDOF 2
ENDMDL
MODEL 6
REMARK VINA RESULT:    -4.961      1.972      2.435
REMARK INTER + INTRA:          -5.251
REMARK INTER:                  -5.251
REMARK INTRA:                   0.000
REMARK UNBOUND:                 0.000
REMARK SMILES O=c1ccc2cc(O)c(O)cc2o1
REMARK SMILES IDX 4 1 3 2 2 3 1 4 13 5 12 6 11 7 9 8 7 9 6 10 5 11 8 12 10 14
REMARK H PARENT 8 13 10 15
REMARK Flexibility Score: inf
ROOT
ATOM      1  C   UNL     1      10.985  -7.113  -8.493  1.00  0.00     0.019 A 
ATOM      2  C   UNL     1      11.472  -7.467  -9.750  1.00  0.00     0.094 A 
ATOM      3  C   UNL     1      10.726  -7.135 -10.885  1.00  0.00     0.336 A 
ATOM      4  O   UNL     1      11.150  -7.446 -12.030  1.00  0.00    -0.246 OA
ATOM      5  O   UNL     1       9.567  -6.492 -10.766  1.00  0.00    -0.423 OA
ATOM      6  C   UNL     1       9.065  -6.136  -9.585  1.00  0.00     0.142 A 
ATOM      7  C   UNL     1       7.842  -5.461  -9.520  1.00  0.00     0.098 A 
ATOM      8  C   UNL     1       7.309  -5.083  -8.279  1.00  0.00     0.161 A 
ATOM      9  C   UNL     1       8.003  -5.383  -7.097  1.00  0.00     0.158 A 
ATOM     10  C   UNL     1       9.231  -6.059  -7.157  1.00  0.00     0.062 A 
ATOM     11  C   UNL     1       9.764  -6.436  -8.396  1.00  0.00     0.022 A 
ENDROOT
BRANCH   9  12
ATOM     12  O   UNL     1       7.466  -5.003  -5.869  1.00  0.00    -0.504 OA
ATOM     13  H   UNL     1       8.054  -4.669  -5.114  1.00  0.00     0.293 HD
ENDBRANCH   9  12
BRANCH   8  14
ATOM     14  O   UNL     1       6.091  -4.411  -8.212  1.00  0.00    -0.504 OA
ATOM     15  H   UNL     1       5.380  -4.527  -8.925  1.00  0.00     0.293 HD
ENDBRANCH   8  14
TORSDOF 2
ENDMDL
MODEL 7
REMARK VINA RESULT:    -4.954     21.585     22.447
REMARK INTER + INTRA:          -5.243
REMARK INTER:                  -5.243
REMARK INTRA:                   0.000
REMARK UNBOUND:                 0.000
REMARK SMILES O=c1ccc2cc(O)c(O)cc2o1
REMARK SMILES IDX 4 1 3 2 2 3 1 4 13 5 12 6 11 7 9 8 7 9 6 10 5 11 8 12 10 14
REMARK H PARENT 8 13 10 15
REMARK Flexibility Score: inf
ROOT
ATOM      1  C   UNL     1      18.259   7.399 -22.881  1.00  0.00     0.019 A 
ATOM      2  C   UNL     1      17.341   8.122 -22.120  1.00  0.00     0.094 A 
ATOM      3  C   UNL     1      17.659   8.441 -20.796  1.00  0.00     0.336 A 
ATOM      4  O   UNL     1      16.843   9.094 -20.094  1.00  0.00    -0.246 OA
ATOM      5  O   UNL     1      18.820   8.059 -20.271  1.00  0.00    -0.423 OA
ATOM      6  C   UNL     1      19.724   7.367 -20.962  1.00  0.00     0.142 A 
ATOM      7  C   UNL     1      20.928   6.992 -20.358  1.00  0.00     0.098 A 
ATOM      8  C   UNL     1      21.884   6.263 -21.080  1.00  0.00     0.161 A 
ATOM      9  C   UNL     1      21.634   5.908 -22.414  1.00  0.00     0.158 A 
ATOM     10  C   UNL     1      20.428   6.283 -23.026  1.00  0.00     0.062 A 
ATOM     11  C   UNL     1      19.472   7.011 -22.304  1.00  0.00     0.022 A 
ENDROOT
BRANCH   9  12
ATOM     12  O   UNL     1      22.590   5.185 -23.125  1.00  0.00    -0.504 OA
ATOM     13  H   UNL     1      23.448   5.616 -23.450  1.00  0.00     0.293 HD
ENDBRANCH   9  12
BRANCH   8  14
ATOM     14  O   UNL     1      23.085   5.889 -20.480  1.00  0.00    -0.504 OA
ATOM     15  H   UNL     1      23.933   6.427 -20.609  1.00  0.00     0.293 HD
ENDBRANCH   8  14
TORSDOF 2
ENDMDL
MODEL 8
REMARK VINA RESULT:    -4.884     21.454     22.462
REMARK INTER + INTRA:          -5.169
REMARK INTER:                  -5.169
REMARK INTRA:                   0.000
REMARK UNBOUND:                 0.000
REMARK SMILES O=c1ccc2cc(O)c(O)cc2o1
REMARK SMILES IDX 4 1 3 2 2 3 1 4 13 5 12 6 11 7 9 8 7 9 6 10 5 11 8 12 10 14
REMARK H PARENT 8 13 10 15
REMARK Flexibility Score: inf
ROOT
ATOM      1  C   UNL     1      21.381   5.881 -22.947  1.00  0.00     0.019 A 
ATOM      2  C   UNL     1      22.589   5.938 -22.253  1.00  0.00     0.094 A 
ATOM      3  C   UNL     1      22.633   6.597 -21.020  1.00  0.00     0.336 A 
ATOM      4  O   UNL     1      23.714   6.658 -20.378  1.00  0.00    -0.246 OA
ATOM      5  O   UNL     1      21.537   7.160 -20.518  1.00  0.00    -0.423 OA
ATOM      6  C   UNL     1      20.365   7.130 -21.147  1.00  0.00     0.142 A 
ATOM      7  C   UNL     1      19.246   7.740 -20.571  1.00  0.00     0.098 A 
ATOM      8  C   UNL     1      18.008   7.710 -21.229  1.00  0.00     0.161 A 
ATOM      9  C   UNL     1      17.888   7.067 -22.470  1.00  0.00     0.158 A 
ATOM     10  C   UNL     1      19.008   6.452 -23.053  1.00  0.00     0.062 A 
ATOM     11  C   UNL     1      20.245   6.482 -22.395  1.00  0.00     0.022 A 
ENDROOT
BRANCH   9  12
ATOM     12  O   UNL     1      16.655   7.042 -23.117  1.00  0.00    -0.504 OA
ATOM     13  H   UNL     1      16.401   7.745 -23.803  1.00  0.00     0.293 HD
ENDBRANCH   9  12
BRANCH   8  14
ATOM     14  O   UNL     1      16.892   8.317 -20.657  1.00  0.00    -0.504 OA
ATOM     15  H   UNL     1      16.302   7.827 -19.995  1.00  0.00     0.293 HD
ENDBRANCH   8  14
TORSDOF 2
ENDMDL
MODEL 9
REMARK VINA RESULT:    -4.832     22.054     22.826
REMARK INTER + INTRA:          -5.114
REMARK INTER:                  -5.114
REMARK INTRA:                   0.000
REMARK UNBOUND:                 0.000
REMARK SMILES O=c1ccc2cc(O)c(O)cc2o1
REMARK SMILES IDX 4 1 3 2 2 3 1 4 13 5 12 6 11 7 9 8 7 9 6 10 5 11 8 12 10 14
REMARK H PARENT 8 13 10 15
REMARK Flexibility Score: inf
ROOT
ATOM      1  C   UNL     1      19.757   7.720 -20.219  1.00  0.00     0.019 A 
ATOM      2  C   UNL     1      18.587   8.085 -20.883  1.00  0.00     0.094 A 
ATOM      3  C   UNL     1      18.444   7.756 -22.235  1.00  0.00     0.336 A 
ATOM      4  O   UNL     1      17.394   8.077 -22.852  1.00  0.00    -0.246 OA
ATOM      5  O   UNL     1      19.411   7.105 -22.876  1.00  0.00    -0.423 OA
ATOM      6  C   UNL     1      20.543   6.739 -22.280  1.00  0.00     0.142 A 
ATOM      7  C   UNL     1      21.526   6.056 -23.004  1.00  0.00     0.098 A 
ATOM      8  C   UNL     1      22.721   5.666 -22.382  1.00  0.00     0.161 A 
ATOM      9  C   UNL     1      22.934   5.962 -21.027  1.00  0.00     0.158 A 
ATOM     10  C   UNL     1      21.951   6.647 -20.295  1.00  0.00     0.062 A 
ATOM     11  C   UNL     1      20.757   7.036 -20.917  1.00  0.00     0.022 A 
ENDROOT
BRANCH   9  12
ATOM     12  O   UNL     1      24.124   5.572 -20.416  1.00  0.00    -0.504 OA
ATOM     13  H   UNL     1      24.907   6.209 -20.326  1.00  0.00     0.293 HD
ENDBRANCH   9  12
BRANCH   8  14
ATOM     14  O   UNL     1      23.700   4.986 -23.101  1.00  0.00    -0.504 OA
ATOM     15  H   UNL     1      23.863   5.173 -24.084  1.00  0.00     0.293 HD
ENDBRANCH   8  14
TORSDOF 2
ENDMDL
