MODEL 1
REMARK VINA RESULT:    -8.321      0.000      0.000
REMARK INTER + INTRA:          -8.341
REMARK INTER:                  -9.050
REMARK INTRA:                   0.709
REMARK UNBOUND:                 0.709
REMARK SMILES C[C@@H]1[C@H](C)CC[C@]2(C(=O)[O-])CC[C@@]3(C)C(=CC[C@@H]4[C@]5(C)CC[C@@H](O)C(C)(C)[C@H]5CC[C@]43C)[C@@H]12
REMARK SMILES IDX 7 1 6 2 11 3 33 4 5 5 12 6 15 7 2 8 3 9 13 10 16 11 1 12
REMARK SMILES IDX 4 13 14 14 31 15 17 16 18 17 30 18 32 19 19 20 29 21 28 22
REMARK SMILES IDX 21 23 20 24 25 25 22 26 23 27 26 28 27 29 8 30 9 31 10 32
REMARK SMILES IDX 24 33
REMARK H PARENT 24 34
REMARK Flexibility Score: inf
ROOT
ATOM      1  C   UNL     1      13.269  26.808  40.700  1.00  0.00     0.017 C 
ATOM      2  C   UNL     1      14.246  27.931  40.216  1.00  0.00     0.014 C 
ATOM      3  C   UNL     1      13.878  26.041  41.905  1.00  0.00     0.014 C 
ATOM      4  C   UNL     1      13.130  25.776  39.527  1.00  0.00     0.030 C 
ATOM      5  C   UNL     1      14.146  28.245  38.696  1.00  0.00     0.004 C 
ATOM      6  C   UNL     1      12.981  24.887  42.441  1.00  0.00     0.013 C 
ATOM      7  C   UNL     1      12.777  24.340  39.977  1.00  0.00    -0.063 C 
ATOM      8  C   UNL     1      12.389  26.359  38.277  1.00  0.00    -0.003 C 
ATOM      9  C   UNL     1      12.775  27.883  38.071  1.00  0.00    -0.011 C 
ATOM     10  C   UNL     1      12.108  24.113  41.362  1.00  0.00    -0.006 C 
ATOM     11  C   UNL     1      13.440  23.332  39.334  1.00  0.00    -0.027 C 
ATOM     12  C   UNL     1      12.641  25.490  37.027  1.00  0.00     0.008 C 
ATOM     13  C   UNL     1      12.713  28.374  36.615  1.00  0.00     0.008 C 
ATOM     14  C   UNL     1      10.664  24.737  41.348  1.00  0.00     0.017 C 
ATOM     15  C   UNL     1      11.982  22.533  41.671  1.00  0.00    -0.020 C 
ATOM     16  C   UNL     1      13.626  21.927  39.854  1.00  0.00     0.032 C 
ATOM     17  C   UNL     1      13.368  21.856  41.373  1.00  0.00     0.006 C 
ATOM     18  C   UNL     1      11.619  22.271  43.164  1.00  0.00     0.008 C 
ATOM     19  C   UNL     1      10.850  21.922  40.753  1.00  0.00     0.012 C 
ATOM     20  C   UNL     1      13.680  20.466  42.130  1.00  0.00    -0.025 C 
ATOM     21  C   UNL     1      11.474  20.782  43.525  1.00  0.00     0.005 C 
ATOM     22  C   UNL     1      12.364  19.810  42.694  1.00  0.00     0.003 C 
ATOM     23  C   UNL     1      14.353  19.436  41.169  1.00  0.00     0.010 C 
ATOM     24  C   UNL     1      14.686  20.784  43.280  1.00  0.00     0.012 C 
ATOM     25  C   UNL     1      12.502  18.358  43.318  1.00  0.00    -0.006 C 
ATOM     26  C   UNL     1      14.549  18.038  41.775  1.00  0.00     0.033 C 
ATOM     27  C   UNL     1      13.230  17.438  42.283  1.00  0.00     0.120 C 
ATOM     28  C   UNL     1      13.232  18.315  44.697  1.00  0.00     0.014 C 
ATOM     29  C   UNL     1      11.076  17.775  43.534  1.00  0.00     0.014 C 
ENDROOT
BRANCH   1  30
ATOM     30  C   UNL     1      11.995  27.510  41.177  1.00  0.00     0.048 C 
ATOM     31  O   UNL     1      10.944  27.548  40.486  1.00  0.00    -0.550 OA
ATOM     32  O   UNL     1      12.005  28.190  42.391  1.00  0.00    -0.550 OA
ENDBRANCH   1  30
BRANCH  27  33
ATOM     33  O   UNL     1      13.502  16.174  42.841  1.00  0.00    -0.393 OA
ATOM     34  H   UNL     1      14.000  16.321  43.687  1.00  0.00     0.210 HD
ENDBRANCH  27  33
TORSDOF 2
ENDMDL
MODEL 2
REMARK VINA RESULT:    -8.157      3.296      5.840
REMARK INTER + INTRA:          -8.163
REMARK INTER:                  -8.882
REMARK INTRA:                   0.719
REMARK UNBOUND:                 0.709
REMARK SMILES C[C@@H]1[C@H](C)CC[C@]2(C(=O)[O-])CC[C@@]3(C)C(=CC[C@@H]4[C@]5(C)CC[C@@H](O)C(C)(C)[C@H]5CC[C@]43C)[C@@H]12
REMARK SMILES IDX 7 1 6 2 11 3 33 4 5 5 12 6 15 7 2 8 3 9 13 10 16 11 1 12
REMARK SMILES IDX 4 13 14 14 31 15 17 16 18 17 30 18 32 19 19 20 29 21 28 22
REMARK SMILES IDX 21 23 20 24 25 25 22 26 23 27 26 28 27 29 8 30 9 31 10 32
REMARK SMILES IDX 24 33
REMARK H PARENT 24 34
REMARK Flexibility Score: inf
ROOT
ATOM      1  C   UNL     1       8.953  22.145  39.697  1.00  0.00     0.017 C 
ATOM      2  C   UNL     1       7.764  21.293  39.141  1.00  0.00     0.014 C 
ATOM      3  C   UNL     1      10.264  21.312  39.696  1.00  0.00     0.014 C 
ATOM      4  C   UNL     1       8.626  22.478  41.195  1.00  0.00     0.030 C 
ATOM      5  C   UNL     1       6.379  21.674  39.738  1.00  0.00     0.004 C 
ATOM      6  C   UNL     1      11.500  22.076  40.255  1.00  0.00     0.013 C 
ATOM      7  C   UNL     1       9.869  22.716  42.082  1.00  0.00    -0.063 C 
ATOM      8  C   UNL     1       7.407  23.445  41.359  1.00  0.00    -0.003 C 
ATOM      9  C   UNL     1       6.304  23.129  40.264  1.00  0.00    -0.011 C 
ATOM     10  C   UNL     1      11.218  23.118  41.422  1.00  0.00    -0.006 C 
ATOM     11  C   UNL     1       9.826  22.165  43.333  1.00  0.00    -0.027 C 
ATOM     12  C   UNL     1       6.861  23.410  42.802  1.00  0.00     0.008 C 
ATOM     13  C   UNL     1       4.862  23.465  40.683  1.00  0.00     0.008 C 
ATOM     14  C   UNL     1      11.079  24.551  40.788  1.00  0.00     0.017 C 
ATOM     15  C   UNL     1      12.394  23.157  42.528  1.00  0.00    -0.020 C 
ATOM     16  C   UNL     1      11.020  21.862  44.204  1.00  0.00     0.032 C 
ATOM     17  C   UNL     1      12.322  21.837  43.377  1.00  0.00     0.006 C 
ATOM     18  C   UNL     1      13.801  23.237  41.862  1.00  0.00     0.008 C 
ATOM     19  C   UNL     1      12.188  24.427  43.446  1.00  0.00     0.012 C 
ATOM     20  C   UNL     1      13.679  21.367  44.114  1.00  0.00    -0.025 C 
ATOM     21  C   UNL     1      14.969  23.287  42.863  1.00  0.00     0.005 C 
ATOM     22  C   UNL     1      14.718  22.547  44.211  1.00  0.00     0.003 C 
ATOM     23  C   UNL     1      13.391  20.863  45.563  1.00  0.00     0.010 C 
ATOM     24  C   UNL     1      14.259  20.174  43.292  1.00  0.00     0.012 C 
ATOM     25  C   UNL     1      16.031  22.271  45.058  1.00  0.00    -0.006 C 
ATOM     26  C   UNL     1      14.649  20.535  46.380  1.00  0.00     0.033 C 
ATOM     27  C   UNL     1      15.612  21.729  46.464  1.00  0.00     0.120 C 
ATOM     28  C   UNL     1      17.046  21.301  44.376  1.00  0.00     0.014 C 
ATOM     29  C   UNL     1      16.767  23.624  45.283  1.00  0.00     0.014 C 
ENDROOT
BRANCH   1  30
ATOM     30  C   UNL     1       9.136  23.323  38.736  1.00  0.00     0.048 C 
ATOM     31  O   UNL     1       8.769  24.491  39.021  1.00  0.00    -0.550 OA
ATOM     32  O   UNL     1       9.671  23.094  37.471  1.00  0.00    -0.550 OA
ENDBRANCH   1  30
BRANCH  27  33
ATOM     33  O   UNL     1      16.743  21.337  47.207  1.00  0.00    -0.393 OA
ATOM     34  H   UNL     1      17.043  20.459  46.854  1.00  0.00     0.210 HD
ENDBRANCH  27  33
TORSDOF 2
ENDMDL
MODEL 3
REMARK VINA RESULT:    -8.083      5.173      9.666
REMARK INTER + INTRA:          -8.082
REMARK INTER:                  -8.796
REMARK INTRA:                   0.713
REMARK UNBOUND:                 0.709
REMARK SMILES C[C@@H]1[C@H](C)CC[C@]2(C(=O)[O-])CC[C@@]3(C)C(=CC[C@@H]4[C@]5(C)CC[C@@H](O)C(C)(C)[C@H]5CC[C@]43C)[C@@H]12
REMARK SMILES IDX 7 1 6 2 11 3 33 4 5 5 12 6 15 7 2 8 3 9 13 10 16 11 1 12
REMARK SMILES IDX 4 13 14 14 31 15 17 16 18 17 30 18 32 19 19 20 29 21 28 22
REMARK SMILES IDX 21 23 20 24 25 25 22 26 23 27 26 28 27 29 8 30 9 31 10 32
REMARK SMILES IDX 24 33
REMARK H PARENT 24 34
REMARK Flexibility Score: inf
ROOT
ATOM      1  C   UNL     1      12.491  27.239  38.926  1.00  0.00     0.017 C 
ATOM      2  C   UNL     1      13.972  27.693  39.152  1.00  0.00     0.014 C 
ATOM      3  C   UNL     1      11.735  28.273  38.047  1.00  0.00     0.014 C 
ATOM      4  C   UNL     1      11.787  27.233  40.328  1.00  0.00     0.030 C 
ATOM      5  C   UNL     1      14.578  27.222  40.505  1.00  0.00     0.004 C 
ATOM      6  C   UNL     1      10.243  27.913  37.787  1.00  0.00     0.013 C 
ATOM      7  C   UNL     1      10.259  27.455  40.277  1.00  0.00    -0.063 C 
ATOM      8  C   UNL     1      12.339  26.129  41.290  1.00  0.00    -0.003 C 
ATOM      9  C   UNL     1      13.902  25.955  41.087  1.00  0.00    -0.011 C 
ATOM     10  C   UNL     1       9.484  27.158  38.962  1.00  0.00    -0.006 C 
ATOM     11  C   UNL     1       9.742  28.281  41.236  1.00  0.00    -0.027 C 
ATOM     12  C   UNL     1      11.943  26.419  42.753  1.00  0.00     0.008 C 
ATOM     13  C   UNL     1      14.667  25.473  42.331  1.00  0.00     0.008 C 
ATOM     14  C   UNL     1       9.527  25.613  38.672  1.00  0.00     0.017 C 
ATOM     15  C   UNL     1       7.941  27.611  39.106  1.00  0.00    -0.020 C 
ATOM     16  C   UNL     1       8.420  29.005  41.156  1.00  0.00     0.032 C 
ATOM     17  C   UNL     1       7.903  29.064  39.704  1.00  0.00     0.006 C 
ATOM     18  C   UNL     1       7.220  27.631  37.724  1.00  0.00     0.008 C 
ATOM     19  C   UNL     1       7.197  26.593  40.059  1.00  0.00     0.012 C 
ATOM     20  C   UNL     1       6.583  29.943  39.404  1.00  0.00    -0.025 C 
ATOM     21  C   UNL     1       5.740  28.046  37.791  1.00  0.00     0.005 C 
ATOM     22  C   UNL     1       5.382  29.037  38.939  1.00  0.00     0.003 C 
ATOM     23  C   UNL     1       6.126  30.729  40.674  1.00  0.00     0.010 C 
ATOM     24  C   UNL     1       6.963  30.982  38.303  1.00  0.00     0.012 C 
ATOM     25  C   UNL     1       3.976  29.751  38.769  1.00  0.00    -0.006 C 
ATOM     26  C   UNL     1       4.794  31.475  40.510  1.00  0.00     0.033 C 
ATOM     27  C   UNL     1       3.654  30.538  40.083  1.00  0.00     0.120 C 
ATOM     28  C   UNL     1       3.876  30.693  37.528  1.00  0.00     0.014 C 
ATOM     29  C   UNL     1       2.882  28.656  38.605  1.00  0.00     0.014 C 
ENDROOT
BRANCH   1  30
ATOM     30  C   UNL     1      12.550  25.915  38.160  1.00  0.00     0.048 C 
ATOM     31  O   UNL     1      12.455  24.799  38.731  1.00  0.00    -0.550 OA
ATOM     32  O   UNL     1      12.779  25.931  36.787  1.00  0.00    -0.550 OA
ENDBRANCH   1  30
BRANCH  27  33
ATOM     33  O   UNL     1       2.481  31.303  39.934  1.00  0.00    -0.393 OA
ATOM     34  H   UNL     1       2.756  32.242  39.763  1.00  0.00     0.210 HD
ENDBRANCH  27  33
TORSDOF 2
ENDMDL
MODEL 4
REMARK VINA RESULT:    -8.076      3.295      5.800
REMARK INTER + INTRA:          -8.075
REMARK INTER:                  -8.784
REMARK INTRA:                   0.710
REMARK UNBOUND:                 0.709
REMARK SMILES C[C@@H]1[C@H](C)CC[C@]2(C(=O)[O-])CC[C@@]3(C)C(=CC[C@@H]4[C@]5(C)CC[C@@H](O)C(C)(C)[C@H]5CC[C@]43C)[C@@H]12
REMARK SMILES IDX 7 1 6 2 11 3 33 4 5 5 12 6 15 7 2 8 3 9 13 10 16 11 1 12
REMARK SMILES IDX 4 13 14 14 31 15 17 16 18 17 30 18 32 19 19 20 29 21 28 22
REMARK SMILES IDX 21 23 20 24 25 25 22 26 23 27 26 28 27 29 8 30 9 31 10 32
REMARK SMILES IDX 24 33
REMARK H PARENT 24 34
REMARK Flexibility Score: inf
ROOT
ATOM      1  C   UNL     1       8.552  23.726  43.241  1.00  0.00     0.017 C 
ATOM      2  C   UNL     1       7.372  23.614  44.262  1.00  0.00     0.014 C 
ATOM      3  C   UNL     1       9.262  22.354  43.078  1.00  0.00     0.014 C 
ATOM      4  C   UNL     1       9.606  24.713  43.854  1.00  0.00     0.030 C 
ATOM      5  C   UNL     1       7.085  24.928  45.044  1.00  0.00     0.004 C 
ATOM      6  C   UNL     1      10.467  22.376  42.093  1.00  0.00     0.013 C 
ATOM      7  C   UNL     1      11.057  24.478  43.376  1.00  0.00    -0.063 C 
ATOM      8  C   UNL     1       9.090  26.188  43.943  1.00  0.00    -0.003 C 
ATOM      9  C   UNL     1       7.546  26.209  44.305  1.00  0.00    -0.011 C 
ATOM     10  C   UNL     1      11.311  23.721  42.041  1.00  0.00    -0.006 C 
ATOM     11  C   UNL     1      12.026  24.572  44.335  1.00  0.00    -0.027 C 
ATOM     12  C   UNL     1       9.955  27.021  44.912  1.00  0.00     0.008 C 
ATOM     13  C   UNL     1       7.078  27.457  45.071  1.00  0.00     0.008 C 
ATOM     14  C   UNL     1      10.786  24.594  40.843  1.00  0.00     0.017 C 
ATOM     15  C   UNL     1      12.892  23.464  41.836  1.00  0.00    -0.020 C 
ATOM     16  C   UNL     1      13.408  23.972  44.255  1.00  0.00     0.032 C 
ATOM     17  C   UNL     1      13.478  22.877  43.170  1.00  0.00     0.006 C 
ATOM     18  C   UNL     1      13.159  22.441  40.691  1.00  0.00     0.008 C 
ATOM     19  C   UNL     1      13.590  24.835  41.472  1.00  0.00     0.012 C 
ATOM     20  C   UNL     1      14.835  22.011  43.054  1.00  0.00    -0.025 C 
ATOM     21  C   UNL     1      14.650  22.157  40.435  1.00  0.00     0.005 C 
ATOM     22  C   UNL     1      15.571  22.276  41.687  1.00  0.00     0.003 C 
ATOM     23  C   UNL     1      15.829  22.357  44.207  1.00  0.00     0.010 C 
ATOM     24  C   UNL     1      14.435  20.508  43.195  1.00  0.00     0.012 C 
ATOM     25  C   UNL     1      17.002  21.615  41.509  1.00  0.00    -0.006 C 
ATOM     26  C   UNL     1      17.202  21.681  44.084  1.00  0.00     0.033 C 
ATOM     27  C   UNL     1      17.884  21.996  42.744  1.00  0.00     0.120 C 
ATOM     28  C   UNL     1      16.978  20.067  41.310  1.00  0.00     0.014 C 
ATOM     29  C   UNL     1      17.677  22.231  40.250  1.00  0.00     0.014 C 
ENDROOT
BRANCH   1  30
ATOM     30  C   UNL     1       7.932  24.103  41.893  1.00  0.00     0.048 C 
ATOM     31  O   UNL     1       7.944  25.281  41.450  1.00  0.00    -0.550 OA
ATOM     32  O   UNL     1       7.273  23.130  41.149  1.00  0.00    -0.550 OA
ENDBRANCH   1  30
BRANCH  27  33
ATOM     33  O   UNL     1      19.120  21.322  42.704  1.00  0.00    -0.393 OA
ATOM     34  H   UNL     1      19.734  21.787  43.331  1.00  0.00     0.210 HD
ENDBRANCH  27  33
TORSDOF 2
ENDMDL
MODEL 5
REMARK VINA RESULT:    -8.075      2.210      3.558
REMARK INTER + INTRA:          -8.074
REMARK INTER:                  -8.800
REMARK INTRA:                   0.726
REMARK UNBOUND:                 0.709
REMARK SMILES C[C@@H]1[C@H](C)CC[C@]2(C(=O)[O-])CC[C@@]3(C)C(=CC[C@@H]4[C@]5(C)CC[C@@H](O)C(C)(C)[C@H]5CC[C@]43C)[C@@H]12
REMARK SMILES IDX 7 1 6 2 11 3 33 4 5 5 12 6 15 7 2 8 3 9 13 10 16 11 1 12
REMARK SMILES IDX 4 13 14 14 31 15 17 16 18 17 30 18 32 19 19 20 29 21 28 22
REMARK SMILES IDX 21 23 20 24 25 25 22 26 23 27 26 28 27 29 8 30 9 31 10 32
REMARK SMILES IDX 24 33
REMARK H PARENT 24 34
REMARK Flexibility Score: inf
ROOT
ATOM      1  C   UNL     1      14.262  24.622  42.001  1.00  0.00     0.017 C 
ATOM      2  C   UNL     1      14.625  25.981  41.315  1.00  0.00     0.014 C 
ATOM      3  C   UNL     1      15.375  23.569  41.743  1.00  0.00     0.014 C 
ATOM      4  C   UNL     1      12.960  24.085  41.311  1.00  0.00     0.030 C 
ATOM      5  C   UNL     1      13.390  26.812  40.865  1.00  0.00     0.004 C 
ATOM      6  C   UNL     1      15.087  22.175  42.373  1.00  0.00     0.013 C 
ATOM      7  C   UNL     1      12.801  22.549  41.352  1.00  0.00    -0.063 C 
ATOM      8  C   UNL     1      11.699  24.964  41.606  1.00  0.00    -0.003 C 
ATOM      9  C   UNL     1      12.100  26.498  41.664  1.00  0.00    -0.011 C 
ATOM     10  C   UNL     1      13.563  21.727  42.430  1.00  0.00    -0.006 C 
ATOM     11  C   UNL     1      12.342  21.963  40.205  1.00  0.00    -0.027 C 
ATOM     12  C   UNL     1      10.567  24.667  40.600  1.00  0.00     0.008 C 
ATOM     13  C   UNL     1      10.981  27.474  41.264  1.00  0.00     0.008 C 
ATOM     14  C   UNL     1      12.992  22.081  43.852  1.00  0.00     0.017 C 
ATOM     15  C   UNL     1      13.363  20.145  42.175  1.00  0.00    -0.020 C 
ATOM     16  C   UNL     1      12.516  20.513  39.825  1.00  0.00     0.032 C 
ATOM     17  C   UNL     1      13.633  19.849  40.655  1.00  0.00     0.006 C 
ATOM     18  C   UNL     1      14.359  19.300  43.024  1.00  0.00     0.008 C 
ATOM     19  C   UNL     1      11.885  19.748  42.569  1.00  0.00     0.012 C 
ATOM     20  C   UNL     1      14.070  18.344  40.271  1.00  0.00    -0.025 C 
ATOM     21  C   UNL     1      14.215  17.779  42.835  1.00  0.00     0.005 C 
ATOM     22  C   UNL     1      13.722  17.331  41.426  1.00  0.00     0.003 C 
ATOM     23  C   UNL     1      13.348  17.857  38.975  1.00  0.00     0.010 C 
ATOM     24  C   UNL     1      15.605  18.368  39.989  1.00  0.00     0.012 C 
ATOM     25  C   UNL     1      13.947  15.792  41.115  1.00  0.00    -0.006 C 
ATOM     26  C   UNL     1      13.600  16.384  38.625  1.00  0.00     0.033 C 
ATOM     27  C   UNL     1      13.217  15.441  39.777  1.00  0.00     0.120 C 
ATOM     28  C   UNL     1      15.445  15.358  41.052  1.00  0.00     0.014 C 
ATOM     29  C   UNL     1      13.274  14.957  42.243  1.00  0.00     0.014 C 
ENDROOT
BRANCH   1  30
ATOM     30  C   UNL     1      14.203  24.892  43.507  1.00  0.00     0.048 C 
ATOM     31  O   UNL     1      13.133  25.188  44.099  1.00  0.00    -0.550 OA
ATOM     32  O   UNL     1      15.379  24.875  44.250  1.00  0.00    -0.550 OA
ENDBRANCH   1  30
BRANCH  27  33
ATOM     33  O   UNL     1      13.500  14.119  39.383  1.00  0.00    -0.393 OA
ATOM     34  H   UNL     1      12.943  13.919  38.586  1.00  0.00     0.210 HD
ENDBRANCH  27  33
TORSDOF 2
ENDMDL
MODEL 6
REMARK VINA RESULT:    -8.072      4.897     10.131
REMARK INTER + INTRA:          -8.071
REMARK INTER:                  -8.834
REMARK INTRA:                   0.763
REMARK UNBOUND:                 0.709
REMARK SMILES C[C@@H]1[C@H](C)CC[C@]2(C(=O)[O-])CC[C@@]3(C)C(=CC[C@@H]4[C@]5(C)CC[C@@H](O)C(C)(C)[C@H]5CC[C@]43C)[C@@H]12
REMARK SMILES IDX 7 1 6 2 11 3 33 4 5 5 12 6 15 7 2 8 3 9 13 10 16 11 1 12
REMARK SMILES IDX 4 13 14 14 31 15 17 16 18 17 30 18 32 19 19 20 29 21 28 22
REMARK SMILES IDX 21 23 20 24 25 25 22 26 23 27 26 28 27 29 8 30 9 31 10 32
REMARK SMILES IDX 24 33
REMARK H PARENT 24 34
REMARK Flexibility Score: inf
ROOT
ATOM      1  C   UNL     1       7.565  23.019  40.556  1.00  0.00     0.017 C 
ATOM      2  C   UNL     1       7.425  21.549  40.036  1.00  0.00     0.014 C 
ATOM      3  C   UNL     1       6.345  23.871  40.111  1.00  0.00     0.014 C 
ATOM      4  C   UNL     1       8.829  23.638  39.862  1.00  0.00     0.030 C 
ATOM      5  C   UNL     1       8.783  20.844  39.756  1.00  0.00     0.004 C 
ATOM      6  C   UNL     1       6.411  25.358  40.567  1.00  0.00     0.013 C 
ATOM      7  C   UNL     1       8.787  25.175  39.711  1.00  0.00    -0.063 C 
ATOM      8  C   UNL     1      10.172  22.981  40.328  1.00  0.00    -0.003 C 
ATOM      9  C   UNL     1       9.968  21.426  40.566  1.00  0.00    -0.011 C 
ATOM     10  C   UNL     1       7.858  26.012  40.636  1.00  0.00    -0.006 C 
ATOM     11  C   UNL     1       9.238  25.672  38.519  1.00  0.00    -0.027 C 
ATOM     12  C   UNL     1      11.317  23.303  39.346  1.00  0.00     0.008 C 
ATOM     13  C   UNL     1      11.226  20.569  40.349  1.00  0.00     0.008 C 
ATOM     14  C   UNL     1       8.379  25.917  42.116  1.00  0.00     0.017 C 
ATOM     15  C   UNL     1       7.869  27.563  40.186  1.00  0.00    -0.020 C 
ATOM     16  C   UNL     1       8.903  27.027  37.946  1.00  0.00     0.032 C 
ATOM     17  C   UNL     1       7.660  27.630  38.630  1.00  0.00     0.006 C 
ATOM     18  C   UNL     1       6.720  28.363  40.871  1.00  0.00     0.008 C 
ATOM     19  C   UNL     1       9.255  28.203  40.594  1.00  0.00     0.012 C 
ATOM     20  C   UNL     1       7.058  29.004  38.033  1.00  0.00    -0.025 C 
ATOM     21  C   UNL     1       6.680  29.855  40.492  1.00  0.00     0.005 C 
ATOM     22  C   UNL     1       7.199  30.189  39.061  1.00  0.00     0.003 C 
ATOM     23  C   UNL     1       7.792  29.421  36.720  1.00  0.00     0.010 C 
ATOM     24  C   UNL     1       5.560  28.737  37.685  1.00  0.00     0.012 C 
ATOM     25  C   UNL     1       6.798  31.633  38.543  1.00  0.00    -0.006 C 
ATOM     26  C   UNL     1       7.376  30.792  36.169  1.00  0.00     0.033 C 
ATOM     27  C   UNL     1       7.560  31.912  37.205  1.00  0.00     0.120 C 
ATOM     28  C   UNL     1       5.264  31.848  38.354  1.00  0.00     0.014 C 
ATOM     29  C   UNL     1       7.286  32.684  39.582  1.00  0.00     0.014 C 
ENDROOT
BRANCH   1  30
ATOM     30  C   UNL     1       7.564  22.946  42.085  1.00  0.00     0.048 C 
ATOM     31  O   UNL     1       8.612  22.753  42.754  1.00  0.00    -0.550 OA
ATOM     32  O   UNL     1       6.356  23.031  42.770  1.00  0.00    -0.550 OA
ENDBRANCH   1  30
BRANCH  27  33
ATOM     33  O   UNL     1       7.135  33.125  36.630  1.00  0.00    -0.393 OA
ATOM     34  H   UNL     1       7.244  33.836  37.315  1.00  0.00     0.210 HD
ENDBRANCH  27  33
TORSDOF 2
ENDMDL
MODEL 7
REMARK VINA RESULT:    -7.857      3.235      4.541
REMARK INTER + INTRA:          -7.837
REMARK INTER:                  -8.554
REMARK INTRA:                   0.718
REMARK UNBOUND:                 0.709
REMARK SMILES C[C@@H]1[C@H](C)CC[C@]2(C(=O)[O-])CC[C@@]3(C)C(=CC[C@@H]4[C@]5(C)CC[C@@H](O)C(C)(C)[C@H]5CC[C@]43C)[C@@H]12
REMARK SMILES IDX 7 1 6 2 11 3 33 4 5 5 12 6 15 7 2 8 3 9 13 10 16 11 1 12
REMARK SMILES IDX 4 13 14 14 31 15 17 16 18 17 30 18 32 19 19 20 29 21 28 22
REMARK SMILES IDX 21 23 20 24 25 25 22 26 23 27 26 28 27 29 8 30 9 31 10 32
REMARK SMILES IDX 24 33
REMARK H PARENT 24 34
REMARK Flexibility Score: inf
ROOT
ATOM      1  C   UNL     1       8.730  24.787  41.717  1.00  0.00     0.017 C 
ATOM      2  C   UNL     1       8.193  25.989  40.872  1.00  0.00     0.014 C 
ATOM      3  C   UNL     1      10.283  24.796  41.749  1.00  0.00     0.014 C 
ATOM      4  C   UNL     1       8.298  23.471  40.981  1.00  0.00     0.030 C 
ATOM      5  C   UNL     1       6.835  25.710  40.166  1.00  0.00     0.004 C 
ATOM      6  C   UNL     1      10.907  23.619  42.553  1.00  0.00     0.013 C 
ATOM      7  C   UNL     1       9.221  22.259  41.243  1.00  0.00    -0.063 C 
ATOM      8  C   UNL     1       6.751  23.235  40.996  1.00  0.00    -0.003 C 
ATOM      9  C   UNL     1       5.984  24.616  40.858  1.00  0.00    -0.011 C 
ATOM     10  C   UNL     1      10.119  22.240  42.512  1.00  0.00    -0.006 C 
ATOM     11  C   UNL     1       9.507  21.479  40.157  1.00  0.00    -0.027 C 
ATOM     12  C   UNL     1       6.337  22.198  39.931  1.00  0.00     0.008 C 
ATOM     13  C   UNL     1       4.601  24.524  40.192  1.00  0.00     0.008 C 
ATOM     14  C   UNL     1       9.208  22.147  43.791  1.00  0.00     0.017 C 
ATOM     15  C   UNL     1      11.099  20.956  42.486  1.00  0.00    -0.020 C 
ATOM     16  C   UNL     1      10.686  20.545  40.029  1.00  0.00     0.032 C 
ATOM     17  C   UNL     1      11.775  20.876  41.070  1.00  0.00     0.006 C 
ATOM     18  C   UNL     1      12.222  21.073  43.560  1.00  0.00     0.008 C 
ATOM     19  C   UNL     1      10.246  19.657  42.774  1.00  0.00     0.012 C 
ATOM     20  C   UNL     1      13.179  20.086  40.974  1.00  0.00    -0.025 C 
ATOM     21  C   UNL     1      13.187  19.875  43.595  1.00  0.00     0.005 C 
ATOM     22  C   UNL     1      13.404  19.160  42.227  1.00  0.00     0.003 C 
ATOM     23  C   UNL     1      13.238  19.188  39.699  1.00  0.00     0.010 C 
ATOM     24  C   UNL     1      14.305  21.161  40.861  1.00  0.00     0.012 C 
ATOM     25  C   UNL     1      14.667  18.200  42.187  1.00  0.00    -0.006 C 
ATOM     26  C   UNL     1      14.483  18.293  39.612  1.00  0.00     0.033 C 
ATOM     27  C   UNL     1      14.637  17.393  40.847  1.00  0.00     0.120 C 
ATOM     28  C   UNL     1      16.037  18.930  42.355  1.00  0.00     0.014 C 
ATOM     29  C   UNL     1      14.546  17.174  43.350  1.00  0.00     0.014 C 
ENDROOT
BRANCH   1  30
ATOM     30  C   UNL     1       8.223  24.995  43.147  1.00  0.00     0.048 C 
ATOM     31  O   UNL     1       7.165  24.463  43.573  1.00  0.00    -0.550 OA
ATOM     32  O   UNL     1       8.915  25.850  43.998  1.00  0.00    -0.550 OA
ENDBRANCH   1  30
BRANCH  27  33
ATOM     33  O   UNL     1      15.809  16.627  40.697  1.00  0.00    -0.393 OA
ATOM     34  H   UNL     1      16.564  17.258  40.563  1.00  0.00     0.210 HD
ENDBRANCH  27  33
TORSDOF 2
ENDMDL
MODEL 8
REMARK VINA RESULT:    -7.855      4.727      6.399
REMARK INTER + INTRA:          -7.835
REMARK INTER:                  -8.543
REMARK INTRA:                   0.709
REMARK UNBOUND:                 0.709
REMARK SMILES C[C@@H]1[C@H](C)CC[C@]2(C(=O)[O-])CC[C@@]3(C)C(=CC[C@@H]4[C@]5(C)CC[C@@H](O)C(C)(C)[C@H]5CC[C@]43C)[C@@H]12
REMARK SMILES IDX 7 1 6 2 11 3 33 4 5 5 12 6 15 7 2 8 3 9 13 10 16 11 1 12
REMARK SMILES IDX 4 13 14 14 31 15 17 16 18 17 30 18 32 19 19 20 29 21 28 22
REMARK SMILES IDX 21 23 20 24 25 25 22 26 23 27 26 28 27 29 8 30 9 31 10 32
REMARK SMILES IDX 24 33
REMARK H PARENT 24 34
REMARK Flexibility Score: inf
ROOT
ATOM      1  C   UNL     1       6.705  28.400  38.642  1.00  0.00     0.017 C 
ATOM      2  C   UNL     1       6.148  28.765  37.226  1.00  0.00     0.014 C 
ATOM      3  C   UNL     1       8.155  27.852  38.530  1.00  0.00     0.014 C 
ATOM      4  C   UNL     1       5.820  27.232  39.203  1.00  0.00     0.030 C 
ATOM      5  C   UNL     1       4.606  28.608  37.093  1.00  0.00     0.004 C 
ATOM      6  C   UNL     1       8.783  27.441  39.893  1.00  0.00     0.013 C 
ATOM      7  C   UNL     1       6.539  26.317  40.220  1.00  0.00    -0.063 C 
ATOM      8  C   UNL     1       4.350  27.670  39.517  1.00  0.00    -0.003 C 
ATOM      9  C   UNL     1       3.847  28.719  38.440  1.00  0.00    -0.011 C 
ATOM     10  C   UNL     1       7.788  26.846  40.980  1.00  0.00    -0.006 C 
ATOM     11  C   UNL     1       6.300  24.976  40.091  1.00  0.00    -0.027 C 
ATOM     12  C   UNL     1       3.423  26.444  39.653  1.00  0.00     0.008 C 
ATOM     13  C   UNL     1       2.330  28.715  38.192  1.00  0.00     0.008 C 
ATOM     14  C   UNL     1       7.352  28.007  41.947  1.00  0.00     0.017 C 
ATOM     15  C   UNL     1       8.450  25.665  41.860  1.00  0.00    -0.020 C 
ATOM     16  C   UNL     1       7.177  23.870  40.622  1.00  0.00     0.032 C 
ATOM     17  C   UNL     1       8.591  24.389  40.954  1.00  0.00     0.006 C 
ATOM     18  C   UNL     1       9.868  26.061  42.372  1.00  0.00     0.008 C 
ATOM     19  C   UNL     1       7.519  25.370  43.102  1.00  0.00     0.012 C 
ATOM     20  C   UNL     1       9.714  23.311  41.379  1.00  0.00    -0.025 C 
ATOM     21  C   UNL     1      10.553  24.982  43.228  1.00  0.00     0.005 C 
ATOM     22  C   UNL     1      10.168  23.513  42.874  1.00  0.00     0.003 C 
ATOM     23  C   UNL     1       9.180  21.850  41.237  1.00  0.00     0.010 C 
ATOM     24  C   UNL     1      10.915  23.485  40.398  1.00  0.00     0.012 C 
ATOM     25  C   UNL     1      11.147  22.420  43.475  1.00  0.00    -0.006 C 
ATOM     26  C   UNL     1      10.139  20.772  41.761  1.00  0.00     0.033 C 
ATOM     27  C   UNL     1      10.526  21.005  43.229  1.00  0.00     0.120 C 
ATOM     28  C   UNL     1      12.605  22.483  42.919  1.00  0.00     0.014 C 
ATOM     29  C   UNL     1      11.233  22.627  45.015  1.00  0.00     0.014 C 
ENDROOT
BRANCH   1  30
ATOM     30  C   UNL     1       6.749  29.702  39.446  1.00  0.00     0.048 C 
ATOM     31  O   UNL     1       5.873  30.000  40.298  1.00  0.00    -0.550 OA
ATOM     32  O   UNL     1       7.756  30.628  39.191  1.00  0.00    -0.550 OA
ENDBRANCH   1  30
BRANCH  27  33
ATOM     33  O   UNL     1      11.421  19.991  43.620  1.00  0.00    -0.393 OA
ATOM     34  H   UNL     1      12.317  20.405  43.723  1.00  0.00     0.210 HD
ENDBRANCH  27  33
TORSDOF 2
ENDMDL
MODEL 9
REMARK VINA RESULT:    -7.708      5.793     10.792
REMARK INTER + INTRA:          -7.675
REMARK INTER:                  -8.393
REMARK INTRA:                   0.717
REMARK UNBOUND:                 0.709
REMARK SMILES C[C@@H]1[C@H](C)CC[C@]2(C(=O)[O-])CC[C@@]3(C)C(=CC[C@@H]4[C@]5(C)CC[C@@H](O)C(C)(C)[C@H]5CC[C@]43C)[C@@H]12
REMARK SMILES IDX 7 1 6 2 11 3 33 4 5 5 12 6 15 7 2 8 3 9 13 10 16 11 1 12
REMARK SMILES IDX 4 13 14 14 31 15 17 16 18 17 30 18 32 19 19 20 29 21 28 22
REMARK SMILES IDX 21 23 20 24 25 25 22 26 23 27 26 28 27 29 8 30 9 31 10 32
REMARK SMILES IDX 24 33
REMARK H PARENT 24 34
REMARK Flexibility Score: inf
ROOT
ATOM      1  C   UNL     1       7.991  25.945  43.764  1.00  0.00     0.017 C 
ATOM      2  C   UNL     1       7.525  24.968  44.895  1.00  0.00     0.014 C 
ATOM      3  C   UNL     1       7.152  27.251  43.795  1.00  0.00     0.014 C 
ATOM      4  C   UNL     1       7.692  25.244  42.392  1.00  0.00     0.030 C 
ATOM      5  C   UNL     1       7.711  23.463  44.547  1.00  0.00     0.004 C 
ATOM      6  C   UNL     1       7.534  28.276  42.688  1.00  0.00     0.013 C 
ATOM      7  C   UNL     1       7.461  26.218  41.215  1.00  0.00    -0.063 C 
ATOM      8  C   UNL     1       8.579  23.980  42.139  1.00  0.00    -0.003 C 
ATOM      9  C   UNL     1       8.818  23.196  43.496  1.00  0.00    -0.011 C 
ATOM     10  C   UNL     1       8.013  27.669  41.299  1.00  0.00    -0.006 C 
ATOM     11  C   UNL     1       6.444  25.893  40.360  1.00  0.00    -0.027 C 
ATOM     12  C   UNL     1       7.983  23.099  41.022  1.00  0.00     0.008 C 
ATOM     13  C   UNL     1       9.041  21.682  43.339  1.00  0.00     0.008 C 
ATOM     14  C   UNL     1       9.585  27.627  41.289  1.00  0.00     0.017 C 
ATOM     15  C   UNL     1       7.515  28.534  40.029  1.00  0.00    -0.020 C 
ATOM     16  C   UNL     1       5.731  26.848  39.435  1.00  0.00     0.032 C 
ATOM     17  C   UNL     1       5.969  28.314  39.855  1.00  0.00     0.006 C 
ATOM     18  C   UNL     1       7.773  30.056  40.239  1.00  0.00     0.008 C 
ATOM     19  C   UNL     1       8.299  28.052  38.744  1.00  0.00     0.012 C 
ATOM     20  C   UNL     1       5.150  29.467  39.078  1.00  0.00    -0.025 C 
ATOM     21  C   UNL     1       7.329  30.939  39.059  1.00  0.00     0.005 C 
ATOM     22  C   UNL     1       6.113  30.397  38.248  1.00  0.00     0.003 C 
ATOM     23  C   UNL     1       4.108  28.855  38.089  1.00  0.00     0.010 C 
ATOM     24  C   UNL     1       4.371  30.284  40.156  1.00  0.00     0.012 C 
ATOM     25  C   UNL     1       5.428  31.472  37.304  1.00  0.00    -0.006 C 
ATOM     26  C   UNL     1       3.391  29.886  37.206  1.00  0.00     0.033 C 
ATOM     27  C   UNL     1       4.378  30.745  36.400  1.00  0.00     0.120 C 
ATOM     28  C   UNL     1       4.765  32.666  38.061  1.00  0.00     0.014 C 
ATOM     29  C   UNL     1       6.515  32.069  36.365  1.00  0.00     0.014 C 
ENDROOT
BRANCH   1  30
ATOM     30  C   UNL     1       9.447  26.306  44.069  1.00  0.00     0.048 C 
ATOM     31  O   UNL     1      10.418  25.693  43.555  1.00  0.00    -0.550 OA
ATOM     32  O   UNL     1       9.721  27.307  44.996  1.00  0.00    -0.550 OA
ENDBRANCH   1  30
BRANCH  27  33
ATOM     33  O   UNL     1       3.642  31.674  35.640  1.00  0.00    -0.393 OA
ATOM     34  H   UNL     1       4.222  31.973  34.891  1.00  0.00     0.210 HD
ENDBRANCH  27  33
TORSDOF 2
ENDMDL
