MODEL 1
REMARK VINA RESULT:    -3.163      0.000      0.000
REMARK INTER + INTRA:          -3.814
REMARK INTER:                  -4.457
REMARK INTRA:                   0.642
REMARK UNBOUND:                 0.642
REMARK SMILES CC1=CCCC(C)=CCC(C)(C)C=CC1
REMARK SMILES IDX 2 1 3 2 1 3 4 4 5 5 6 6 7 7 8 8 15 10 14 11 13 12 10 13
REMARK SMILES IDX 11 14 12 15 9 16
REMARK H PARENT
REMARK Flexibility Score: 60.00
ROOT
ATOM      1  C   UNL     1      11.056   6.964  17.444  1.00  0.00    -0.074 C 
ATOM      2  C   UNL     1      11.239   7.961  18.342  1.00  0.00    -0.027 C 
ATOM      3  C   UNL     1      10.960   7.328  15.985  1.00  0.00     0.039 C 
ENDROOT
BRANCH   2   4
ATOM      4  C   UNL     1      11.294   7.811  19.850  1.00  0.00     0.032 C 
BRANCH   4   5
ATOM      5  C   UNL     1      12.693   7.591  20.475  1.00  0.00     0.034 C 
BRANCH   5   6
ATOM      6  C   UNL     1      12.769   6.563  21.601  1.00  0.00    -0.077 C 
ATOM      7  C   UNL     1      11.764   6.608  22.727  1.00  0.00     0.039 C 
ATOM      8  C   UNL     1      13.625   5.508  21.573  1.00  0.00    -0.027 CG0
ATOM      9  G   UNL     1      14.569   5.154  20.438  1.00  0.00     0.000 G0
ENDBRANCH   5   6
ENDBRANCH   4   5
ENDBRANCH   2   4
BRANCH   1  10
ATOM     10  C   UNL     1      11.055   5.502  17.827  1.00  0.00     0.057 C 
BRANCH  10  11
ATOM     11  C   UNL     1      12.470   5.059  18.063  1.00  0.00    -0.026 C 
ATOM     12  C   UNL     1      12.768   4.153  19.006  1.00  0.00    -0.024 C 
BRANCH  12  13
ATOM     13  C   UNL     1      14.179   3.961  19.547  1.00  0.00    -0.014 C 
ATOM     14  C   UNL     1      15.201   3.745  18.407  1.00  0.00     0.016 C 
ATOM     15  C   UNL     1      14.179   2.692  20.427  1.00  0.00     0.016 C 
BRANCH  13  16
ATOM     16  C   UNL     1      14.585   5.170  20.445  1.00  0.00     0.038 CG0
ATOM     17  G   UNL     1      13.607   5.503  21.558  1.00  0.00     0.000 G0
ENDBRANCH  13  16
ENDBRANCH  12  13
ENDBRANCH  10  11
ENDBRANCH   1  10
TORSDOF 0
ENDMDL
MODEL 2
REMARK VINA RESULT:    -2.803      1.886      3.969
REMARK INTER + INTRA:          -3.308
REMARK INTER:                  -3.959
REMARK INTRA:                   0.652
REMARK UNBOUND:                 0.642
REMARK SMILES CC1=CCCC(C)=CCC(C)(C)C=CC1
REMARK SMILES IDX 2 1 3 2 1 3 4 4 5 5 6 6 7 7 8 8 15 10 14 11 13 12 10 13
REMARK SMILES IDX 11 14 12 15 9 16
REMARK H PARENT
REMARK Flexibility Score: 60.00
ROOT
ATOM      1  C   UNL     1      16.458   4.950  16.639  1.00  0.00    -0.074 C 
ATOM      2  C   UNL     1      15.662   5.968  16.236  1.00  0.00    -0.027 C 
ATOM      3  C   UNL     1      17.942   5.067  16.400  1.00  0.00     0.039 C 
ENDROOT
BRANCH   2   4
ATOM      4  C   UNL     1      14.148   6.012  16.325  1.00  0.00     0.032 C 
BRANCH   4   5
ATOM      5  C   UNL     1      13.546   6.599  17.625  1.00  0.00     0.034 C 
BRANCH   5   6
ATOM      6  C   UNL     1      12.348   5.851  18.204  1.00  0.00    -0.077 C 
ATOM      7  C   UNL     1      11.205   5.454  17.303  1.00  0.00     0.039 C 
ATOM      8  C   UNL     1      12.317   5.397  19.485  1.00  0.00    -0.027 CG0
ATOM      9  G   UNL     1      13.446   5.500  20.495  1.00  0.00     0.000 G0
ENDBRANCH   5   6
ENDBRANCH   4   5
ENDBRANCH   2   4
BRANCH   1  10
ATOM     10  C   UNL     1      15.942   3.759  17.414  1.00  0.00     0.057 C 
BRANCH  10  11
ATOM     11  C   UNL     1      15.677   4.177  18.831  1.00  0.00    -0.026 C 
ATOM     12  C   UNL     1      14.759   3.549  19.582  1.00  0.00    -0.024 C 
BRANCH  12  13
ATOM     13  C   UNL     1      14.179   4.156  20.852  1.00  0.00    -0.014 C 
ATOM     14  C   UNL     1      15.265   4.355  21.935  1.00  0.00     0.016 C 
ATOM     15  C   UNL     1      13.131   3.170  21.413  1.00  0.00     0.016 C 
BRANCH  13  16
ATOM     16  C   UNL     1      13.454   5.499  20.530  1.00  0.00     0.038 CG0
ATOM     17  G   UNL     1      12.343   5.399  19.499  1.00  0.00     0.000 G0
ENDBRANCH  13  16
ENDBRANCH  12  13
ENDBRANCH  10  11
ENDBRANCH   1  10
TORSDOF 0
ENDMDL
MODEL 3
REMARK VINA RESULT:    -2.791      1.977      3.146
REMARK INTER + INTRA:          -3.291
REMARK INTER:                  -3.816
REMARK INTRA:                   0.525
REMARK UNBOUND:                 0.642
REMARK SMILES CC1=CCCC(C)=CCC(C)(C)C=CC1
REMARK SMILES IDX 2 1 3 2 1 3 4 4 5 5 6 6 7 7 8 8 15 10 14 11 13 12 10 13
REMARK SMILES IDX 11 14 12 15 9 16
REMARK H PARENT
REMARK Flexibility Score: 60.00
ROOT
ATOM      1  C   UNL     1      11.507   7.787  18.234  1.00  0.00    -0.074 C 
ATOM      2  C   UNL     1      11.200   6.535  18.646  1.00  0.00    -0.027 C 
ATOM      3  C   UNL     1      11.030   8.949  19.066  1.00  0.00     0.039 C 
ENDROOT
BRANCH   2   4
ATOM      4  C   UNL     1      11.527   5.245  17.919  1.00  0.00     0.032 C 
BRANCH   4   5
ATOM      5  C   UNL     1      12.549   4.303  18.601  1.00  0.00     0.034 C 
BRANCH   5   6
ATOM      6  C   UNL     1      13.358   4.911  19.745  1.00  0.00    -0.077 C 
ATOM      7  C   UNL     1      12.750   5.011  21.123  1.00  0.00     0.039 C 
ATOM      8  C   UNL     1      14.667   5.249  19.617  1.00  0.00    -0.027 CG0
ATOM      9  G   UNL     1      15.528   5.034  18.385  1.00  0.00     0.000 G0
ENDBRANCH   5   6
ENDBRANCH   4   5
ENDBRANCH   2   4
BRANCH   1  10
ATOM     10  C   UNL     1      12.397   8.066  17.044  1.00  0.00     0.057 C 
BRANCH  10  11
ATOM     11  C   UNL     1      13.827   7.840  17.441  1.00  0.00    -0.026 C 
ATOM     12  C   UNL     1      14.545   6.836  16.914  1.00  0.00    -0.024 C 
BRANCH  12  13
ATOM     13  C   UNL     1      15.833   6.326  17.546  1.00  0.00    -0.014 C 
ATOM     14  C   UNL     1      16.521   7.417  18.399  1.00  0.00     0.016 C 
ATOM     15  C   UNL     1      16.801   5.942  16.405  1.00  0.00     0.016 C 
BRANCH  13  16
ATOM     16  C   UNL     1      15.553   5.045  18.391  1.00  0.00     0.038 CG0
ATOM     17  G   UNL     1      14.638   5.249  19.586  1.00  0.00     0.000 G0
ENDBRANCH  13  16
ENDBRANCH  12  13
ENDBRANCH  10  11
ENDBRANCH   1  10
TORSDOF 0
ENDMDL
MODEL 4
REMARK VINA RESULT:    -2.757      2.522      4.368
REMARK INTER + INTRA:          -3.243
REMARK INTER:                  -3.965
REMARK INTRA:                   0.722
REMARK UNBOUND:                 0.642
REMARK SMILES CC1=CCCC(C)=CCC(C)(C)C=CC1
REMARK SMILES IDX 2 1 3 2 1 3 4 4 5 5 6 6 7 7 8 8 15 10 14 11 13 12 10 13
REMARK SMILES IDX 11 14 12 15 9 16
REMARK H PARENT
REMARK Flexibility Score: 60.00
ROOT
ATOM      1  C   UNL     1      12.289   5.075  17.884  1.00  0.00    -0.074 C 
ATOM      2  C   UNL     1      12.589   4.363  18.996  1.00  0.00    -0.027 C 
ATOM      3  C   UNL     1      11.021   5.888  17.879  1.00  0.00     0.039 C 
ENDROOT
BRANCH   2   4
ATOM      4  C   UNL     1      13.775   3.434  19.174  1.00  0.00     0.032 C 
BRANCH   4   5
ATOM      5  C   UNL     1      14.981   3.994  19.967  1.00  0.00     0.034 C 
BRANCH   5   6
ATOM      6  C   UNL     1      16.362   3.579  19.467  1.00  0.00    -0.077 C 
ATOM      7  C   UNL     1      16.741   2.118  19.436  1.00  0.00     0.039 C 
ATOM      8  C   UNL     1      17.235   4.460  18.911  1.00  0.00    -0.027 CG0
ATOM      9  G   UNL     1      16.972   5.933  18.650  1.00  0.00     0.000 G0
ENDBRANCH   5   6
ENDBRANCH   4   5
ENDBRANCH   2   4
BRANCH   1  10
ATOM     10  C   UNL     1      13.220   5.177  16.697  1.00  0.00     0.057 C 
BRANCH  10  11
ATOM     11  C   UNL     1      14.420   5.990  17.087  1.00  0.00    -0.026 C 
ATOM     12  C   UNL     1      15.612   5.793  16.505  1.00  0.00    -0.024 C 
BRANCH  12  13
ATOM     13  C   UNL     1      16.917   6.292  17.112  1.00  0.00    -0.014 C 
ATOM     14  C   UNL     1      17.094   7.814  16.907  1.00  0.00     0.016 C 
ATOM     15  C   UNL     1      18.079   5.582  16.384  1.00  0.00     0.016 C 
BRANCH  13  16
ATOM     16  C   UNL     1      16.992   5.914  18.623  1.00  0.00     0.038 CG0
ATOM     17  G   UNL     1      17.262   4.447  18.907  1.00  0.00     0.000 G0
ENDBRANCH  13  16
ENDBRANCH  12  13
ENDBRANCH  10  11
ENDBRANCH   1  10
TORSDOF 0
ENDMDL
MODEL 5
REMARK VINA RESULT:    -2.662      2.046      4.327
REMARK INTER + INTRA:          -3.108
REMARK INTER:                  -3.828
REMARK INTRA:                   0.720
REMARK UNBOUND:                 0.642
REMARK SMILES CC1=CCCC(C)=CCC(C)(C)C=CC1
REMARK SMILES IDX 2 1 3 2 1 3 4 4 5 5 6 6 7 7 8 8 15 10 14 11 13 12 10 13
REMARK SMILES IDX 11 14 12 15 9 16
REMARK H PARENT
REMARK Flexibility Score: 60.00
ROOT
ATOM      1  C   UNL     1      12.784   6.755  21.347  1.00  0.00    -0.074 C 
ATOM      2  C   UNL     1      11.911   7.447  20.577  1.00  0.00    -0.027 C 
ATOM      3  C   UNL     1      12.315   6.265  22.693  1.00  0.00     0.039 C 
ENDROOT
BRANCH   2   4
ATOM      4  C   UNL     1      12.207   8.078  19.230  1.00  0.00     0.032 C 
BRANCH   4   5
ATOM      5  C   UNL     1      11.316   7.632  18.045  1.00  0.00     0.034 C 
BRANCH   5   6
ATOM      6  C   UNL     1      11.982   7.632  16.671  1.00  0.00    -0.077 C 
ATOM      7  C   UNL     1      12.063   8.912  15.876  1.00  0.00     0.039 C 
ATOM      8  C   UNL     1      12.637   6.549  16.175  1.00  0.00    -0.027 CG0
ATOM      9  G   UNL     1      12.860   5.233  16.898  1.00  0.00     0.000 G0
ENDBRANCH   5   6
ENDBRANCH   4   5
ENDBRANCH   2   4
BRANCH   1  10
ATOM     10  C   UNL     1      14.163   6.358  20.873  1.00  0.00     0.057 C 
BRANCH  10  11
ATOM     11  C   UNL     1      14.027   5.407  19.720  1.00  0.00    -0.026 C 
ATOM     12  C   UNL     1      14.729   5.579  18.590  1.00  0.00    -0.024 C 
BRANCH  12  13
ATOM     13  C   UNL     1      14.356   4.901  17.278  1.00  0.00    -0.014 C 
ATOM     14  C   UNL     1      14.595   3.374  17.338  1.00  0.00     0.016 C 
ATOM     15  C   UNL     1      15.268   5.476  16.172  1.00  0.00     0.016 C 
BRANCH  13  16
ATOM     16  C   UNL     1      12.878   5.225  16.900  1.00  0.00     0.038 CG0
ATOM     17  G   UNL     1      12.673   6.539  16.168  1.00  0.00     0.000 G0
ENDBRANCH  13  16
ENDBRANCH  12  13
ENDBRANCH  10  11
ENDBRANCH   1  10
TORSDOF 0
ENDMDL
MODEL 6
REMARK VINA RESULT:    -2.626      2.646      4.501
REMARK INTER + INTRA:          -3.058
REMARK INTER:                  -3.635
REMARK INTRA:                   0.578
REMARK UNBOUND:                 0.642
REMARK SMILES CC1=CCCC(C)=CCC(C)(C)C=CC1
REMARK SMILES IDX 2 1 3 2 1 3 4 4 5 5 6 6 7 7 8 8 15 10 14 11 13 12 10 13
REMARK SMILES IDX 11 14 12 15 9 16
REMARK H PARENT
REMARK Flexibility Score: 60.00
ROOT
ATOM      1  C   UNL     1      15.982   7.613  17.433  1.00  0.00    -0.074 C 
ATOM      2  C   UNL     1      16.009   7.197  18.721  1.00  0.00    -0.027 C 
ATOM      3  C   UNL     1      16.537   8.977  17.112  1.00  0.00     0.039 C 
ENDROOT
BRANCH   2   4
ATOM      4  C   UNL     1      15.443   5.896  19.256  1.00  0.00     0.032 C 
BRANCH   4   5
ATOM      5  C   UNL     1      14.166   6.001  20.126  1.00  0.00     0.034 C 
BRANCH   5   6
ATOM      6  C   UNL     1      12.977   5.156  19.674  1.00  0.00    -0.077 C 
ATOM      7  C   UNL     1      12.870   3.716  20.113  1.00  0.00     0.039 C 
ATOM      8  C   UNL     1      11.923   5.680  18.996  1.00  0.00    -0.027 CG0
ATOM      9  G   UNL     1      11.728   7.143  18.640  1.00  0.00     0.000 G0
ENDBRANCH   5   6
ENDBRANCH   4   5
ENDBRANCH   2   4
BRANCH   1  10
ATOM     10  C   UNL     1      15.524   6.731  16.293  1.00  0.00     0.057 C 
BRANCH  10  11
ATOM     11  C   UNL     1      14.026   6.634  16.323  1.00  0.00    -0.026 C 
ATOM     12  C   UNL     1      13.270   7.674  16.706  1.00  0.00    -0.024 C 
BRANCH  12  13
ATOM     13  C   UNL     1      11.813   7.522  17.125  1.00  0.00    -0.014 C 
ATOM     14  C   UNL     1      11.077   6.478  16.254  1.00  0.00     0.016 C 
ATOM     15  C   UNL     1      11.116   8.884  16.917  1.00  0.00     0.016 C 
BRANCH  13  16
ATOM     16  C   UNL     1      11.719   7.159  18.639  1.00  0.00     0.038 CG0
ATOM     17  G   UNL     1      11.921   5.689  18.962  1.00  0.00     0.000 G0
ENDBRANCH  13  16
ENDBRANCH  12  13
ENDBRANCH  10  11
ENDBRANCH   1  10
TORSDOF 0
ENDMDL
MODEL 7
REMARK VINA RESULT:    -2.625     13.186     16.154
REMARK INTER + INTRA:          -3.057
REMARK INTER:                  -3.599
REMARK INTRA:                   0.542
REMARK UNBOUND:                 0.642
REMARK SMILES CC1=CCCC(C)=CCC(C)(C)C=CC1
REMARK SMILES IDX 2 1 3 2 1 3 4 4 5 5 6 6 7 7 8 8 15 10 14 11 13 12 10 13
REMARK SMILES IDX 11 14 12 15 9 16
REMARK H PARENT
REMARK Flexibility Score: 60.00
ROOT
ATOM      1  C   UNL     1      27.765  -1.210  22.559  1.00  0.00    -0.074 C 
ATOM      2  C   UNL     1      28.639  -0.243  22.924  1.00  0.00    -0.027 C 
ATOM      3  C   UNL     1      27.055  -1.977  23.645  1.00  0.00     0.039 C 
ENDROOT
BRANCH   2   4
ATOM      4  C   UNL     1      29.497   0.589  21.990  1.00  0.00     0.032 C 
BRANCH   4   5
ATOM      5  C   UNL     1      29.025   2.039  21.722  1.00  0.00     0.034 C 
BRANCH   5   6
ATOM      6  C   UNL     1      29.218   2.553  20.297  1.00  0.00    -0.077 C 
ATOM      7  C   UNL     1      30.605   2.619  19.705  1.00  0.00     0.039 C 
ATOM      8  C   UNL     1      28.176   2.831  19.472  1.00  0.00    -0.027 CG0
ATOM      9  G   UNL     1      26.705   2.631  19.792  1.00  0.00     0.000 G0
ENDBRANCH   5   6
ENDBRANCH   4   5
ENDBRANCH   2   4
BRANCH   1  10
ATOM     10  C   UNL     1      27.387  -1.477  21.119  1.00  0.00     0.057 C 
BRANCH  10  11
ATOM     11  C   UNL     1      26.479  -0.381  20.642  1.00  0.00    -0.026 C 
ATOM     12  C   UNL     1      26.597   0.132  19.409  1.00  0.00    -0.024 C 
BRANCH  12  13
ATOM     13  C   UNL     1      25.989   1.472  19.013  1.00  0.00    -0.014 C 
ATOM     14  C   UNL     1      24.460   1.493  19.243  1.00  0.00     0.016 C 
ATOM     15  C   UNL     1      26.240   1.678  17.503  1.00  0.00     0.016 C 
BRANCH  13  16
ATOM     16  C   UNL     1      26.690   2.634  19.781  1.00  0.00     0.038 CG0
ATOM     17  G   UNL     1      28.170   2.801  19.485  1.00  0.00     0.000 G0
ENDBRANCH  13  16
ENDBRANCH  12  13
ENDBRANCH  10  11
ENDBRANCH   1  10
TORSDOF 0
ENDMDL
MODEL 8
REMARK VINA RESULT:    -2.575      8.782     11.572
REMARK INTER + INTRA:          -2.986
REMARK INTER:                  -3.613
REMARK INTRA:                   0.626
REMARK UNBOUND:                 0.642
REMARK SMILES CC1=CCCC(C)=CCC(C)(C)C=CC1
REMARK SMILES IDX 2 1 3 2 1 3 4 4 5 5 6 6 7 7 8 8 15 10 14 11 13 12 10 13
REMARK SMILES IDX 11 14 12 15 9 16
REMARK H PARENT
REMARK Flexibility Score: 60.00
ROOT
ATOM      1  C   UNL     1      21.813  -0.576  18.550  1.00  0.00    -0.074 C 
ATOM      2  C   UNL     1      20.886  -0.029  17.729  1.00  0.00    -0.027 C 
ATOM      3  C   UNL     1      22.021  -2.067  18.496  1.00  0.00     0.039 C 
ENDROOT
BRANCH   2   4
ATOM      4  C   UNL     1      20.482   1.433  17.680  1.00  0.00     0.032 C 
BRANCH   4   5
ATOM      5  C   UNL     1      21.206   2.317  16.635  1.00  0.00     0.034 C 
BRANCH   5   6
ATOM      6  C   UNL     1      21.611   3.712  17.105  1.00  0.00    -0.077 C 
ATOM      7  C   UNL     1      20.616   4.571  17.848  1.00  0.00     0.039 C 
ATOM      8  C   UNL     1      22.884   4.177  17.007  1.00  0.00    -0.027 CG0
ATOM      9  G   UNL     1      24.081   3.398  16.490  1.00  0.00     0.000 G0
ENDBRANCH   5   6
ENDBRANCH   4   5
ENDBRANCH   2   4
BRANCH   1  10
ATOM     10  C   UNL     1      22.721   0.251  19.432  1.00  0.00     0.057 C 
BRANCH  10  11
ATOM     11  C   UNL     1      23.839   0.805  18.597  1.00  0.00    -0.026 C 
ATOM     12  C   UNL     1      24.181   2.100  18.665  1.00  0.00    -0.024 C 
BRANCH  12  13
ATOM     13  C   UNL     1      25.014   2.788  17.591  1.00  0.00    -0.014 C 
ATOM     14  C   UNL     1      26.049   1.823  16.968  1.00  0.00     0.016 C 
ATOM     15  C   UNL     1      25.792   3.942  18.263  1.00  0.00     0.016 C 
BRANCH  13  16
ATOM     16  C   UNL     1      24.089   3.404  16.497  1.00  0.00     0.038 CG0
ATOM     17  G   UNL     1      22.900   4.187  17.026  1.00  0.00     0.000 G0
ENDBRANCH  13  16
ENDBRANCH  12  13
ENDBRANCH  10  11
ENDBRANCH   1  10
TORSDOF 0
ENDMDL
MODEL 9
REMARK VINA RESULT:    -2.565     12.650     14.297
REMARK INTER + INTRA:          -2.973
REMARK INTER:                  -3.848
REMARK INTRA:                   0.875
REMARK UNBOUND:                 0.642
REMARK SMILES CC1=CCCC(C)=CCC(C)(C)C=CC1
REMARK SMILES IDX 2 1 3 2 1 3 4 4 5 5 6 6 7 7 8 8 15 10 14 11 13 12 10 13
REMARK SMILES IDX 11 14 12 15 9 16
REMARK H PARENT
REMARK Flexibility Score: 60.00
ROOT
ATOM      1  C   UNL     1      14.664   1.743  32.218  1.00  0.00    -0.074 C 
ATOM      2  C   UNL     1      13.892   2.679  31.615  1.00  0.00    -0.027 C 
ATOM      3  C   UNL     1      15.290   0.675  31.359  1.00  0.00     0.039 C 
ENDROOT
BRANCH   2   4
ATOM      4  C   UNL     1      13.125   3.789  32.307  1.00  0.00     0.032 C 
BRANCH   4   5
ATOM      5  C   UNL     1      13.465   5.238  31.878  1.00  0.00     0.034 C 
BRANCH   5   6
ATOM      6  C   UNL     1      13.435   6.288  32.986  1.00  0.00    -0.077 C 
ATOM      7  C   UNL     1      12.115   6.716  33.579  1.00  0.00     0.039 C 
ATOM      8  C   UNL     1      14.564   6.767  33.570  1.00  0.00    -0.027 CG0
ATOM      9  G   UNL     1      15.984   6.315  33.275  1.00  0.00     0.000 G0
ENDBRANCH   5   6
ENDBRANCH   4   5
ENDBRANCH   2   4
BRANCH   1  10
ATOM     10  C   UNL     1      15.015   1.789  33.687  1.00  0.00     0.057 C 
BRANCH  10  11
ATOM     11  C   UNL     1      16.045   2.857  33.910  1.00  0.00    -0.026 C 
ATOM     12  C   UNL     1      15.705   4.061  34.394  1.00  0.00    -0.024 C 
BRANCH  12  13
ATOM     13  C   UNL     1      16.609   5.282  34.275  1.00  0.00    -0.014 C 
ATOM     14  C   UNL     1      18.048   4.887  33.870  1.00  0.00     0.016 C 
ATOM     15  C   UNL     1      16.679   5.956  35.662  1.00  0.00     0.016 C 
BRANCH  13  16
ATOM     16  C   UNL     1      16.003   6.309  33.270  1.00  0.00     0.038 CG0
ATOM     17  G   UNL     1      14.589   6.763  33.586  1.00  0.00     0.000 G0
ENDBRANCH  13  16
ENDBRANCH  12  13
ENDBRANCH  10  11
ENDBRANCH   1  10
TORSDOF 0
ENDMDL
