MODEL 1
REMARK VINA RESULT:    -3.450      0.000      0.000
REMARK INTER + INTRA:          -4.298
REMARK INTER:                  -4.156
REMARK INTRA:                  -0.142
REMARK UNBOUND:                -0.142
REMARK SMILES CC[C@@H](C)[C@@H]([NH3+])C(=O)[O-]
REMARK SMILES IDX 3 1 4 2 5 3 6 4 7 8 8 9 9 10 2 11 1 12
REMARK H PARENT 6 5 6 6 6 7
REMARK Flexibility Score: inf
ROOT
ATOM      1  C   UNL     1       0.054  -1.301  45.114  1.00  0.00     0.050 C 
ATOM      2  C   UNL     1      -1.329  -0.913  45.681  1.00  0.00     0.014 C 
ENDROOT
BRANCH   1   3
ATOM      3  C   UNL     1      -0.095  -1.879  43.668  1.00  0.00     0.230 C 
BRANCH   3   4
ATOM      4  N   UNL     1       0.265  -0.895  42.636  1.00  0.00    -0.350 N 
ATOM      5  H   UNL     1       1.290  -0.947  42.428  1.00  0.00     0.345 HD
ATOM      6  H   UNL     1      -0.234  -1.108  41.743  1.00  0.00     0.345 HD
ATOM      7  H   UNL     1       0.033   0.075  42.950  1.00  0.00     0.345 HD
ENDBRANCH   3   4
BRANCH   3   8
ATOM      8  C   UNL     1       0.760  -3.111  43.493  1.00  0.00     0.099 C 
ATOM      9  O   UNL     1       1.749  -3.090  42.715  1.00  0.00    -0.544 OA
ATOM     10  O   UNL     1       0.462  -4.274  44.194  1.00  0.00    -0.544 OA
ENDBRANCH   3   8
ENDBRANCH   1   3
BRANCH   1  11
ATOM     11  C   UNL     1       1.016  -0.084  45.144  1.00  0.00     0.006 C 
ATOM     12  C   UNL     1       2.453  -0.450  45.529  1.00  0.00     0.004 C 
ENDBRANCH   1  11
TORSDOF 4
ENDMDL
MODEL 2
REMARK VINA RESULT:    -3.367      2.158      3.034
REMARK INTER + INTRA:          -4.198
REMARK INTER:                  -4.044
REMARK INTRA:                  -0.154
REMARK UNBOUND:                -0.142
REMARK SMILES CC[C@@H](C)[C@@H]([NH3+])C(=O)[O-]
REMARK SMILES IDX 3 1 4 2 5 3 6 4 7 8 8 9 9 10 2 11 1 12
REMARK H PARENT 6 5 6 6 6 7
REMARK Flexibility Score: inf
ROOT
ATOM      1  C   UNL     1       1.282  -1.152  44.848  1.00  0.00     0.050 C 
ATOM      2  C   UNL     1       2.503  -0.358  45.361  1.00  0.00     0.014 C 
ENDROOT
BRANCH   1   3
ATOM      3  C   UNL     1       0.243  -1.354  46.000  1.00  0.00     0.230 C 
BRANCH   3   4
ATOM      4  N   UNL     1      -0.970  -0.544  45.803  1.00  0.00    -0.350 N 
ATOM      5  H   UNL     1      -1.041  -0.235  44.806  1.00  0.00     0.345 HD
ATOM      6  H   UNL     1      -1.822  -1.116  46.003  1.00  0.00     0.345 HD
ATOM      7  H   UNL     1      -0.956   0.300  46.419  1.00  0.00     0.345 HD
ENDBRANCH   3   4
BRANCH   3   8
ATOM      8  C   UNL     1      -0.149  -2.808  46.118  1.00  0.00     0.099 C 
ATOM      9  O   UNL     1      -1.026  -3.290  45.355  1.00  0.00    -0.544 OA
ATOM     10  O   UNL     1       0.459  -3.621  47.067  1.00  0.00    -0.544 OA
ENDBRANCH   3   8
ENDBRANCH   1   3
BRANCH   1  11
ATOM     11  C   UNL     1       0.644  -0.441  43.624  1.00  0.00     0.006 C 
ATOM     12  C   UNL     1       0.308  -1.391  42.471  1.00  0.00     0.004 C 
ENDBRANCH   1  11
TORSDOF 4
ENDMDL
MODEL 3
REMARK VINA RESULT:    -3.282      1.842      2.538
REMARK INTER + INTRA:          -4.095
REMARK INTER:                  -4.156
REMARK INTRA:                   0.061
REMARK UNBOUND:                -0.142
REMARK SMILES CC[C@@H](C)[C@@H]([NH3+])C(=O)[O-]
REMARK SMILES IDX 3 1 4 2 5 3 6 4 7 8 8 9 9 10 2 11 1 12
REMARK H PARENT 6 5 6 6 6 7
REMARK Flexibility Score: inf
ROOT
ATOM      1  C   UNL     1       1.002  -0.320  45.410  1.00  0.00     0.050 C 
ATOM      2  C   UNL     1       0.834  -0.093  43.892  1.00  0.00     0.014 C 
ENDROOT
BRANCH   1   3
ATOM      3  C   UNL     1      -0.176  -1.187  45.964  1.00  0.00     0.230 C 
BRANCH   3   4
ATOM      4  N   UNL     1      -1.423  -0.975  45.211  1.00  0.00    -0.350 N 
ATOM      5  H   UNL     1      -2.073  -0.360  45.753  1.00  0.00     0.345 HD
ATOM      6  H   UNL     1      -1.223  -0.482  44.311  1.00  0.00     0.345 HD
ATOM      7  H   UNL     1      -1.900  -1.885  45.019  1.00  0.00     0.345 HD
ENDBRANCH   3   4
BRANCH   3   8
ATOM      8  C   UNL     1       0.175  -2.655  45.930  1.00  0.00     0.099 C 
ATOM      9  O   UNL     1       0.450  -3.265  46.996  1.00  0.00    -0.544 OA
ATOM     10  O   UNL     1       0.193  -3.342  44.722  1.00  0.00    -0.544 OA
ENDBRANCH   3   8
ENDBRANCH   1   3
BRANCH   1  11
ATOM     11  C   UNL     1       2.379  -0.970  45.715  1.00  0.00     0.006 C 
ATOM     12  C   UNL     1       3.490   0.048  45.988  1.00  0.00     0.004 C 
ENDBRANCH   1  11
TORSDOF 4
ENDMDL
MODEL 4
REMARK VINA RESULT:    -3.241     11.209     12.237
REMARK INTER + INTRA:          -4.046
REMARK INTER:                  -4.211
REMARK INTRA:                   0.165
REMARK UNBOUND:                -0.142
REMARK SMILES CC[C@@H](C)[C@@H]([NH3+])C(=O)[O-]
REMARK SMILES IDX 3 1 4 2 5 3 6 4 7 8 8 9 9 10 2 11 1 12
REMARK H PARENT 6 5 6 6 6 7
REMARK Flexibility Score: inf
ROOT
ATOM      1  C   UNL     1       3.046  10.710  46.838  1.00  0.00     0.050 C 
ATOM      2  C   UNL     1       2.462  11.125  48.205  1.00  0.00     0.014 C 
ENDROOT
BRANCH   1   3
ATOM      3  C   UNL     1       4.213   9.687  47.034  1.00  0.00     0.230 C 
BRANCH   3   4
ATOM      4  N   UNL     1       4.985   9.952  48.259  1.00  0.00    -0.350 N 
ATOM      5  H   UNL     1       4.651  10.835  48.712  1.00  0.00     0.345 HD
ATOM      6  H   UNL     1       4.839   9.184  48.952  1.00  0.00     0.345 HD
ATOM      7  H   UNL     1       6.003  10.047  48.043  1.00  0.00     0.345 HD
ENDBRANCH   3   4
BRANCH   3   8
ATOM      8  C   UNL     1       3.685   8.273  47.082  1.00  0.00     0.099 C 
ATOM      9  O   UNL     1       3.592   7.596  46.025  1.00  0.00    -0.544 OA
ATOM     10  O   UNL     1       3.304   7.710  48.294  1.00  0.00    -0.544 OA
ENDBRANCH   3   8
ENDBRANCH   1   3
BRANCH   1  11
ATOM     11  C   UNL     1       1.933  10.135  45.921  1.00  0.00     0.006 C 
ATOM     12  C   UNL     1       0.800  11.125  45.639  1.00  0.00     0.004 C 
ENDBRANCH   1  11
TORSDOF 4
ENDMDL
MODEL 5
REMARK VINA RESULT:    -3.179      1.749      2.724
REMARK INTER + INTRA:          -3.971
REMARK INTER:                  -3.827
REMARK INTRA:                  -0.144
REMARK UNBOUND:                -0.142
REMARK SMILES CC[C@@H](C)[C@@H]([NH3+])C(=O)[O-]
REMARK SMILES IDX 3 1 4 2 5 3 6 4 7 8 8 9 9 10 2 11 1 12
REMARK H PARENT 6 5 6 6 6 7
REMARK Flexibility Score: inf
ROOT
ATOM      1  C   UNL     1       0.941  -0.985  44.738  1.00  0.00     0.050 C 
ATOM      2  C   UNL     1       2.277  -0.495  45.338  1.00  0.00     0.014 C 
ENDROOT
BRANCH   1   3
ATOM      3  C   UNL     1       1.197  -2.136  43.711  1.00  0.00     0.230 C 
BRANCH   3   4
ATOM      4  N   UNL     1       0.561  -3.398  44.121  1.00  0.00    -0.350 N 
ATOM      5  H   UNL     1       0.736  -4.141  43.405  1.00  0.00     0.345 HD
ATOM      6  H   UNL     1       0.979  -3.739  45.017  1.00  0.00     0.345 HD
ATOM      7  H   UNL     1      -0.471  -3.274  44.235  1.00  0.00     0.345 HD
ENDBRANCH   3   4
BRANCH   3   8
ATOM      8  C   UNL     1       0.692  -1.754  42.340  1.00  0.00     0.099 C 
ATOM      9  O   UNL     1       0.182  -0.619  42.147  1.00  0.00    -0.544 OA
ATOM     10  O   UNL     1       0.791  -2.651  41.283  1.00  0.00    -0.544 OA
ENDBRANCH   3   8
ENDBRANCH   1   3
BRANCH   1  11
ATOM     11  C   UNL     1      -0.031  -1.430  45.863  1.00  0.00     0.006 C 
ATOM     12  C   UNL     1      -1.451  -0.882  45.697  1.00  0.00     0.004 C 
ENDBRANCH   1  11
TORSDOF 4
ENDMDL
MODEL 6
REMARK VINA RESULT:    -3.152      1.221      1.384
REMARK INTER + INTRA:          -3.939
REMARK INTER:                  -3.857
REMARK INTRA:                  -0.082
REMARK UNBOUND:                -0.142
REMARK SMILES CC[C@@H](C)[C@@H]([NH3+])C(=O)[O-]
REMARK SMILES IDX 3 1 4 2 5 3 6 4 7 8 8 9 9 10 2 11 1 12
REMARK H PARENT 6 5 6 6 6 7
REMARK Flexibility Score: inf
ROOT
ATOM      1  C   UNL     1       0.598  -1.494  45.215  1.00  0.00     0.050 C 
ATOM      2  C   UNL     1      -0.716  -0.760  45.559  1.00  0.00     0.014 C 
ENDROOT
BRANCH   1   3
ATOM      3  C   UNL     1       0.365  -2.505  44.045  1.00  0.00     0.230 C 
BRANCH   3   4
ATOM      4  N   UNL     1       1.419  -2.423  43.021  1.00  0.00    -0.350 N 
ATOM      5  H   UNL     1       1.433  -1.467  42.593  1.00  0.00     0.345 HD
ATOM      6  H   UNL     1       2.358  -2.572  43.454  1.00  0.00     0.345 HD
ATOM      7  H   UNL     1       1.259  -3.129  42.266  1.00  0.00     0.345 HD
ENDBRANCH   3   4
BRANCH   3   8
ATOM      8  C   UNL     1       0.296  -3.921  44.565  1.00  0.00     0.099 C 
ATOM      9  O   UNL     1       0.625  -4.885  43.826  1.00  0.00    -0.544 OA
ATOM     10  O   UNL     1      -0.127  -4.168  45.866  1.00  0.00    -0.544 OA
ENDBRANCH   3   8
ENDBRANCH   1   3
BRANCH   1  11
ATOM     11  C   UNL     1       1.718  -0.476  44.873  1.00  0.00     0.006 C 
ATOM     12  C   UNL     1       2.910  -0.531  45.834  1.00  0.00     0.004 C 
ENDBRANCH   1  11
TORSDOF 4
ENDMDL
MODEL 7
REMARK VINA RESULT:    -3.136      2.219      2.926
REMARK INTER + INTRA:          -3.920
REMARK INTER:                  -3.942
REMARK INTRA:                   0.022
REMARK UNBOUND:                -0.142
REMARK SMILES CC[C@@H](C)[C@@H]([NH3+])C(=O)[O-]
REMARK SMILES IDX 3 1 4 2 5 3 6 4 7 8 8 9 9 10 2 11 1 12
REMARK H PARENT 6 5 6 6 6 7
REMARK Flexibility Score: inf
ROOT
ATOM      1  C   UNL     1       0.285  -0.923  44.065  1.00  0.00     0.050 C 
ATOM      2  C   UNL     1       1.243  -2.033  43.582  1.00  0.00     0.014 C 
ENDROOT
BRANCH   1   3
ATOM      3  C   UNL     1      -1.057  -1.546  44.572  1.00  0.00     0.230 C 
BRANCH   3   4
ATOM      4  N   UNL     1      -1.349  -2.837  43.927  1.00  0.00    -0.350 N 
ATOM      5  H   UNL     1      -0.553  -3.122  43.310  1.00  0.00     0.345 HD
ATOM      6  H   UNL     1      -1.455  -3.586  44.649  1.00  0.00     0.345 HD
ATOM      7  H   UNL     1      -2.219  -2.775  43.351  1.00  0.00     0.345 HD
ENDBRANCH   3   4
BRANCH   3   8
ATOM      8  C   UNL     1      -1.025  -1.741  46.069  1.00  0.00     0.099 C 
ATOM      9  O   UNL     1      -1.698  -0.988  46.820  1.00  0.00    -0.544 OA
ATOM     10  O   UNL     1      -0.256  -2.756  46.626  1.00  0.00    -0.544 OA
ENDBRANCH   3   8
ENDBRANCH   1   3
BRANCH   1  11
ATOM     11  C   UNL     1       0.961  -0.057  45.161  1.00  0.00     0.006 C 
ATOM     12  C   UNL     1       2.403  -0.473  45.467  1.00  0.00     0.004 C 
ENDBRANCH   1  11
TORSDOF 4
ENDMDL
MODEL 8
REMARK VINA RESULT:    -3.076      2.197      2.503
REMARK INTER + INTRA:          -3.847
REMARK INTER:                  -3.745
REMARK INTRA:                  -0.102
REMARK UNBOUND:                -0.142
REMARK SMILES CC[C@@H](C)[C@@H]([NH3+])C(=O)[O-]
REMARK SMILES IDX 3 1 4 2 5 3 6 4 7 8 8 9 9 10 2 11 1 12
REMARK H PARENT 6 5 6 6 6 7
REMARK Flexibility Score: inf
ROOT
ATOM      1  C   UNL     1       0.557  -1.746  43.579  1.00  0.00     0.050 C 
ATOM      2  C   UNL     1       0.501  -0.296  43.052  1.00  0.00     0.014 C 
ENDROOT
BRANCH   1   3
ATOM      3  C   UNL     1       1.298  -2.668  42.556  1.00  0.00     0.230 C 
BRANCH   3   4
ATOM      4  N   UNL     1       1.457  -4.042  43.059  1.00  0.00    -0.350 N 
ATOM      5  H   UNL     1       2.288  -4.496  42.613  1.00  0.00     0.345 HD
ATOM      6  H   UNL     1       1.637  -4.031  44.089  1.00  0.00     0.345 HD
ATOM      7  H   UNL     1       0.607  -4.613  42.853  1.00  0.00     0.345 HD
ENDBRANCH   3   4
BRANCH   3   8
ATOM      8  C   UNL     1       0.561  -2.709  41.239  1.00  0.00     0.099 C 
ATOM      9  O   UNL     1       1.139  -2.357  40.178  1.00  0.00    -0.544 OA
ATOM     10  O   UNL     1      -0.760  -3.140  41.190  1.00  0.00    -0.544 OA
ENDBRANCH   3   8
ENDBRANCH   1   3
BRANCH   1  11
ATOM     11  C   UNL     1       1.227  -1.793  44.978  1.00  0.00     0.006 C 
ATOM     12  C   UNL     1       2.048  -0.542  45.306  1.00  0.00     0.004 C 
ENDBRANCH   1  11
TORSDOF 4
ENDMDL
MODEL 9
REMARK VINA RESULT:    -2.993      2.216      3.398
REMARK INTER + INTRA:          -3.747
REMARK INTER:                  -3.660
REMARK INTRA:                  -0.087
REMARK UNBOUND:                -0.142
REMARK SMILES CC[C@@H](C)[C@@H]([NH3+])C(=O)[O-]
REMARK SMILES IDX 3 1 4 2 5 3 6 4 7 8 8 9 9 10 2 11 1 12
REMARK H PARENT 6 5 6 6 6 7
REMARK Flexibility Score: inf
ROOT
ATOM      1  C   UNL     1       1.010  -1.611  42.921  1.00  0.00     0.050 C 
ATOM      2  C   UNL     1       0.124  -1.388  41.676  1.00  0.00     0.014 C 
ENDROOT
BRANCH   1   3
ATOM      3  C   UNL     1       0.366  -0.932  44.174  1.00  0.00     0.230 C 
BRANCH   3   4
ATOM      4  N   UNL     1      -0.936  -1.524  44.520  1.00  0.00    -0.350 N 
ATOM      5  H   UNL     1      -1.604  -1.422  43.720  1.00  0.00     0.345 HD
ATOM      6  H   UNL     1      -0.832  -2.549  44.697  1.00  0.00     0.345 HD
ATOM      7  H   UNL     1      -1.343  -1.058  45.363  1.00  0.00     0.345 HD
ENDBRANCH   3   4
BRANCH   3   8
ATOM      8  C   UNL     1       1.284  -1.031  45.369  1.00  0.00     0.099 C 
ATOM      9  O   UNL     1       2.342  -0.351  45.412  1.00  0.00    -0.544 OA
ATOM     10  O   UNL     1       0.963  -1.870  46.430  1.00  0.00    -0.544 OA
ENDBRANCH   3   8
ENDBRANCH   1   3
BRANCH   1  11
ATOM     11  C   UNL     1       1.251  -3.126  43.155  1.00  0.00     0.006 C 
ATOM     12  C   UNL     1       1.716  -3.873  41.902  1.00  0.00     0.004 C 
ENDBRANCH   1  11
TORSDOF 4
ENDMDL
