MODEL 1
REMARK VINA RESULT:    -2.888      0.000      0.000
REMARK INTER + INTRA:          -2.973
REMARK INTER:                  -2.973
REMARK INTRA:                   0.000
REMARK UNBOUND:                 0.000
REMARK SMILES Nc1ncnc2nc[nH]c12
REMARK SMILES IDX 8 1 7 2 6 3 5 4 4 5 3 6 2 7 10 8 9 9 1 11
REMARK H PARENT 9 10 1 12 1 13
REMARK Flexibility Score: inf
ROOT
ATOM      1  C   UNL     1      27.402  10.355  -4.125  1.00  0.00     0.199 A 
ATOM      2  N   UNL     1      28.247  11.073  -3.334  1.00  0.00    -0.217 NA
ATOM      3  C   UNL     1      28.374  10.279  -2.258  1.00  0.00     0.182 A 
ATOM      4  N   UNL     1      29.119  10.527  -1.155  1.00  0.00    -0.215 NA
ATOM      5  C   UNL     1      29.124   9.593  -0.156  1.00  0.00     0.226 A 
ATOM      6  N   UNL     1      28.392   8.439  -0.278  1.00  0.00    -0.217 NA
ATOM      7  C   UNL     1      27.640   8.186  -1.391  1.00  0.00     0.152 A 
ATOM      8  C   UNL     1      27.646   9.148  -2.398  1.00  0.00     0.127 A 
ATOM      9  N   UNL     1      27.016   9.174  -3.580  1.00  0.00    -0.340 N 
ATOM     10  H   UNL     1      26.379   8.460  -3.996  1.00  0.00     0.168 HD
ENDROOT
BRANCH   7  11
ATOM     11  N   UNL     1      26.886   6.979  -1.495  1.00  0.00    -0.382 N 
ATOM     12  H   UNL     1      26.847   6.316  -0.689  1.00  0.00     0.158 HD
ATOM     13  H   UNL     1      26.367   6.736  -2.368  1.00  0.00     0.158 HD
ENDBRANCH   7  11
TORSDOF 1
ENDMDL
MODEL 2
REMARK VINA RESULT:    -2.750      1.080      2.468
REMARK INTER + INTRA:          -2.831
REMARK INTER:                  -2.831
REMARK INTRA:                   0.000
REMARK UNBOUND:                 0.000
REMARK SMILES Nc1ncnc2nc[nH]c12
REMARK SMILES IDX 8 1 7 2 6 3 5 4 4 5 3 6 2 7 10 8 9 9 1 11
REMARK H PARENT 9 10 1 12 1 13
REMARK Flexibility Score: inf
ROOT
ATOM      1  C   UNL     1      29.000  11.384  -3.182  1.00  0.00     0.199 A 
ATOM      2  N   UNL     1      28.235  10.468  -3.838  1.00  0.00    -0.217 NA
ATOM      3  C   UNL     1      27.883   9.630  -2.850  1.00  0.00     0.182 A 
ATOM      4  N   UNL     1      27.109   8.525  -2.966  1.00  0.00    -0.215 NA
ATOM      5  C   UNL     1      26.857   7.792  -1.839  1.00  0.00     0.226 A 
ATOM      6  N   UNL     1      27.380   8.173  -0.630  1.00  0.00    -0.217 NA
ATOM      7  C   UNL     1      28.162   9.288  -0.511  1.00  0.00     0.152 A 
ATOM      8  C   UNL     1      28.408  10.023  -1.667  1.00  0.00     0.127 A 
ATOM      9  N   UNL     1      29.125  11.139  -1.853  1.00  0.00    -0.340 N 
ATOM     10  H   UNL     1      29.657  11.698  -1.151  1.00  0.00     0.168 HD
ENDROOT
BRANCH   7  11
ATOM     11  N   UNL     1      28.696   9.665   0.759  1.00  0.00    -0.382 N 
ATOM     12  H   UNL     1      28.055   9.961   1.528  1.00  0.00     0.158 HD
ATOM     13  H   UNL     1      29.723   9.653   0.941  1.00  0.00     0.158 HD
ENDBRANCH   7  11
TORSDOF 1
ENDMDL
MODEL 3
REMARK VINA RESULT:    -2.746      0.935      3.882
REMARK INTER + INTRA:          -2.826
REMARK INTER:                  -2.826
REMARK INTRA:                   0.000
REMARK UNBOUND:                 0.000
REMARK SMILES Nc1ncnc2nc[nH]c12
REMARK SMILES IDX 8 1 7 2 6 3 5 4 4 5 3 6 2 7 10 8 9 9 1 11
REMARK H PARENT 9 10 1 12 1 13
REMARK Flexibility Score: inf
ROOT
ATOM      1  C   UNL     1      28.795   9.263   0.002  1.00  0.00     0.199 A 
ATOM      2  N   UNL     1      28.095   8.389  -0.773  1.00  0.00    -0.217 NA
ATOM      3  C   UNL     1      27.959   9.071  -1.921  1.00  0.00     0.182 A 
ATOM      4  N   UNL     1      27.329   8.648  -3.043  1.00  0.00    -0.215 NA
ATOM      5  C   UNL     1      27.294   9.489  -4.121  1.00  0.00     0.226 A 
ATOM      6  N   UNL     1      27.883  10.726  -4.057  1.00  0.00    -0.217 NA
ATOM      7  C   UNL     1      28.520  11.156  -2.927  1.00  0.00     0.152 A 
ATOM      8  C   UNL     1      28.546  10.287  -1.839  1.00  0.00     0.127 A 
ATOM      9  N   UNL     1      29.086  10.433  -0.622  1.00  0.00    -0.340 N 
ATOM     10  H   UNL     1      29.610  11.248  -0.233  1.00  0.00     0.168 HD
ENDROOT
BRANCH   7  11
ATOM     11  N   UNL     1      29.125  12.448  -2.884  1.00  0.00    -0.382 N 
ATOM     12  H   UNL     1      28.876  13.117  -2.122  1.00  0.00     0.158 HD
ATOM     13  H   UNL     1      29.817  12.748  -3.606  1.00  0.00     0.158 HD
ENDBRANCH   7  11
TORSDOF 1
ENDMDL
MODEL 4
REMARK VINA RESULT:    -2.465      1.371      2.884
REMARK INTER + INTRA:          -2.537
REMARK INTER:                  -2.537
REMARK INTRA:                   0.000
REMARK UNBOUND:                 0.000
REMARK SMILES Nc1ncnc2nc[nH]c12
REMARK SMILES IDX 8 1 7 2 6 3 5 4 4 5 3 6 2 7 10 8 9 9 1 11
REMARK H PARENT 9 10 1 12 1 13
REMARK Flexibility Score: inf
ROOT
ATOM      1  C   UNL     1      28.970  10.357  -1.238  1.00  0.00     0.199 A 
ATOM      2  N   UNL     1      29.101   9.289  -0.402  1.00  0.00    -0.217 NA
ATOM      3  C   UNL     1      28.166   8.446  -0.867  1.00  0.00     0.182 A 
ATOM      4  N   UNL     1      27.875   7.215  -0.383  1.00  0.00    -0.215 NA
ATOM      5  C   UNL     1      26.882   6.499  -0.993  1.00  0.00     0.226 A 
ATOM      6  N   UNL     1      26.205   7.022  -2.065  1.00  0.00    -0.217 NA
ATOM      7  C   UNL     1      26.497   8.264  -2.556  1.00  0.00     0.152 A 
ATOM      8  C   UNL     1      27.510   8.979  -1.923  1.00  0.00     0.127 A 
ATOM      9  N   UNL     1      28.005  10.198  -2.178  1.00  0.00    -0.340 N 
ATOM     10  H   UNL     1      27.724  10.873  -2.922  1.00  0.00     0.168 HD
ENDROOT
BRANCH   7  11
ATOM     11  N   UNL     1      25.778   8.787  -3.673  1.00  0.00    -0.382 N 
ATOM     12  H   UNL     1      25.377   8.139  -4.386  1.00  0.00     0.158 HD
ATOM     13  H   UNL     1      25.642   9.814  -3.798  1.00  0.00     0.158 HD
ENDBRANCH   7  11
TORSDOF 1
ENDMDL
MODEL 5
REMARK VINA RESULT:    -2.439      1.094      3.064
REMARK INTER + INTRA:          -2.510
REMARK INTER:                  -2.510
REMARK INTRA:                   0.000
REMARK UNBOUND:                 0.000
REMARK SMILES Nc1ncnc2nc[nH]c12
REMARK SMILES IDX 8 1 7 2 6 3 5 4 4 5 3 6 2 7 10 8 9 9 1 11
REMARK H PARENT 9 10 1 12 1 13
REMARK Flexibility Score: inf
ROOT
ATOM      1  C   UNL     1      27.552   6.936  -0.747  1.00  0.00     0.199 A 
ATOM      2  N   UNL     1      28.581   7.808  -0.562  1.00  0.00    -0.217 NA
ATOM      3  C   UNL     1      28.372   8.708  -1.536  1.00  0.00     0.182 A 
ATOM      4  N   UNL     1      29.123   9.804  -1.799  1.00  0.00    -0.215 NA
ATOM      5  C   UNL     1      28.750  10.609  -2.840  1.00  0.00     0.226 A 
ATOM      6  N   UNL     1      27.643  10.305  -3.592  1.00  0.00    -0.217 NA
ATOM      7  C   UNL     1      26.883   9.200  -3.328  1.00  0.00     0.152 A 
ATOM      8  C   UNL     1      27.277   8.392  -2.265  1.00  0.00     0.127 A 
ATOM      9  N   UNL     1      26.738   7.265  -1.782  1.00  0.00    -0.340 N 
ATOM     10  H   UNL     1      25.891   6.753  -2.112  1.00  0.00     0.168 HD
ENDROOT
BRANCH   7  11
ATOM     11  N   UNL     1      25.736   8.905  -4.125  1.00  0.00    -0.382 N 
ATOM     12  H   UNL     1      25.790   8.974  -5.165  1.00  0.00     0.158 HD
ATOM     13  H   UNL     1      24.831   8.619  -3.690  1.00  0.00     0.158 HD
ENDBRANCH   7  11
TORSDOF 1
ENDMDL
MODEL 6
REMARK VINA RESULT:    -2.364      1.106      2.885
REMARK INTER + INTRA:          -2.433
REMARK INTER:                  -2.433
REMARK INTRA:                   0.000
REMARK UNBOUND:                 0.000
REMARK SMILES Nc1ncnc2nc[nH]c12
REMARK SMILES IDX 8 1 7 2 6 3 5 4 4 5 3 6 2 7 10 8 9 9 1 11
REMARK H PARENT 9 10 1 12 1 13
REMARK Flexibility Score: inf
ROOT
ATOM      1  C   UNL     1      26.480   7.348  -1.840  1.00  0.00     0.199 A 
ATOM      2  N   UNL     1      26.600   8.128  -2.949  1.00  0.00    -0.217 NA
ATOM      3  C   UNL     1      27.438   9.091  -2.532  1.00  0.00     0.182 A 
ATOM      4  N   UNL     1      27.892  10.138  -3.261  1.00  0.00    -0.215 NA
ATOM      5  C   UNL     1      28.746  11.022  -2.660  1.00  0.00     0.226 A 
ATOM      6  N   UNL     1      29.125  10.844  -1.354  1.00  0.00    -0.217 NA
ATOM      7  C   UNL     1      28.668   9.787  -0.616  1.00  0.00     0.152 A 
ATOM      8  C   UNL     1      27.800   8.898  -1.243  1.00  0.00     0.127 A 
ATOM      9  N   UNL     1      27.201   7.793  -0.780  1.00  0.00    -0.340 N 
ATOM     10  H   UNL     1      27.267   7.364   0.169  1.00  0.00     0.168 HD
ENDROOT
BRANCH   7  11
ATOM     11  N   UNL     1      29.076   9.623   0.742  1.00  0.00    -0.382 N 
ATOM     12  H   UNL     1      29.871  10.185   1.120  1.00  0.00     0.158 HD
ATOM     13  H   UNL     1      28.596   8.947   1.376  1.00  0.00     0.158 HD
ENDBRANCH   7  11
TORSDOF 1
ENDMDL
MODEL 7
REMARK VINA RESULT:    -2.243     12.643     14.303
REMARK INTER + INTRA:          -2.309
REMARK INTER:                  -2.309
REMARK INTRA:                   0.000
REMARK UNBOUND:                 0.000
REMARK SMILES Nc1ncnc2nc[nH]c12
REMARK SMILES IDX 8 1 7 2 6 3 5 4 4 5 3 6 2 7 10 8 9 9 1 11
REMARK H PARENT 9 10 1 12 1 13
REMARK Flexibility Score: inf
ROOT
ATOM      1  C   UNL     1      26.791  13.100  13.729  1.00  0.00     0.199 A 
ATOM      2  N   UNL     1      27.437  14.125  13.107  1.00  0.00    -0.217 NA
ATOM      3  C   UNL     1      27.947  13.524  12.021  1.00  0.00     0.182 A 
ATOM      4  N   UNL     1      28.692  14.106  11.051  1.00  0.00    -0.215 NA
ATOM      5  C   UNL     1      29.125  13.326  10.014  1.00  0.00     0.226 A 
ATOM      6  N   UNL     1      28.809  11.992   9.967  1.00  0.00    -0.217 NA
ATOM      7  C   UNL     1      28.058  11.403  10.945  1.00  0.00     0.152 A 
ATOM      8  C   UNL     1      27.625  12.210  11.993  1.00  0.00     0.127 A 
ATOM      9  N   UNL     1      26.889  11.916  13.072  1.00  0.00    -0.340 N 
ATOM     10  H   UNL     1      26.479  10.998  13.353  1.00  0.00     0.168 HD
ENDROOT
BRANCH   7  11
ATOM     11  N   UNL     1      27.742  10.012  10.875  1.00  0.00    -0.382 N 
ATOM     12  H   UNL     1      27.523   9.481  11.748  1.00  0.00     0.158 HD
ATOM     13  H   UNL     1      27.727   9.503   9.964  1.00  0.00     0.158 HD
ENDBRANCH   7  11
TORSDOF 1
ENDMDL
MODEL 8
REMARK VINA RESULT:    -2.221      1.150      3.015
REMARK INTER + INTRA:          -2.286
REMARK INTER:                  -2.286
REMARK INTRA:                   0.000
REMARK UNBOUND:                 0.000
REMARK SMILES Nc1ncnc2nc[nH]c12
REMARK SMILES IDX 8 1 7 2 6 3 5 4 4 5 3 6 2 7 10 8 9 9 1 11
REMARK H PARENT 9 10 1 12 1 13
REMARK Flexibility Score: inf
ROOT
ATOM      1  C   UNL     1      28.181   8.509  -0.390  1.00  0.00     0.199 A 
ATOM      2  N   UNL     1      28.965   9.615  -0.523  1.00  0.00    -0.217 NA
ATOM      3  C   UNL     1      28.578  10.098  -1.715  1.00  0.00     0.182 A 
ATOM      4  N   UNL     1      29.053  11.206  -2.330  1.00  0.00    -0.215 NA
ATOM      5  C   UNL     1      28.532  11.542  -3.549  1.00  0.00     0.226 A 
ATOM      6  N   UNL     1      27.555  10.770  -4.125  1.00  0.00    -0.217 NA
ATOM      7  C   UNL     1      27.074   9.651  -3.505  1.00  0.00     0.152 A 
ATOM      8  C   UNL     1      27.615   9.323  -2.266  1.00  0.00     0.127 A 
ATOM      9  N   UNL     1      27.346   8.304  -1.440  1.00  0.00    -0.340 N 
ATOM     10  H   UNL     1      26.657   7.529  -1.562  1.00  0.00     0.168 HD
ENDROOT
BRANCH   7  11
ATOM     11  N   UNL     1      26.057   8.862  -4.125  1.00  0.00    -0.382 N 
ATOM     12  H   UNL     1      25.093   9.247  -4.237  1.00  0.00     0.158 HD
ATOM     13  H   UNL     1      26.253   7.897  -4.471  1.00  0.00     0.158 HD
ENDBRANCH   7  11
TORSDOF 1
ENDMDL
