MODEL 1
REMARK VINA RESULT:    -4.094      0.000      0.000
REMARK INTER + INTRA:         -11.444
REMARK INTER:                  -8.881
REMARK INTRA:                  -2.564
REMARK UNBOUND:                -2.564
REMARK SMILES CCCCCCCCCCCCCCCCCCCCCC(=O)[O-]
REMARK SMILES IDX 12 1 11 2 10 3 9 4 8 5 7 6 6 7 5 8 4 9 3 10 2 11 1 12 13 13
REMARK SMILES IDX 14 14 15 15 16 16 17 17 18 18 19 19 20 20 21 21 22 22 23 23
REMARK SMILES IDX 24 24
REMARK H PARENT
REMARK Flexibility Score: inf
ROOT
ATOM      1  C   UNL     1      19.978 133.827  56.297  1.00  0.00     0.000 C 
ENDROOT
BRANCH   1   2
ATOM      2  C   UNL     1      19.472 133.886  57.749  1.00  0.00     0.000 C 
BRANCH   2   3
ATOM      3  C   UNL     1      18.247 133.002  58.049  1.00  0.00     0.000 C 
BRANCH   3   4
ATOM      4  C   UNL     1      18.545 131.890  59.070  1.00  0.00    -0.000 C 
BRANCH   4   5
ATOM      5  C   UNL     1      17.282 131.117  59.483  1.00  0.00    -0.000 C 
BRANCH   5   6
ATOM      6  C   UNL     1      17.610 129.827  60.256  1.00  0.00    -0.000 C 
BRANCH   6   7
ATOM      7  C   UNL     1      19.108 129.688  60.568  1.00  0.00    -0.000 C 
BRANCH   7   8
ATOM      8  C   UNL     1      19.389 128.675  61.691  1.00  0.00    -0.000 C 
BRANCH   8   9
ATOM      9  C   UNL     1      18.602 128.976  62.979  1.00  0.00    -0.000 C 
BRANCH   9  10
ATOM     10  C   UNL     1      18.184 127.738  63.800  1.00  0.00    -0.000 C 
BRANCH  10  11
ATOM     11  C   UNL     1      17.085 126.873  63.159  1.00  0.00    -0.003 C 
ATOM     12  C   UNL     1      17.572 125.474  62.784  1.00  0.00     0.004 C 
ENDBRANCH  10  11
ENDBRANCH   9  10
ENDBRANCH   8   9
ENDBRANCH   7   8
ENDBRANCH   6   7
ENDBRANCH   5   6
ENDBRANCH   4   5
ENDBRANCH   3   4
ENDBRANCH   2   3
ENDBRANCH   1   2
BRANCH   1  13
ATOM     13  C   UNL     1      18.878 133.431  55.296  1.00  0.00     0.000 C 
BRANCH  13  14
ATOM     14  C   UNL     1      19.263 132.204  54.453  1.00  0.00     0.000 C 
BRANCH  14  15
ATOM     15  C   UNL     1      20.144 131.212  55.231  1.00  0.00     0.000 C 
BRANCH  15  16
ATOM     16  C   UNL     1      19.574 129.782  55.238  1.00  0.00     0.000 C 
BRANCH  16  17
ATOM     17  C   UNL     1      18.869 129.365  56.545  1.00  0.00     0.000 C 
BRANCH  17  18
ATOM     18  C   UNL     1      17.349 129.144  56.423  1.00  0.00     0.000 C 
BRANCH  18  19
ATOM     19  C   UNL     1      16.934 127.878  55.647  1.00  0.00     0.000 C 
BRANCH  19  20
ATOM     20  C   UNL     1      15.731 128.059  54.704  1.00  0.00     0.006 C 
BRANCH  20  21
ATOM     21  C   UNL     1      16.082 127.803  53.233  1.00  0.00     0.053 C 
BRANCH  21  22
ATOM     22  C   UNL     1      16.838 128.964  52.667  1.00  0.00     0.041 C 
ATOM     23  O   UNL     1      16.563 130.137  53.032  1.00  0.00    -0.550 OA
ATOM     24  O   UNL     1      17.809 128.754  51.696  1.00  0.00    -0.550 OA
ENDBRANCH  21  22
ENDBRANCH  20  21
ENDBRANCH  19  20
ENDBRANCH  18  19
ENDBRANCH  17  18
ENDBRANCH  16  17
ENDBRANCH  15  16
ENDBRANCH  14  15
ENDBRANCH  13  14
ENDBRANCH   1  13
TORSDOF 20
ENDMDL
MODEL 2
REMARK VINA RESULT:    -4.048      3.208      5.427
REMARK INTER + INTRA:         -11.345
REMARK INTER:                  -7.563
REMARK INTRA:                  -3.782
REMARK UNBOUND:                -2.564
REMARK SMILES CCCCCCCCCCCCCCCCCCCCCC(=O)[O-]
REMARK SMILES IDX 12 1 11 2 10 3 9 4 8 5 7 6 6 7 5 8 4 9 3 10 2 11 1 12 13 13
REMARK SMILES IDX 14 14 15 15 16 16 17 17 18 18 19 19 20 20 21 21 22 22 23 23
REMARK SMILES IDX 24 24
REMARK H PARENT
REMARK Flexibility Score: inf
ROOT
ATOM      1  C   UNL     1      18.637 128.898  54.910  1.00  0.00     0.000 C 
ENDROOT
BRANCH   1   2
ATOM      2  C   UNL     1      17.334 128.114  55.149  1.00  0.00     0.000 C 
BRANCH   2   3
ATOM      3  C   UNL     1      16.597 127.671  53.872  1.00  0.00     0.000 C 
BRANCH   3   4
ATOM      4  C   UNL     1      15.281 128.434  53.645  1.00  0.00    -0.000 C 
BRANCH   4   5
ATOM      5  C   UNL     1      14.742 129.075  54.935  1.00  0.00    -0.000 C 
BRANCH   5   6
ATOM      6  C   UNL     1      14.416 130.569  54.757  1.00  0.00    -0.000 C 
BRANCH   6   7
ATOM      7  C   UNL     1      15.462 131.485  55.412  1.00  0.00    -0.000 C 
BRANCH   7   8
ATOM      8  C   UNL     1      15.056 131.931  56.828  1.00  0.00    -0.000 C 
BRANCH   8   9
ATOM      9  C   UNL     1      16.149 131.661  57.877  1.00  0.00    -0.000 C 
BRANCH   9  10
ATOM     10  C   UNL     1      15.796 130.597  58.937  1.00  0.00    -0.000 C 
BRANCH  10  11
ATOM     11  C   UNL     1      16.215 129.161  58.582  1.00  0.00    -0.003 C 
ATOM     12  C   UNL     1      15.027 128.207  58.457  1.00  0.00     0.004 C 
ENDBRANCH  10  11
ENDBRANCH   9  10
ENDBRANCH   8   9
ENDBRANCH   7   8
ENDBRANCH   6   7
ENDBRANCH   5   6
ENDBRANCH   4   5
ENDBRANCH   3   4
ENDBRANCH   2   3
ENDBRANCH   1   2
BRANCH   1  13
ATOM     13  C   UNL     1      19.078 129.714  56.138  1.00  0.00     0.000 C 
BRANCH  13  14
ATOM     14  C   UNL     1      19.082 131.227  55.869  1.00  0.00     0.000 C 
BRANCH  14  15
ATOM     15  C   UNL     1      19.405 131.560  54.403  1.00  0.00     0.000 C 
BRANCH  15  16
ATOM     16  C   UNL     1      18.738 132.863  53.923  1.00  0.00     0.000 C 
BRANCH  16  17
ATOM     17  C   UNL     1      17.791 132.707  52.717  1.00  0.00     0.000 C 
BRANCH  17  18
ATOM     18  C   UNL     1      17.309 131.268  52.448  1.00  0.00     0.000 C 
BRANCH  18  19
ATOM     19  C   UNL     1      16.401 131.104  51.212  1.00  0.00     0.000 C 
BRANCH  19  20
ATOM     20  C   UNL     1      16.601 129.795  50.427  1.00  0.00     0.006 C 
BRANCH  20  21
ATOM     21  C   UNL     1      16.916 130.031  48.945  1.00  0.00     0.053 C 
BRANCH  21  22
ATOM     22  C   UNL     1      16.677 128.783  48.155  1.00  0.00     0.041 C 
ATOM     23  O   UNL     1      17.511 127.839  48.193  1.00  0.00    -0.550 OA
ATOM     24  O   UNL     1      15.562 128.682  47.334  1.00  0.00    -0.550 OA
ENDBRANCH  21  22
ENDBRANCH  20  21
ENDBRANCH  19  20
ENDBRANCH  18  19
ENDBRANCH  17  18
ENDBRANCH  16  17
ENDBRANCH  15  16
ENDBRANCH  14  15
ENDBRANCH  13  14
ENDBRANCH   1  13
TORSDOF 20
ENDMDL
MODEL 3
REMARK VINA RESULT:    -4.046      3.542      7.475
REMARK INTER + INTRA:         -11.340
REMARK INTER:                  -7.887
REMARK INTRA:                  -3.453
REMARK UNBOUND:                -2.564
REMARK SMILES CCCCCCCCCCCCCCCCCCCCCC(=O)[O-]
REMARK SMILES IDX 12 1 11 2 10 3 9 4 8 5 7 6 6 7 5 8 4 9 3 10 2 11 1 12 13 13
REMARK SMILES IDX 14 14 15 15 16 16 17 17 18 18 19 19 20 20 21 21 22 22 23 23
REMARK SMILES IDX 24 24
REMARK H PARENT
REMARK Flexibility Score: inf
ROOT
ATOM      1  C   UNL     1      17.989 132.280  54.945  1.00  0.00     0.000 C 
ENDROOT
BRANCH   1   2
ATOM      2  C   UNL     1      16.871 132.186  53.892  1.00  0.00     0.000 C 
BRANCH   2   3
ATOM      3  C   UNL     1      15.463 131.926  54.458  1.00  0.00     0.000 C 
BRANCH   3   4
ATOM      4  C   UNL     1      14.689 130.854  53.670  1.00  0.00    -0.000 C 
BRANCH   4   5
ATOM      5  C   UNL     1      14.334 129.631  54.532  1.00  0.00    -0.000 C 
BRANCH   5   6
ATOM      6  C   UNL     1      15.095 129.615  55.869  1.00  0.00    -0.000 C 
BRANCH   6   7
ATOM      7  C   UNL     1      15.679 128.232  56.201  1.00  0.00    -0.000 C 
BRANCH   7   8
ATOM      8  C   UNL     1      16.380 127.580  54.997  1.00  0.00    -0.000 C 
BRANCH   8   9
ATOM      9  C   UNL     1      17.753 128.204  54.692  1.00  0.00    -0.000 C 
BRANCH   9  10
ATOM     10  C   UNL     1      17.885 128.856  53.299  1.00  0.00    -0.000 C 
BRANCH  10  11
ATOM     11  C   UNL     1      16.934 128.297  52.227  1.00  0.00    -0.003 C 
ATOM     12  C   UNL     1      16.791 129.221  51.018  1.00  0.00     0.004 C 
ENDBRANCH  10  11
ENDBRANCH   9  10
ENDBRANCH   8   9
ENDBRANCH   7   8
ENDBRANCH   6   7
ENDBRANCH   5   6
ENDBRANCH   4   5
ENDBRANCH   3   4
ENDBRANCH   2   3
ENDBRANCH   1   2
BRANCH   1  13
ATOM     13  C   UNL     1      17.478 132.748  56.319  1.00  0.00     0.000 C 
BRANCH  13  14
ATOM     14  C   UNL     1      18.304 132.173  57.481  1.00  0.00     0.000 C 
BRANCH  14  15
ATOM     15  C   UNL     1      18.754 130.725  57.221  1.00  0.00     0.000 C 
BRANCH  15  16
ATOM     16  C   UNL     1      18.553 129.807  58.440  1.00  0.00     0.000 C 
BRANCH  16  17
ATOM     17  C   UNL     1      17.168 129.903  59.111  1.00  0.00     0.000 C 
BRANCH  17  18
ATOM     18  C   UNL     1      17.156 129.616  60.625  1.00  0.00     0.000 C 
BRANCH  18  19
ATOM     19  C   UNL     1      18.490 129.883  61.350  1.00  0.00     0.000 C 
BRANCH  19  20
ATOM     20  C   UNL     1      19.177 128.633  61.930  1.00  0.00     0.006 C 
BRANCH  20  21
ATOM     21  C   UNL     1      18.595 128.207  63.283  1.00  0.00     0.053 C 
BRANCH  21  22
ATOM     22  C   UNL     1      17.869 126.905  63.151  1.00  0.00     0.041 C 
ATOM     23  O   UNL     1      16.640 126.835  63.422  1.00  0.00    -0.550 OA
ATOM     24  O   UNL     1      18.559 125.758  62.783  1.00  0.00    -0.550 OA
ENDBRANCH  21  22
ENDBRANCH  20  21
ENDBRANCH  19  20
ENDBRANCH  18  19
ENDBRANCH  17  18
ENDBRANCH  16  17
ENDBRANCH  15  16
ENDBRANCH  14  15
ENDBRANCH  13  14
ENDBRANCH   1  13
TORSDOF 20
ENDMDL
MODEL 4
REMARK VINA RESULT:    -4.039      2.280      4.767
REMARK INTER + INTRA:         -11.324
REMARK INTER:                  -7.765
REMARK INTRA:                  -3.560
REMARK UNBOUND:                -2.564
REMARK SMILES CCCCCCCCCCCCCCCCCCCCCC(=O)[O-]
REMARK SMILES IDX 12 1 11 2 10 3 9 4 8 5 7 6 6 7 5 8 4 9 3 10 2 11 1 12 13 13
REMARK SMILES IDX 14 14 15 15 16 16 17 17 18 18 19 19 20 20 21 21 22 22 23 23
REMARK SMILES IDX 24 24
REMARK H PARENT
REMARK Flexibility Score: inf
ROOT
ATOM      1  C   UNL     1      16.046 128.941  58.231  1.00  0.00     0.000 C 
ENDROOT
BRANCH   1   2
ATOM      2  C   UNL     1      15.145 128.172  59.214  1.00  0.00     0.000 C 
BRANCH   2   3
ATOM      3  C   UNL     1      14.266 129.054  60.120  1.00  0.00     0.000 C 
BRANCH   3   4
ATOM      4  C   UNL     1      15.023 129.595  61.345  1.00  0.00    -0.000 C 
BRANCH   4   5
ATOM      5  C   UNL     1      15.078 128.580  62.499  1.00  0.00    -0.000 C 
BRANCH   5   6
ATOM      6  C   UNL     1      16.417 128.622  63.256  1.00  0.00    -0.000 C 
BRANCH   6   7
ATOM      7  C   UNL     1      17.428 127.591  62.730  1.00  0.00    -0.000 C 
BRANCH   7   8
ATOM      8  C   UNL     1      18.803 128.210  62.424  1.00  0.00    -0.000 C 
BRANCH   8   9
ATOM      9  C   UNL     1      18.703 129.625  61.826  1.00  0.00    -0.000 C 
BRANCH   9  10
ATOM     10  C   UNL     1      18.969 129.718  60.309  1.00  0.00    -0.000 C 
BRANCH  10  11
ATOM     11  C   UNL     1      18.722 131.103  59.689  1.00  0.00    -0.003 C 
ATOM     12  C   UNL     1      17.673 131.917  60.447  1.00  0.00     0.004 C 
ENDBRANCH  10  11
ENDBRANCH   9  10
ENDBRANCH   8   9
ENDBRANCH   7   8
ENDBRANCH   6   7
ENDBRANCH   5   6
ENDBRANCH   4   5
ENDBRANCH   3   4
ENDBRANCH   2   3
ENDBRANCH   1   2
BRANCH   1  13
ATOM     13  C   UNL     1      15.401 130.243  57.724  1.00  0.00     0.000 C 
BRANCH  13  14
ATOM     14  C   UNL     1      15.005 130.164  56.241  1.00  0.00     0.000 C 
BRANCH  14  15
ATOM     15  C   UNL     1      15.160 128.745  55.667  1.00  0.00     0.000 C 
BRANCH  15  16
ATOM     16  C   UNL     1      15.529 128.740  54.172  1.00  0.00     0.000 C 
BRANCH  16  17
ATOM     17  C   UNL     1      16.892 128.102  53.837  1.00  0.00     0.000 C 
BRANCH  17  18
ATOM     18  C   UNL     1      18.119 128.978  54.157  1.00  0.00     0.000 C 
BRANCH  18  19
ATOM     19  C   UNL     1      18.808 128.667  55.501  1.00  0.00     0.000 C 
BRANCH  19  20
ATOM     20  C   UNL     1      19.337 129.897  56.261  1.00  0.00     0.006 C 
BRANCH  20  21
ATOM     21  C   UNL     1      18.598 131.189  55.891  1.00  0.00     0.053 C 
BRANCH  21  22
ATOM     22  C   UNL     1      19.559 132.205  55.357  1.00  0.00     0.041 C 
ATOM     23  O   UNL     1      20.044 133.081  56.121  1.00  0.00    -0.550 OA
ATOM     24  O   UNL     1      19.877 132.218  54.005  1.00  0.00    -0.550 OA
ENDBRANCH  21  22
ENDBRANCH  20  21
ENDBRANCH  19  20
ENDBRANCH  18  19
ENDBRANCH  17  18
ENDBRANCH  16  17
ENDBRANCH  15  16
ENDBRANCH  14  15
ENDBRANCH  13  14
ENDBRANCH   1  13
TORSDOF 20
ENDMDL
MODEL 5
REMARK VINA RESULT:    -4.032      3.706      7.328
REMARK INTER + INTRA:         -11.309
REMARK INTER:                  -7.794
REMARK INTRA:                  -3.516
REMARK UNBOUND:                -2.564
REMARK SMILES CCCCCCCCCCCCCCCCCCCCCC(=O)[O-]
REMARK SMILES IDX 12 1 11 2 10 3 9 4 8 5 7 6 6 7 5 8 4 9 3 10 2 11 1 12 13 13
REMARK SMILES IDX 14 14 15 15 16 16 17 17 18 18 19 19 20 20 21 21 22 22 23 23
REMARK SMILES IDX 24 24
REMARK H PARENT
REMARK Flexibility Score: inf
ROOT
ATOM      1  C   UNL     1      14.670 131.441  60.448  1.00  0.00     0.000 C 
ENDROOT
BRANCH   1   2
ATOM      2  C   UNL     1      13.607 130.379  60.783  1.00  0.00     0.000 C 
BRANCH   2   3
ATOM      3  C   UNL     1      14.162 128.975  61.085  1.00  0.00     0.000 C 
BRANCH   3   4
ATOM      4  C   UNL     1      15.325 128.578  60.158  1.00  0.00    -0.000 C 
BRANCH   4   5
ATOM      5  C   UNL     1      14.843 128.125  58.770  1.00  0.00    -0.000 C 
BRANCH   5   6
ATOM      6  C   UNL     1      15.848 128.471  57.657  1.00  0.00    -0.000 C 
BRANCH   6   7
ATOM      7  C   UNL     1      15.164 128.969  56.374  1.00  0.00    -0.000 C 
BRANCH   7   8
ATOM      8  C   UNL     1      15.561 128.149  55.134  1.00  0.00    -0.000 C 
BRANCH   8   9
ATOM      9  C   UNL     1      17.042 127.732  55.141  1.00  0.00    -0.000 C 
BRANCH   9  10
ATOM     10  C   UNL     1      18.002 128.704  54.423  1.00  0.00    -0.000 C 
BRANCH  10  11
ATOM     11  C   UNL     1      18.729 129.699  55.343  1.00  0.00    -0.003 C 
ATOM     12  C   UNL     1      20.057 129.159  55.874  1.00  0.00     0.004 C 
ENDBRANCH  10  11
ENDBRANCH   9  10
ENDBRANCH   8   9
ENDBRANCH   7   8
ENDBRANCH   6   7
ENDBRANCH   5   6
ENDBRANCH   4   5
ENDBRANCH   3   4
ENDBRANCH   2   3
ENDBRANCH   1   2
BRANCH   1  13
ATOM     13  C   UNL     1      14.600 131.917  58.987  1.00  0.00     0.000 C 
BRANCH  13  14
ATOM     14  C   UNL     1      15.839 132.727  58.571  1.00  0.00     0.000 C 
BRANCH  14  15
ATOM     15  C   UNL     1      16.982 131.830  58.065  1.00  0.00     0.000 C 
BRANCH  15  16
ATOM     16  C   UNL     1      18.104 131.647  59.103  1.00  0.00     0.000 C 
BRANCH  16  17
ATOM     17  C   UNL     1      18.740 130.243  59.138  1.00  0.00     0.000 C 
BRANCH  17  18
ATOM     18  C   UNL     1      19.028 129.693  60.549  1.00  0.00     0.000 C 
BRANCH  18  19
ATOM     19  C   UNL     1      18.040 130.150  61.641  1.00  0.00     0.000 C 
BRANCH  19  20
ATOM     20  C   UNL     1      18.041 129.292  62.919  1.00  0.00     0.006 C 
BRANCH  20  21
ATOM     21  C   UNL     1      18.527 127.858  62.675  1.00  0.00     0.053 C 
BRANCH  21  22
ATOM     22  C   UNL     1      17.442 126.878  62.991  1.00  0.00     0.041 C 
ATOM     23  O   UNL     1      16.288 127.285  63.291  1.00  0.00    -0.550 OA
ATOM     24  O   UNL     1      17.717 125.517  63.008  1.00  0.00    -0.550 OA
ENDBRANCH  21  22
ENDBRANCH  20  21
ENDBRANCH  19  20
ENDBRANCH  18  19
ENDBRANCH  17  18
ENDBRANCH  16  17
ENDBRANCH  15  16
ENDBRANCH  14  15
ENDBRANCH  13  14
ENDBRANCH   1  13
TORSDOF 20
ENDMDL
MODEL 6
REMARK VINA RESULT:    -4.029      3.284      6.068
REMARK INTER + INTRA:         -11.303
REMARK INTER:                  -7.313
REMARK INTRA:                  -3.990
REMARK UNBOUND:                -2.564
REMARK SMILES CCCCCCCCCCCCCCCCCCCCCC(=O)[O-]
REMARK SMILES IDX 12 1 11 2 10 3 9 4 8 5 7 6 6 7 5 8 4 9 3 10 2 11 1 12 13 13
REMARK SMILES IDX 14 14 15 15 16 16 17 17 18 18 19 19 20 20 21 21 22 22 23 23
REMARK SMILES IDX 24 24
REMARK H PARENT
REMARK Flexibility Score: inf
ROOT
ATOM      1  C   UNL     1      13.901 131.952  52.117  1.00  0.00     0.000 C 
ENDROOT
BRANCH   1   2
ATOM      2  C   UNL     1      15.050 132.238  51.134  1.00  0.00     0.000 C 
BRANCH   2   3
ATOM      3  C   UNL     1      16.385 132.637  51.790  1.00  0.00     0.000 C 
BRANCH   3   4
ATOM      4  C   UNL     1      16.200 133.325  53.154  1.00  0.00    -0.000 C 
BRANCH   4   5
ATOM      5  C   UNL     1      17.162 132.780  54.223  1.00  0.00    -0.000 C 
BRANCH   5   6
ATOM      6  C   UNL     1      18.260 131.883  53.624  1.00  0.00    -0.000 C 
BRANCH   6   7
ATOM      7  C   UNL     1      19.648 132.172  54.216  1.00  0.00    -0.000 C 
BRANCH   7   8
ATOM      8  C   UNL     1      19.996 131.243  55.393  1.00  0.00    -0.000 C 
BRANCH   8   9
ATOM      9  C   UNL     1      19.589 129.780  55.141  1.00  0.00    -0.000 C 
BRANCH   9  10
ATOM     10  C   UNL     1      18.653 129.166  56.203  1.00  0.00    -0.000 C 
BRANCH  10  11
ATOM     11  C   UNL     1      18.117 130.157  57.250  1.00  0.00    -0.003 C 
ATOM     12  C   UNL     1      17.025 129.556  58.134  1.00  0.00     0.004 C 
ENDBRANCH  10  11
ENDBRANCH   9  10
ENDBRANCH   8   9
ENDBRANCH   7   8
ENDBRANCH   6   7
ENDBRANCH   5   6
ENDBRANCH   4   5
ENDBRANCH   3   4
ENDBRANCH   2   3
ENDBRANCH   1   2
BRANCH   1  13
ATOM     13  C   UNL     1      13.308 130.542  51.948  1.00  0.00     0.000 C 
BRANCH  13  14
ATOM     14  C   UNL     1      13.279 129.754  53.268  1.00  0.00     0.000 C 
BRANCH  14  15
ATOM     15  C   UNL     1      14.098 130.437  54.376  1.00  0.00     0.000 C 
BRANCH  15  16
ATOM     16  C   UNL     1      15.392 129.676  54.721  1.00  0.00     0.000 C 
BRANCH  16  17
ATOM     17  C   UNL     1      15.416 128.197  54.288  1.00  0.00     0.000 C 
BRANCH  17  18
ATOM     18  C   UNL     1      16.474 127.846  53.223  1.00  0.00     0.000 C 
BRANCH  18  19
ATOM     19  C   UNL     1      16.795 128.978  52.226  1.00  0.00     0.000 C 
BRANCH  19  20
ATOM     20  C   UNL     1      17.488 128.524  50.928  1.00  0.00     0.006 C 
BRANCH  20  21
ATOM     21  C   UNL     1      16.945 129.235  49.682  1.00  0.00     0.053 C 
BRANCH  21  22
ATOM     22  C   UNL     1      17.668 128.768  48.459  1.00  0.00     0.041 C 
ATOM     23  O   UNL     1      18.926 128.723  48.444  1.00  0.00    -0.550 OA
ATOM     24  O   UNL     1      16.955 128.434  47.315  1.00  0.00    -0.550 OA
ENDBRANCH  21  22
ENDBRANCH  20  21
ENDBRANCH  19  20
ENDBRANCH  18  19
ENDBRANCH  17  18
ENDBRANCH  16  17
ENDBRANCH  15  16
ENDBRANCH  14  15
ENDBRANCH  13  14
ENDBRANCH   1  13
TORSDOF 20
ENDMDL
MODEL 7
REMARK VINA RESULT:    -4.020      2.078      4.036
REMARK INTER + INTRA:         -11.283
REMARK INTER:                  -8.738
REMARK INTRA:                  -2.546
REMARK UNBOUND:                -2.564
REMARK SMILES CCCCCCCCCCCCCCCCCCCCCC(=O)[O-]
REMARK SMILES IDX 12 1 11 2 10 3 9 4 8 5 7 6 6 7 5 8 4 9 3 10 2 11 1 12 13 13
REMARK SMILES IDX 14 14 15 15 16 16 17 17 18 18 19 19 20 20 21 21 22 22 23 23
REMARK SMILES IDX 24 24
REMARK H PARENT
REMARK Flexibility Score: inf
ROOT
ATOM      1  C   UNL     1      18.399 129.777  59.418  1.00  0.00     0.000 C 
ENDROOT
BRANCH   1   2
ATOM      2  C   UNL     1      18.493 129.937  60.946  1.00  0.00     0.000 C 
BRANCH   2   3
ATOM      3  C   UNL     1      17.527 130.970  61.554  1.00  0.00     0.000 C 
BRANCH   3   4
ATOM      4  C   UNL     1      16.257 130.330  62.141  1.00  0.00    -0.000 C 
BRANCH   4   5
ATOM      5  C   UNL     1      15.992 130.772  63.590  1.00  0.00    -0.000 C 
BRANCH   5   6
ATOM      6  C   UNL     1      17.288 130.909  64.409  1.00  0.00    -0.000 C 
BRANCH   6   7
ATOM      7  C   UNL     1      17.542 129.699  65.322  1.00  0.00    -0.000 C 
BRANCH   7   8
ATOM      8  C   UNL     1      18.488 128.665  64.688  1.00  0.00    -0.000 C 
BRANCH   8   9
ATOM      9  C   UNL     1      17.740 127.479  64.053  1.00  0.00    -0.000 C 
BRANCH   9  10
ATOM     10  C   UNL     1      18.487 126.768  62.905  1.00  0.00    -0.000 C 
BRANCH  10  11
ATOM     11  C   UNL     1      18.289 125.244  62.846  1.00  0.00    -0.003 C 
ATOM     12  C   UNL     1      19.561 124.493  62.451  1.00  0.00     0.004 C 
ENDBRANCH  10  11
ENDBRANCH   9  10
ENDBRANCH   8   9
ENDBRANCH   7   8
ENDBRANCH   6   7
ENDBRANCH   5   6
ENDBRANCH   4   5
ENDBRANCH   3   4
ENDBRANCH   2   3
ENDBRANCH   1   2
BRANCH   1  13
ATOM     13  C   UNL     1      17.696 130.964  58.735  1.00  0.00     0.000 C 
BRANCH  13  14
ATOM     14  C   UNL     1      16.424 130.542  57.983  1.00  0.00     0.000 C 
BRANCH  14  15
ATOM     15  C   UNL     1      16.131 129.038  58.124  1.00  0.00     0.000 C 
BRANCH  15  16
ATOM     16  C   UNL     1      15.631 128.400  56.816  1.00  0.00     0.000 C 
BRANCH  16  17
ATOM     17  C   UNL     1      16.738 127.887  55.873  1.00  0.00     0.000 C 
BRANCH  17  18
ATOM     18  C   UNL     1      16.611 128.347  54.407  1.00  0.00     0.000 C 
BRANCH  18  19
ATOM     19  C   UNL     1      17.704 129.327  53.935  1.00  0.00     0.000 C 
BRANCH  19  20
ATOM     20  C   UNL     1      18.964 129.371  54.819  1.00  0.00     0.006 C 
BRANCH  20  21
ATOM     21  C   UNL     1      19.151 130.720  55.525  1.00  0.00     0.053 C 
BRANCH  21  22
ATOM     22  C   UNL     1      19.982 131.638  54.685  1.00  0.00     0.041 C 
ATOM     23  O   UNL     1      21.229 131.692  54.851  1.00  0.00    -0.550 OA
ATOM     24  O   UNL     1      19.374 132.472  53.756  1.00  0.00    -0.550 OA
ENDBRANCH  21  22
ENDBRANCH  20  21
ENDBRANCH  19  20
ENDBRANCH  18  19
ENDBRANCH  17  18
ENDBRANCH  16  17
ENDBRANCH  15  16
ENDBRANCH  14  15
ENDBRANCH  13  14
ENDBRANCH   1  13
TORSDOF 20
ENDMDL
MODEL 8
REMARK VINA RESULT:    -3.996      3.156      6.850
REMARK INTER + INTRA:         -11.232
REMARK INTER:                  -6.706
REMARK INTRA:                  -4.526
REMARK UNBOUND:                -2.564
REMARK SMILES CCCCCCCCCCCCCCCCCCCCCC(=O)[O-]
REMARK SMILES IDX 12 1 11 2 10 3 9 4 8 5 7 6 6 7 5 8 4 9 3 10 2 11 1 12 13 13
REMARK SMILES IDX 14 14 15 15 16 16 17 17 18 18 19 19 20 20 21 21 22 22 23 23
REMARK SMILES IDX 24 24
REMARK H PARENT
REMARK Flexibility Score: inf
ROOT
ATOM      1  C   UNL     1      14.788 131.896  56.660  1.00  0.00     0.000 C 
ENDROOT
BRANCH   1   2
ATOM      2  C   UNL     1      15.948 131.018  57.163  1.00  0.00     0.000 C 
BRANCH   2   3
ATOM      3  C   UNL     1      15.626 129.516  57.277  1.00  0.00     0.000 C 
BRANCH   3   4
ATOM      4  C   UNL     1      16.838 128.619  56.969  1.00  0.00    -0.000 C 
BRANCH   4   5
ATOM      5  C   UNL     1      18.066 129.425  56.513  1.00  0.00    -0.000 C 
BRANCH   5   6
ATOM      6  C   UNL     1      18.714 128.841  55.245  1.00  0.00    -0.000 C 
BRANCH   6   7
ATOM      7  C   UNL     1      18.561 129.762  54.024  1.00  0.00    -0.000 C 
BRANCH   7   8
ATOM      8  C   UNL     1      17.714 129.129  52.906  1.00  0.00    -0.000 C 
BRANCH   8   9
ATOM      9  C   UNL     1      16.954 127.874  53.369  1.00  0.00    -0.000 C 
BRANCH   9  10
ATOM     10  C   UNL     1      15.435 128.062  53.570  1.00  0.00    -0.000 C 
BRANCH  10  11
ATOM     11  C   UNL     1      14.924 129.497  53.361  1.00  0.00    -0.003 C 
ATOM     12  C   UNL     1      13.549 129.737  53.986  1.00  0.00     0.004 C 
ENDBRANCH  10  11
ENDBRANCH   9  10
ENDBRANCH   8   9
ENDBRANCH   7   8
ENDBRANCH   6   7
ENDBRANCH   5   6
ENDBRANCH   4   5
ENDBRANCH   3   4
ENDBRANCH   2   3
ENDBRANCH   1   2
BRANCH   1  13
ATOM     13  C   UNL     1      15.259 133.047  55.754  1.00  0.00     0.000 C 
BRANCH  13  14
ATOM     14  C   UNL     1      16.378 132.618  54.791  1.00  0.00     0.000 C 
BRANCH  14  15
ATOM     15  C   UNL     1      17.391 133.746  54.530  1.00  0.00     0.000 C 
BRANCH  15  16
ATOM     16  C   UNL     1      18.853 133.288  54.691  1.00  0.00     0.000 C 
BRANCH  16  17
ATOM     17  C   UNL     1      19.376 133.267  56.141  1.00  0.00     0.000 C 
BRANCH  17  18
ATOM     18  C   UNL     1      18.697 134.271  57.094  1.00  0.00     0.000 C 
BRANCH  18  19
ATOM     19  C   UNL     1      18.165 133.665  58.408  1.00  0.00     0.000 C 
BRANCH  19  20
ATOM     20  C   UNL     1      18.827 132.340  58.828  1.00  0.00     0.006 C 
BRANCH  20  21
ATOM     21  C   UNL     1      18.272 131.787  60.146  1.00  0.00     0.053 C 
BRANCH  21  22
ATOM     22  C   UNL     1      18.451 130.303  60.207  1.00  0.00     0.041 C 
ATOM     23  O   UNL     1      19.594 129.796  60.056  1.00  0.00    -0.550 OA
ATOM     24  O   UNL     1      17.349 129.476  60.377  1.00  0.00    -0.550 OA
ENDBRANCH  21  22
ENDBRANCH  20  21
ENDBRANCH  19  20
ENDBRANCH  18  19
ENDBRANCH  17  18
ENDBRANCH  16  17
ENDBRANCH  15  16
ENDBRANCH  14  15
ENDBRANCH  13  14
ENDBRANCH   1  13
TORSDOF 20
ENDMDL
MODEL 9
REMARK VINA RESULT:    -3.933      1.774      3.476
REMARK INTER + INTRA:         -11.094
REMARK INTER:                  -7.804
REMARK INTRA:                  -3.290
REMARK UNBOUND:                -2.564
REMARK SMILES CCCCCCCCCCCCCCCCCCCCCC(=O)[O-]
REMARK SMILES IDX 12 1 11 2 10 3 9 4 8 5 7 6 6 7 5 8 4 9 3 10 2 11 1 12 13 13
REMARK SMILES IDX 14 14 15 15 16 16 17 17 18 18 19 19 20 20 21 21 22 22 23 23
REMARK SMILES IDX 24 24
REMARK H PARENT
REMARK Flexibility Score: inf
ROOT
ATOM      1  C   UNL     1      16.055 129.053  57.892  1.00  0.00     0.000 C 
ENDROOT
BRANCH   1   2
ATOM      2  C   UNL     1      15.327 128.254  58.988  1.00  0.00     0.000 C 
BRANCH   2   3
ATOM      3  C   UNL     1      15.587 128.736  60.427  1.00  0.00     0.000 C 
BRANCH   3   4
ATOM      4  C   UNL     1      15.898 130.241  60.508  1.00  0.00    -0.000 C 
BRANCH   4   5
ATOM      5  C   UNL     1      17.258 130.525  61.168  1.00  0.00    -0.000 C 
BRANCH   5   6
ATOM      6  C   UNL     1      18.408 129.752  60.501  1.00  0.00    -0.000 C 
BRANCH   6   7
ATOM      7  C   UNL     1      19.292 129.012  61.518  1.00  0.00    -0.000 C 
BRANCH   7   8
ATOM      8  C   UNL     1      18.519 128.590  62.779  1.00  0.00    -0.000 C 
BRANCH   8   9
ATOM      9  C   UNL     1      18.158 127.094  62.787  1.00  0.00    -0.000 C 
BRANCH   9  10
ATOM     10  C   UNL     1      16.810 126.746  63.452  1.00  0.00    -0.000 C 
BRANCH  10  11
ATOM     11  C   UNL     1      15.980 127.956  63.913  1.00  0.00    -0.003 C 
ATOM     12  C   UNL     1      15.301 127.734  65.264  1.00  0.00     0.004 C 
ENDBRANCH  10  11
ENDBRANCH   9  10
ENDBRANCH   8   9
ENDBRANCH   7   8
ENDBRANCH   6   7
ENDBRANCH   5   6
ENDBRANCH   4   5
ENDBRANCH   3   4
ENDBRANCH   2   3
ENDBRANCH   1   2
BRANCH   1  13
ATOM     13  C   UNL     1      15.091 129.700  56.883  1.00  0.00     0.000 C 
BRANCH  13  14
ATOM     14  C   UNL     1      15.423 131.177  56.614  1.00  0.00     0.000 C 
BRANCH  14  15
ATOM     15  C   UNL     1      16.797 131.580  57.177  1.00  0.00     0.000 C 
BRANCH  15  16
ATOM     16  C   UNL     1      17.726 132.191  56.111  1.00  0.00     0.000 C 
BRANCH  16  17
ATOM     17  C   UNL     1      19.125 131.551  56.017  1.00  0.00     0.000 C 
BRANCH  17  18
ATOM     18  C   UNL     1      19.232 130.129  56.601  1.00  0.00     0.000 C 
BRANCH  18  19
ATOM     19  C   UNL     1      19.270 128.997  55.555  1.00  0.00     0.000 C 
BRANCH  19  20
ATOM     20  C   UNL     1      18.188 129.082  54.463  1.00  0.00     0.006 C 
BRANCH  20  21
ATOM     21  C   UNL     1      17.251 127.868  54.456  1.00  0.00     0.053 C 
BRANCH  21  22
ATOM     22  C   UNL     1      16.258 127.982  53.343  1.00  0.00     0.041 C 
ATOM     23  O   UNL     1      16.636 127.893  52.145  1.00  0.00    -0.550 OA
ATOM     24  O   UNL     1      14.922 128.239  53.625  1.00  0.00    -0.550 OA
ENDBRANCH  21  22
ENDBRANCH  20  21
ENDBRANCH  19  20
ENDBRANCH  18  19
ENDBRANCH  17  18
ENDBRANCH  16  17
ENDBRANCH  15  16
ENDBRANCH  14  15
ENDBRANCH  13  14
ENDBRANCH   1  13
TORSDOF 20
ENDMDL
