MODEL 1
REMARK VINA RESULT:    -7.591      0.000      0.000
REMARK INTER + INTRA:          -9.865
REMARK INTER:                  -9.588
REMARK INTRA:                  -0.277
REMARK UNBOUND:                -0.277
REMARK SMILES Oc1cc(O)cc(CCc2ccccc2O)c1
REMARK SMILES IDX 9 1 10 2 12 3 13 4 11 5 14 6 15 7 16 8 8 10 7 11 6 12 17 13
REMARK SMILES IDX 4 14 2 15 3 16 5 17 1 19
REMARK H PARENT 16 9 5 18 1 20
REMARK Flexibility Score: inf
ROOT
ATOM      1  C   UNL     1     -11.016  -1.532  -9.985  1.00  0.00     0.044 C 
ENDROOT
BRANCH   1   2
ATOM      2  C   UNL     1     -12.297  -0.736  -9.996  1.00  0.00    -0.006 A 
ATOM      3  C   UNL     1     -14.635  -0.541 -10.637  1.00  0.00     0.001 A 
ATOM      4  C   UNL     1     -14.682   0.746 -10.098  1.00  0.00     0.004 A 
ATOM      5  C   UNL     1     -13.449  -1.279 -10.592  1.00  0.00     0.007 A 
ATOM      6  C   UNL     1     -13.539   1.301  -9.517  1.00  0.00     0.046 A 
ATOM      7  C   UNL     1     -12.343   0.571  -9.468  1.00  0.00     0.118 A 
BRANCH   7   8
ATOM      8  O   UNL     1     -11.203   1.139  -8.898  1.00  0.00    -0.508 OA
ATOM      9  H   UNL     1     -10.818   0.796  -8.026  1.00  0.00     0.293 HD
ENDBRANCH   7   8
ENDBRANCH   1   2
BRANCH   1  10
ATOM     10  C   UNL     1     -10.569  -1.812  -8.547  1.00  0.00     0.040 C 
BRANCH  10  11
ATOM     11  C   UNL     1     -10.726  -3.273  -8.220  1.00  0.00    -0.040 A 
ATOM     12  C   UNL     1     -10.939  -4.209  -9.245  1.00  0.00     0.050 A 
ATOM     13  C   UNL     1     -10.602  -3.718  -6.895  1.00  0.00     0.050 A 
ATOM     14  C   UNL     1     -11.051  -5.573  -8.945  1.00  0.00     0.119 A 
ATOM     15  C   UNL     1     -10.714  -5.079  -6.592  1.00  0.00     0.119 A 
ATOM     16  C   UNL     1     -10.942  -6.005  -7.619  1.00  0.00     0.092 A 
BRANCH  14  17
ATOM     17  O   UNL     1     -11.271  -6.507  -9.955  1.00  0.00    -0.508 OA
ATOM     18  H   UNL     1     -11.524  -7.465  -9.745  1.00  0.00     0.293 HD
ENDBRANCH  14  17
BRANCH  15  19
ATOM     19  O   UNL     1     -10.595  -5.501  -5.270  1.00  0.00    -0.508 OA
ATOM     20  H   UNL     1     -11.385  -5.884  -4.763  1.00  0.00     0.293 HD
ENDBRANCH  15  19
ENDBRANCH  10  11
ENDBRANCH   1  10
TORSDOF 6
ENDMDL
MODEL 2
REMARK VINA RESULT:    -7.561      0.087      2.036
REMARK INTER + INTRA:          -9.827
REMARK INTER:                  -9.527
REMARK INTRA:                  -0.300
REMARK UNBOUND:                -0.277
REMARK SMILES Oc1cc(O)cc(CCc2ccccc2O)c1
REMARK SMILES IDX 9 1 10 2 12 3 13 4 11 5 14 6 15 7 16 8 8 10 7 11 6 12 17 13
REMARK SMILES IDX 4 14 2 15 3 16 5 17 1 19
REMARK H PARENT 16 9 5 18 1 20
REMARK Flexibility Score: inf
ROOT
ATOM      1  C   UNL     1     -11.014  -1.493  -9.987  1.00  0.00     0.044 C 
ENDROOT
BRANCH   1   2
ATOM      2  C   UNL     1     -12.318  -0.736 -10.017  1.00  0.00    -0.006 A 
ATOM      3  C   UNL     1     -14.658  -0.620 -10.669  1.00  0.00     0.001 A 
ATOM      4  C   UNL     1     -14.744   0.673 -10.151  1.00  0.00     0.004 A 
ATOM      5  C   UNL     1     -13.450  -1.322 -10.608  1.00  0.00     0.007 A 
ATOM      6  C   UNL     1     -13.622   1.271  -9.574  1.00  0.00     0.046 A 
ATOM      7  C   UNL     1     -12.405   0.577  -9.509  1.00  0.00     0.118 A 
BRANCH   7   8
ATOM      8  O   UNL     1     -11.284   1.187  -8.944  1.00  0.00    -0.508 OA
ATOM      9  H   UNL     1     -10.446   0.661  -8.726  1.00  0.00     0.293 HD
ENDBRANCH   7   8
ENDBRANCH   1   2
BRANCH   1  10
ATOM     10  C   UNL     1     -10.578  -1.760  -8.544  1.00  0.00     0.040 C 
BRANCH  10  11
ATOM     11  C   UNL     1     -10.647  -3.230  -8.233  1.00  0.00    -0.040 A 
ATOM     12  C   UNL     1     -10.564  -3.678  -6.905  1.00  0.00     0.050 A 
ATOM     13  C   UNL     1     -10.853  -4.162  -9.263  1.00  0.00     0.050 A 
ATOM     14  C   UNL     1     -10.662  -5.045  -6.612  1.00  0.00     0.119 A 
ATOM     15  C   UNL     1     -10.951  -5.527  -8.974  1.00  0.00     0.119 A 
ATOM     16  C   UNL     1     -10.852  -5.967  -7.647  1.00  0.00     0.092 A 
BRANCH  14  17
ATOM     17  O   UNL     1     -10.572  -5.497  -5.297  1.00  0.00    -0.508 OA
ATOM     18  H   UNL     1      -9.742  -5.338  -4.738  1.00  0.00     0.293 HD
ENDBRANCH  14  17
BRANCH  15  19
ATOM     19  O   UNL     1     -11.149  -6.437 -10.010  1.00  0.00    -0.508 OA
ATOM     20  H   UNL     1     -10.390  -7.007 -10.366  1.00  0.00     0.293 HD
ENDBRANCH  15  19
ENDBRANCH  10  11
ENDBRANCH   1  10
TORSDOF 6
ENDMDL
MODEL 3
REMARK VINA RESULT:    -7.423      1.601      1.884
REMARK INTER + INTRA:          -9.654
REMARK INTER:                  -9.217
REMARK INTRA:                  -0.437
REMARK UNBOUND:                -0.277
REMARK SMILES Oc1cc(O)cc(CCc2ccccc2O)c1
REMARK SMILES IDX 9 1 10 2 12 3 13 4 11 5 14 6 15 7 16 8 8 10 7 11 6 12 17 13
REMARK SMILES IDX 4 14 2 15 3 16 5 17 1 19
REMARK H PARENT 16 9 5 18 1 20
REMARK Flexibility Score: inf
ROOT
ATOM      1  C   UNL     1     -11.759  -1.000 -10.185  1.00  0.00     0.044 C 
ENDROOT
BRANCH   1   2
ATOM      2  C   UNL     1     -12.824   0.039  -9.939  1.00  0.00    -0.006 A 
ATOM      3  C   UNL     1     -15.125   0.782 -10.200  1.00  0.00     0.001 A 
ATOM      4  C   UNL     1     -14.816   1.983  -9.560  1.00  0.00     0.004 A 
ATOM      5  C   UNL     1     -14.135  -0.185 -10.394  1.00  0.00     0.007 A 
ATOM      6  C   UNL     1     -13.513   2.224  -9.117  1.00  0.00     0.046 A 
ATOM      7  C   UNL     1     -12.511   1.261  -9.307  1.00  0.00     0.118 A 
BRANCH   7   8
ATOM      8  O   UNL     1     -11.210   1.515  -8.874  1.00  0.00    -0.508 OA
ATOM      9  H   UNL     1     -10.521   0.776  -8.799  1.00  0.00     0.293 HD
ENDBRANCH   7   8
ENDBRANCH   1   2
BRANCH   1  10
ATOM     10  C   UNL     1     -12.329  -2.409  -9.998  1.00  0.00     0.040 C 
BRANCH  10  11
ATOM     11  C   UNL     1     -11.346  -3.284  -9.269  1.00  0.00    -0.040 A 
ATOM     12  C   UNL     1     -11.709  -4.583  -8.877  1.00  0.00     0.050 A 
ATOM     13  C   UNL     1     -10.039  -2.832  -9.026  1.00  0.00     0.050 A 
ATOM     14  C   UNL     1     -10.784  -5.411  -8.227  1.00  0.00     0.119 A 
ATOM     15  C   UNL     1      -9.114  -3.656  -8.378  1.00  0.00     0.119 A 
ATOM     16  C   UNL     1      -9.489  -4.945  -7.976  1.00  0.00     0.092 A 
BRANCH  14  17
ATOM     17  O   UNL     1     -11.139  -6.698  -7.828  1.00  0.00    -0.508 OA
ATOM     18  H   UNL     1     -12.013  -6.881  -7.347  1.00  0.00     0.293 HD
ENDBRANCH  14  17
BRANCH  15  19
ATOM     19  O   UNL     1      -7.824  -3.186  -8.140  1.00  0.00    -0.508 OA
ATOM     20  H   UNL     1      -7.086  -3.803  -7.818  1.00  0.00     0.293 HD
ENDBRANCH  15  19
ENDBRANCH  10  11
ENDBRANCH   1  10
TORSDOF 6
ENDMDL
MODEL 4
REMARK VINA RESULT:    -7.359      1.657      2.347
REMARK INTER + INTRA:          -9.572
REMARK INTER:                  -9.125
REMARK INTRA:                  -0.447
REMARK UNBOUND:                -0.277
REMARK SMILES Oc1cc(O)cc(CCc2ccccc2O)c1
REMARK SMILES IDX 9 1 10 2 12 3 13 4 11 5 14 6 15 7 16 8 8 10 7 11 6 12 17 13
REMARK SMILES IDX 4 14 2 15 3 16 5 17 1 19
REMARK H PARENT 16 9 5 18 1 20
REMARK Flexibility Score: inf
ROOT
ATOM      1  C   UNL     1     -11.545  -0.254  -9.659  1.00  0.00     0.044 C 
ENDROOT
BRANCH   1   2
ATOM      2  C   UNL     1     -12.702   0.707  -9.544  1.00  0.00    -0.006 A 
ATOM      3  C   UNL     1     -15.046   1.219  -9.942  1.00  0.00     0.001 A 
ATOM      4  C   UNL     1     -14.863   2.497  -9.410  1.00  0.00     0.004 A 
ATOM      5  C   UNL     1     -13.971   0.329 -10.015  1.00  0.00     0.007 A 
ATOM      6  C   UNL     1     -13.603   2.889  -8.953  1.00  0.00     0.046 A 
ATOM      7  C   UNL     1     -12.517   2.004  -9.022  1.00  0.00     0.118 A 
BRANCH   7   8
ATOM      8  O   UNL     1     -11.259   2.409  -8.576  1.00  0.00    -0.508 OA
ATOM      9  H   UNL     1     -11.050   2.503  -7.589  1.00  0.00     0.293 HD
ENDBRANCH   7   8
ENDBRANCH   1   2
BRANCH   1  10
ATOM     10  C   UNL     1     -12.034  -1.635 -10.105  1.00  0.00     0.040 C 
BRANCH  10  11
ATOM     11  C   UNL     1     -11.190  -2.718  -9.493  1.00  0.00    -0.040 A 
ATOM     12  C   UNL     1      -9.859  -2.458  -9.128  1.00  0.00     0.050 A 
ATOM     13  C   UNL     1     -11.742  -3.982  -9.228  1.00  0.00     0.050 A 
ATOM     14  C   UNL     1      -9.082  -3.457  -8.526  1.00  0.00     0.119 A 
ATOM     15  C   UNL     1     -10.969  -4.981  -8.629  1.00  0.00     0.119 A 
ATOM     16  C   UNL     1      -9.637  -4.717  -8.281  1.00  0.00     0.092 A 
BRANCH  14  17
ATOM     17  O   UNL     1      -7.759  -3.208  -8.168  1.00  0.00    -0.508 OA
ATOM     18  H   UNL     1      -7.507  -2.416  -7.588  1.00  0.00     0.293 HD
ENDBRANCH  14  17
BRANCH  15  19
ATOM     19  O   UNL     1     -11.533  -6.230  -8.380  1.00  0.00    -0.508 OA
ATOM     20  H   UNL     1     -11.053  -6.926  -7.820  1.00  0.00     0.293 HD
ENDBRANCH  15  19
ENDBRANCH  10  11
ENDBRANCH   1  10
TORSDOF 6
ENDMDL
MODEL 5
REMARK VINA RESULT:    -6.785      1.517      6.192
REMARK INTER + INTRA:          -8.848
REMARK INTER:                  -8.584
REMARK INTRA:                  -0.263
REMARK UNBOUND:                -0.277
REMARK SMILES Oc1cc(O)cc(CCc2ccccc2O)c1
REMARK SMILES IDX 9 1 10 2 12 3 13 4 11 5 14 6 15 7 16 8 8 10 7 11 6 12 17 13
REMARK SMILES IDX 4 14 2 15 3 16 5 17 1 19
REMARK H PARENT 16 9 5 18 1 20
REMARK Flexibility Score: inf
ROOT
ATOM      1  C   UNL     1      -9.981  -3.217  -8.424  1.00  0.00     0.044 C 
ENDROOT
BRANCH   1   2
ATOM      2  C   UNL     1     -10.429  -4.471  -7.717  1.00  0.00    -0.006 A 
ATOM      3  C   UNL     1     -11.494  -5.529  -5.804  1.00  0.00     0.001 A 
ATOM      4  C   UNL     1     -11.218  -6.789  -6.339  1.00  0.00     0.004 A 
ATOM      5  C   UNL     1     -11.098  -4.375  -6.485  1.00  0.00     0.007 A 
ATOM      6  C   UNL     1     -10.541  -6.897  -7.556  1.00  0.00     0.046 A 
ATOM      7  C   UNL     1     -10.138  -5.745  -8.248  1.00  0.00     0.118 A 
BRANCH   7   8
ATOM      8  O   UNL     1      -9.450  -5.863  -9.455  1.00  0.00    -0.508 OA
ATOM      9  H   UNL     1      -8.437  -5.883  -9.490  1.00  0.00     0.293 HD
ENDBRANCH   7   8
ENDBRANCH   1   2
BRANCH   1  10
ATOM     10  C   UNL     1     -10.688  -3.077  -9.775  1.00  0.00     0.040 C 
BRANCH  10  11
ATOM     11  C   UNL     1     -11.508  -1.816  -9.814  1.00  0.00    -0.040 A 
ATOM     12  C   UNL     1     -12.812  -1.835 -10.333  1.00  0.00     0.050 A 
ATOM     13  C   UNL     1     -10.996  -0.622  -9.280  1.00  0.00     0.050 A 
ATOM     14  C   UNL     1     -13.588  -0.667 -10.340  1.00  0.00     0.119 A 
ATOM     15  C   UNL     1     -11.768   0.544  -9.285  1.00  0.00     0.119 A 
ATOM     16  C   UNL     1     -13.064   0.520  -9.819  1.00  0.00     0.092 A 
BRANCH  14  17
ATOM     17  O   UNL     1     -14.880  -0.677 -10.861  1.00  0.00    -0.508 OA
ATOM     18  H   UNL     1     -15.437  -1.524 -10.882  1.00  0.00     0.293 HD
ENDBRANCH  14  17
BRANCH  15  19
ATOM     19  O   UNL     1     -11.241   1.720  -8.757  1.00  0.00    -0.508 OA
ATOM     20  H   UNL     1     -11.110   2.546  -9.329  1.00  0.00     0.293 HD
ENDBRANCH  15  19
ENDBRANCH  10  11
ENDBRANCH   1  10
TORSDOF 6
ENDMDL
MODEL 6
REMARK VINA RESULT:    -6.773      1.526      6.381
REMARK INTER + INTRA:          -8.832
REMARK INTER:                  -8.550
REMARK INTRA:                  -0.282
REMARK UNBOUND:                -0.277
REMARK SMILES Oc1cc(O)cc(CCc2ccccc2O)c1
REMARK SMILES IDX 9 1 10 2 12 3 13 4 11 5 14 6 15 7 16 8 8 10 7 11 6 12 17 13
REMARK SMILES IDX 4 14 2 15 3 16 5 17 1 19
REMARK H PARENT 16 9 5 18 1 20
REMARK Flexibility Score: inf
ROOT
ATOM      1  C   UNL     1      -9.890  -3.225  -8.461  1.00  0.00     0.044 C 
ENDROOT
BRANCH   1   2
ATOM      2  C   UNL     1     -10.379  -4.466  -7.758  1.00  0.00    -0.006 A 
ATOM      3  C   UNL     1     -11.471  -5.496  -5.844  1.00  0.00     0.001 A 
ATOM      4  C   UNL     1     -11.241  -6.761  -6.386  1.00  0.00     0.004 A 
ATOM      5  C   UNL     1     -11.039  -4.352  -6.522  1.00  0.00     0.007 A 
ATOM      6  C   UNL     1     -10.573  -6.888  -7.606  1.00  0.00     0.046 A 
ATOM      7  C   UNL     1     -10.134  -5.748  -8.295  1.00  0.00     0.118 A 
BRANCH   7   8
ATOM      8  O   UNL     1      -9.456  -5.883  -9.506  1.00  0.00    -0.508 OA
ATOM      9  H   UNL     1      -9.774  -5.417 -10.348  1.00  0.00     0.293 HD
ENDBRANCH   7   8
ENDBRANCH   1   2
BRANCH   1  10
ATOM     10  C   UNL     1     -10.608  -3.049  -9.803  1.00  0.00     0.040 C 
BRANCH  10  11
ATOM     11  C   UNL     1     -11.476  -1.820  -9.781  1.00  0.00    -0.040 A 
ATOM     12  C   UNL     1     -10.978  -0.611  -9.269  1.00  0.00     0.050 A 
ATOM     13  C   UNL     1     -12.769  -1.857 -10.325  1.00  0.00     0.050 A 
ATOM     14  C   UNL     1     -11.775   0.543  -9.279  1.00  0.00     0.119 A 
ATOM     15  C   UNL     1     -13.566  -0.708 -10.336  1.00  0.00     0.119 A 
ATOM     16  C   UNL     1     -13.067   0.491  -9.809  1.00  0.00     0.092 A 
BRANCH  14  17
ATOM     17  O   UNL     1     -11.290   1.744  -8.765  1.00  0.00    -0.508 OA
ATOM     18  H   UNL     1     -11.828   2.601  -8.826  1.00  0.00     0.293 HD
ENDBRANCH  14  17
BRANCH  15  19
ATOM     19  O   UNL     1     -14.850  -0.767 -10.874  1.00  0.00    -0.508 OA
ATOM     20  H   UNL     1     -15.100  -0.243 -11.705  1.00  0.00     0.293 HD
ENDBRANCH  15  19
ENDBRANCH  10  11
ENDBRANCH   1  10
TORSDOF 6
ENDMDL
MODEL 7
REMARK VINA RESULT:    -6.324     17.206     18.490
REMARK INTER + INTRA:          -8.265
REMARK INTER:                  -7.849
REMARK INTRA:                  -0.416
REMARK UNBOUND:                -0.277
REMARK SMILES Oc1cc(O)cc(CCc2ccccc2O)c1
REMARK SMILES IDX 9 1 10 2 12 3 13 4 11 5 14 6 15 7 16 8 8 10 7 11 6 12 17 13
REMARK SMILES IDX 4 14 2 15 3 16 5 17 1 19
REMARK H PARENT 16 9 5 18 1 20
REMARK Flexibility Score: inf
ROOT
ATOM      1  C   UNL     1      -9.042   7.782   5.528  1.00  0.00     0.044 C 
ENDROOT
BRANCH   1   2
ATOM      2  C   UNL     1      -8.340   9.102   5.724  1.00  0.00    -0.006 A 
ATOM      3  C   UNL     1      -6.288  10.406   5.699  1.00  0.00     0.001 A 
ATOM      4  C   UNL     1      -6.988  11.528   6.147  1.00  0.00     0.004 A 
ATOM      5  C   UNL     1      -6.957   9.197   5.492  1.00  0.00     0.007 A 
ATOM      6  C   UNL     1      -8.360  11.441   6.395  1.00  0.00     0.046 A 
ATOM      7  C   UNL     1      -9.042  10.232   6.192  1.00  0.00     0.118 A 
BRANCH   7   8
ATOM      8  O   UNL     1     -10.409  10.151   6.456  1.00  0.00    -0.508 OA
ATOM      9  H   UNL     1     -11.101  10.378   5.750  1.00  0.00     0.293 HD
ENDBRANCH   7   8
ENDBRANCH   1   2
BRANCH   1  10
ATOM     10  C   UNL     1      -8.914   6.911   6.781  1.00  0.00     0.040 C 
BRANCH  10  11
ATOM     11  C   UNL     1      -9.849   5.735   6.707  1.00  0.00    -0.040 A 
ATOM     12  C   UNL     1     -10.154   4.999   7.863  1.00  0.00     0.050 A 
ATOM     13  C   UNL     1     -10.469   5.400   5.493  1.00  0.00     0.050 A 
ATOM     14  C   UNL     1     -11.052   3.924   7.801  1.00  0.00     0.119 A 
ATOM     15  C   UNL     1     -11.365   4.328   5.428  1.00  0.00     0.119 A 
ATOM     16  C   UNL     1     -11.652   3.589   6.583  1.00  0.00     0.092 A 
BRANCH  14  17
ATOM     17  O   UNL     1     -11.353   3.184   8.942  1.00  0.00    -0.508 OA
ATOM     18  H   UNL     1     -12.307   2.929   9.172  1.00  0.00     0.293 HD
ENDBRANCH  14  17
BRANCH  15  19
ATOM     19  O   UNL     1     -11.965   4.006   4.212  1.00  0.00    -0.508 OA
ATOM     20  H   UNL     1     -11.537   3.352   3.567  1.00  0.00     0.293 HD
ENDBRANCH  15  19
ENDBRANCH  10  11
ENDBRANCH   1  10
TORSDOF 6
ENDMDL
MODEL 8
REMARK VINA RESULT:    -6.313     17.240     18.425
REMARK INTER + INTRA:          -8.251
REMARK INTER:                  -7.839
REMARK INTRA:                  -0.412
REMARK UNBOUND:                -0.277
REMARK SMILES Oc1cc(O)cc(CCc2ccccc2O)c1
REMARK SMILES IDX 9 1 10 2 12 3 13 4 11 5 14 6 15 7 16 8 8 10 7 11 6 12 17 13
REMARK SMILES IDX 4 14 2 15 3 16 5 17 1 19
REMARK H PARENT 16 9 5 18 1 20
REMARK Flexibility Score: inf
ROOT
ATOM      1  C   UNL     1      -9.108   7.828   5.698  1.00  0.00     0.044 C 
ENDROOT
BRANCH   1   2
ATOM      2  C   UNL     1      -8.340   9.104   5.936  1.00  0.00    -0.006 A 
ATOM      3  C   UNL     1      -6.394  10.235   6.857  1.00  0.00     0.001 A 
ATOM      4  C   UNL     1      -6.915  11.468   6.458  1.00  0.00     0.004 A 
ATOM      5  C   UNL     1      -7.103   9.058   6.603  1.00  0.00     0.007 A 
ATOM      6  C   UNL     1      -8.150  11.527   5.808  1.00  0.00     0.046 A 
ATOM      7  C   UNL     1      -8.870  10.352   5.549  1.00  0.00     0.118 A 
BRANCH   7   8
ATOM      8  O   UNL     1     -10.109  10.421   4.911  1.00  0.00    -0.508 OA
ATOM      9  H   UNL     1     -10.729   9.621   4.867  1.00  0.00     0.293 HD
ENDBRANCH   7   8
ENDBRANCH   1   2
BRANCH   1  10
ATOM     10  C   UNL     1      -8.925   6.862   6.872  1.00  0.00     0.040 C 
BRANCH  10  11
ATOM     11  C   UNL     1      -9.908   5.726   6.781  1.00  0.00    -0.040 A 
ATOM     12  C   UNL     1     -10.470   5.375   5.543  1.00  0.00     0.050 A 
ATOM     13  C   UNL     1     -10.226   4.972   7.921  1.00  0.00     0.050 A 
ATOM     14  C   UNL     1     -11.359   4.295   5.451  1.00  0.00     0.119 A 
ATOM     15  C   UNL     1     -11.113   3.895   7.833  1.00  0.00     0.119 A 
ATOM     16  C   UNL     1     -11.681   3.560   6.596  1.00  0.00     0.092 A 
BRANCH  14  17
ATOM     17  O   UNL     1     -11.927   3.945   4.228  1.00  0.00    -0.508 OA
ATOM     18  H   UNL     1     -12.746   3.351   4.175  1.00  0.00     0.293 HD
ENDBRANCH  14  17
BRANCH  15  19
ATOM     19  O   UNL     1     -11.422   3.163   8.977  1.00  0.00    -0.508 OA
ATOM     20  H   UNL     1     -10.714   2.932   9.665  1.00  0.00     0.293 HD
ENDBRANCH  15  19
ENDBRANCH  10  11
ENDBRANCH   1  10
TORSDOF 6
ENDMDL
MODEL 9
REMARK VINA RESULT:    -6.237     17.926     19.644
REMARK INTER + INTRA:          -8.155
REMARK INTER:                  -7.745
REMARK INTRA:                  -0.409
REMARK UNBOUND:                -0.277
REMARK SMILES Oc1cc(O)cc(CCc2ccccc2O)c1
REMARK SMILES IDX 9 1 10 2 12 3 13 4 11 5 14 6 15 7 16 8 8 10 7 11 6 12 17 13
REMARK SMILES IDX 4 14 2 15 3 16 5 17 1 19
REMARK H PARENT 16 9 5 18 1 20
REMARK Flexibility Score: inf
ROOT
ATOM      1  C   UNL     1      -8.749   6.827   6.987  1.00  0.00     0.044 C 
ENDROOT
BRANCH   1   2
ATOM      2  C   UNL     1      -9.763   5.752   6.689  1.00  0.00    -0.006 A 
ATOM      3  C   UNL     1     -11.198   4.612   5.090  1.00  0.00     0.001 A 
ATOM      4  C   UNL     1     -11.705   3.806   6.111  1.00  0.00     0.004 A 
ATOM      5  C   UNL     1     -10.235   5.584   5.376  1.00  0.00     0.007 A 
ATOM      6  C   UNL     1     -11.255   3.974   7.423  1.00  0.00     0.046 A 
ATOM      7  C   UNL     1     -10.290   4.947   7.721  1.00  0.00     0.118 A 
BRANCH   7   8
ATOM      8  O   UNL     1      -9.857   5.118   9.036  1.00  0.00    -0.508 OA
ATOM      9  H   UNL     1      -9.793   6.037   9.459  1.00  0.00     0.293 HD
ENDBRANCH   7   8
ENDBRANCH   1   2
BRANCH   1  10
ATOM     10  C   UNL     1      -8.798   7.924   5.920  1.00  0.00     0.040 C 
BRANCH  10  11
ATOM     11  C   UNL     1      -7.829   9.027   6.251  1.00  0.00    -0.040 A 
ATOM     12  C   UNL     1      -6.980   9.544   5.259  1.00  0.00     0.050 A 
ATOM     13  C   UNL     1      -7.808   9.588   7.538  1.00  0.00     0.050 A 
ATOM     14  C   UNL     1      -6.101  10.595   5.558  1.00  0.00     0.119 A 
ATOM     15  C   UNL     1      -6.932  10.636   7.838  1.00  0.00     0.119 A 
ATOM     16  C   UNL     1      -6.077  11.136   6.847  1.00  0.00     0.092 A 
BRANCH  14  17
ATOM     17  O   UNL     1      -5.250  11.108   4.582  1.00  0.00    -0.508 OA
ATOM     18  H   UNL     1      -5.456  11.009   3.594  1.00  0.00     0.293 HD
ENDBRANCH  14  17
BRANCH  15  19
ATOM     19  O   UNL     1      -6.920  11.175   9.123  1.00  0.00    -0.508 OA
ATOM     20  H   UNL     1      -6.487  12.070   9.318  1.00  0.00     0.293 HD
ENDBRANCH  15  19
ENDBRANCH  10  11
ENDBRANCH   1  10
TORSDOF 6
ENDMDL
