MODEL 1
REMARK VINA RESULT:    -5.146      0.000      0.000
REMARK INTER + INTRA:          -8.233
REMARK INTER:                  -7.854
REMARK INTRA:                  -0.379
REMARK UNBOUND:                -0.379
REMARK SMILES O=C([O-])CCCCCCCCC(=O)[O-]
REMARK SMILES IDX 7 1 6 2 5 3 4 4 2 5 1 6 3 7 8 8 9 9 10 10 11 11 12 12 13 13
REMARK SMILES IDX 14 14
REMARK H PARENT
REMARK Flexibility Score: inf
ROOT
ATOM      1  C   UNL     1      19.952  27.793  36.435  1.00  0.00     0.000 C 
ENDROOT
BRANCH   1   2
ATOM      2  C   UNL     1      18.458  27.693  36.781  1.00  0.00     0.000 C 
BRANCH   2   3
ATOM      3  C   UNL     1      17.848  26.335  36.391  1.00  0.00     0.006 C 
BRANCH   3   4
ATOM      4  C   UNL     1      18.891  25.210  36.396  1.00  0.00     0.053 C 
BRANCH   4   5
ATOM      5  C   UNL     1      19.151  24.683  35.018  1.00  0.00     0.041 C 
ATOM      6  O   UNL     1      20.329  24.613  34.579  1.00  0.00    -0.550 OA
ATOM      7  O   UNL     1      18.096  24.241  34.230  1.00  0.00    -0.550 OA
ENDBRANCH   4   5
ENDBRANCH   3   4
ENDBRANCH   2   3
ENDBRANCH   1   2
BRANCH   1   8
ATOM      8  C   UNL     1      20.588  29.103  36.925  1.00  0.00     0.000 C 
BRANCH   8   9
ATOM      9  C   UNL     1      19.520  30.190  37.125  1.00  0.00     0.000 C 
BRANCH   9  10
ATOM     10  C   UNL     1      20.026  31.598  36.765  1.00  0.00     0.006 C 
BRANCH  10  11
ATOM     11  C   UNL     1      21.467  31.637  36.230  1.00  0.00     0.053 C 
BRANCH  11  12
ATOM     12  C   UNL     1      21.730  32.867  35.418  1.00  0.00     0.041 C 
ATOM     13  O   UNL     1      22.912  33.244  35.202  1.00  0.00    -0.550 OA
ATOM     14  O   UNL     1      20.669  33.616  34.926  1.00  0.00    -0.550 OA
ENDBRANCH  11  12
ENDBRANCH  10  11
ENDBRANCH   9  10
ENDBRANCH   8   9
ENDBRANCH   1   8
TORSDOF 9
ENDMDL
MODEL 2
REMARK VINA RESULT:    -5.062      0.358      6.988
REMARK INTER + INTRA:          -8.104
REMARK INTER:                  -7.680
REMARK INTRA:                  -0.423
REMARK UNBOUND:                -0.379
REMARK SMILES O=C([O-])CCCCCCCCC(=O)[O-]
REMARK SMILES IDX 7 1 6 2 5 3 4 4 2 5 1 6 3 7 8 8 9 9 10 10 11 11 12 12 13 13
REMARK SMILES IDX 14 14
REMARK H PARENT
REMARK Flexibility Score: inf
ROOT
ATOM      1  C   UNL     1      20.463  29.383  36.657  1.00  0.00     0.000 C 
ENDROOT
BRANCH   1   2
ATOM      2  C   UNL     1      19.513  30.497  37.123  1.00  0.00     0.000 C 
BRANCH   2   3
ATOM      3  C   UNL     1      20.030  31.903  36.770  1.00  0.00     0.006 C 
BRANCH   3   4
ATOM      4  C   UNL     1      21.554  31.934  36.601  1.00  0.00     0.053 C 
BRANCH   4   5
ATOM      5  C   UNL     1      21.969  32.760  35.423  1.00  0.00     0.041 C 
ATOM      6  O   UNL     1      23.184  32.842  35.104  1.00  0.00    -0.550 OA
ATOM      7  O   UNL     1      21.012  33.414  34.658  1.00  0.00    -0.550 OA
ENDBRANCH   4   5
ENDBRANCH   3   4
ENDBRANCH   2   3
ENDBRANCH   1   2
BRANCH   1   8
ATOM      8  C   UNL     1      19.924  27.977  36.965  1.00  0.00     0.000 C 
BRANCH   8   9
ATOM      9  C   UNL     1      18.420  27.888  36.663  1.00  0.00     0.000 C 
BRANCH   9  10
ATOM     10  C   UNL     1      17.960  26.456  36.335  1.00  0.00     0.006 C 
BRANCH  10  11
ATOM     11  C   UNL     1      19.072  25.398  36.417  1.00  0.00     0.053 C 
BRANCH  11  12
ATOM     12  C   UNL     1      19.292  24.714  35.104  1.00  0.00     0.041 C 
ATOM     13  O   UNL     1      18.317  24.242  34.463  1.00  0.00    -0.550 OA
ATOM     14  O   UNL     1      20.580  24.570  34.602  1.00  0.00    -0.550 OA
ENDBRANCH  11  12
ENDBRANCH  10  11
ENDBRANCH   9  10
ENDBRANCH   8   9
ENDBRANCH   1   8
TORSDOF 9
ENDMDL
MODEL 3
REMARK VINA RESULT:    -4.560      1.694      7.533
REMARK INTER + INTRA:          -7.339
REMARK INTER:                  -6.927
REMARK INTRA:                  -0.412
REMARK UNBOUND:                -0.379
REMARK SMILES O=C([O-])CCCCCCCCC(=O)[O-]
REMARK SMILES IDX 7 1 6 2 5 3 4 4 2 5 1 6 3 7 8 8 9 9 10 10 11 11 12 12 13 13
REMARK SMILES IDX 14 14
REMARK H PARENT
REMARK Flexibility Score: inf
ROOT
ATOM      1  C   UNL     1      20.680  32.264  36.644  1.00  0.00     0.000 C 
ENDROOT
BRANCH   1   2
ATOM      2  C   UNL     1      21.829  32.062  35.644  1.00  0.00     0.000 C 
BRANCH   2   3
ATOM      3  C   UNL     1      22.361  33.389  35.075  1.00  0.00     0.006 C 
BRANCH   3   4
ATOM      4  C   UNL     1      21.384  34.550  35.305  1.00  0.00     0.053 C 
BRANCH   4   5
ATOM      5  C   UNL     1      20.616  34.887  34.064  1.00  0.00     0.041 C 
ATOM      6  O   UNL     1      19.367  35.037  34.113  1.00  0.00    -0.550 OA
ATOM      7  O   UNL     1      21.284  35.067  32.859  1.00  0.00    -0.550 OA
ENDBRANCH   4   5
ENDBRANCH   3   4
ENDBRANCH   2   3
ENDBRANCH   1   2
BRANCH   1   8
ATOM      8  C   UNL     1      19.955  30.954  36.987  1.00  0.00     0.000 C 
BRANCH   8   9
ATOM      9  C   UNL     1      20.768  29.738  36.518  1.00  0.00     0.000 C 
BRANCH   9  10
ATOM     10  C   UNL     1      20.268  28.414  37.124  1.00  0.00     0.006 C 
BRANCH  10  11
ATOM     11  C   UNL     1      18.827  28.044  36.737  1.00  0.00     0.053 C 
BRANCH  11  12
ATOM     12  C   UNL     1      18.696  26.596  36.380  1.00  0.00     0.041 C 
ATOM     13  O   UNL     1      17.645  25.965  36.666  1.00  0.00    -0.550 OA
ATOM     14  O   UNL     1      19.748  25.935  35.760  1.00  0.00    -0.550 OA
ENDBRANCH  11  12
ENDBRANCH  10  11
ENDBRANCH   9  10
ENDBRANCH   8   9
ENDBRANCH   1   8
TORSDOF 9
ENDMDL
MODEL 4
REMARK VINA RESULT:    -4.432     15.785     17.515
REMARK INTER + INTRA:          -7.144
REMARK INTER:                  -6.522
REMARK INTRA:                  -0.621
REMARK UNBOUND:                -0.379
REMARK SMILES O=C([O-])CCCCCCCCC(=O)[O-]
REMARK SMILES IDX 7 1 6 2 5 3 4 4 2 5 1 6 3 7 8 8 9 9 10 10 11 11 12 12 13 13
REMARK SMILES IDX 14 14
REMARK H PARENT
REMARK Flexibility Score: inf
ROOT
ATOM      1  C   UNL     1      22.504  22.349  19.869  1.00  0.00     0.000 C 
ENDROOT
BRANCH   1   2
ATOM      2  C   UNL     1      21.865  21.282  20.772  1.00  0.00     0.000 C 
BRANCH   2   3
ATOM      3  C   UNL     1      22.901  20.534  21.630  1.00  0.00     0.006 C 
BRANCH   3   4
ATOM      4  C   UNL     1      22.940  19.033  21.312  1.00  0.00     0.053 C 
BRANCH   4   5
ATOM      5  C   UNL     1      24.300  18.593  20.862  1.00  0.00     0.041 C 
ATOM      6  O   UNL     1      24.724  18.917  19.722  1.00  0.00    -0.550 OA
ATOM      7  O   UNL     1      25.110  17.851  21.712  1.00  0.00    -0.550 OA
ENDBRANCH   4   5
ENDBRANCH   3   4
ENDBRANCH   2   3
ENDBRANCH   1   2
BRANCH   1   8
ATOM      8  C   UNL     1      21.625  22.707  18.661  1.00  0.00     0.000 C 
BRANCH   8   9
ATOM      9  C   UNL     1      21.243  24.195  18.682  1.00  0.00     0.000 C 
BRANCH   9  10
ATOM     10  C   UNL     1      19.793  24.433  19.141  1.00  0.00     0.006 C 
BRANCH  10  11
ATOM     11  C   UNL     1      19.622  24.548  20.665  1.00  0.00     0.053 C 
BRANCH  11  12
ATOM     12  C   UNL     1      18.908  23.363  21.240  1.00  0.00     0.041 C 
ATOM     13  O   UNL     1      18.796  23.234  22.487  1.00  0.00    -0.550 OA
ATOM     14  O   UNL     1      18.394  22.386  20.397  1.00  0.00    -0.550 OA
ENDBRANCH  11  12
ENDBRANCH  10  11
ENDBRANCH   9  10
ENDBRANCH   8   9
ENDBRANCH   1   8
TORSDOF 9
ENDMDL
MODEL 5
REMARK VINA RESULT:    -4.385     16.888     18.235
REMARK INTER + INTRA:          -7.071
REMARK INTER:                  -6.660
REMARK INTRA:                  -0.411
REMARK UNBOUND:                -0.379
REMARK SMILES O=C([O-])CCCCCCCCC(=O)[O-]
REMARK SMILES IDX 7 1 6 2 5 3 4 4 2 5 1 6 3 7 8 8 9 9 10 10 11 11 12 12 13 13
REMARK SMILES IDX 14 14
REMARK H PARENT
REMARK Flexibility Score: inf
ROOT
ATOM      1  C   UNL     1      22.833  20.494  21.447  1.00  0.00     0.000 C 
ENDROOT
BRANCH   1   2
ATOM      2  C   UNL     1      22.352  19.037  21.534  1.00  0.00     0.000 C 
BRANCH   2   3
ATOM      3  C   UNL     1      23.419  18.031  21.067  1.00  0.00     0.006 C 
BRANCH   3   4
ATOM      4  C   UNL     1      24.776  18.701  20.819  1.00  0.00     0.053 C 
BRANCH   4   5
ATOM      5  C   UNL     1      25.656  17.870  19.935  1.00  0.00     0.041 C 
ATOM      6  O   UNL     1      25.151  17.170  19.019  1.00  0.00    -0.550 OA
ATOM      7  O   UNL     1      27.034  17.894  20.104  1.00  0.00    -0.550 OA
ENDBRANCH   4   5
ENDBRANCH   3   4
ENDBRANCH   2   3
ENDBRANCH   1   2
BRANCH   1   8
ATOM      8  C   UNL     1      21.788  21.428  20.818  1.00  0.00     0.000 C 
BRANCH   8   9
ATOM      9  C   UNL     1      22.452  22.425  19.856  1.00  0.00     0.000 C 
BRANCH   9  10
ATOM     10  C   UNL     1      21.593  22.719  18.613  1.00  0.00     0.006 C 
BRANCH  10  11
ATOM     11  C   UNL     1      21.124  24.178  18.497  1.00  0.00     0.053 C 
BRANCH  11  12
ATOM     12  C   UNL     1      19.968  24.469  19.405  1.00  0.00     0.041 C 
ATOM     13  O   UNL     1      18.839  23.960  19.177  1.00  0.00    -0.550 OA
ATOM     14  O   UNL     1      20.131  25.327  20.485  1.00  0.00    -0.550 OA
ENDBRANCH  11  12
ENDBRANCH  10  11
ENDBRANCH   9  10
ENDBRANCH   8   9
ENDBRANCH   1   8
TORSDOF 9
ENDMDL
MODEL 6
REMARK VINA RESULT:    -4.344     15.976     18.085
REMARK INTER + INTRA:          -7.008
REMARK INTER:                  -6.445
REMARK INTRA:                  -0.563
REMARK UNBOUND:                -0.379
REMARK SMILES O=C([O-])CCCCCCCCC(=O)[O-]
REMARK SMILES IDX 7 1 6 2 5 3 4 4 2 5 1 6 3 7 8 8 9 9 10 10 11 11 12 12 13 13
REMARK SMILES IDX 14 14
REMARK H PARENT
REMARK Flexibility Score: inf
ROOT
ATOM      1  C   UNL     1      21.660  22.741  18.615  1.00  0.00     0.000 C 
ENDROOT
BRANCH   1   2
ATOM      2  C   UNL     1      21.203  24.193  18.402  1.00  0.00     0.000 C 
BRANCH   2   3
ATOM      3  C   UNL     1      20.333  24.716  19.559  1.00  0.00     0.006 C 
BRANCH   3   4
ATOM      4  C   UNL     1      18.994  23.973  19.658  1.00  0.00     0.053 C 
BRANCH   4   5
ATOM      5  C   UNL     1      18.778  23.392  21.022  1.00  0.00     0.041 C 
ATOM      6  O   UNL     1      17.905  22.503  21.200  1.00  0.00    -0.550 OA
ATOM      7  O   UNL     1      19.562  23.810  22.090  1.00  0.00    -0.550 OA
ENDBRANCH   4   5
ENDBRANCH   3   4
ENDBRANCH   2   3
ENDBRANCH   1   2
BRANCH   1   8
ATOM      8  C   UNL     1      22.396  22.541  19.949  1.00  0.00     0.000 C 
BRANCH   8   9
ATOM      9  C   UNL     1      21.785  21.377  20.743  1.00  0.00     0.000 C 
BRANCH   9  10
ATOM     10  C   UNL     1      22.845  20.514  21.451  1.00  0.00     0.006 C 
BRANCH  10  11
ATOM     11  C   UNL     1      22.481  19.024  21.559  1.00  0.00     0.053 C 
BRANCH  11  12
ATOM     12  C   UNL     1      23.581  18.140  21.057  1.00  0.00     0.041 C 
ATOM     13  O   UNL     1      23.323  16.980  20.643  1.00  0.00    -0.550 OA
ATOM     14  O   UNL     1      24.896  18.588  21.077  1.00  0.00    -0.550 OA
ENDBRANCH  11  12
ENDBRANCH  10  11
ENDBRANCH   9  10
ENDBRANCH   8   9
ENDBRANCH   1   8
TORSDOF 9
ENDMDL
MODEL 7
REMARK VINA RESULT:    -4.334     16.773     19.186
REMARK INTER + INTRA:          -6.993
REMARK INTER:                  -6.597
REMARK INTRA:                  -0.396
REMARK UNBOUND:                -0.379
REMARK SMILES O=C([O-])CCCCCCCCC(=O)[O-]
REMARK SMILES IDX 7 1 6 2 5 3 4 4 2 5 1 6 3 7 8 8 9 9 10 10 11 11 12 12 13 13
REMARK SMILES IDX 14 14
REMARK H PARENT
REMARK Flexibility Score: inf
ROOT
ATOM      1  C   UNL     1      21.815  21.385  20.866  1.00  0.00     0.000 C 
ENDROOT
BRANCH   1   2
ATOM      2  C   UNL     1      22.490  22.407  19.938  1.00  0.00     0.000 C 
BRANCH   2   3
ATOM      3  C   UNL     1      21.622  22.765  18.719  1.00  0.00     0.006 C 
BRANCH   3   4
ATOM      4  C   UNL     1      21.251  24.254  18.690  1.00  0.00     0.053 C 
BRANCH   4   5
ATOM      5  C   UNL     1      19.918  24.510  19.325  1.00  0.00     0.041 C 
ATOM      6  O   UNL     1      18.863  24.409  18.646  1.00  0.00    -0.550 OA
ATOM      7  O   UNL     1      19.840  24.829  20.675  1.00  0.00    -0.550 OA
ENDBRANCH   4   5
ENDBRANCH   3   4
ENDBRANCH   2   3
ENDBRANCH   1   2
BRANCH   1   8
ATOM      8  C   UNL     1      22.827  20.570  21.686  1.00  0.00     0.000 C 
BRANCH   8   9
ATOM      9  C   UNL     1      22.726  19.074  21.351  1.00  0.00     0.000 C 
BRANCH   9  10
ATOM     10  C   UNL     1      24.095  18.369  21.345  1.00  0.00     0.006 C 
BRANCH  10  11
ATOM     11  C   UNL     1      24.868  18.498  20.022  1.00  0.00     0.053 C 
BRANCH  11  12
ATOM     12  C   UNL     1      24.965  17.190  19.301  1.00  0.00     0.041 C 
ATOM     13  O   UNL     1      26.077  16.783  18.873  1.00  0.00    -0.550 OA
ATOM     14  O   UNL     1      23.822  16.434  19.073  1.00  0.00    -0.550 OA
ENDBRANCH  11  12
ENDBRANCH  10  11
ENDBRANCH   9  10
ENDBRANCH   8   9
ENDBRANCH   1   8
TORSDOF 9
ENDMDL
MODEL 8
REMARK VINA RESULT:    -4.292     15.631     17.869
REMARK INTER + INTRA:          -6.929
REMARK INTER:                  -5.948
REMARK INTRA:                  -0.981
REMARK UNBOUND:                -0.379
REMARK SMILES O=C([O-])CCCCCCCCC(=O)[O-]
REMARK SMILES IDX 7 1 6 2 5 3 4 4 2 5 1 6 3 7 8 8 9 9 10 10 11 11 12 12 13 13
REMARK SMILES IDX 14 14
REMARK H PARENT
REMARK Flexibility Score: inf
ROOT
ATOM      1  C   UNL     1      20.249  22.808  17.169  1.00  0.00     0.000 C 
ENDROOT
BRANCH   1   2
ATOM      2  C   UNL     1      21.089  23.986  17.689  1.00  0.00     0.000 C 
BRANCH   2   3
ATOM      3  C   UNL     1      21.449  23.845  19.179  1.00  0.00     0.006 C 
BRANCH   3   4
ATOM      4  C   UNL     1      22.145  22.513  19.483  1.00  0.00     0.053 C 
BRANCH   4   5
ATOM      5  C   UNL     1      22.056  22.154  20.935  1.00  0.00     0.041 C 
ATOM      6  O   UNL     1      22.455  21.029  21.335  1.00  0.00    -0.550 OA
ATOM      7  O   UNL     1      21.562  23.075  21.851  1.00  0.00    -0.550 OA
ENDBRANCH   4   5
ENDBRANCH   3   4
ENDBRANCH   2   3
ENDBRANCH   1   2
BRANCH   1   8
ATOM      8  C   UNL     1      18.826  22.794  17.747  1.00  0.00     0.000 C 
BRANCH   8   9
ATOM      9  C   UNL     1      18.462  21.398  18.275  1.00  0.00     0.000 C 
BRANCH   9  10
ATOM     10  C   UNL     1      18.691  21.253  19.790  1.00  0.00     0.006 C 
BRANCH  10  11
ATOM     11  C   UNL     1      18.330  22.504  20.607  1.00  0.00     0.053 C 
BRANCH  11  12
ATOM     12  C   UNL     1      17.940  22.163  22.012  1.00  0.00     0.041 C 
ATOM     13  O   UNL     1      18.154  22.979  22.946  1.00  0.00    -0.550 OA
ATOM     14  O   UNL     1      17.369  20.928  22.295  1.00  0.00    -0.550 OA
ENDBRANCH  11  12
ENDBRANCH  10  11
ENDBRANCH   9  10
ENDBRANCH   8   9
ENDBRANCH   1   8
TORSDOF 9
ENDMDL
MODEL 9
REMARK VINA RESULT:    -4.276     15.631     17.632
REMARK INTER + INTRA:          -6.905
REMARK INTER:                  -5.981
REMARK INTRA:                  -0.925
REMARK UNBOUND:                -0.379
REMARK SMILES O=C([O-])CCCCCCCCC(=O)[O-]
REMARK SMILES IDX 7 1 6 2 5 3 4 4 2 5 1 6 3 7 8 8 9 9 10 10 11 11 12 12 13 13
REMARK SMILES IDX 14 14
REMARK H PARENT
REMARK Flexibility Score: inf
ROOT
ATOM      1  C   UNL     1      19.233  22.253  17.215  1.00  0.00     0.000 C 
ENDROOT
BRANCH   1   2
ATOM      2  C   UNL     1      18.073  21.935  18.172  1.00  0.00     0.000 C 
BRANCH   2   3
ATOM      3  C   UNL     1      18.554  21.583  19.590  1.00  0.00     0.006 C 
BRANCH   3   4
ATOM      4  C   UNL     1      18.346  22.741  20.576  1.00  0.00     0.053 C 
BRANCH   4   5
ATOM      5  C   UNL     1      18.022  22.250  21.953  1.00  0.00     0.041 C 
ATOM      6  O   UNL     1      18.259  22.975  22.955  1.00  0.00    -0.550 OA
ATOM      7  O   UNL     1      17.428  21.007  22.129  1.00  0.00    -0.550 OA
ENDBRANCH   4   5
ENDBRANCH   3   4
ENDBRANCH   2   3
ENDBRANCH   1   2
BRANCH   1   8
ATOM      8  C   UNL     1      19.684  23.719  17.297  1.00  0.00     0.000 C 
BRANCH   8   9
ATOM      9  C   UNL     1      21.196  23.814  17.556  1.00  0.00     0.000 C 
BRANCH   9  10
ATOM     10  C   UNL     1      21.552  23.732  19.051  1.00  0.00     0.006 C 
BRANCH  10  11
ATOM     11  C   UNL     1      22.211  22.408  19.473  1.00  0.00     0.053 C 
BRANCH  11  12
ATOM     12  C   UNL     1      22.062  22.152  20.942  1.00  0.00     0.041 C 
ATOM     13  O   UNL     1      22.419  21.049  21.432  1.00  0.00    -0.550 OA
ATOM     14  O   UNL     1      21.501  23.122  21.763  1.00  0.00    -0.550 OA
ENDBRANCH  11  12
ENDBRANCH  10  11
ENDBRANCH   9  10
ENDBRANCH   8   9
ENDBRANCH   1   8
TORSDOF 9
ENDMDL
