MODEL 1
REMARK VINA RESULT:    -4.270      0.000      0.000
REMARK INTER + INTRA:          -6.835
REMARK INTER:                  -6.018
REMARK INTRA:                  -0.817
REMARK UNBOUND:                -0.817
REMARK SMILES C=CCCCCCCC(=O)[O-]
REMARK SMILES IDX 6 1 7 2 8 3 9 4 10 5 11 6 5 7 4 8 3 9 2 10 1 11
REMARK H PARENT
REMARK Flexibility Score: inf
ROOT
ATOM      1  C   UNL     1     -11.600 -27.838 -34.774  1.00  0.00     0.000 C 
ENDROOT
BRANCH   1   2
ATOM      2  C   UNL     1     -11.130 -26.432 -35.180  1.00  0.00     0.006 C 
BRANCH   2   3
ATOM      3  C   UNL     1     -12.036 -25.323 -34.628  1.00  0.00     0.053 C 
BRANCH   3   4
ATOM      4  C   UNL     1     -12.704 -24.590 -35.748  1.00  0.00     0.041 C 
ATOM      5  O   UNL     1     -13.349 -25.224 -36.624  1.00  0.00    -0.550 OA
ATOM      6  O   UNL     1     -12.573 -23.211 -35.853  1.00  0.00    -0.550 OA
ENDBRANCH   3   4
ENDBRANCH   2   3
ENDBRANCH   1   2
BRANCH   1   7
ATOM      7  C   UNL     1     -12.855 -27.809 -33.889  1.00  0.00     0.000 C 
BRANCH   7   8
ATOM      8  C   UNL     1     -12.583 -28.462 -32.528  1.00  0.00     0.004 C 
BRANCH   8   9
ATOM      9  C   UNL     1     -12.362 -27.401 -31.443  1.00  0.00     0.027 C 
BRANCH   9  10
ATOM     10  C   UNL     1     -10.903 -27.266 -31.101  1.00  0.00    -0.035 C 
ATOM     11  C   UNL     1     -10.187 -26.203 -31.479  1.00  0.00     0.004 C 
ENDBRANCH   9  10
ENDBRANCH   8   9
ENDBRANCH   7   8
ENDBRANCH   1   7
TORSDOF 7
ENDMDL
MODEL 2
REMARK VINA RESULT:    -4.161      3.304      5.041
REMARK INTER + INTRA:          -6.680
REMARK INTER:                  -6.016
REMARK INTRA:                  -0.664
REMARK UNBOUND:                -0.817
REMARK SMILES C=CCCCCCCC(=O)[O-]
REMARK SMILES IDX 6 1 7 2 8 3 9 4 10 5 11 6 5 7 4 8 3 9 2 10 1 11
REMARK H PARENT
REMARK Flexibility Score: inf
ROOT
ATOM      1  C   UNL     1     -11.118 -25.093 -32.508  1.00  0.00     0.000 C 
ENDROOT
BRANCH   1   2
ATOM      2  C   UNL     1     -10.940 -26.136 -31.394  1.00  0.00     0.006 C 
BRANCH   2   3
ATOM      3  C   UNL     1     -12.278 -26.692 -30.885  1.00  0.00     0.053 C 
BRANCH   3   4
ATOM      4  C   UNL     1     -12.157 -28.154 -30.593  1.00  0.00     0.041 C 
ATOM      5  O   UNL     1     -11.142 -28.600 -29.996  1.00  0.00    -0.550 OA
ATOM      6  O   UNL     1     -13.143 -29.033 -31.024  1.00  0.00    -0.550 OA
ENDBRANCH   3   4
ENDBRANCH   2   3
ENDBRANCH   1   2
BRANCH   1   7
ATOM      7  C   UNL     1     -12.126 -25.538 -33.579  1.00  0.00     0.000 C 
BRANCH   7   8
ATOM      8  C   UNL     1     -11.486 -26.534 -34.554  1.00  0.00     0.004 C 
BRANCH   8   9
ATOM      9  C   UNL     1     -12.199 -27.891 -34.501  1.00  0.00     0.027 C 
BRANCH   9  10
ATOM     10  C   UNL     1     -13.686 -27.720 -34.353  1.00  0.00    -0.035 C 
ATOM     11  C   UNL     1     -14.489 -27.596 -35.414  1.00  0.00     0.004 C 
ENDBRANCH   9  10
ENDBRANCH   8   9
ENDBRANCH   7   8
ENDBRANCH   1   7
TORSDOF 7
ENDMDL
MODEL 3
REMARK VINA RESULT:    -4.129      2.189      4.131
REMARK INTER + INTRA:          -6.635
REMARK INTER:                  -5.978
REMARK INTRA:                  -0.657
REMARK UNBOUND:                -0.817
REMARK SMILES C=CCCCCCCC(=O)[O-]
REMARK SMILES IDX 6 1 7 2 8 3 9 4 10 5 11 6 5 7 4 8 3 9 2 10 1 11
REMARK H PARENT
REMARK Flexibility Score: inf
ROOT
ATOM      1  C   UNL     1     -13.914 -27.559 -33.775  1.00  0.00     0.000 C 
ENDROOT
BRANCH   1   2
ATOM      2  C   UNL     1     -12.985 -28.052 -32.655  1.00  0.00     0.006 C 
BRANCH   2   3
ATOM      3  C   UNL     1     -12.938 -27.090 -31.460  1.00  0.00     0.053 C 
BRANCH   3   4
ATOM      4  C   UNL     1     -12.064 -25.916 -31.769  1.00  0.00     0.041 C 
ATOM      5  O   UNL     1     -12.576 -24.792 -32.013  1.00  0.00    -0.550 OA
ATOM      6  O   UNL     1     -10.686 -26.074 -31.836  1.00  0.00    -0.550 OA
ENDBRANCH   3   4
ENDBRANCH   2   3
ENDBRANCH   1   2
BRANCH   1   7
ATOM      7  C   UNL     1     -13.290 -27.711 -35.171  1.00  0.00     0.000 C 
BRANCH   7   8
ATOM      8  C   UNL     1     -11.767 -27.538 -35.113  1.00  0.00     0.004 C 
BRANCH   8   9
ATOM      9  C   UNL     1     -11.373 -26.068 -35.297  1.00  0.00     0.027 C 
BRANCH   9  10
ATOM     10  C   UNL     1     -12.460 -25.295 -35.995  1.00  0.00    -0.035 C 
ATOM     11  C   UNL     1     -12.705 -24.013 -35.710  1.00  0.00     0.004 C 
ENDBRANCH   9  10
ENDBRANCH   8   9
ENDBRANCH   7   8
ENDBRANCH   1   7
TORSDOF 7
ENDMDL
MODEL 4
REMARK VINA RESULT:    -4.027      1.431      2.312
REMARK INTER + INTRA:          -6.492
REMARK INTER:                  -5.769
REMARK INTRA:                  -0.723
REMARK UNBOUND:                -0.817
REMARK SMILES C=CCCCCCCC(=O)[O-]
REMARK SMILES IDX 6 1 7 2 8 3 9 4 10 5 11 6 5 7 4 8 3 9 2 10 1 11
REMARK H PARENT
REMARK Flexibility Score: inf
ROOT
ATOM      1  C   UNL     1     -12.654 -28.258 -33.216  1.00  0.00     0.000 C 
ENDROOT
BRANCH   1   2
ATOM      2  C   UNL     1     -13.775 -27.526 -33.970  1.00  0.00     0.006 C 
BRANCH   2   3
ATOM      3  C   UNL     1     -13.500 -27.415 -35.476  1.00  0.00     0.053 C 
BRANCH   3   4
ATOM      4  C   UNL     1     -12.788 -26.135 -35.783  1.00  0.00     0.041 C 
ATOM      5  O   UNL     1     -13.411 -25.174 -36.306  1.00  0.00    -0.550 OA
ATOM      6  O   UNL     1     -11.426 -26.021 -35.537  1.00  0.00    -0.550 OA
ENDBRANCH   3   4
ENDBRANCH   2   3
ENDBRANCH   1   2
BRANCH   1   7
ATOM      7  C   UNL     1     -12.855 -28.237 -31.693  1.00  0.00     0.000 C 
BRANCH   7   8
ATOM      8  C   UNL     1     -12.229 -26.981 -31.074  1.00  0.00     0.004 C 
BRANCH   8   9
ATOM      9  C   UNL     1     -11.002 -26.527 -31.873  1.00  0.00     0.027 C 
BRANCH   9  10
ATOM     10  C   UNL     1     -11.046 -25.048 -32.146  1.00  0.00    -0.035 C 
ATOM     11  C   UNL     1     -12.177 -24.430 -32.497  1.00  0.00     0.004 C 
ENDBRANCH   9  10
ENDBRANCH   8   9
ENDBRANCH   7   8
ENDBRANCH   1   7
TORSDOF 7
ENDMDL
MODEL 5
REMARK VINA RESULT:    -4.011      2.014      2.723
REMARK INTER + INTRA:          -6.470
REMARK INTER:                  -6.038
REMARK INTRA:                  -0.432
REMARK UNBOUND:                -0.817
REMARK SMILES C=CCCCCCCC(=O)[O-]
REMARK SMILES IDX 6 1 7 2 8 3 9 4 10 5 11 6 5 7 4 8 3 9 2 10 1 11
REMARK H PARENT
REMARK Flexibility Score: inf
ROOT
ATOM      1  C   UNL     1     -13.557 -25.993 -35.896  1.00  0.00     0.000 C 
ENDROOT
BRANCH   1   2
ATOM      2  C   UNL     1     -12.351 -25.107 -35.550  1.00  0.00     0.006 C 
BRANCH   2   3
ATOM      3  C   UNL     1     -12.605 -23.622 -35.843  1.00  0.00     0.053 C 
BRANCH   3   4
ATOM      4  C   UNL     1     -12.844 -22.873 -34.571  1.00  0.00     0.041 C 
ATOM      5  O   UNL     1     -13.378 -21.733 -34.597  1.00  0.00    -0.550 OA
ATOM      6  O   UNL     1     -12.432 -23.412 -33.358  1.00  0.00    -0.550 OA
ENDBRANCH   3   4
ENDBRANCH   2   3
ENDBRANCH   1   2
BRANCH   1   7
ATOM      7  C   UNL     1     -13.348 -27.461 -35.494  1.00  0.00     0.000 C 
BRANCH   7   8
ATOM      8  C   UNL     1     -11.903 -27.705 -35.040  1.00  0.00     0.004 C 
BRANCH   8   9
ATOM      9  C   UNL     1     -11.865 -28.528 -33.747  1.00  0.00     0.027 C 
BRANCH   9  10
ATOM     10  C   UNL     1     -13.003 -28.162 -32.833  1.00  0.00    -0.035 C 
ATOM     11  C   UNL     1     -12.969 -28.430 -31.525  1.00  0.00     0.004 C 
ENDBRANCH   9  10
ENDBRANCH   8   9
ENDBRANCH   7   8
ENDBRANCH   1   7
TORSDOF 7
ENDMDL
MODEL 6
REMARK VINA RESULT:    -3.998      1.146      2.957
REMARK INTER + INTRA:          -6.451
REMARK INTER:                  -5.827
REMARK INTRA:                  -0.624
REMARK UNBOUND:                -0.817
REMARK SMILES C=CCCCCCCC(=O)[O-]
REMARK SMILES IDX 6 1 7 2 8 3 9 4 10 5 11 6 5 7 4 8 3 9 2 10 1 11
REMARK H PARENT
REMARK Flexibility Score: inf
ROOT
ATOM      1  C   UNL     1     -11.666 -25.442 -32.250  1.00  0.00     0.000 C 
ENDROOT
BRANCH   1   2
ATOM      2  C   UNL     1     -12.178 -24.490 -33.342  1.00  0.00     0.006 C 
BRANCH   2   3
ATOM      3  C   UNL     1     -11.857 -24.988 -34.758  1.00  0.00     0.053 C 
BRANCH   3   4
ATOM      4  C   UNL     1     -12.669 -24.243 -35.769  1.00  0.00     0.041 C 
ATOM      5  O   UNL     1     -12.799 -22.993 -35.681  1.00  0.00    -0.550 OA
ATOM      6  O   UNL     1     -13.323 -24.933 -36.782  1.00  0.00    -0.550 OA
ENDBRANCH   3   4
ENDBRANCH   2   3
ENDBRANCH   1   2
BRANCH   1   7
ATOM      7  C   UNL     1     -12.619 -26.620 -31.997  1.00  0.00     0.000 C 
BRANCH   7   8
ATOM      8  C   UNL     1     -11.989 -27.943 -32.450  1.00  0.00     0.004 C 
BRANCH   8   9
ATOM      9  C   UNL     1     -12.584 -28.408 -33.785  1.00  0.00     0.027 C 
BRANCH   9  10
ATOM     10  C   UNL     1     -13.916 -27.757 -34.044  1.00  0.00    -0.035 C 
ATOM     11  C   UNL     1     -14.450 -27.711 -35.268  1.00  0.00     0.004 C 
ENDBRANCH   9  10
ENDBRANCH   8   9
ENDBRANCH   7   8
ENDBRANCH   1   7
TORSDOF 7
ENDMDL
MODEL 7
REMARK VINA RESULT:    -3.886      1.909      3.244
REMARK INTER + INTRA:          -6.293
REMARK INTER:                  -5.518
REMARK INTRA:                  -0.775
REMARK UNBOUND:                -0.817
REMARK SMILES C=CCCCCCCC(=O)[O-]
REMARK SMILES IDX 6 1 7 2 8 3 9 4 10 5 11 6 5 7 4 8 3 9 2 10 1 11
REMARK H PARENT
REMARK Flexibility Score: inf
ROOT
ATOM      1  C   UNL     1     -12.196 -25.247 -32.682  1.00  0.00     0.000 C 
ENDROOT
BRANCH   1   2
ATOM      2  C   UNL     1     -12.203 -25.302 -34.217  1.00  0.00     0.006 C 
BRANCH   2   3
ATOM      3  C   UNL     1     -11.289 -26.402 -34.774  1.00  0.00     0.053 C 
BRANCH   3   4
ATOM      4  C   UNL     1     -12.012 -27.712 -34.810  1.00  0.00     0.041 C 
ATOM      5  O   UNL     1     -11.467 -28.749 -34.349  1.00  0.00    -0.550 OA
ATOM      6  O   UNL     1     -13.268 -27.796 -35.396  1.00  0.00    -0.550 OA
ENDBRANCH   3   4
ENDBRANCH   2   3
ENDBRANCH   1   2
BRANCH   1   7
ATOM      7  C   UNL     1     -10.775 -25.243 -32.097  1.00  0.00     0.000 C 
BRANCH   7   8
ATOM      8  C   UNL     1     -10.705 -26.091 -30.820  1.00  0.00     0.004 C 
BRANCH   8   9
ATOM      9  C   UNL     1     -10.724 -27.588 -31.152  1.00  0.00     0.027 C 
BRANCH   9  10
ATOM     10  C   UNL     1     -11.883 -28.279 -30.486  1.00  0.00    -0.035 C 
ATOM     11  C   UNL     1     -12.957 -28.674 -31.176  1.00  0.00     0.004 C 
ENDBRANCH   9  10
ENDBRANCH   8   9
ENDBRANCH   7   8
ENDBRANCH   1   7
TORSDOF 7
ENDMDL
MODEL 8
REMARK VINA RESULT:    -3.799      2.425      4.281
REMARK INTER + INTRA:          -6.170
REMARK INTER:                  -5.496
REMARK INTRA:                  -0.674
REMARK UNBOUND:                -0.817
REMARK SMILES C=CCCCCCCC(=O)[O-]
REMARK SMILES IDX 6 1 7 2 8 3 9 4 10 5 11 6 5 7 4 8 3 9 2 10 1 11
REMARK H PARENT
REMARK Flexibility Score: inf
ROOT
ATOM      1  C   UNL     1     -12.794 -27.342 -31.010  1.00  0.00     0.000 C 
ENDROOT
BRANCH   1   2
ATOM      2  C   UNL     1     -11.377 -27.431 -30.423  1.00  0.00     0.006 C 
BRANCH   2   3
ATOM      3  C   UNL     1     -10.325 -26.750 -31.309  1.00  0.00     0.053 C 
BRANCH   3   4
ATOM      4  C   UNL     1     -10.388 -25.265 -31.146  1.00  0.00     0.041 C 
ATOM      5  O   UNL     1     -10.060 -24.733 -30.054  1.00  0.00    -0.550 OA
ATOM      6  O   UNL     1     -10.857 -24.470 -32.186  1.00  0.00    -0.550 OA
ENDBRANCH   3   4
ENDBRANCH   2   3
ENDBRANCH   1   2
BRANCH   1   7
ATOM      7  C   UNL     1     -12.991 -28.265 -32.222  1.00  0.00     0.000 C 
BRANCH   7   8
ATOM      8  C   UNL     1     -13.502 -27.477 -33.434  1.00  0.00     0.004 C 
BRANCH   8   9
ATOM      9  C   UNL     1     -13.017 -28.108 -34.745  1.00  0.00     0.027 C 
BRANCH   9  10
ATOM     10  C   UNL     1     -11.570 -27.786 -35.002  1.00  0.00    -0.035 C 
ATOM     11  C   UNL     1     -11.121 -26.528 -35.014  1.00  0.00     0.004 C 
ENDBRANCH   9  10
ENDBRANCH   8   9
ENDBRANCH   7   8
ENDBRANCH   1   7
TORSDOF 7
ENDMDL
MODEL 9
REMARK VINA RESULT:    -3.656      1.900      3.625
REMARK INTER + INTRA:          -5.969
REMARK INTER:                  -5.326
REMARK INTRA:                  -0.642
REMARK UNBOUND:                -0.817
REMARK SMILES C=CCCCCCCC(=O)[O-]
REMARK SMILES IDX 6 1 7 2 8 3 9 4 10 5 11 6 5 7 4 8 3 9 2 10 1 11
REMARK H PARENT
REMARK Flexibility Score: inf
ROOT
ATOM      1  C   UNL     1     -11.821 -27.741 -31.395  1.00  0.00     0.000 C 
ENDROOT
BRANCH   1   2
ATOM      2  C   UNL     1     -11.495 -26.239 -31.369  1.00  0.00     0.006 C 
BRANCH   2   3
ATOM      3  C   UNL     1     -12.692 -25.367 -31.772  1.00  0.00     0.053 C 
BRANCH   3   4
ATOM      4  C   UNL     1     -12.292 -24.391 -32.832  1.00  0.00     0.041 C 
ATOM      5  O   UNL     1     -12.208 -24.760 -34.033  1.00  0.00    -0.550 OA
ATOM      6  O   UNL     1     -11.964 -23.086 -32.488  1.00  0.00    -0.550 OA
ENDBRANCH   3   4
ENDBRANCH   2   3
ENDBRANCH   1   2
BRANCH   1   7
ATOM      7  C   UNL     1     -12.671 -28.140 -32.610  1.00  0.00     0.000 C 
BRANCH   7   8
ATOM      8  C   UNL     1     -11.784 -28.473 -33.816  1.00  0.00     0.004 C 
BRANCH   8   9
ATOM      9  C   UNL     1     -12.386 -27.916 -35.112  1.00  0.00     0.027 C 
BRANCH   9  10
ATOM     10  C   UNL     1     -13.890 -27.925 -35.062  1.00  0.00    -0.035 C 
ATOM     11  C   UNL     1     -14.621 -27.019 -35.718  1.00  0.00     0.004 C 
ENDBRANCH   9  10
ENDBRANCH   8   9
ENDBRANCH   7   8
ENDBRANCH   1   7
TORSDOF 7
ENDMDL
