MODEL 1
REMARK VINA RESULT:    -3.457      0.000      0.000
REMARK INTER + INTRA:          -4.132
REMARK INTER:                  -4.063
REMARK INTRA:                  -0.069
REMARK UNBOUND:                -0.069
REMARK SMILES CCCCC(=O)[O-]
REMARK SMILES IDX 4 1 5 2 6 3 7 4 3 5 2 6 1 7
REMARK H PARENT
REMARK Flexibility Score: inf
ROOT
ATOM      1  C   UNL     1       3.149  28.199  56.824  1.00  0.00     0.053 C 
ENDROOT
BRANCH   1   2
ATOM      2  C   UNL     1       3.879  27.367  57.832  1.00  0.00     0.041 C 
ATOM      3  O   UNL     1       3.262  26.875  58.814  1.00  0.00    -0.550 OA
ATOM      4  O   UNL     1       5.250  27.176  57.714  1.00  0.00    -0.550 OA
ENDBRANCH   1   2
BRANCH   1   5
ATOM      5  C   UNL     1       1.871  28.784  57.438  1.00  0.00     0.006 C 
BRANCH   5   6
ATOM      6  C   UNL     1       0.613  28.432  56.630  1.00  0.00    -0.003 C 
ATOM      7  C   UNL     1       0.919  28.119  55.166  1.00  0.00     0.004 C 
ENDBRANCH   5   6
ENDBRANCH   1   5
TORSDOF 3
ENDMDL
MODEL 2
REMARK VINA RESULT:    -3.416      0.284      1.246
REMARK INTER + INTRA:          -4.085
REMARK INTER:                  -4.033
REMARK INTRA:                  -0.052
REMARK UNBOUND:                -0.069
REMARK SMILES CCCCC(=O)[O-]
REMARK SMILES IDX 4 1 5 2 6 3 7 4 3 5 2 6 1 7
REMARK H PARENT
REMARK Flexibility Score: inf
ROOT
ATOM      1  C   UNL     1       3.226  28.196  56.687  1.00  0.00     0.053 C 
ENDROOT
BRANCH   1   2
ATOM      2  C   UNL     1       4.130  27.426  57.599  1.00  0.00     0.041 C 
ATOM      3  O   UNL     1       5.343  27.266  57.301  1.00  0.00    -0.550 OA
ATOM      4  O   UNL     1       3.621  26.844  58.753  1.00  0.00    -0.550 OA
ENDBRANCH   1   2
BRANCH   1   5
ATOM      5  C   UNL     1       1.989  28.686  57.450  1.00  0.00     0.006 C 
BRANCH   5   6
ATOM      6  C   UNL     1       0.720  28.674  56.584  1.00  0.00    -0.003 C 
ATOM      7  C   UNL     1       0.971  28.145  55.173  1.00  0.00     0.004 C 
ENDBRANCH   5   6
ENDBRANCH   1   5
TORSDOF 3
ENDMDL
MODEL 3
REMARK VINA RESULT:    -3.337      1.041      1.385
REMARK INTER + INTRA:          -3.992
REMARK INTER:                  -3.958
REMARK INTRA:                  -0.034
REMARK UNBOUND:                -0.069
REMARK SMILES CCCCC(=O)[O-]
REMARK SMILES IDX 4 1 5 2 6 3 7 4 3 5 2 6 1 7
REMARK H PARENT
REMARK Flexibility Score: inf
ROOT
ATOM      1  C   UNL     1       2.533  28.236  57.581  1.00  0.00     0.053 C 
ENDROOT
BRANCH   1   2
ATOM      2  C   UNL     1       3.794  27.431  57.641  1.00  0.00     0.041 C 
ATOM      3  O   UNL     1       4.149  26.890  58.722  1.00  0.00    -0.550 OA
ATOM      4  O   UNL     1       4.600  27.317  56.516  1.00  0.00    -0.550 OA
ENDBRANCH   1   2
BRANCH   1   5
ATOM      5  C   UNL     1       2.110  28.459  56.124  1.00  0.00     0.006 C 
BRANCH   5   6
ATOM      6  C   UNL     1       0.688  29.028  56.003  1.00  0.00    -0.003 C 
ATOM      7  C   UNL     1       0.075  29.382  57.358  1.00  0.00     0.004 C 
ENDBRANCH   5   6
ENDBRANCH   1   5
TORSDOF 3
ENDMDL
MODEL 4
REMARK VINA RESULT:    -3.243      1.692      2.036
REMARK INTER + INTRA:          -3.881
REMARK INTER:                  -3.774
REMARK INTRA:                  -0.107
REMARK UNBOUND:                -0.069
REMARK SMILES CCCCC(=O)[O-]
REMARK SMILES IDX 4 1 5 2 6 3 7 4 3 5 2 6 1 7
REMARK H PARENT
REMARK Flexibility Score: inf
ROOT
ATOM      1  C   UNL     1       1.841  28.907  57.437  1.00  0.00     0.053 C 
ENDROOT
BRANCH   1   2
ATOM      2  C   UNL     1       2.895  28.170  56.671  1.00  0.00     0.041 C 
ATOM      3  O   UNL     1       2.862  28.146  55.412  1.00  0.00    -0.550 OA
ATOM      4  O   UNL     1       3.885  27.470  57.348  1.00  0.00    -0.550 OA
ENDBRANCH   1   2
BRANCH   1   5
ATOM      5  C   UNL     1       0.446  28.404  57.048  1.00  0.00     0.006 C 
BRANCH   5   6
ATOM      6  C   UNL     1      -0.408  29.492  56.378  1.00  0.00    -0.003 C 
ATOM      7  C   UNL     1      -0.410  29.388  54.853  1.00  0.00     0.004 C 
ENDBRANCH   5   6
ENDBRANCH   1   5
TORSDOF 3
ENDMDL
MODEL 5
REMARK VINA RESULT:    -3.233      2.880      3.855
REMARK INTER + INTRA:          -3.869
REMARK INTER:                  -3.759
REMARK INTRA:                  -0.110
REMARK UNBOUND:                -0.069
REMARK SMILES CCCCC(=O)[O-]
REMARK SMILES IDX 4 1 5 2 6 3 7 4 3 5 2 6 1 7
REMARK H PARENT
REMARK Flexibility Score: inf
ROOT
ATOM      1  C   UNL     1       1.186  29.185  57.208  1.00  0.00     0.053 C 
ENDROOT
BRANCH   1   2
ATOM      2  C   UNL     1       0.581  29.006  55.850  1.00  0.00     0.041 C 
ATOM      3  O   UNL     1      -0.154  29.905  55.361  1.00  0.00    -0.550 OA
ATOM      4  O   UNL     1       0.789  27.827  55.146  1.00  0.00    -0.550 OA
ENDBRANCH   1   2
BRANCH   1   5
ATOM      5  C   UNL     1       2.223  28.089  57.480  1.00  0.00     0.006 C 
BRANCH   5   6
ATOM      6  C   UNL     1       3.655  28.536  57.150  1.00  0.00    -0.003 C 
ATOM      7  C   UNL     1       4.239  27.808  55.940  1.00  0.00     0.004 C 
ENDBRANCH   5   6
ENDBRANCH   1   5
TORSDOF 3
ENDMDL
MODEL 6
REMARK VINA RESULT:    -3.197      2.547      3.910
REMARK INTER + INTRA:          -3.827
REMARK INTER:                  -3.766
REMARK INTRA:                  -0.061
REMARK UNBOUND:                -0.069
REMARK SMILES CCCCC(=O)[O-]
REMARK SMILES IDX 4 1 5 2 6 3 7 4 3 5 2 6 1 7
REMARK H PARENT
REMARK Flexibility Score: inf
ROOT
ATOM      1  C   UNL     1       2.190  28.539  57.457  1.00  0.00     0.053 C 
ENDROOT
BRANCH   1   2
ATOM      2  C   UNL     1       0.931  28.487  56.649  1.00  0.00     0.041 C 
ATOM      3  O   UNL     1       0.943  27.996  55.489  1.00  0.00    -0.550 OA
ATOM      4  O   UNL     1      -0.244  29.025  57.158  1.00  0.00    -0.550 OA
ENDBRANCH   1   2
BRANCH   1   5
ATOM      5  C   UNL     1       3.415  28.352  56.553  1.00  0.00     0.006 C 
BRANCH   5   6
ATOM      6  C   UNL     1       4.488  27.457  57.190  1.00  0.00    -0.003 C 
ATOM      7  C   UNL     1       4.085  26.941  58.571  1.00  0.00     0.004 C 
ENDBRANCH   5   6
ENDBRANCH   1   5
TORSDOF 3
ENDMDL
MODEL 7
REMARK VINA RESULT:    -3.181      2.302      2.854
REMARK INTER + INTRA:          -3.808
REMARK INTER:                  -3.773
REMARK INTRA:                  -0.035
REMARK UNBOUND:                -0.069
REMARK SMILES CCCCC(=O)[O-]
REMARK SMILES IDX 4 1 5 2 6 3 7 4 3 5 2 6 1 7
REMARK H PARENT
REMARK Flexibility Score: inf
ROOT
ATOM      1  C   UNL     1       1.857  28.326  55.335  1.00  0.00     0.053 C 
ENDROOT
BRANCH   1   2
ATOM      2  C   UNL     1       3.246  28.245  54.784  1.00  0.00     0.041 C 
ATOM      3  O   UNL     1       3.507  28.729  53.651  1.00  0.00    -0.550 OA
ATOM      4  O   UNL     1       4.241  27.591  55.500  1.00  0.00    -0.550 OA
ENDBRANCH   1   2
BRANCH   1   5
ATOM      5  C   UNL     1       1.895  28.602  56.843  1.00  0.00     0.006 C 
BRANCH   5   6
ATOM      6  C   UNL     1       0.597  29.240  57.360  1.00  0.00    -0.003 C 
ATOM      7  C   UNL     1      -0.424  29.487  56.249  1.00  0.00     0.004 C 
ENDBRANCH   5   6
ENDBRANCH   1   5
TORSDOF 3
ENDMDL
MODEL 8
REMARK VINA RESULT:    -3.072      8.577      9.563
REMARK INTER + INTRA:          -3.680
REMARK INTER:                  -3.580
REMARK INTRA:                  -0.100
REMARK UNBOUND:                -0.069
REMARK SMILES CCCCC(=O)[O-]
REMARK SMILES IDX 4 1 5 2 6 3 7 4 3 5 2 6 1 7
REMARK H PARENT
REMARK Flexibility Score: inf
ROOT
ATOM      1  C   UNL     1      -6.328  31.499  59.640  1.00  0.00     0.053 C 
ENDROOT
BRANCH   1   2
ATOM      2  C   UNL     1      -4.937  30.965  59.495  1.00  0.00     0.041 C 
ATOM      3  O   UNL     1      -3.986  31.498  60.125  1.00  0.00    -0.550 OA
ATOM      4  O   UNL     1      -4.685  29.911  58.627  1.00  0.00    -0.550 OA
ENDBRANCH   1   2
BRANCH   1   5
ATOM      5  C   UNL     1      -6.884  31.921  58.274  1.00  0.00     0.006 C 
BRANCH   5   6
ATOM      6  C   UNL     1      -8.137  31.127  57.876  1.00  0.00    -0.003 C 
ATOM      7  C   UNL     1      -7.812  29.883  57.051  1.00  0.00     0.004 C 
ENDBRANCH   5   6
ENDBRANCH   1   5
TORSDOF 3
ENDMDL
MODEL 9
REMARK VINA RESULT:    -3.022      2.781      3.732
REMARK INTER + INTRA:          -3.622
REMARK INTER:                  -3.585
REMARK INTRA:                  -0.036
REMARK UNBOUND:                -0.069
REMARK SMILES CCCCC(=O)[O-]
REMARK SMILES IDX 4 1 5 2 6 3 7 4 3 5 2 6 1 7
REMARK H PARENT
REMARK Flexibility Score: inf
ROOT
ATOM      1  C   UNL     1       4.260  27.800  56.206  1.00  0.00     0.053 C 
ENDROOT
BRANCH   1   2
ATOM      2  C   UNL     1       3.527  28.079  54.931  1.00  0.00     0.041 C 
ATOM      3  O   UNL     1       2.268  28.057  54.907  1.00  0.00    -0.550 OA
ATOM      4  O   UNL     1       4.235  28.314  53.759  1.00  0.00    -0.550 OA
ENDBRANCH   1   2
BRANCH   1   5
ATOM      5  C   UNL     1       3.315  27.936  57.407  1.00  0.00     0.006 C 
BRANCH   5   6
ATOM      6  C   UNL     1       3.711  27.021  58.576  1.00  0.00    -0.003 C 
ATOM      7  C   UNL     1       5.225  26.911  58.754  1.00  0.00     0.004 C 
ENDBRANCH   5   6
ENDBRANCH   1   5
TORSDOF 3
ENDMDL
