MODEL 1
REMARK VINA RESULT:    -7.312      0.000      0.000
REMARK INTER + INTRA:         -12.105
REMARK INTER:                 -10.731
REMARK INTRA:                  -1.374
REMARK UNBOUND:                -1.374
REMARK SMILES O=c1c(OC[C@H]2O[C@@H](O)[C@@H](O)[C@@H](O)[C@H]2O)c(-c2ccc(O)c(O)c2)oc2cc(O)cc(O)c12
REMARK SMILES IDX 4 1 3 2 16 3 25 4 2 5 26 6 1 7 33 8 27 9 31 10 28 11 30 12
REMARK SMILES IDX 17 13 18 14 19 15 20 16 24 17 22 18 21 19 23 21 32 23 29 25
REMARK SMILES IDX 5 27 6 28 14 29 7 30 12 31 8 32 10 33 15 34 13 36 9 38 11 40
REMARK H PARENT 21 20 23 22 32 24 29 26 15 35 13 37 9 39 11 41
REMARK Flexibility Score: inf
ROOT
ATOM      1  O   UNL     1      -0.697 -18.786  28.533  1.00  0.00    -0.483 OA
ENDROOT
BRANCH   1   2
ATOM      2  C   UNL     1      -0.796 -20.165  28.793  1.00  0.00     0.211 A 
ATOM      3  C   UNL     1      -0.298 -21.052  27.828  1.00  0.00     0.180 A 
ATOM      4  O   UNL     1      -0.320 -22.363  28.034  1.00  0.00    -0.452 OA
ATOM      5  C   UNL     1      -1.366 -20.705  29.967  1.00  0.00     0.239 A 
ATOM      6  C   UNL     1      -0.801 -22.912  29.143  1.00  0.00     0.146 A 
ATOM      7  O   UNL     1      -1.913 -19.946  30.813  1.00  0.00    -0.285 OA
ATOM      8  C   UNL     1      -1.351 -22.103  30.167  1.00  0.00     0.111 A 
ATOM      9  C   UNL     1      -0.751 -24.301  29.290  1.00  0.00     0.094 A 
ATOM     10  C   UNL     1      -1.842 -22.725  31.342  1.00  0.00     0.134 A 
ATOM     11  C   UNL     1      -1.227 -24.907  30.455  1.00  0.00     0.123 A 
ATOM     12  C   UNL     1      -1.775 -24.119  31.474  1.00  0.00     0.093 A 
BRANCH   3  13
ATOM     13  C   UNL     1       0.270 -20.544  26.571  1.00  0.00     0.025 A 
ATOM     14  C   UNL     1       1.598 -20.101  26.531  1.00  0.00     0.016 A 
ATOM     15  C   UNL     1       2.155 -19.662  25.325  1.00  0.00     0.051 A 
ATOM     16  C   UNL     1       1.388 -19.668  24.150  1.00  0.00     0.157 A 
ATOM     17  C   UNL     1      -0.503 -20.533  25.401  1.00  0.00     0.062 A 
ATOM     18  C   UNL     1       0.056 -20.108  24.187  1.00  0.00     0.158 A 
BRANCH  16  19
ATOM     19  O   UNL     1       1.938 -19.227  22.948  1.00  0.00    -0.504 OA
ATOM     20  H   UNL     1       1.428 -19.299  22.074  1.00  0.00     0.293 HD
ENDBRANCH  16  19
BRANCH  18  21
ATOM     21  O   UNL     1      -0.700 -20.133  23.019  1.00  0.00    -0.504 OA
ATOM     22  H   UNL     1      -1.178 -20.971  22.725  1.00  0.00     0.293 HD
ENDBRANCH  18  21
ENDBRANCH   3  13
BRANCH  10  23
ATOM     23  O   UNL     1      -2.376 -21.968  32.386  1.00  0.00    -0.507 OA
ATOM     24  H   UNL     1      -2.212 -20.971  32.462  1.00  0.00     0.293 HD
ENDBRANCH  10  23
BRANCH  11  25
ATOM     25  O   UNL     1      -1.138 -26.292  30.596  1.00  0.00    -0.508 OA
ATOM     26  H   UNL     1      -0.272 -26.788  30.422  1.00  0.00     0.293 HD
ENDBRANCH  11  25
ENDBRANCH   1   2
BRANCH   1  27
ATOM     27  C   UNL     1      -1.660 -17.980  27.857  1.00  0.00     0.265 C 
BRANCH  27  28
ATOM     28  C   UNL     1      -0.947 -16.814  27.163  1.00  0.00     0.190 C 
ATOM     29  C   UNL     1      -1.744 -15.487  27.331  1.00  0.00     0.178 C 
ATOM     30  O   UNL     1      -0.773 -17.127  25.794  1.00  0.00    -0.340 OA
ATOM     31  C   UNL     1      -1.083 -14.347  26.528  1.00  0.00     0.179 C 
ATOM     32  C   UNL     1       0.030 -16.143  25.161  1.00  0.00     0.279 C 
ATOM     33  C   UNL     1      -0.717 -14.799  25.101  1.00  0.00     0.201 C 
BRANCH  29  34
ATOM     34  O   UNL     1      -3.103 -15.628  26.987  1.00  0.00    -0.387 OA
ATOM     35  H   UNL     1      -3.154 -15.959  26.052  1.00  0.00     0.211 HD
ENDBRANCH  29  34
BRANCH  31  36
ATOM     36  O   UNL     1      -1.947 -13.238  26.475  1.00  0.00    -0.387 OA
ATOM     37  H   UNL     1      -1.793 -12.698  27.293  1.00  0.00     0.211 HD
ENDBRANCH  31  36
BRANCH  32  38
ATOM     38  O   UNL     1       0.326 -16.560  23.858  1.00  0.00    -0.366 OA
ATOM     39  H   UNL     1       0.959 -15.887  23.487  1.00  0.00     0.213 HD
ENDBRANCH  32  38
BRANCH  33  40
ATOM     40  O   UNL     1      -1.882 -14.934  24.320  1.00  0.00    -0.385 OA
ATOM     41  H   UNL     1      -1.602 -14.925  23.366  1.00  0.00     0.211 HD
ENDBRANCH  33  40
ENDBRANCH  27  28
ENDBRANCH   1  27
TORSDOF 12
ENDMDL
MODEL 2
REMARK VINA RESULT:    -7.244      1.409      2.033
REMARK INTER + INTRA:         -12.006
REMARK INTER:                 -10.487
REMARK INTRA:                  -1.519
REMARK UNBOUND:                -1.374
REMARK SMILES O=c1c(OC[C@H]2O[C@@H](O)[C@@H](O)[C@@H](O)[C@H]2O)c(-c2ccc(O)c(O)c2)oc2cc(O)cc(O)c12
REMARK SMILES IDX 4 1 3 2 16 3 25 4 2 5 26 6 1 7 33 8 27 9 31 10 28 11 30 12
REMARK SMILES IDX 17 13 18 14 19 15 20 16 24 17 22 18 21 19 23 21 32 23 29 25
REMARK SMILES IDX 5 27 6 28 14 29 7 30 12 31 8 32 10 33 15 34 13 36 9 38 11 40
REMARK H PARENT 21 20 23 22 32 24 29 26 15 35 13 37 9 39 11 41
REMARK Flexibility Score: inf
ROOT
ATOM      1  O   UNL     1      -0.576 -20.235  29.740  1.00  0.00    -0.483 OA
ENDROOT
BRANCH   1   2
ATOM      2  C   UNL     1      -0.865 -21.606  29.866  1.00  0.00     0.211 A 
ATOM      3  C   UNL     1      -0.610 -22.434  28.762  1.00  0.00     0.180 A 
ATOM      4  O   UNL     1      -0.818 -23.743  28.833  1.00  0.00    -0.452 OA
ATOM      5  C   UNL     1      -1.394 -22.195  31.035  1.00  0.00     0.239 A 
ATOM      6  C   UNL     1      -1.268 -24.345  29.928  1.00  0.00     0.146 A 
ATOM      7  O   UNL     1      -1.727 -21.472  32.013  1.00  0.00    -0.285 OA
ATOM      8  C   UNL     1      -1.579 -23.594  31.087  1.00  0.00     0.111 A 
ATOM      9  C   UNL     1      -1.423 -25.734  29.922  1.00  0.00     0.094 A 
ATOM     10  C   UNL     1      -2.043 -24.274  32.240  1.00  0.00     0.134 A 
ATOM     11  C   UNL     1      -1.870 -26.400  31.066  1.00  0.00     0.123 A 
ATOM     12  C   UNL     1      -2.184 -25.669  32.217  1.00  0.00     0.093 A 
BRANCH   3  13
ATOM     13  C   UNL     1      -0.097 -21.867  27.507  1.00  0.00     0.025 A 
ATOM     14  C   UNL     1       1.274 -21.922  27.223  1.00  0.00     0.016 A 
ATOM     15  C   UNL     1       1.757 -21.426  26.007  1.00  0.00     0.051 A 
ATOM     16  C   UNL     1       0.874 -20.875  25.067  1.00  0.00     0.157 A 
ATOM     17  C   UNL     1      -0.979 -21.299  26.576  1.00  0.00     0.062 A 
ATOM     18  C   UNL     1      -0.499 -20.815  25.351  1.00  0.00     0.158 A 
BRANCH  16  19
ATOM     19  O   UNL     1       1.353 -20.376  23.858  1.00  0.00    -0.504 OA
ATOM     20  H   UNL     1       0.765 -19.824  23.242  1.00  0.00     0.293 HD
ENDBRANCH  16  19
BRANCH  18  21
ATOM     21  O   UNL     1      -1.380 -20.286  24.412  1.00  0.00    -0.504 OA
ATOM     22  H   UNL     1      -1.718 -20.843  23.642  1.00  0.00     0.293 HD
ENDBRANCH  18  21
ENDBRANCH   3  13
BRANCH  10  23
ATOM     23  O   UNL     1      -2.345 -23.579  33.411  1.00  0.00    -0.507 OA
ATOM     24  H   UNL     1      -2.517 -22.580  33.411  1.00  0.00     0.293 HD
ENDBRANCH  10  23
BRANCH  11  25
ATOM     25  O   UNL     1      -1.987 -27.790  31.051  1.00  0.00    -0.508 OA
ATOM     26  H   UNL     1      -2.860 -28.252  31.275  1.00  0.00     0.293 HD
ENDBRANCH  11  25
ENDBRANCH   1   2
BRANCH   1  27
ATOM     27  C   UNL     1      -1.519 -19.166  29.754  1.00  0.00     0.265 C 
BRANCH  27  28
ATOM     28  C   UNL     1      -0.956 -17.983  28.958  1.00  0.00     0.190 C 
ATOM     29  C   UNL     1      -2.089 -17.208  28.223  1.00  0.00     0.178 C 
ATOM     30  O   UNL     1       0.006 -18.461  28.037  1.00  0.00    -0.340 OA
ATOM     31  C   UNL     1      -1.500 -16.098  27.328  1.00  0.00     0.179 C 
ATOM     32  C   UNL     1       0.665 -17.376  27.404  1.00  0.00     0.279 C 
ATOM     33  C   UNL     1      -0.313 -16.613  26.494  1.00  0.00     0.201 C 
BRANCH  29  34
ATOM     34  O   UNL     1      -2.932 -18.062  27.482  1.00  0.00    -0.387 OA
ATOM     35  H   UNL     1      -2.740 -17.927  26.518  1.00  0.00     0.211 HD
ENDBRANCH  29  34
BRANCH  31  36
ATOM     36  O   UNL     1      -2.501 -15.588  26.480  1.00  0.00    -0.387 OA
ATOM     37  H   UNL     1      -2.098 -15.466  25.581  1.00  0.00     0.211 HD
ENDBRANCH  31  36
BRANCH  32  38
ATOM     38  O   UNL     1       1.721 -17.870  26.628  1.00  0.00    -0.366 OA
ATOM     39  H   UNL     1       2.557 -17.636  27.115  1.00  0.00     0.213 HD
ENDBRANCH  32  38
BRANCH  33  40
ATOM     40  O   UNL     1      -0.772 -17.462  25.467  1.00  0.00    -0.385 OA
ATOM     41  H   UNL     1      -1.321 -18.173  25.894  1.00  0.00     0.211 HD
ENDBRANCH  33  40
ENDBRANCH  27  28
ENDBRANCH   1  27
TORSDOF 12
ENDMDL
MODEL 3
REMARK VINA RESULT:    -7.043      1.616      2.032
REMARK INTER + INTRA:         -11.710
REMARK INTER:                 -10.614
REMARK INTRA:                  -1.096
REMARK UNBOUND:                -1.374
REMARK SMILES O=c1c(OC[C@H]2O[C@@H](O)[C@@H](O)[C@@H](O)[C@H]2O)c(-c2ccc(O)c(O)c2)oc2cc(O)cc(O)c12
REMARK SMILES IDX 4 1 3 2 16 3 25 4 2 5 26 6 1 7 33 8 27 9 31 10 28 11 30 12
REMARK SMILES IDX 17 13 18 14 19 15 20 16 24 17 22 18 21 19 23 21 32 23 29 25
REMARK SMILES IDX 5 27 6 28 14 29 7 30 12 31 8 32 10 33 15 34 13 36 9 38 11 40
REMARK H PARENT 21 20 23 22 32 24 29 26 15 35 13 37 9 39 11 41
REMARK Flexibility Score: inf
ROOT
ATOM      1  O   UNL     1       0.218 -19.942  27.838  1.00  0.00    -0.483 OA
ENDROOT
BRANCH   1   2
ATOM      2  C   UNL     1      -0.183 -21.147  28.444  1.00  0.00     0.211 A 
ATOM      3  C   UNL     1       0.190 -22.348  27.825  1.00  0.00     0.180 A 
ATOM      4  O   UNL     1      -0.118 -23.518  28.371  1.00  0.00    -0.452 OA
ATOM      5  C   UNL     1      -0.935 -21.214  29.638  1.00  0.00     0.239 A 
ATOM      6  C   UNL     1      -0.781 -23.628  29.516  1.00  0.00     0.146 A 
ATOM      7  O   UNL     1      -1.372 -20.159  30.172  1.00  0.00    -0.285 OA
ATOM      8  C   UNL     1      -1.223 -22.474  30.207  1.00  0.00     0.111 A 
ATOM      9  C   UNL     1      -1.030 -24.902  30.036  1.00  0.00     0.094 A 
ATOM     10  C   UNL     1      -1.915 -22.633  31.433  1.00  0.00     0.134 A 
ATOM     11  C   UNL     1      -1.703 -25.051  31.250  1.00  0.00     0.123 A 
ATOM     12  C   UNL     1      -2.148 -23.919  31.942  1.00  0.00     0.093 A 
BRANCH   3  13
ATOM     13  C   UNL     1       0.939 -22.334  26.560  1.00  0.00     0.025 A 
ATOM     14  C   UNL     1       2.338 -22.274  26.576  1.00  0.00     0.016 A 
ATOM     15  C   UNL     1       3.055 -22.309  25.375  1.00  0.00     0.051 A 
ATOM     16  C   UNL     1       2.377 -22.409  24.151  1.00  0.00     0.157 A 
ATOM     17  C   UNL     1       0.260 -22.415  25.336  1.00  0.00     0.062 A 
ATOM     18  C   UNL     1       0.975 -22.466  24.131  1.00  0.00     0.158 A 
BRANCH  16  19
ATOM     19  O   UNL     1       3.088 -22.439  22.953  1.00  0.00    -0.504 OA
ATOM     20  H   UNL     1       3.626 -21.640  22.636  1.00  0.00     0.293 HD
ENDBRANCH  16  19
BRANCH  18  21
ATOM     21  O   UNL     1       0.301 -22.585  22.919  1.00  0.00    -0.504 OA
ATOM     22  H   UNL     1      -0.602 -22.157  22.781  1.00  0.00     0.293 HD
ENDBRANCH  18  21
ENDBRANCH   3  13
BRANCH  10  23
ATOM     23  O   UNL     1      -2.355 -21.525  32.158  1.00  0.00    -0.507 OA
ATOM     24  H   UNL     1      -2.848 -20.757  31.716  1.00  0.00     0.293 HD
ENDBRANCH  10  23
BRANCH  11  25
ATOM     25  O   UNL     1      -1.912 -26.329  31.769  1.00  0.00    -0.508 OA
ATOM     26  H   UNL     1      -1.139 -26.934  32.018  1.00  0.00     0.293 HD
ENDBRANCH  11  25
ENDBRANCH   1   2
BRANCH   1  27
ATOM     27  C   UNL     1      -0.435 -19.280  26.756  1.00  0.00     0.265 C 
BRANCH  27  28
ATOM     28  C   UNL     1      -0.522 -17.780  27.058  1.00  0.00     0.190 C 
ATOM     29  C   UNL     1      -1.353 -17.512  28.347  1.00  0.00     0.178 C 
ATOM     30  O   UNL     1      -1.091 -17.117  25.945  1.00  0.00    -0.340 OA
ATOM     31  C   UNL     1      -1.537 -15.997  28.573  1.00  0.00     0.179 C 
ATOM     32  C   UNL     1      -1.031 -15.711  26.125  1.00  0.00     0.279 C 
ATOM     33  C   UNL     1      -1.956 -15.278  27.276  1.00  0.00     0.201 C 
BRANCH  29  34
ATOM     34  O   UNL     1      -2.595 -18.178  28.334  1.00  0.00    -0.387 OA
ATOM     35  H   UNL     1      -2.941 -18.173  27.404  1.00  0.00     0.211 HD
ENDBRANCH  29  34
BRANCH  31  36
ATOM     36  O   UNL     1      -2.499 -15.778  29.576  1.00  0.00    -0.387 OA
ATOM     37  H   UNL     1      -2.239 -16.323  30.365  1.00  0.00     0.211 HD
ENDBRANCH  31  36
BRANCH  32  38
ATOM     38  O   UNL     1      -1.443 -15.079  24.945  1.00  0.00    -0.366 OA
ATOM     39  H   UNL     1      -1.199 -15.692  24.201  1.00  0.00     0.213 HD
ENDBRANCH  32  38
BRANCH  33  40
ATOM     40  O   UNL     1      -3.292 -15.589  26.958  1.00  0.00    -0.385 OA
ATOM     41  H   UNL     1      -3.442 -15.322  26.012  1.00  0.00     0.211 HD
ENDBRANCH  33  40
ENDBRANCH  27  28
ENDBRANCH   1  27
TORSDOF 12
ENDMDL
MODEL 4
REMARK VINA RESULT:    -6.965      3.423      5.460
REMARK INTER + INTRA:         -11.596
REMARK INTER:                 -10.580
REMARK INTRA:                  -1.016
REMARK UNBOUND:                -1.374
REMARK SMILES O=c1c(OC[C@H]2O[C@@H](O)[C@@H](O)[C@@H](O)[C@H]2O)c(-c2ccc(O)c(O)c2)oc2cc(O)cc(O)c12
REMARK SMILES IDX 4 1 3 2 16 3 25 4 2 5 26 6 1 7 33 8 27 9 31 10 28 11 30 12
REMARK SMILES IDX 17 13 18 14 19 15 20 16 24 17 22 18 21 19 23 21 32 23 29 25
REMARK SMILES IDX 5 27 6 28 14 29 7 30 12 31 8 32 10 33 15 34 13 36 9 38 11 40
REMARK H PARENT 21 20 23 22 32 24 29 26 15 35 13 37 9 39 11 41
REMARK Flexibility Score: inf
ROOT
ATOM      1  O   UNL     1       2.255 -20.997  29.031  1.00  0.00    -0.483 OA
ENDROOT
BRANCH   1   2
ATOM      2  C   UNL     1       2.414 -22.394  29.023  1.00  0.00     0.211 A 
ATOM      3  C   UNL     1       2.079 -23.086  27.850  1.00  0.00     0.180 A 
ATOM      4  O   UNL     1       2.250 -24.399  27.763  1.00  0.00    -0.452 OA
ATOM      5  C   UNL     1       2.892 -23.138  30.124  1.00  0.00     0.239 A 
ATOM      6  C   UNL     1       2.741 -25.131  28.756  1.00  0.00     0.146 A 
ATOM      7  O   UNL     1       3.111 -22.567  31.227  1.00  0.00    -0.285 OA
ATOM      8  C   UNL     1       3.087 -24.530  29.990  1.00  0.00     0.111 A 
ATOM      9  C   UNL     1       2.920 -26.503  28.562  1.00  0.00     0.094 A 
ATOM     10  C   UNL     1       3.622 -25.342  31.021  1.00  0.00     0.134 A 
ATOM     11  C   UNL     1       3.458 -27.296  29.578  1.00  0.00     0.123 A 
ATOM     12  C   UNL     1       3.802 -26.716  30.804  1.00  0.00     0.093 A 
BRANCH   3  13
ATOM     13  C   UNL     1       1.539 -22.365  26.688  1.00  0.00     0.025 A 
ATOM     14  C   UNL     1       2.388 -22.002  25.633  1.00  0.00     0.016 A 
ATOM     15  C   UNL     1       1.868 -21.359  24.505  1.00  0.00     0.051 A 
ATOM     16  C   UNL     1       0.496 -21.078  24.422  1.00  0.00     0.157 A 
ATOM     17  C   UNL     1       0.171 -22.068  26.613  1.00  0.00     0.062 A 
ATOM     18  C   UNL     1      -0.356 -21.437  25.478  1.00  0.00     0.158 A 
BRANCH  16  19
ATOM     19  O   UNL     1      -0.024 -20.433  23.302  1.00  0.00    -0.504 OA
ATOM     20  H   UNL     1      -0.962 -20.628  22.966  1.00  0.00     0.293 HD
ENDBRANCH  16  19
BRANCH  18  21
ATOM     21  O   UNL     1      -1.721 -21.177  25.389  1.00  0.00    -0.504 OA
ATOM     22  H   UNL     1      -2.320 -21.255  26.197  1.00  0.00     0.293 HD
ENDBRANCH  18  21
ENDBRANCH   3  13
BRANCH  10  23
ATOM     23  O   UNL     1       3.994 -24.793  32.249  1.00  0.00    -0.507 OA
ATOM     24  H   UNL     1       4.481 -25.336  32.952  1.00  0.00     0.293 HD
ENDBRANCH  10  23
BRANCH  11  25
ATOM     25  O   UNL     1       3.661 -28.658  29.354  1.00  0.00    -0.508 OA
ATOM     26  H   UNL     1       2.921 -29.335  29.498  1.00  0.00     0.293 HD
ENDBRANCH  11  25
ENDBRANCH   1   2
BRANCH   1  27
ATOM     27  C   UNL     1       1.584 -20.226  30.026  1.00  0.00     0.265 C 
BRANCH  27  28
ATOM     28  C   UNL     1       0.079 -20.508  29.957  1.00  0.00     0.190 C 
ATOM     29  C   UNL     1      -0.748 -19.260  30.382  1.00  0.00     0.178 C 
ATOM     30  O   UNL     1      -0.221 -21.617  30.783  1.00  0.00    -0.340 OA
ATOM     31  C   UNL     1      -2.254 -19.592  30.427  1.00  0.00     0.179 C 
ATOM     32  C   UNL     1      -1.574 -22.008  30.612  1.00  0.00     0.279 C 
ATOM     33  C   UNL     1      -2.519 -20.922  31.158  1.00  0.00     0.201 C 
BRANCH  29  34
ATOM     34  O   UNL     1      -0.312 -18.717  31.607  1.00  0.00    -0.387 OA
ATOM     35  H   UNL     1       0.044 -19.457  32.166  1.00  0.00     0.211 HD
ENDBRANCH  29  34
BRANCH  31  36
ATOM     36  O   UNL     1      -2.954 -18.548  31.059  1.00  0.00    -0.387 OA
ATOM     37  H   UNL     1      -3.838 -18.904  31.338  1.00  0.00     0.211 HD
ENDBRANCH  31  36
BRANCH  32  38
ATOM     38  O   UNL     1      -1.800 -23.202  31.308  1.00  0.00    -0.366 OA
ATOM     39  H   UNL     1      -2.493 -22.998  31.993  1.00  0.00     0.213 HD
ENDBRANCH  32  38
BRANCH  33  40
ATOM     40  O   UNL     1      -2.316 -20.764  32.543  1.00  0.00    -0.385 OA
ATOM     41  H   UNL     1      -3.070 -20.219  32.893  1.00  0.00     0.211 HD
ENDBRANCH  33  40
ENDBRANCH  27  28
ENDBRANCH   1  27
TORSDOF 12
ENDMDL
MODEL 5
REMARK VINA RESULT:    -6.937      3.450      6.736
REMARK INTER + INTRA:         -11.555
REMARK INTER:                 -10.014
REMARK INTRA:                  -1.541
REMARK UNBOUND:                -1.374
REMARK SMILES O=c1c(OC[C@H]2O[C@@H](O)[C@@H](O)[C@@H](O)[C@H]2O)c(-c2ccc(O)c(O)c2)oc2cc(O)cc(O)c12
REMARK SMILES IDX 4 1 3 2 16 3 25 4 2 5 26 6 1 7 33 8 27 9 31 10 28 11 30 12
REMARK SMILES IDX 17 13 18 14 19 15 20 16 24 17 22 18 21 19 23 21 32 23 29 25
REMARK SMILES IDX 5 27 6 28 14 29 7 30 12 31 8 32 10 33 15 34 13 36 9 38 11 40
REMARK H PARENT 21 20 23 22 32 24 29 26 15 35 13 37 9 39 11 41
REMARK Flexibility Score: inf
ROOT
ATOM      1  O   UNL     1       1.237 -23.829  27.188  1.00  0.00    -0.483 OA
ENDROOT
BRANCH   1   2
ATOM      2  C   UNL     1       0.503 -23.254  28.241  1.00  0.00     0.211 A 
ATOM      3  C   UNL     1       0.600 -23.846  29.509  1.00  0.00     0.180 A 
ATOM      4  O   UNL     1      -0.031 -23.324  30.553  1.00  0.00    -0.452 OA
ATOM      5  C   UNL     1      -0.322 -22.117  28.096  1.00  0.00     0.239 A 
ATOM      6  C   UNL     1      -0.777 -22.229  30.472  1.00  0.00     0.146 A 
ATOM      7  O   UNL     1      -0.512 -21.614  26.955  1.00  0.00    -0.285 OA
ATOM      8  C   UNL     1      -0.958 -21.570  29.232  1.00  0.00     0.111 A 
ATOM      9  C   UNL     1      -1.377 -21.729  31.632  1.00  0.00     0.094 A 
ATOM     10  C   UNL     1      -1.750 -20.396  29.189  1.00  0.00     0.134 A 
ATOM     11  C   UNL     1      -2.147 -20.565  31.585  1.00  0.00     0.123 A 
ATOM     12  C   UNL     1      -2.336 -19.906  30.365  1.00  0.00     0.093 A 
BRANCH   3  13
ATOM     13  C   UNL     1       1.413 -25.055  29.707  1.00  0.00     0.025 A 
ATOM     14  C   UNL     1       2.760 -24.940  30.074  1.00  0.00     0.016 A 
ATOM     15  C   UNL     1       3.523 -26.089  30.310  1.00  0.00     0.051 A 
ATOM     16  C   UNL     1       2.942 -27.360  30.183  1.00  0.00     0.157 A 
ATOM     17  C   UNL     1       0.837 -26.325  29.562  1.00  0.00     0.062 A 
ATOM     18  C   UNL     1       1.594 -27.478  29.812  1.00  0.00     0.158 A 
BRANCH  16  19
ATOM     19  O   UNL     1       3.700 -28.506  30.413  1.00  0.00    -0.504 OA
ATOM     20  H   UNL     1       3.327 -29.292  30.935  1.00  0.00     0.293 HD
ENDBRANCH  16  19
BRANCH  18  21
ATOM     21  O   UNL     1       1.011 -28.738  29.705  1.00  0.00    -0.504 OA
ATOM     22  H   UNL     1       1.325 -29.401  29.012  1.00  0.00     0.293 HD
ENDBRANCH  18  21
ENDBRANCH   3  13
BRANCH  10  23
ATOM     23  O   UNL     1      -1.943 -19.703  27.993  1.00  0.00    -0.507 OA
ATOM     24  H   UNL     1      -2.723 -19.068  27.863  1.00  0.00     0.293 HD
ENDBRANCH  10  23
BRANCH  11  25
ATOM     25  O   UNL     1      -2.709 -20.064  32.759  1.00  0.00    -0.508 OA
ATOM     26  H   UNL     1      -2.247 -19.346  33.304  1.00  0.00     0.293 HD
ENDBRANCH  11  25
ENDBRANCH   1   2
BRANCH   1  27
ATOM     27  C   UNL     1       2.514 -23.404  26.715  1.00  0.00     0.265 C 
BRANCH  27  28
ATOM     28  C   UNL     1       2.429 -23.126  25.209  1.00  0.00     0.190 C 
ATOM     29  C   UNL     1       2.707 -21.627  24.897  1.00  0.00     0.178 C 
ATOM     30  O   UNL     1       1.151 -23.511  24.740  1.00  0.00    -0.340 OA
ATOM     31  C   UNL     1       2.498 -21.334  23.397  1.00  0.00     0.179 C 
ATOM     32  C   UNL     1       1.098 -23.423  23.325  1.00  0.00     0.279 C 
ATOM     33  C   UNL     1       1.188 -21.954  22.875  1.00  0.00     0.201 C 
BRANCH  29  34
ATOM     34  O   UNL     1       1.934 -20.759  25.695  1.00  0.00    -0.387 OA
ATOM     35  H   UNL     1       2.096 -20.986  26.648  1.00  0.00     0.211 HD
ENDBRANCH  29  34
BRANCH  31  36
ATOM     36  O   UNL     1       2.493 -19.944  23.179  1.00  0.00    -0.387 OA
ATOM     37  H   UNL     1       1.862 -19.759  22.434  1.00  0.00     0.211 HD
ENDBRANCH  31  36
BRANCH  32  38
ATOM     38  O   UNL     1      -0.112 -23.965  22.875  1.00  0.00    -0.366 OA
ATOM     39  H   UNL     1       0.039 -24.238  21.930  1.00  0.00     0.213 HD
ENDBRANCH  32  38
BRANCH  33  40
ATOM     40  O   UNL     1       0.081 -21.235  23.367  1.00  0.00    -0.385 OA
ATOM     41  H   UNL     1      -0.609 -21.899  23.635  1.00  0.00     0.211 HD
ENDBRANCH  33  40
ENDBRANCH  27  28
ENDBRANCH   1  27
TORSDOF 12
ENDMDL
MODEL 6
REMARK VINA RESULT:    -6.897      1.759      2.324
REMARK INTER + INTRA:         -11.496
REMARK INTER:                 -10.068
REMARK INTRA:                  -1.429
REMARK UNBOUND:                -1.374
REMARK SMILES O=c1c(OC[C@H]2O[C@@H](O)[C@@H](O)[C@@H](O)[C@H]2O)c(-c2ccc(O)c(O)c2)oc2cc(O)cc(O)c12
REMARK SMILES IDX 4 1 3 2 16 3 25 4 2 5 26 6 1 7 33 8 27 9 31 10 28 11 30 12
REMARK SMILES IDX 17 13 18 14 19 15 20 16 24 17 22 18 21 19 23 21 32 23 29 25
REMARK SMILES IDX 5 27 6 28 14 29 7 30 12 31 8 32 10 33 15 34 13 36 9 38 11 40
REMARK H PARENT 21 20 23 22 32 24 29 26 15 35 13 37 9 39 11 41
REMARK Flexibility Score: inf
ROOT
ATOM      1  O   UNL     1       0.117 -20.007  28.211  1.00  0.00    -0.483 OA
ENDROOT
BRANCH   1   2
ATOM      2  C   UNL     1      -0.312 -21.188  28.844  1.00  0.00     0.211 A 
ATOM      3  C   UNL     1       0.046 -22.412  28.261  1.00  0.00     0.180 A 
ATOM      4  O   UNL     1      -0.289 -23.561  28.834  1.00  0.00    -0.452 OA
ATOM      5  C   UNL     1      -1.079 -21.210  30.030  1.00  0.00     0.239 A 
ATOM      6  C   UNL     1      -0.966 -23.629  29.974  1.00  0.00     0.146 A 
ATOM      7  O   UNL     1      -1.503 -20.134  30.532  1.00  0.00    -0.285 OA
ATOM      8  C   UNL     1      -1.396 -22.450  30.629  1.00  0.00     0.111 A 
ATOM      9  C   UNL     1      -1.244 -24.884  30.524  1.00  0.00     0.094 A 
ATOM     10  C   UNL     1      -2.104 -22.564  31.851  1.00  0.00     0.134 A 
ATOM     11  C   UNL     1      -1.933 -24.989  31.734  1.00  0.00     0.123 A 
ATOM     12  C   UNL     1      -2.365 -23.831  32.391  1.00  0.00     0.093 A 
BRANCH   3  13
ATOM     13  C   UNL     1       0.809 -22.445  27.005  1.00  0.00     0.025 A 
ATOM     14  C   UNL     1       2.208 -22.507  27.038  1.00  0.00     0.016 A 
ATOM     15  C   UNL     1       2.934 -22.587  25.844  1.00  0.00     0.051 A 
ATOM     16  C   UNL     1       2.265 -22.609  24.611  1.00  0.00     0.157 A 
ATOM     17  C   UNL     1       0.141 -22.447  25.773  1.00  0.00     0.062 A 
ATOM     18  C   UNL     1       0.864 -22.542  24.575  1.00  0.00     0.158 A 
BRANCH  16  19
ATOM     19  O   UNL     1       2.986 -22.683  23.421  1.00  0.00    -0.504 OA
ATOM     20  H   UNL     1       3.500 -21.885  23.062  1.00  0.00     0.293 HD
ENDBRANCH  16  19
BRANCH  18  21
ATOM     21  O   UNL     1       0.198 -22.583  23.354  1.00  0.00    -0.504 OA
ATOM     22  H   UNL     1       0.515 -22.035  22.568  1.00  0.00     0.293 HD
ENDBRANCH  18  21
ENDBRANCH   3  13
BRANCH  10  23
ATOM     23  O   UNL     1      -2.532 -21.429  32.542  1.00  0.00    -0.507 OA
ATOM     24  H   UNL     1      -3.324 -21.455  33.174  1.00  0.00     0.293 HD
ENDBRANCH  10  23
BRANCH  11  25
ATOM     25  O   UNL     1      -2.171 -26.250  32.284  1.00  0.00    -0.508 OA
ATOM     26  H   UNL     1      -3.029 -26.754  32.101  1.00  0.00     0.293 HD
ENDBRANCH  11  25
ENDBRANCH   1   2
BRANCH   1  27
ATOM     27  C   UNL     1      -0.702 -19.083  27.497  1.00  0.00     0.265 C 
BRANCH  27  28
ATOM     28  C   UNL     1      -0.038 -18.747  26.157  1.00  0.00     0.190 C 
ATOM     29  C   UNL     1       0.127 -17.209  25.981  1.00  0.00     0.178 C 
ATOM     30  O   UNL     1      -0.812 -19.295  25.107  1.00  0.00    -0.340 OA
ATOM     31  C   UNL     1       0.682 -16.877  24.580  1.00  0.00     0.179 C 
ATOM     32  C   UNL     1      -0.138 -19.147  23.868  1.00  0.00     0.279 C 
ATOM     33  C   UNL     1      -0.056 -17.660  23.478  1.00  0.00     0.201 C 
BRANCH  29  34
ATOM     34  O   UNL     1      -1.070 -16.508  26.231  1.00  0.00    -0.387 OA
ATOM     35  H   UNL     1      -1.831 -17.129  26.084  1.00  0.00     0.211 HD
ENDBRANCH  29  34
BRANCH  31  36
ATOM     36  O   UNL     1       0.577 -15.494  24.341  1.00  0.00    -0.387 OA
ATOM     37  H   UNL     1       1.417 -15.200  23.901  1.00  0.00     0.211 HD
ENDBRANCH  31  36
BRANCH  32  38
ATOM     38  O   UNL     1      -0.841 -19.841  22.876  1.00  0.00    -0.366 OA
ATOM     39  H   UNL     1      -0.532 -20.786  22.925  1.00  0.00     0.213 HD
ENDBRANCH  32  38
BRANCH  33  40
ATOM     40  O   UNL     1      -1.353 -17.141  23.298  1.00  0.00    -0.385 OA
ATOM     41  H   UNL     1      -1.483 -16.999  22.322  1.00  0.00     0.211 HD
ENDBRANCH  33  40
ENDBRANCH  27  28
ENDBRANCH   1  27
TORSDOF 12
ENDMDL
MODEL 7
REMARK VINA RESULT:    -6.897      2.593      5.524
REMARK INTER + INTRA:         -11.496
REMARK INTER:                 -10.703
REMARK INTRA:                  -0.792
REMARK UNBOUND:                -1.374
REMARK SMILES O=c1c(OC[C@H]2O[C@@H](O)[C@@H](O)[C@@H](O)[C@H]2O)c(-c2ccc(O)c(O)c2)oc2cc(O)cc(O)c12
REMARK SMILES IDX 4 1 3 2 16 3 25 4 2 5 26 6 1 7 33 8 27 9 31 10 28 11 30 12
REMARK SMILES IDX 17 13 18 14 19 15 20 16 24 17 22 18 21 19 23 21 32 23 29 25
REMARK SMILES IDX 5 27 6 28 14 29 7 30 12 31 8 32 10 33 15 34 13 36 9 38 11 40
REMARK H PARENT 21 20 23 22 32 24 29 26 15 35 13 37 9 39 11 41
REMARK Flexibility Score: inf
ROOT
ATOM      1  O   UNL     1       1.625 -22.427  27.339  1.00  0.00    -0.483 OA
ENDROOT
BRANCH   1   2
ATOM      2  C   UNL     1       0.897 -23.308  28.159  1.00  0.00     0.211 A 
ATOM      3  C   UNL     1      -0.356 -22.885  28.626  1.00  0.00     0.180 A 
ATOM      4  O   UNL     1      -1.111 -23.688  29.366  1.00  0.00    -0.452 OA
ATOM      5  C   UNL     1       1.354 -24.590  28.538  1.00  0.00     0.239 A 
ATOM      6  C   UNL     1      -0.743 -24.917  29.704  1.00  0.00     0.146 A 
ATOM      7  O   UNL     1       2.515 -24.968  28.221  1.00  0.00    -0.285 OA
ATOM      8  C   UNL     1       0.515 -25.428  29.304  1.00  0.00     0.111 A 
ATOM      9  C   UNL     1      -1.620 -25.705  30.457  1.00  0.00     0.094 A 
ATOM     10  C   UNL     1       0.866 -26.750  29.673  1.00  0.00     0.134 A 
ATOM     11  C   UNL     1      -1.272 -27.011  30.808  1.00  0.00     0.123 A 
ATOM     12  C   UNL     1      -0.030 -27.528  30.421  1.00  0.00     0.093 A 
BRANCH   3  13
ATOM     13  C   UNL     1      -0.862 -21.546  28.295  1.00  0.00     0.025 A 
ATOM     14  C   UNL     1      -1.305 -21.266  26.995  1.00  0.00     0.016 A 
ATOM     15  C   UNL     1      -1.832 -20.007  26.690  1.00  0.00     0.051 A 
ATOM     16  C   UNL     1      -1.922 -19.019  27.683  1.00  0.00     0.157 A 
ATOM     17  C   UNL     1      -0.934 -20.554  29.283  1.00  0.00     0.062 A 
ATOM     18  C   UNL     1      -1.475 -19.295  28.984  1.00  0.00     0.158 A 
BRANCH  16  19
ATOM     19  O   UNL     1      -2.441 -17.762  27.381  1.00  0.00    -0.504 OA
ATOM     20  H   UNL     1      -3.017 -17.611  26.559  1.00  0.00     0.293 HD
ENDBRANCH  16  19
BRANCH  18  21
ATOM     21  O   UNL     1      -1.581 -18.324  29.976  1.00  0.00    -0.504 OA
ATOM     22  H   UNL     1      -1.630 -18.577  30.951  1.00  0.00     0.293 HD
ENDBRANCH  18  21
ENDBRANCH   3  13
BRANCH  10  23
ATOM     23  O   UNL     1       2.088 -27.304  29.287  1.00  0.00    -0.507 OA
ATOM     24  H   UNL     1       2.875 -26.726  29.014  1.00  0.00     0.293 HD
ENDBRANCH  10  23
BRANCH  11  25
ATOM     25  O   UNL     1      -2.174 -27.793  31.530  1.00  0.00    -0.508 OA
ATOM     26  H   UNL     1      -2.062 -27.951  32.524  1.00  0.00     0.293 HD
ENDBRANCH  11  25
ENDBRANCH   1   2
BRANCH   1  27
ATOM     27  C   UNL     1       2.824 -22.728  26.627  1.00  0.00     0.265 C 
BRANCH  27  28
ATOM     28  C   UNL     1       2.591 -22.513  25.127  1.00  0.00     0.190 C 
ATOM     29  C   UNL     1       2.699 -21.006  24.752  1.00  0.00     0.178 C 
ATOM     30  O   UNL     1       1.321 -23.029  24.778  1.00  0.00    -0.340 OA
ATOM     31  C   UNL     1       2.342 -20.786  23.267  1.00  0.00     0.179 C 
ATOM     32  C   UNL     1       1.145 -22.997  23.371  1.00  0.00     0.279 C 
ATOM     33  C   UNL     1       1.059 -21.543  22.875  1.00  0.00     0.201 C 
BRANCH  29  34
ATOM     34  O   UNL     1       1.915 -20.185  25.588  1.00  0.00    -0.387 OA
ATOM     35  H   UNL     1       2.490 -19.855  26.327  1.00  0.00     0.211 HD
ENDBRANCH  29  34
BRANCH  31  36
ATOM     36  O   UNL     1       2.188 -19.411  23.012  1.00  0.00    -0.387 OA
ATOM     37  H   UNL     1       1.479 -19.311  22.324  1.00  0.00     0.211 HD
ENDBRANCH  31  36
BRANCH  32  38
ATOM     38  O   UNL     1      -0.041 -23.663  23.040  1.00  0.00    -0.366 OA
ATOM     39  H   UNL     1       0.209 -24.613  22.877  1.00  0.00     0.213 HD
ENDBRANCH  32  38
BRANCH  33  40
ATOM     40  O   UNL     1      -0.068 -20.911  23.438  1.00  0.00    -0.385 OA
ATOM     41  H   UNL     1      -0.303 -21.407  24.267  1.00  0.00     0.211 HD
ENDBRANCH  33  40
ENDBRANCH  27  28
ENDBRANCH   1  27
TORSDOF 12
ENDMDL
MODEL 8
REMARK VINA RESULT:    -6.897      2.504      4.945
REMARK INTER + INTRA:         -11.495
REMARK INTER:                 -10.255
REMARK INTRA:                  -1.241
REMARK UNBOUND:                -1.374
REMARK SMILES O=c1c(OC[C@H]2O[C@@H](O)[C@@H](O)[C@@H](O)[C@H]2O)c(-c2ccc(O)c(O)c2)oc2cc(O)cc(O)c12
REMARK SMILES IDX 4 1 3 2 16 3 25 4 2 5 26 6 1 7 33 8 27 9 31 10 28 11 30 12
REMARK SMILES IDX 17 13 18 14 19 15 20 16 24 17 22 18 21 19 23 21 32 23 29 25
REMARK SMILES IDX 5 27 6 28 14 29 7 30 12 31 8 32 10 33 15 34 13 36 9 38 11 40
REMARK H PARENT 21 20 23 22 32 24 29 26 15 35 13 37 9 39 11 41
REMARK Flexibility Score: inf
ROOT
ATOM      1  O   UNL     1      -0.638 -19.019  26.735  1.00  0.00    -0.483 OA
ENDROOT
BRANCH   1   2
ATOM      2  C   UNL     1       0.030 -20.257  26.731  1.00  0.00     0.211 A 
ATOM      3  C   UNL     1       0.711 -20.639  27.896  1.00  0.00     0.180 A 
ATOM      4  O   UNL     1       1.322 -21.815  27.971  1.00  0.00    -0.452 OA
ATOM      5  C   UNL     1       0.054 -21.134  25.624  1.00  0.00     0.239 A 
ATOM      6  C   UNL     1       1.328 -22.691  26.974  1.00  0.00     0.146 A 
ATOM      7  O   UNL     1      -0.463 -20.785  24.528  1.00  0.00    -0.285 OA
ATOM      8  C   UNL     1       0.690 -22.389  25.746  1.00  0.00     0.111 A 
ATOM      9  C   UNL     1       1.967 -23.921  27.155  1.00  0.00     0.094 A 
ATOM     10  C   UNL     1       0.706 -23.355  24.710  1.00  0.00     0.134 A 
ATOM     11  C   UNL     1       1.969 -24.873  26.134  1.00  0.00     0.123 A 
ATOM     12  C   UNL     1       1.345 -24.587  24.914  1.00  0.00     0.093 A 
BRANCH   3  13
ATOM     13  C   UNL     1       0.752 -19.746  29.063  1.00  0.00     0.025 A 
ATOM     14  C   UNL     1       1.759 -18.777  29.168  1.00  0.00     0.016 A 
ATOM     15  C   UNL     1       1.772 -17.895  30.254  1.00  0.00     0.051 A 
ATOM     16  C   UNL     1       0.775 -17.972  31.238  1.00  0.00     0.157 A 
ATOM     17  C   UNL     1      -0.234 -19.835  30.056  1.00  0.00     0.062 A 
ATOM     18  C   UNL     1      -0.233 -18.942  31.137  1.00  0.00     0.158 A 
BRANCH  16  19
ATOM     19  O   UNL     1       0.787 -17.097  32.323  1.00  0.00    -0.504 OA
ATOM     20  H   UNL     1       0.669 -17.431  33.274  1.00  0.00     0.293 HD
ENDBRANCH  16  19
BRANCH  18  21
ATOM     21  O   UNL     1      -1.234 -19.008  32.102  1.00  0.00    -0.504 OA
ATOM     22  H   UNL     1      -1.128 -19.582  32.925  1.00  0.00     0.293 HD
ENDBRANCH  18  21
ENDBRANCH   3  13
BRANCH  10  23
ATOM     23  O   UNL     1       0.076 -23.110  23.489  1.00  0.00    -0.507 OA
ATOM     24  H   UNL     1      -0.889 -22.806  23.437  1.00  0.00     0.293 HD
ENDBRANCH  10  23
BRANCH  11  25
ATOM     25  O   UNL     1       2.584 -26.108  26.346  1.00  0.00    -0.508 OA
ATOM     26  H   UNL     1       3.527 -26.292  26.028  1.00  0.00     0.293 HD
ENDBRANCH  11  25
ENDBRANCH   1   2
BRANCH   1  27
ATOM     27  C   UNL     1      -0.287 -17.864  25.975  1.00  0.00     0.265 C 
BRANCH  27  28
ATOM     28  C   UNL     1      -0.658 -16.604  26.765  1.00  0.00     0.190 C 
ATOM     29  C   UNL     1      -1.574 -16.949  27.976  1.00  0.00     0.178 C 
ATOM     30  O   UNL     1      -1.295 -15.685  25.897  1.00  0.00    -0.340 OA
ATOM     31  C   UNL     1      -2.042 -15.663  28.690  1.00  0.00     0.179 C 
ATOM     32  C   UNL     1      -1.500 -14.446  26.556  1.00  0.00     0.279 C 
ATOM     33  C   UNL     1      -2.533 -14.604  27.686  1.00  0.00     0.201 C 
BRANCH  29  34
ATOM     34  O   UNL     1      -2.673 -17.752  27.608  1.00  0.00    -0.387 OA
ATOM     35  H   UNL     1      -3.501 -17.319  27.944  1.00  0.00     0.211 HD
ENDBRANCH  29  34
BRANCH  31  36
ATOM     36  O   UNL     1      -3.066 -15.971  29.605  1.00  0.00    -0.387 OA
ATOM     37  H   UNL     1      -2.636 -16.300  30.438  1.00  0.00     0.211 HD
ENDBRANCH  31  36
BRANCH  32  38
ATOM     38  O   UNL     1      -1.974 -13.507  25.632  1.00  0.00    -0.366 OA
ATOM     39  H   UNL     1      -2.600 -12.916  26.131  1.00  0.00     0.213 HD
ENDBRANCH  32  38
BRANCH  33  40
ATOM     40  O   UNL     1      -3.777 -14.986  27.146  1.00  0.00    -0.385 OA
ATOM     41  H   UNL     1      -4.469 -14.795  27.833  1.00  0.00     0.211 HD
ENDBRANCH  33  40
ENDBRANCH  27  28
ENDBRANCH   1  27
TORSDOF 12
ENDMDL
MODEL 9
REMARK VINA RESULT:    -6.828      1.775      7.115
REMARK INTER + INTRA:         -11.395
REMARK INTER:                 -10.118
REMARK INTRA:                  -1.277
REMARK UNBOUND:                -1.374
REMARK SMILES O=c1c(OC[C@H]2O[C@@H](O)[C@@H](O)[C@@H](O)[C@H]2O)c(-c2ccc(O)c(O)c2)oc2cc(O)cc(O)c12
REMARK SMILES IDX 4 1 3 2 16 3 25 4 2 5 26 6 1 7 33 8 27 9 31 10 28 11 30 12
REMARK SMILES IDX 17 13 18 14 19 15 20 16 24 17 22 18 21 19 23 21 32 23 29 25
REMARK SMILES IDX 5 27 6 28 14 29 7 30 12 31 8 32 10 33 15 34 13 36 9 38 11 40
REMARK H PARENT 21 20 23 22 32 24 29 26 15 35 13 37 9 39 11 41
REMARK Flexibility Score: inf
ROOT
ATOM      1  O   UNL     1      -0.038 -20.405  27.860  1.00  0.00    -0.483 OA
ENDROOT
BRANCH   1   2
ATOM      2  C   UNL     1      -0.332 -19.129  27.347  1.00  0.00     0.211 A 
ATOM      3  C   UNL     1       0.119 -18.820  26.056  1.00  0.00     0.180 A 
ATOM      4  O   UNL     1      -0.166 -17.650  25.498  1.00  0.00    -0.452 OA
ATOM      5  C   UNL     1      -1.055 -18.144  28.057  1.00  0.00     0.239 A 
ATOM      6  C   UNL     1      -0.883 -16.715  26.108  1.00  0.00     0.146 A 
ATOM      7  O   UNL     1      -1.393 -18.346  29.254  1.00  0.00    -0.285 OA
ATOM      8  C   UNL     1      -1.364 -16.919  27.425  1.00  0.00     0.111 A 
ATOM      9  C   UNL     1      -1.164 -15.525  25.430  1.00  0.00     0.094 A 
ATOM     10  C   UNL     1      -2.137 -15.903  28.037  1.00  0.00     0.134 A 
ATOM     11  C   UNL     1      -1.937 -14.532  26.035  1.00  0.00     0.123 A 
ATOM     12  C   UNL     1      -2.416 -14.720  27.336  1.00  0.00     0.093 A 
BRANCH   3  13
ATOM     13  C   UNL     1       0.909 -19.795  25.290  1.00  0.00     0.025 A 
ATOM     14  C   UNL     1       2.308 -19.778  25.368  1.00  0.00     0.016 A 
ATOM     15  C   UNL     1       3.060 -20.734  24.678  1.00  0.00     0.051 A 
ATOM     16  C   UNL     1       2.418 -21.717  23.908  1.00  0.00     0.157 A 
ATOM     17  C   UNL     1       0.268 -20.764  24.506  1.00  0.00     0.062 A 
ATOM     18  C   UNL     1       1.018 -21.734  23.825  1.00  0.00     0.158 A 
BRANCH  16  19
ATOM     19  O   UNL     1       3.165 -22.668  23.216  1.00  0.00    -0.504 OA
ATOM     20  H   UNL     1       4.077 -22.967  23.545  1.00  0.00     0.293 HD
ENDBRANCH  16  19
BRANCH  18  21
ATOM     21  O   UNL     1       0.378 -22.719  23.078  1.00  0.00    -0.504 OA
ATOM     22  H   UNL     1       0.071 -23.580  23.504  1.00  0.00     0.293 HD
ENDBRANCH  18  21
ENDBRANCH   3  13
BRANCH  10  23
ATOM     23  O   UNL     1      -2.647 -16.066  29.326  1.00  0.00    -0.507 OA
ATOM     24  H   UNL     1      -3.392 -15.479  29.685  1.00  0.00     0.293 HD
ENDBRANCH  10  23
BRANCH  11  25
ATOM     25  O   UNL     1      -2.235 -13.366  25.329  1.00  0.00    -0.508 OA
ATOM     26  H   UNL     1      -1.867 -13.200  24.400  1.00  0.00     0.293 HD
ENDBRANCH  11  25
ENDBRANCH   1   2
BRANCH   1  27
ATOM     27  C   UNL     1       0.755 -20.694  29.010  1.00  0.00     0.265 C 
BRANCH  27  28
ATOM     28  C   UNL     1       0.292 -22.021  29.624  1.00  0.00     0.190 C 
ATOM     29  C   UNL     1      -1.146 -22.387  29.155  1.00  0.00     0.178 C 
ATOM     30  O   UNL     1       0.353 -21.922  31.034  1.00  0.00    -0.340 OA
ATOM     31  C   UNL     1      -1.648 -23.657  29.873  1.00  0.00     0.179 C 
ATOM     32  C   UNL     1       0.092 -23.184  31.628  1.00  0.00     0.279 C 
ATOM     33  C   UNL     1      -1.370 -23.598  31.387  1.00  0.00     0.201 C 
BRANCH  29  34
ATOM     34  O   UNL     1      -2.053 -21.321  29.317  1.00  0.00    -0.387 OA
ATOM     35  H   UNL     1      -2.653 -21.537  30.078  1.00  0.00     0.211 HD
ENDBRANCH  29  34
BRANCH  31  36
ATOM     36  O   UNL     1      -3.026 -23.823  29.642  1.00  0.00    -0.387 OA
ATOM     37  H   UNL     1      -3.491 -23.723  30.514  1.00  0.00     0.211 HD
ENDBRANCH  31  36
BRANCH  32  38
ATOM     38  O   UNL     1       0.322 -23.100  33.007  1.00  0.00    -0.366 OA
ATOM     39  H   UNL     1      -0.339 -23.707  33.437  1.00  0.00     0.213 HD
ENDBRANCH  32  38
BRANCH  33  40
ATOM     40  O   UNL     1      -2.236 -22.674  32.004  1.00  0.00    -0.385 OA
ATOM     41  H   UNL     1      -1.786 -22.350  32.829  1.00  0.00     0.211 HD
ENDBRANCH  33  40
ENDBRANCH  27  28
ENDBRANCH   1  27
TORSDOF 12
ENDMDL
