MODEL 1
REMARK VINA RESULT:     9.310      0.000      0.000
REMARK INTER + INTRA:          13.084
REMARK INTER:                  11.215
REMARK INTRA:                   1.868
REMARK UNBOUND:                 1.868
REMARK SMILES O=c1ccn([C@@H]2O[C@@H](CO)[C@H](O)[C@@H]2O)c(=O)[nH]1
REMARK SMILES IDX 6 1 13 2 11 3 8 4 7 5 5 6 3 7 4 8 2 9 17 10 1 11 15 12 16 14
REMARK SMILES IDX 14 15 12 17 9 19 10 20
REMARK H PARENT 17 13 14 16 12 18 10 21
REMARK Flexibility Score: inf
ROOT
ATOM      1  C   UNL     1      43.085  -3.682   3.572  1.00  0.00     0.255 C 
ATOM      2  C   UNL     1      43.241  -5.189   3.334  1.00  0.00     0.196 C 
ATOM      3  C   UNL     1      44.722  -5.429   3.524  1.00  0.00     0.179 C 
ATOM      4  C   UNL     1      45.152  -4.247   4.394  1.00  0.00     0.178 C 
ATOM      5  O   UNL     1      44.226  -3.189   4.245  1.00  0.00    -0.347 OA
ENDROOT
BRANCH   1   6
ATOM      6  N   UNL     1      42.867  -2.937   2.309  1.00  0.00    -0.271 N 
ATOM      7  C   UNL     1      42.110  -2.887   0.033  1.00  0.00     0.090 A 
ATOM      8  C   UNL     1      42.346  -3.578   1.217  1.00  0.00     0.099 A 
ATOM      9  C   UNL     1      42.401  -1.529  -0.016  1.00  0.00     0.253 A 
ATOM     10  N   UNL     1      42.902  -0.905   1.081  1.00  0.00    -0.274 N 
ATOM     11  O   UNL     1      42.198  -0.878  -1.077  1.00  0.00    -0.269 OA
ATOM     12  C   UNL     1      43.128  -1.590   2.237  1.00  0.00     0.330 A 
ATOM     13  H   UNL     1      43.111   0.119   1.040  1.00  0.00     0.175 HD
ATOM     14  O   UNL     1      43.575  -0.967   3.241  1.00  0.00    -0.248 OA
ENDBRANCH   1   6
BRANCH   2  15
ATOM     15  O   UNL     1      42.792  -5.580   2.061  1.00  0.00    -0.386 OA
ATOM     16  H   UNL     1      43.086  -6.519   1.936  1.00  0.00     0.211 HD
ENDBRANCH   2  15
BRANCH   3  17
ATOM     17  O   UNL     1      45.405  -5.378   2.295  1.00  0.00    -0.387 OA
ATOM     18  H   UNL     1      45.262  -4.468   1.924  1.00  0.00     0.211 HD
ENDBRANCH   3  17
BRANCH   4  19
ATOM     19  C   UNL     1      45.282  -4.613   5.882  1.00  0.00     0.191 C 
BRANCH  19  20
ATOM     20  O   UNL     1      46.628  -4.675   6.276  1.00  0.00    -0.394 OA
ATOM     21  H   UNL     1      46.985  -5.541   5.950  1.00  0.00     0.210 HD
ENDBRANCH  19  20
ENDBRANCH   4  19
TORSDOF 5
ENDMDL
MODEL 2
REMARK VINA RESULT:    10.601      1.406      2.011
REMARK INTER + INTRA:          14.639
REMARK INTER:                  11.327
REMARK INTRA:                   3.311
REMARK UNBOUND:                 1.868
REMARK SMILES O=c1ccn([C@@H]2O[C@@H](CO)[C@H](O)[C@@H]2O)c(=O)[nH]1
REMARK SMILES IDX 6 1 13 2 11 3 8 4 7 5 5 6 3 7 4 8 2 9 17 10 1 11 15 12 16 14
REMARK SMILES IDX 14 15 12 17 9 19 10 20
REMARK H PARENT 17 13 14 16 12 18 10 21
REMARK Flexibility Score: inf
ROOT
ATOM      1  C   UNL     1      43.993  -3.356   3.817  1.00  0.00     0.255 C 
ATOM      2  C   UNL     1      43.062  -4.298   4.590  1.00  0.00     0.196 C 
ATOM      3  C   UNL     1      43.642  -5.669   4.328  1.00  0.00     0.179 C 
ATOM      4  C   UNL     1      45.097  -5.363   3.969  1.00  0.00     0.178 C 
ATOM      5  O   UNL     1      45.201  -4.028   3.518  1.00  0.00    -0.347 OA
ENDROOT
BRANCH   1   6
ATOM      6  N   UNL     1      43.365  -2.845   2.576  1.00  0.00    -0.271 N 
ATOM      7  C   UNL     1      42.792  -1.007   1.144  1.00  0.00     0.090 A 
ATOM      8  C   UNL     1      43.352  -1.501   2.317  1.00  0.00     0.099 A 
ATOM      9  C   UNL     1      42.255  -1.907   0.231  1.00  0.00     0.253 A 
ATOM     10  N   UNL     1      42.290  -3.239   0.495  1.00  0.00    -0.274 N 
ATOM     11  O   UNL     1      41.739  -1.488  -0.840  1.00  0.00    -0.269 OA
ATOM     12  C   UNL     1      42.844  -3.714   1.646  1.00  0.00     0.330 A 
ATOM     13  H   UNL     1      41.892  -3.911  -0.200  1.00  0.00     0.175 HD
ATOM     14  O   UNL     1      42.875  -4.960   1.843  1.00  0.00    -0.248 OA
ENDBRANCH   1   6
BRANCH   2  15
ATOM     15  O   UNL     1      41.725  -4.191   4.172  1.00  0.00    -0.386 OA
ATOM     16  H   UNL     1      41.436  -3.265   4.385  1.00  0.00     0.211 HD
ENDBRANCH   2  15
BRANCH   3  17
ATOM     17  O   UNL     1      43.010  -6.286   3.233  1.00  0.00    -0.387 OA
ATOM     18  H   UNL     1      42.210  -5.738   3.017  1.00  0.00     0.211 HD
ENDBRANCH   3  17
BRANCH   4  19
ATOM     19  C   UNL     1      46.064  -5.588   5.143  1.00  0.00     0.191 C 
BRANCH  19  20
ATOM     20  O   UNL     1      46.155  -4.447   5.956  1.00  0.00    -0.394 OA
ATOM     21  H   UNL     1      47.119  -4.299   6.138  1.00  0.00     0.210 HD
ENDBRANCH  19  20
ENDBRANCH   4  19
TORSDOF 5
ENDMDL
MODEL 3
REMARK VINA RESULT:    11.126      2.573      5.110
REMARK INTER + INTRA:          15.271
REMARK INTER:                  14.290
REMARK INTRA:                   0.981
REMARK UNBOUND:                 1.868
REMARK SMILES O=c1ccn([C@@H]2O[C@@H](CO)[C@H](O)[C@@H]2O)c(=O)[nH]1
REMARK SMILES IDX 6 1 13 2 11 3 8 4 7 5 5 6 3 7 4 8 2 9 17 10 1 11 15 12 16 14
REMARK SMILES IDX 14 15 12 17 9 19 10 20
REMARK H PARENT 17 13 14 16 12 18 10 21
REMARK Flexibility Score: inf
ROOT
ATOM      1  C   UNL     1      42.663  -4.644   4.122  1.00  0.00     0.255 C 
ATOM      2  C   UNL     1      44.097  -4.388   4.601  1.00  0.00     0.196 C 
ATOM      3  C   UNL     1      44.749  -3.699   3.424  1.00  0.00     0.179 C 
ATOM      4  C   UNL     1      43.557  -3.109   2.669  1.00  0.00     0.178 C 
ATOM      5  O   UNL     1      42.385  -3.824   3.005  1.00  0.00    -0.347 OA
ENDROOT
BRANCH   1   6
ATOM      6  N   UNL     1      42.432  -6.069   3.789  1.00  0.00    -0.271 N 
ATOM      7  C   UNL     1      41.792  -8.282   4.461  1.00  0.00     0.090 A 
ATOM      8  C   UNL     1      42.041  -6.947   4.764  1.00  0.00     0.099 A 
ATOM      9  C   UNL     1      41.936  -8.706   3.146  1.00  0.00     0.253 A 
ATOM     10  N   UNL     1      42.309  -7.818   2.187  1.00  0.00    -0.274 N 
ATOM     11  O   UNL     1      41.719  -9.910   2.843  1.00  0.00    -0.269 OA
ATOM     12  C   UNL     1      42.548  -6.512   2.492  1.00  0.00     0.330 A 
ATOM     13  H   UNL     1      42.407  -8.142   1.198  1.00  0.00     0.175 HD
ATOM     14  O   UNL     1      42.872  -5.716   1.568  1.00  0.00    -0.248 OA
ENDBRANCH   1   6
BRANCH   2  15
ATOM     15  O   UNL     1      44.759  -5.573   4.965  1.00  0.00    -0.386 OA
ATOM     16  H   UNL     1      45.249  -5.881   4.158  1.00  0.00     0.211 HD
ENDBRANCH   2  15
BRANCH   3  17
ATOM     17  O   UNL     1      45.414  -4.625   2.600  1.00  0.00    -0.387 OA
ATOM     18  H   UNL     1      44.739  -5.296   2.318  1.00  0.00     0.211 HD
ENDBRANCH   3  17
BRANCH   4  19
ATOM     19  C   UNL     1      43.349  -1.612   2.951  1.00  0.00     0.191 C 
BRANCH  19  20
ATOM     20  O   UNL     1      43.241  -0.878   1.759  1.00  0.00    -0.394 OA
ATOM     21  H   UNL     1      43.680  -1.416   1.049  1.00  0.00     0.210 HD
ENDBRANCH  19  20
ENDBRANCH   4  19
TORSDOF 5
ENDMDL
MODEL 4
REMARK VINA RESULT:    11.220      1.084      1.688
REMARK INTER + INTRA:          15.384
REMARK INTER:                  12.250
REMARK INTRA:                   3.135
REMARK UNBOUND:                 1.868
REMARK SMILES O=c1ccn([C@@H]2O[C@@H](CO)[C@H](O)[C@@H]2O)c(=O)[nH]1
REMARK SMILES IDX 6 1 13 2 11 3 8 4 7 5 5 6 3 7 4 8 2 9 17 10 1 11 15 12 16 14
REMARK SMILES IDX 14 15 12 17 9 19 10 20
REMARK H PARENT 17 13 14 16 12 18 10 21
REMARK Flexibility Score: inf
ROOT
ATOM      1  C   UNL     1      43.326  -4.050   3.846  1.00  0.00     0.255 C 
ATOM      2  C   UNL     1      43.843  -5.435   3.439  1.00  0.00     0.196 C 
ATOM      3  C   UNL     1      45.326  -5.360   3.719  1.00  0.00     0.179 C 
ATOM      4  C   UNL     1      45.422  -4.244   4.761  1.00  0.00     0.178 C 
ATOM      5  O   UNL     1      44.284  -3.412   4.667  1.00  0.00    -0.347 OA
ENDROOT
BRANCH   1   6
ATOM      6  N   UNL     1      43.007  -3.205   2.670  1.00  0.00    -0.271 N 
ATOM      7  C   UNL     1      43.134  -1.096   1.533  1.00  0.00     0.090 A 
ATOM      8  C   UNL     1      43.401  -1.895   2.641  1.00  0.00     0.099 A 
ATOM      9  C   UNL     1      42.470  -1.659   0.450  1.00  0.00     0.253 A 
ATOM     10  N   UNL     1      42.101  -2.966   0.489  1.00  0.00    -0.274 N 
ATOM     11  O   UNL     1      42.214  -0.959  -0.567  1.00  0.00    -0.269 OA
ATOM     12  C   UNL     1      42.368  -3.741   1.577  1.00  0.00     0.330 A 
ATOM     13  H   UNL     1      41.609  -3.385  -0.333  1.00  0.00     0.175 HD
ATOM     14  O   UNL     1      42.026  -4.956   1.564  1.00  0.00    -0.248 OA
ENDBRANCH   1   6
BRANCH   2  15
ATOM     15  O   UNL     1      43.564  -5.736   2.095  1.00  0.00    -0.386 OA
ATOM     16  H   UNL     1      44.059  -5.071   1.549  1.00  0.00     0.211 HD
ENDBRANCH   2  15
BRANCH   3  17
ATOM     17  O   UNL     1      46.042  -4.987   2.567  1.00  0.00    -0.387 OA
ATOM     18  H   UNL     1      45.403  -5.026   1.807  1.00  0.00     0.211 HD
ENDBRANCH   3  17
BRANCH   4  19
ATOM     19  C   UNL     1      45.556  -4.775   6.198  1.00  0.00     0.191 C 
BRANCH  19  20
ATOM     20  O   UNL     1      46.886  -4.708   6.644  1.00  0.00    -0.394 OA
ATOM     21  H   UNL     1      47.031  -5.488   7.239  1.00  0.00     0.210 HD
ENDBRANCH  19  20
ENDBRANCH   4  19
TORSDOF 5
ENDMDL
MODEL 5
REMARK VINA RESULT:    11.300      2.752      5.285
REMARK INTER + INTRA:          15.481
REMARK INTER:                  13.672
REMARK INTRA:                   1.809
REMARK UNBOUND:                 1.868
REMARK SMILES O=c1ccn([C@@H]2O[C@@H](CO)[C@H](O)[C@@H]2O)c(=O)[nH]1
REMARK SMILES IDX 6 1 13 2 11 3 8 4 7 5 5 6 3 7 4 8 2 9 17 10 1 11 15 12 16 14
REMARK SMILES IDX 14 15 12 17 9 19 10 20
REMARK H PARENT 17 13 14 16 12 18 10 21
REMARK Flexibility Score: inf
ROOT
ATOM      1  C   UNL     1      43.485  -4.893   3.060  1.00  0.00     0.255 C 
ATOM      2  C   UNL     1      43.568  -4.670   1.545  1.00  0.00     0.196 C 
ATOM      3  C   UNL     1      42.584  -3.550   1.294  1.00  0.00     0.179 C 
ATOM      4  C   UNL     1      42.492  -2.863   2.657  1.00  0.00     0.178 C 
ATOM      5  O   UNL     1      42.881  -3.769   3.669  1.00  0.00    -0.347 OA
ENDROOT
BRANCH   1   6
ATOM      6  N   UNL     1      42.742  -6.129   3.402  1.00  0.00    -0.271 N 
ATOM      7  C   UNL     1      42.131  -8.393   2.893  1.00  0.00     0.090 A 
ATOM      8  C   UNL     1      42.800  -7.215   2.572  1.00  0.00     0.099 A 
ATOM      9  C   UNL     1      41.413  -8.449   4.081  1.00  0.00     0.253 A 
ATOM     10  N   UNL     1      41.380  -7.367   4.902  1.00  0.00    -0.274 N 
ATOM     11  O   UNL     1      40.796  -9.502   4.397  1.00  0.00    -0.269 OA
ATOM     12  C   UNL     1      42.039  -6.219   4.581  1.00  0.00     0.330 A 
ATOM     13  H   UNL     1      40.845  -7.419   5.799  1.00  0.00     0.175 HD
ATOM     14  O   UNL     1      42.000  -5.244   5.382  1.00  0.00    -0.248 OA
ENDBRANCH   1   6
BRANCH   2  15
ATOM     15  O   UNL     1      43.258  -5.831   0.815  1.00  0.00    -0.386 OA
ATOM     16  H   UNL     1      42.269  -5.910   0.818  1.00  0.00     0.211 HD
ENDBRANCH   2  15
BRANCH   3  17
ATOM     17  O   UNL     1      41.321  -4.055   0.937  1.00  0.00    -0.387 OA
ATOM     18  H   UNL     1      41.459  -4.996   0.649  1.00  0.00     0.211 HD
ENDBRANCH   3  17
BRANCH   4  19
ATOM     19  C   UNL     1      43.348  -1.589   2.747  1.00  0.00     0.191 C 
BRANCH  19  20
ATOM     20  O   UNL     1      43.326  -0.875   1.538  1.00  0.00    -0.394 OA
ATOM     21  H   UNL     1      43.817  -0.027   1.695  1.00  0.00     0.210 HD
ENDBRANCH  19  20
ENDBRANCH   4  19
TORSDOF 5
ENDMDL
MODEL 6
REMARK VINA RESULT:    11.376      2.272      5.691
REMARK INTER + INTRA:          15.572
REMARK INTER:                  15.157
REMARK INTRA:                   0.415
REMARK UNBOUND:                 1.868
REMARK SMILES O=c1ccn([C@@H]2O[C@@H](CO)[C@H](O)[C@@H]2O)c(=O)[nH]1
REMARK SMILES IDX 6 1 13 2 11 3 8 4 7 5 5 6 3 7 4 8 2 9 17 10 1 11 15 12 16 14
REMARK SMILES IDX 14 15 12 17 9 19 10 20
REMARK H PARENT 17 13 14 16 12 18 10 21
REMARK Flexibility Score: inf
ROOT
ATOM      1  C   UNL     1      44.706  -4.362   3.112  1.00  0.00     0.255 C 
ATOM      2  C   UNL     1      43.490  -5.288   2.991  1.00  0.00     0.196 C 
ATOM      3  C   UNL     1      42.316  -4.376   3.266  1.00  0.00     0.179 C 
ATOM      4  C   UNL     1      42.874  -2.991   2.933  1.00  0.00     0.178 C 
ATOM      5  O   UNL     1      44.284  -3.016   3.024  1.00  0.00    -0.347 OA
ENDROOT
BRANCH   1   6
ATOM      6  N   UNL     1      45.456  -4.587   4.371  1.00  0.00    -0.271 N 
ATOM      7  C   UNL     1      45.527  -4.611   6.769  1.00  0.00     0.090 A 
ATOM      8  C   UNL     1      44.846  -4.377   5.579  1.00  0.00     0.099 A 
ATOM      9  C   UNL     1      46.836  -5.076   6.709  1.00  0.00     0.253 A 
ATOM     10  N   UNL     1      47.420  -5.295   5.503  1.00  0.00    -0.274 N 
ATOM     11  O   UNL     1      47.477  -5.295   7.772  1.00  0.00    -0.269 OA
ATOM     12  C   UNL     1      46.744  -5.065   4.342  1.00  0.00     0.330 A 
ATOM     13  H   UNL     1      48.401  -5.653   5.464  1.00  0.00     0.175 HD
ATOM     14  O   UNL     1      47.317  -5.302   3.242  1.00  0.00    -0.248 OA
ENDBRANCH   1   6
BRANCH   2  15
ATOM     15  O   UNL     1      43.550  -6.371   3.885  1.00  0.00    -0.386 OA
ATOM     16  H   UNL     1      44.307  -6.186   4.500  1.00  0.00     0.211 HD
ENDBRANCH   2  15
BRANCH   3  17
ATOM     17  O   UNL     1      41.948  -4.418   4.622  1.00  0.00    -0.387 OA
ATOM     18  H   UNL     1      41.773  -3.481   4.902  1.00  0.00     0.211 HD
ENDBRANCH   3  17
BRANCH   4  19
ATOM     19  C   UNL     1      42.454  -2.494   1.539  1.00  0.00     0.191 C 
BRANCH  19  20
ATOM     20  O   UNL     1      42.829  -1.156   1.341  1.00  0.00    -0.394 OA
ATOM     21  H   UNL     1      43.282  -0.857   2.171  1.00  0.00     0.210 HD
ENDBRANCH  19  20
ENDBRANCH   4  19
TORSDOF 5
ENDMDL
MODEL 7
REMARK VINA RESULT:    11.448      1.578      5.621
REMARK INTER + INTRA:          15.659
REMARK INTER:                  14.122
REMARK INTRA:                   1.537
REMARK UNBOUND:                 1.868
REMARK SMILES O=c1ccn([C@@H]2O[C@@H](CO)[C@H](O)[C@@H]2O)c(=O)[nH]1
REMARK SMILES IDX 6 1 13 2 11 3 8 4 7 5 5 6 3 7 4 8 2 9 17 10 1 11 15 12 16 14
REMARK SMILES IDX 14 15 12 17 9 19 10 20
REMARK H PARENT 17 13 14 16 12 18 10 21
REMARK Flexibility Score: inf
ROOT
ATOM      1  C   UNL     1      42.224  -3.234   1.960  1.00  0.00     0.255 C 
ATOM      2  C   UNL     1      42.146  -1.730   2.247  1.00  0.00     0.196 C 
ATOM      3  C   UNL     1      42.867  -1.104   1.075  1.00  0.00     0.179 C 
ATOM      4  C   UNL     1      42.760  -2.179  -0.007  1.00  0.00     0.178 C 
ATOM      5  O   UNL     1      42.545  -3.438   0.598  1.00  0.00    -0.347 OA
ENDROOT
BRANCH   1   6
ATOM      6  N   UNL     1      43.208  -3.918   2.832  1.00  0.00    -0.271 N 
ATOM      7  C   UNL     1      44.964  -3.811   4.463  1.00  0.00     0.090 A 
ATOM      8  C   UNL     1      44.054  -3.184   3.618  1.00  0.00     0.099 A 
ATOM      9  C   UNL     1      44.989  -5.200   4.503  1.00  0.00     0.253 A 
ATOM     10  N   UNL     1      44.132  -5.914   3.728  1.00  0.00    -0.274 N 
ATOM     11  O   UNL     1      45.804  -5.796   5.258  1.00  0.00    -0.269 OA
ATOM     12  C   UNL     1      43.242  -5.291   2.905  1.00  0.00     0.330 A 
ATOM     13  H   UNL     1      44.150  -6.958   3.769  1.00  0.00     0.175 HD
ATOM     14  O   UNL     1      42.448  -5.991   2.217  1.00  0.00    -0.248 OA
ENDBRANCH   1   6
BRANCH   2  15
ATOM     15  O   UNL     1      42.727  -1.390   3.481  1.00  0.00    -0.386 OA
ATOM     16  H   UNL     1      42.102  -0.757   3.922  1.00  0.00     0.211 HD
ENDBRANCH   2  15
BRANCH   3  17
ATOM     17  O   UNL     1      44.222  -0.876   1.377  1.00  0.00    -0.387 OA
ATOM     18  H   UNL     1      44.689  -1.747   1.276  1.00  0.00     0.211 HD
ENDBRANCH   3  17
BRANCH   4  19
ATOM     19  C   UNL     1      41.642  -1.897  -1.024  1.00  0.00     0.191 C 
BRANCH  19  20
ATOM     20  O   UNL     1      42.116  -1.132  -2.102  1.00  0.00    -0.394 OA
ATOM     21  H   UNL     1      42.822  -1.668  -2.548  1.00  0.00     0.210 HD
ENDBRANCH  19  20
ENDBRANCH   4  19
TORSDOF 5
ENDMDL
