MODEL 1
REMARK VINA RESULT:    -6.348      0.000      0.000
REMARK INTER + INTRA:         -15.799
REMARK INTER:                 -13.399
REMARK INTRA:                  -2.400
REMARK UNBOUND:                -2.400
REMARK SMILES CCC(=O)CCCCC[C@H]1NC(=O)[C@@H]2CCCCN2C(=O)[C@@H]([C@@H](C)CC)NC(=O)[C@@H](Cc2cn(OC)c3ccccc23)NC1=O
REMARK SMILES IDX 9 1 10 2 44 3 43 4 45 6 30 7 28 8 27 9 29 11 22 12 23 14
REMARK SMILES IDX 24 15 25 16 26 17 31 18 32 19 33 20 42 21 34 22 37 23 41 24
REMARK SMILES IDX 38 25 40 26 39 27 35 28 36 29 11 30 12 31 13 33 14 34 19 35
REMARK SMILES IDX 15 36 18 37 16 38 17 39 20 40 21 41 8 43 7 44 6 45 5 46 3 47
REMARK SMILES IDX 4 48 2 49 1 50
REMARK H PARENT 43 5 27 10 11 32
REMARK Flexibility Score: 80.00
ROOT
ATOM      1  C   UNL     1      20.536 -29.505  22.038  1.00  0.00     0.035 C 
ENDROOT
BRANCH   1   2
ATOM      2  C   UNL     1      21.073 -30.950  22.168  1.00  0.00     0.171 C 
BRANCH   2   3
ATOM      3  C   UNL     1      19.971 -31.966  22.298  1.00  0.00     0.243 C 
ATOM      4  N   UNL     1      19.480 -32.343  23.587  1.00  0.00    -0.342 N 
ATOM      5  H   UNL     1      19.514 -31.641  24.362  1.00  0.00     0.164 HD
ATOM      6  O   UNL     1      19.435 -32.446  21.263  1.00  0.00    -0.273 OA
BRANCH   4   7
ATOM      7  C   UNL     1      18.926 -33.665  23.863  1.00  0.00     0.175 C 
BRANCH   7   8
ATOM      8  C   UNL     1      19.631 -34.232  25.067  1.00  0.00     0.243 C 
ATOM      9  N   UNL     1      21.053 -34.425  25.052  1.00  0.00    -0.342 N 
ATOM     10  H   UNL     1      21.548 -34.237  25.964  1.00  0.00     0.164 HD
ATOM     11  O   UNL     1      19.000 -34.474  26.125  1.00  0.00    -0.273 OA
BRANCH   9  12
ATOM     12  C   UNL     1      21.752 -35.232  24.044  1.00  0.00     0.174 CG0
ATOM     13  G   UNL     1      23.206 -34.796  23.975  1.00  0.00     0.000 G0
BRANCH  12  14
ATOM     14  C   UNL     1      21.512 -36.759  24.345  1.00  0.00     0.018 C 
ATOM     15  C   UNL     1      21.465 -36.981  25.874  1.00  0.00     0.010 C 
BRANCH  14  16
ATOM     16  C   UNL     1      20.254 -37.364  23.655  1.00  0.00     0.002 C 
ATOM     17  C   UNL     1      19.125 -37.730  24.624  1.00  0.00     0.004 C 
ENDBRANCH  14  16
ENDBRANCH  12  14
ENDBRANCH   9  12
ENDBRANCH   7   8
BRANCH   7  18
ATOM     18  C   UNL     1      17.395 -33.552  24.041  1.00  0.00     0.073 C 
BRANCH  18  19
ATOM     19  C   UNL     1      16.664 -33.786  22.751  1.00  0.00    -0.016 A 
ATOM     20  C   UNL     1      15.622 -33.005  22.267  1.00  0.00     0.134 A 
ATOM     21  C   UNL     1      16.875 -34.767  21.794  1.00  0.00     0.006 A 
ATOM     22  N   UNL     1      15.211 -33.452  21.060  1.00  0.00    -0.191 N 
ATOM     23  C   UNL     1      15.976 -34.534  20.766  1.00  0.00     0.087 A 
ATOM     24  C   UNL     1      17.746 -35.854  21.783  1.00  0.00     0.011 A 
ATOM     25  C   UNL     1      15.971 -35.365  19.630  1.00  0.00     0.030 A 
ATOM     26  C   UNL     1      17.756 -36.688  20.651  1.00  0.00     0.001 A 
ATOM     27  C   UNL     1      16.874 -36.441  19.578  1.00  0.00     0.002 A 
BRANCH  22  28
ATOM     28  O   UNL     1      14.137 -32.875  20.395  1.00  0.00    -0.417 OA
ATOM     29  C   UNL     1      13.489 -31.672  20.784  1.00  0.00     0.313 C 
ENDBRANCH  22  28
ENDBRANCH  18  19
ENDBRANCH   7  18
ENDBRANCH   4   7
ENDBRANCH   2   3
BRANCH   2  30
ATOM     30  N   UNL     1      22.025 -31.085  23.274  1.00  0.00    -0.343 N 
ATOM     31  C   UNL     1      23.104 -32.035  23.218  1.00  0.00     0.243 C 
ATOM     32  H   UNL     1      21.822 -30.601  24.174  1.00  0.00     0.164 HD
ATOM     33  O   UNL     1      23.413 -32.569  22.119  1.00  0.00    -0.273 OA
BRANCH  31  34
ATOM     34  C   UNL     1      23.891 -32.376  24.467  1.00  0.00     0.174 C 
ATOM     35  N   UNL     1      23.771 -33.794  24.872  1.00  0.00    -0.329 N 
ATOM     36  C   UNL     1      25.368 -32.026  24.272  1.00  0.00     0.035 C 
ATOM     37  C   UNL     1      24.512 -34.207  26.068  1.00  0.00     0.120 C 
ATOM     38  C   UNL     1      26.194 -32.404  25.510  1.00  0.00     0.004 C 
ATOM     39  C   UNL     1      26.002 -33.875  25.893  1.00  0.00     0.022 C 
BRANCH  35  40
ATOM     40  C   UNL     1      23.236 -34.821  24.005  1.00  0.00     0.246 CG0
ATOM     41  O   UNL     1      24.019 -35.410  23.213  1.00  0.00    -0.272 OA
ATOM     42  G   UNL     1      21.765 -35.197  24.024  1.00  0.00     0.000 G0
ENDBRANCH  35  40
ENDBRANCH  31  34
ENDBRANCH   2  30
ENDBRANCH   1   2
BRANCH   1  43
ATOM     43  C   UNL     1      20.912 -28.795  20.731  1.00  0.00     0.003 C 
BRANCH  43  44
ATOM     44  C   UNL     1      19.757 -27.888  20.263  1.00  0.00     0.001 C 
BRANCH  44  45
ATOM     45  C   UNL     1      19.844 -26.490  20.879  1.00  0.00     0.008 C 
BRANCH  45  46
ATOM     46  C   UNL     1      20.393 -25.457  19.876  1.00  0.00     0.075 C 
BRANCH  46  47
ATOM     47  C   UNL     1      21.863 -25.240  20.084  1.00  0.00     0.132 C 
ATOM     48  O   UNL     1      22.599 -25.137  19.111  1.00  0.00    -0.300 OA
BRANCH  47  49
ATOM     49  C   UNL     1      22.428 -25.170  21.481  1.00  0.00     0.072 C 
ATOM     50  C   UNL     1      22.926 -23.769  21.844  1.00  0.00     0.012 C 
ENDBRANCH  47  49
ENDBRANCH  46  47
ENDBRANCH  45  46
ENDBRANCH  44  45
ENDBRANCH  43  44
ENDBRANCH   1  43
TORSDOF 12
ENDMDL
MODEL 2
REMARK VINA RESULT:    -6.281      1.609      3.012
REMARK INTER + INTRA:         -15.658
REMARK INTER:                 -13.055
REMARK INTRA:                  -2.603
REMARK UNBOUND:                -2.400
REMARK SMILES CCC(=O)CCCCC[C@H]1NC(=O)[C@@H]2CCCCN2C(=O)[C@@H]([C@@H](C)CC)NC(=O)[C@@H](Cc2cn(OC)c3ccccc23)NC1=O
REMARK SMILES IDX 9 1 10 2 44 3 43 4 45 6 30 7 28 8 27 9 29 11 22 12 23 14
REMARK SMILES IDX 24 15 25 16 26 17 31 18 32 19 33 20 42 21 34 22 37 23 41 24
REMARK SMILES IDX 38 25 40 26 39 27 35 28 36 29 11 30 12 31 13 33 14 34 19 35
REMARK SMILES IDX 15 36 18 37 16 38 17 39 20 40 21 41 8 43 7 44 6 45 5 46 3 47
REMARK SMILES IDX 4 48 2 49 1 50
REMARK H PARENT 43 5 27 10 11 32
REMARK Flexibility Score: 80.00
ROOT
ATOM      1  C   UNL     1      21.874 -28.681  22.327  1.00  0.00     0.035 C 
ENDROOT
BRANCH   1   2
ATOM      2  C   UNL     1      21.684 -30.217  22.359  1.00  0.00     0.171 C 
BRANCH   2   3
ATOM      3  C   UNL     1      20.236 -30.619  22.431  1.00  0.00     0.243 C 
ATOM      4  N   UNL     1      19.635 -30.943  23.688  1.00  0.00    -0.342 N 
ATOM      5  H   UNL     1      20.000 -30.480  24.553  1.00  0.00     0.164 HD
ATOM      6  O   UNL     1      19.530 -30.612  21.388  1.00  0.00    -0.273 OA
BRANCH   4   7
ATOM      7  C   UNL     1      18.530 -31.888  23.811  1.00  0.00     0.175 C 
BRANCH   7   8
ATOM      8  C   UNL     1      18.839 -32.833  24.942  1.00  0.00     0.243 C 
ATOM      9  N   UNL     1      20.039 -33.621  24.923  1.00  0.00    -0.342 N 
ATOM     10  H   UNL     1      20.502 -33.768  25.859  1.00  0.00     0.164 HD
ATOM     11  O   UNL     1      18.094 -32.894  25.951  1.00  0.00    -0.273 OA
BRANCH   9  12
ATOM     12  C   UNL     1      20.394 -34.534  23.829  1.00  0.00     0.174 CG0
ATOM     13  G   UNL     1      21.895 -34.763  23.835  1.00  0.00     0.000 G0
BRANCH  12  14
ATOM     14  C   UNL     1      19.506 -35.832  23.929  1.00  0.00     0.018 C 
ATOM     15  C   UNL     1      19.398 -36.268  25.408  1.00  0.00     0.010 C 
BRANCH  14  16
ATOM     16  C   UNL     1      18.096 -35.703  23.282  1.00  0.00     0.002 C 
ATOM     17  C   UNL     1      18.107 -35.713  21.751  1.00  0.00     0.004 C 
ENDBRANCH  14  16
ENDBRANCH  12  14
ENDBRANCH   9  12
ENDBRANCH   7   8
BRANCH   7  18
ATOM     18  C   UNL     1      17.209 -31.109  24.003  1.00  0.00     0.073 C 
BRANCH  18  19
ATOM     19  C   UNL     1      16.169 -31.519  23.001  1.00  0.00    -0.016 A 
ATOM     20  C   UNL     1      16.276 -32.595  22.129  1.00  0.00     0.134 A 
ATOM     21  C   UNL     1      14.924 -30.959  22.757  1.00  0.00     0.006 A 
ATOM     22  N   UNL     1      15.153 -32.724  21.390  1.00  0.00    -0.191 N 
ATOM     23  C   UNL     1      14.321 -31.721  21.770  1.00  0.00     0.087 A 
ATOM     24  C   UNL     1      14.317 -29.825  23.291  1.00  0.00     0.011 A 
ATOM     25  C   UNL     1      13.023 -31.404  21.326  1.00  0.00     0.030 A 
ATOM     26  C   UNL     1      13.018 -29.501  22.861  1.00  0.00     0.001 A 
ATOM     27  C   UNL     1      12.374 -30.290  21.886  1.00  0.00     0.002 A 
BRANCH  22  28
ATOM     28  O   UNL     1      15.038 -33.690  20.398  1.00  0.00    -0.417 OA
ATOM     29  C   UNL     1      15.945 -33.859  19.318  1.00  0.00     0.313 C 
ENDBRANCH  22  28
ENDBRANCH  18  19
ENDBRANCH   7  18
ENDBRANCH   4   7
ENDBRANCH   2   3
BRANCH   2  30
ATOM     30  N   UNL     1      22.443 -30.841  23.447  1.00  0.00    -0.343 N 
ATOM     31  C   UNL     1      23.002 -32.159  23.305  1.00  0.00     0.243 C 
ATOM     32  H   UNL     1      22.438 -30.391  24.386  1.00  0.00     0.164 HD
ATOM     33  O   UNL     1      23.087 -32.685  22.163  1.00  0.00    -0.273 OA
BRANCH  31  34
ATOM     34  C   UNL     1      23.517 -32.907  24.517  1.00  0.00     0.174 C 
ATOM     35  N   UNL     1      22.789 -34.166  24.788  1.00  0.00    -0.329 N 
ATOM     36  C   UNL     1      25.009 -33.207  24.358  1.00  0.00     0.035 C 
ATOM     37  C   UNL     1      23.234 -34.955  25.942  1.00  0.00     0.120 C 
ATOM     38  C   UNL     1      25.545 -34.005  25.556  1.00  0.00     0.004 C 
ATOM     39  C   UNL     1      24.729 -35.279  25.800  1.00  0.00     0.022 C 
BRANCH  35  40
ATOM     40  C   UNL     1      21.904 -34.790  23.828  1.00  0.00     0.246 CG0
ATOM     41  O   UNL     1      22.395 -35.580  22.979  1.00  0.00    -0.272 OA
ATOM     42  G   UNL     1      20.411 -34.509  23.818  1.00  0.00     0.000 G0
ENDBRANCH  35  40
ENDBRANCH  31  34
ENDBRANCH   2  30
ENDBRANCH   1   2
BRANCH   1  43
ATOM     43  C   UNL     1      23.004 -28.155  23.222  1.00  0.00     0.003 C 
BRANCH  43  44
ATOM     44  C   UNL     1      22.676 -26.734  23.718  1.00  0.00     0.001 C 
BRANCH  44  45
ATOM     45  C   UNL     1      21.753 -25.990  22.749  1.00  0.00     0.008 C 
BRANCH  45  46
ATOM     46  C   UNL     1      22.547 -25.089  21.783  1.00  0.00     0.075 C 
BRANCH  46  47
ATOM     47  C   UNL     1      22.076 -25.277  20.369  1.00  0.00     0.132 C 
ATOM     48  O   UNL     1      20.917 -25.006  20.081  1.00  0.00    -0.300 OA
BRANCH  47  49
ATOM     49  C   UNL     1      23.019 -25.813  19.322  1.00  0.00     0.072 C 
ATOM     50  C   UNL     1      23.989 -26.855  19.884  1.00  0.00     0.012 C 
ENDBRANCH  47  49
ENDBRANCH  46  47
ENDBRANCH  45  46
ENDBRANCH  44  45
ENDBRANCH  43  44
ENDBRANCH   1  43
TORSDOF 12
ENDMDL
MODEL 3
REMARK VINA RESULT:    -6.168      2.539      7.244
REMARK INTER + INTRA:         -15.418
REMARK INTER:                 -12.806
REMARK INTRA:                  -2.612
REMARK UNBOUND:                -2.400
REMARK SMILES CCC(=O)CCCCC[C@H]1NC(=O)[C@@H]2CCCCN2C(=O)[C@@H]([C@@H](C)CC)NC(=O)[C@@H](Cc2cn(OC)c3ccccc23)NC1=O
REMARK SMILES IDX 9 1 10 2 44 3 43 4 45 6 30 7 28 8 27 9 29 11 22 12 23 14
REMARK SMILES IDX 24 15 25 16 26 17 31 18 32 19 33 20 42 21 34 22 37 23 41 24
REMARK SMILES IDX 38 25 40 26 39 27 35 28 36 29 11 30 12 31 13 33 14 34 19 35
REMARK SMILES IDX 15 36 18 37 16 38 17 39 20 40 21 41 8 43 7 44 6 45 5 46 3 47
REMARK SMILES IDX 4 48 2 49 1 50
REMARK H PARENT 43 5 27 10 11 32
REMARK Flexibility Score: 80.00
ROOT
ATOM      1  C   UNL     1      18.760 -33.566  25.058  1.00  0.00     0.035 C 
ENDROOT
BRANCH   1   2
ATOM      2  C   UNL     1      19.665 -32.311  25.099  1.00  0.00     0.171 C 
BRANCH   2   3
ATOM      3  C   UNL     1      19.133 -31.188  24.251  1.00  0.00     0.243 C 
ATOM      4  N   UNL     1      19.453 -31.115  22.859  1.00  0.00    -0.342 N 
ATOM      5  H   UNL     1      19.629 -32.004  22.337  1.00  0.00     0.164 HD
ATOM      6  O   UNL     1      18.352 -30.337  24.754  1.00  0.00    -0.273 OA
BRANCH   4   7
ATOM      7  C   UNL     1      19.537 -29.850  22.136  1.00  0.00     0.175 C 
BRANCH   7   8
ATOM      8  C   UNL     1      20.897 -29.760  21.496  1.00  0.00     0.243 C 
ATOM      9  N   UNL     1      22.084 -29.807  22.303  1.00  0.00    -0.342 N 
ATOM     10  H   UNL     1      22.903 -30.317  21.877  1.00  0.00     0.164 HD
ATOM     11  O   UNL     1      21.018 -29.716  20.247  1.00  0.00    -0.273 OA
BRANCH   9  12
ATOM     12  C   UNL     1      22.350 -28.882  23.410  1.00  0.00     0.174 CG0
ATOM     13  G   UNL     1      23.371 -29.504  24.348  1.00  0.00     0.000 G0
BRANCH  12  14
ATOM     14  C   UNL     1      22.733 -27.469  22.826  1.00  0.00     0.018 C 
ATOM     15  C   UNL     1      23.905 -27.625  21.830  1.00  0.00     0.010 C 
BRANCH  14  16
ATOM     16  C   UNL     1      21.549 -26.696  22.177  1.00  0.00     0.002 C 
ATOM     17  C   UNL     1      21.854 -26.141  20.782  1.00  0.00     0.004 C 
ENDBRANCH  14  16
ENDBRANCH  12  14
ENDBRANCH   9  12
ENDBRANCH   7   8
BRANCH   7  18
ATOM     18  C   UNL     1      18.373 -29.760  21.124  1.00  0.00     0.073 C 
BRANCH  18  19
ATOM     19  C   UNL     1      17.553 -31.018  21.103  1.00  0.00    -0.016 A 
ATOM     20  C   UNL     1      17.784 -32.112  20.278  1.00  0.00     0.134 A 
ATOM     21  C   UNL     1      16.458 -31.358  21.882  1.00  0.00     0.006 A 
ATOM     22  N   UNL     1      16.899 -33.099  20.536  1.00  0.00    -0.191 N 
ATOM     23  C   UNL     1      16.082 -32.641  21.519  1.00  0.00     0.087 A 
ATOM     24  C   UNL     1      15.753 -30.622  22.831  1.00  0.00     0.011 A 
ATOM     25  C   UNL     1      15.001 -33.271  22.164  1.00  0.00     0.030 A 
ATOM     26  C   UNL     1      14.676 -31.242  23.488  1.00  0.00     0.001 A 
ATOM     27  C   UNL     1      14.305 -32.562  23.158  1.00  0.00     0.002 A 
BRANCH  22  28
ATOM     28  O   UNL     1      16.882 -34.276  19.798  1.00  0.00    -0.417 OA
ATOM     29  C   UNL     1      17.189 -35.564  20.313  1.00  0.00     0.313 C 
ENDBRANCH  22  28
ENDBRANCH  18  19
ENDBRANCH   7  18
ENDBRANCH   4   7
ENDBRANCH   2   3
BRANCH   2  30
ATOM     30  N   UNL     1      21.049 -32.621  24.727  1.00  0.00    -0.343 N 
ATOM     31  C   UNL     1      22.156 -31.930  25.333  1.00  0.00     0.243 C 
ATOM     32  H   UNL     1      21.223 -33.231  23.901  1.00  0.00     0.164 HD
ATOM     33  O   UNL     1      21.975 -31.252  26.380  1.00  0.00    -0.273 OA
BRANCH  31  34
ATOM     34  C   UNL     1      23.545 -32.039  24.739  1.00  0.00     0.174 C 
ATOM     35  N   UNL     1      24.029 -30.777  24.136  1.00  0.00    -0.329 N 
ATOM     36  C   UNL     1      24.540 -32.508  25.803  1.00  0.00     0.035 C 
ATOM     37  C   UNL     1      25.372 -30.797  23.546  1.00  0.00     0.120 C 
ATOM     38  C   UNL     1      25.964 -32.583  25.235  1.00  0.00     0.004 C 
ATOM     39  C   UNL     1      26.392 -31.256  24.600  1.00  0.00     0.022 C 
BRANCH  35  40
ATOM     40  C   UNL     1      23.399 -29.496  24.369  1.00  0.00     0.246 CG0
ATOM     41  O   UNL     1      23.722 -28.843  25.397  1.00  0.00    -0.272 OA
ATOM     42  G   UNL     1      22.361 -28.931  23.415  1.00  0.00     0.000 G0
ENDBRANCH  35  40
ENDBRANCH  31  34
ENDBRANCH   2  30
ENDBRANCH   1   2
BRANCH   1  43
ATOM     43  C   UNL     1      18.652 -34.235  23.682  1.00  0.00     0.003 C 
BRANCH  43  44
ATOM     44  C   UNL     1      18.036 -35.641  23.818  1.00  0.00     0.001 C 
BRANCH  44  45
ATOM     45  C   UNL     1      19.103 -36.738  23.772  1.00  0.00     0.008 C 
BRANCH  45  46
ATOM     46  C   UNL     1      18.734 -37.931  24.675  1.00  0.00     0.075 C 
BRANCH  46  47
ATOM     47  C   UNL     1      18.394 -37.465  26.061  1.00  0.00     0.132 C 
ATOM     48  O   UNL     1      19.263 -36.950  26.753  1.00  0.00    -0.300 OA
BRANCH  47  49
ATOM     49  C   UNL     1      16.998 -37.651  26.601  1.00  0.00     0.072 C 
ATOM     50  C   UNL     1      16.922 -37.451  28.116  1.00  0.00     0.012 C 
ENDBRANCH  47  49
ENDBRANCH  46  47
ENDBRANCH  45  46
ENDBRANCH  44  45
ENDBRANCH  43  44
ENDBRANCH   1  43
TORSDOF 12
ENDMDL
MODEL 4
REMARK VINA RESULT:    -6.124      2.422      6.700
REMARK INTER + INTRA:         -15.326
REMARK INTER:                 -12.997
REMARK INTRA:                  -2.328
REMARK UNBOUND:                -2.400
REMARK SMILES CCC(=O)CCCCC[C@H]1NC(=O)[C@@H]2CCCCN2C(=O)[C@@H]([C@@H](C)CC)NC(=O)[C@@H](Cc2cn(OC)c3ccccc23)NC1=O
REMARK SMILES IDX 9 1 10 2 44 3 43 4 45 6 30 7 28 8 27 9 29 11 22 12 23 14
REMARK SMILES IDX 24 15 25 16 26 17 31 18 32 19 33 20 42 21 34 22 37 23 41 24
REMARK SMILES IDX 38 25 40 26 39 27 35 28 36 29 11 30 12 31 13 33 14 34 19 35
REMARK SMILES IDX 15 36 18 37 16 38 17 39 20 40 21 41 8 43 7 44 6 45 5 46 3 47
REMARK SMILES IDX 4 48 2 49 1 50
REMARK H PARENT 43 5 27 10 11 32
REMARK Flexibility Score: 80.00
ROOT
ATOM      1  C   UNL     1      20.836 -29.892  21.344  1.00  0.00     0.035 C 
ENDROOT
BRANCH   1   2
ATOM      2  C   UNL     1      19.636 -30.757  21.798  1.00  0.00     0.171 C 
BRANCH   2   3
ATOM      3  C   UNL     1      19.641 -31.020  23.279  1.00  0.00     0.243 C 
ATOM      4  N   UNL     1      20.587 -31.926  23.852  1.00  0.00    -0.342 N 
ATOM      5  H   UNL     1      21.520 -32.036  23.390  1.00  0.00     0.164 HD
ATOM      6  O   UNL     1      18.847 -30.393  24.030  1.00  0.00    -0.273 OA
BRANCH   4   7
ATOM      7  C   UNL     1      20.308 -32.696  25.060  1.00  0.00     0.175 C 
BRANCH   7   8
ATOM      8  C   UNL     1      20.627 -34.142  24.783  1.00  0.00     0.243 C 
ATOM      9  N   UNL     1      19.782 -34.921  23.921  1.00  0.00    -0.342 N 
ATOM     10  H   UNL     1      20.280 -35.621  23.309  1.00  0.00     0.164 HD
ATOM     11  O   UNL     1      21.672 -34.668  25.239  1.00  0.00    -0.273 OA
BRANCH   9  12
ATOM     12  C   UNL     1      18.342 -35.099  24.140  1.00  0.00     0.174 CG0
ATOM     13  G   UNL     1      17.602 -34.840  22.839  1.00  0.00     0.000 G0
BRANCH  12  14
ATOM     14  C   UNL     1      18.088 -36.506  24.801  1.00  0.00     0.018 C 
ATOM     15  C   UNL     1      19.281 -37.440  24.496  1.00  0.00     0.010 C 
BRANCH  14  16
ATOM     16  C   UNL     1      17.793 -36.459  26.328  1.00  0.00     0.002 C 
ATOM     17  C   UNL     1      16.862 -37.572  26.820  1.00  0.00     0.004 C 
ENDBRANCH  14  16
ENDBRANCH  12  14
ENDBRANCH   9  12
ENDBRANCH   7   8
BRANCH   7  18
ATOM     18  C   UNL     1      21.107 -32.105  26.242  1.00  0.00     0.073 C 
BRANCH  18  19
ATOM     19  C   UNL     1      22.359 -31.416  25.781  1.00  0.00    -0.016 A 
ATOM     20  C   UNL     1      23.583 -32.039  25.565  1.00  0.00     0.134 A 
ATOM     21  C   UNL     1      22.553 -30.082  25.458  1.00  0.00     0.006 A 
ATOM     22  N   UNL     1      24.494 -31.153  25.110  1.00  0.00    -0.191 N 
ATOM     23  C   UNL     1      23.868 -29.950  25.043  1.00  0.00     0.087 A 
ATOM     24  C   UNL     1      21.692 -28.991  25.546  1.00  0.00     0.011 A 
ATOM     25  C   UNL     1      24.355 -28.698  24.624  1.00  0.00     0.030 A 
ATOM     26  C   UNL     1      22.163 -27.736  25.124  1.00  0.00     0.001 A 
ATOM     27  C   UNL     1      23.488 -27.592  24.662  1.00  0.00     0.002 A 
BRANCH  22  28
ATOM     28  O   UNL     1      25.815 -31.518  24.878  1.00  0.00    -0.417 OA
ATOM     29  C   UNL     1      26.479 -31.417  23.626  1.00  0.00     0.313 C 
ENDBRANCH  22  28
ENDBRANCH  18  19
ENDBRANCH   7  18
ENDBRANCH   4   7
ENDBRANCH   2   3
BRANCH   2  30
ATOM     30  N   UNL     1      19.557 -32.019  21.056  1.00  0.00    -0.343 N 
ATOM     31  C   UNL     1      18.327 -32.762  20.978  1.00  0.00     0.243 C 
ATOM     32  H   UNL     1      20.437 -32.460  20.718  1.00  0.00     0.164 HD
ATOM     33  O   UNL     1      17.241 -32.214  21.308  1.00  0.00    -0.273 OA
BRANCH  31  34
ATOM     34  C   UNL     1      18.325 -34.190  20.473  1.00  0.00     0.174 C 
ATOM     35  N   UNL     1      18.075 -35.191  21.534  1.00  0.00    -0.329 N 
ATOM     36  C   UNL     1      17.286 -34.357  19.362  1.00  0.00     0.035 C 
ATOM     37  C   UNL     1      18.049 -36.599  21.123  1.00  0.00     0.120 C 
ATOM     38  C   UNL     1      17.235 -35.808  18.864  1.00  0.00     0.004 C 
ATOM     39  C   UNL     1      17.004 -36.795  20.014  1.00  0.00     0.022 C 
BRANCH  35  40
ATOM     40  C   UNL     1      17.565 -34.846  22.842  1.00  0.00     0.246 CG0
ATOM     41  O   UNL     1      16.425 -34.317  22.925  1.00  0.00    -0.272 OA
ATOM     42  G   UNL     1      18.369 -35.099  24.106  1.00  0.00     0.000 G0
ENDBRANCH  35  40
ENDBRANCH  31  34
ENDBRANCH   2  30
ENDBRANCH   1   2
BRANCH   1  43
ATOM     43  C   UNL     1      20.567 -28.381  21.323  1.00  0.00     0.003 C 
BRANCH  43  44
ATOM     44  C   UNL     1      21.600 -27.666  20.431  1.00  0.00     0.001 C 
BRANCH  44  45
ATOM     45  C   UNL     1      22.551 -26.790  21.250  1.00  0.00     0.008 C 
BRANCH  45  46
ATOM     46  C   UNL     1      21.837 -25.546  21.814  1.00  0.00     0.075 C 
BRANCH  46  47
ATOM     47  C   UNL     1      22.532 -24.288  21.379  1.00  0.00     0.132 C 
ATOM     48  O   UNL     1      22.471 -23.292  22.088  1.00  0.00    -0.300 OA
BRANCH  47  49
ATOM     49  C   UNL     1      23.280 -24.250  20.070  1.00  0.00     0.072 C 
ATOM     50  C   UNL     1      24.324 -23.133  20.022  1.00  0.00     0.012 C 
ENDBRANCH  47  49
ENDBRANCH  46  47
ENDBRANCH  45  46
ENDBRANCH  44  45
ENDBRANCH  43  44
ENDBRANCH   1  43
TORSDOF 12
ENDMDL
MODEL 5
REMARK VINA RESULT:    -6.078      2.432      3.683
REMARK INTER + INTRA:         -15.228
REMARK INTER:                 -12.830
REMARK INTRA:                  -2.398
REMARK UNBOUND:                -2.400
REMARK SMILES CCC(=O)CCCCC[C@H]1NC(=O)[C@@H]2CCCCN2C(=O)[C@@H]([C@@H](C)CC)NC(=O)[C@@H](Cc2cn(OC)c3ccccc23)NC1=O
REMARK SMILES IDX 9 1 10 2 44 3 43 4 45 6 30 7 28 8 27 9 29 11 22 12 23 14
REMARK SMILES IDX 24 15 25 16 26 17 31 18 32 19 33 20 42 21 34 22 37 23 41 24
REMARK SMILES IDX 38 25 40 26 39 27 35 28 36 29 11 30 12 31 13 33 14 34 19 35
REMARK SMILES IDX 15 36 18 37 16 38 17 39 20 40 21 41 8 43 7 44 6 45 5 46 3 47
REMARK SMILES IDX 4 48 2 49 1 50
REMARK H PARENT 43 5 27 10 11 32
REMARK Flexibility Score: 80.00
ROOT
ATOM      1  C   UNL     1      19.525 -29.909  26.716  1.00  0.00     0.035 C 
ENDROOT
BRANCH   1   2
ATOM      2  C   UNL     1      20.137 -30.802  25.610  1.00  0.00     0.171 C 
BRANCH   2   3
ATOM      3  C   UNL     1      19.090 -31.480  24.769  1.00  0.00     0.243 C 
ATOM      4  N   UNL     1      18.347 -32.587  25.287  1.00  0.00    -0.342 N 
ATOM      5  H   UNL     1      18.173 -32.635  26.318  1.00  0.00     0.164 HD
ATOM      6  O   UNL     1      18.820 -31.033  23.622  1.00  0.00    -0.273 OA
BRANCH   4   7
ATOM      7  C   UNL     1      17.817 -33.647  24.436  1.00  0.00     0.175 C 
BRANCH   7   8
ATOM      8  C   UNL     1      18.417 -34.955  24.880  1.00  0.00     0.243 C 
ATOM      9  N   UNL     1      19.823 -35.201  24.721  1.00  0.00    -0.342 N 
ATOM     10  H   UNL     1      20.278 -35.754  25.495  1.00  0.00     0.164 HD
ATOM     11  O   UNL     1      17.715 -35.820  25.461  1.00  0.00    -0.273 OA
BRANCH   9  12
ATOM     12  C   UNL     1      20.522 -35.116  23.433  1.00  0.00     0.174 CG0
ATOM     13  G   UNL     1      21.989 -34.808  23.679  1.00  0.00     0.000 G0
BRANCH  12  14
ATOM     14  C   UNL     1      20.229 -36.419  22.598  1.00  0.00     0.018 C 
ATOM     15  C   UNL     1      20.064 -37.619  23.558  1.00  0.00     0.010 C 
BRANCH  14  16
ATOM     16  C   UNL     1      19.015 -36.309  21.631  1.00  0.00     0.002 C 
ATOM     17  C   UNL     1      18.211 -37.605  21.485  1.00  0.00     0.004 C 
ENDBRANCH  14  16
ENDBRANCH  12  14
ENDBRANCH   9  12
ENDBRANCH   7   8
BRANCH   7  18
ATOM     18  C   UNL     1      16.273 -33.626  24.493  1.00  0.00     0.073 C 
BRANCH  18  19
ATOM     19  C   UNL     1      15.668 -33.363  23.144  1.00  0.00    -0.016 A 
ATOM     20  C   UNL     1      15.986 -34.045  21.976  1.00  0.00     0.134 A 
ATOM     21  C   UNL     1      14.688 -32.448  22.791  1.00  0.00     0.006 A 
ATOM     22  N   UNL     1      15.234 -33.602  20.946  1.00  0.00    -0.191 N 
ATOM     23  C   UNL     1      14.437 -32.621  21.440  1.00  0.00     0.087 A 
ATOM     24  C   UNL     1      14.051 -31.463  23.542  1.00  0.00     0.011 A 
ATOM     25  C   UNL     1      13.460 -31.839  20.796  1.00  0.00     0.030 A 
ATOM     26  C   UNL     1      13.068 -30.679  22.914  1.00  0.00     0.001 A 
ATOM     27  C   UNL     1      12.772 -30.869  21.548  1.00  0.00     0.002 A 
BRANCH  22  28
ATOM     28  O   UNL     1      15.409 -34.084  19.654  1.00  0.00    -0.417 OA
ATOM     29  C   UNL     1      16.656 -34.463  19.088  1.00  0.00     0.313 C 
ENDBRANCH  22  28
ENDBRANCH  18  19
ENDBRANCH   7  18
ENDBRANCH   4   7
ENDBRANCH   2   3
BRANCH   2  30
ATOM     30  N   UNL     1      21.071 -31.791  26.157  1.00  0.00    -0.343 N 
ATOM     31  C   UNL     1      22.058 -32.425  25.323  1.00  0.00     0.243 C 
ATOM     32  H   UNL     1      20.912 -32.155  27.119  1.00  0.00     0.164 HD
ATOM     33  O   UNL     1      22.319 -31.948  24.187  1.00  0.00    -0.273 OA
BRANCH  31  34
ATOM     34  C   UNL     1      22.809 -33.645  25.817  1.00  0.00     0.174 C 
ATOM     35  N   UNL     1      22.592 -34.848  24.984  1.00  0.00    -0.329 N 
ATOM     36  C   UNL     1      24.308 -33.346  25.898  1.00  0.00     0.035 C 
ATOM     37  C   UNL     1      23.292 -36.071  25.391  1.00  0.00     0.120 C 
ATOM     38  C   UNL     1      25.095 -34.583  26.354  1.00  0.00     0.004 C 
ATOM     39  C   UNL     1      24.803 -35.800  25.469  1.00  0.00     0.022 C 
BRANCH  35  40
ATOM     40  C   UNL     1      22.000 -34.800  23.665  1.00  0.00     0.246 CG0
ATOM     41  O   UNL     1      22.727 -34.480  22.688  1.00  0.00    -0.272 OA
ATOM     42  G   UNL     1      20.532 -35.118  23.436  1.00  0.00     0.000 G0
ENDBRANCH  35  40
ENDBRANCH  31  34
ENDBRANCH   2  30
ENDBRANCH   1   2
BRANCH   1  43
ATOM     43  C   UNL     1      20.238 -28.566  26.923  1.00  0.00     0.003 C 
BRANCH  43  44
ATOM     44  C   UNL     1      21.765 -28.753  26.847  1.00  0.00     0.001 C 
BRANCH  44  45
ATOM     45  C   UNL     1      22.492 -27.425  26.623  1.00  0.00     0.008 C 
BRANCH  45  46
ATOM     46  C   UNL     1      23.521 -27.523  25.479  1.00  0.00     0.075 C 
BRANCH  46  47
ATOM     47  C   UNL     1      22.837 -27.497  24.143  1.00  0.00     0.132 C 
ATOM     48  O   UNL     1      22.155 -26.528  23.835  1.00  0.00    -0.300 OA
BRANCH  47  49
ATOM     49  C   UNL     1      22.975 -28.665  23.199  1.00  0.00     0.072 C 
ATOM     50  C   UNL     1      21.685 -28.953  22.428  1.00  0.00     0.012 C 
ENDBRANCH  47  49
ENDBRANCH  46  47
ENDBRANCH  45  46
ENDBRANCH  44  45
ENDBRANCH  43  44
ENDBRANCH   1  43
TORSDOF 12
ENDMDL
MODEL 6
REMARK VINA RESULT:    -6.059      2.258      6.988
REMARK INTER + INTRA:         -15.188
REMARK INTER:                 -12.275
REMARK INTRA:                  -2.913
REMARK UNBOUND:                -2.400
REMARK SMILES CCC(=O)CCCCC[C@H]1NC(=O)[C@@H]2CCCCN2C(=O)[C@@H]([C@@H](C)CC)NC(=O)[C@@H](Cc2cn(OC)c3ccccc23)NC1=O
REMARK SMILES IDX 9 1 10 2 44 3 43 4 45 6 30 7 28 8 27 9 29 11 22 12 23 14
REMARK SMILES IDX 24 15 25 16 26 17 31 18 32 19 33 20 42 21 34 22 37 23 41 24
REMARK SMILES IDX 38 25 40 26 39 27 35 28 36 29 11 30 12 31 13 33 14 34 19 35
REMARK SMILES IDX 15 36 18 37 16 38 17 39 20 40 21 41 8 43 7 44 6 45 5 46 3 47
REMARK SMILES IDX 4 48 2 49 1 50
REMARK H PARENT 43 5 27 10 11 32
REMARK Flexibility Score: 80.00
ROOT
ATOM      1  C   UNL     1      21.384 -29.625  22.641  1.00  0.00     0.035 C 
ENDROOT
BRANCH   1   2
ATOM      2  C   UNL     1      20.235 -30.607  22.972  1.00  0.00     0.171 C 
BRANCH   2   3
ATOM      3  C   UNL     1      20.532 -31.460  24.175  1.00  0.00     0.243 C 
ATOM      4  N   UNL     1      21.534 -32.478  24.113  1.00  0.00    -0.342 N 
ATOM      5  H   UNL     1      22.346 -32.345  23.466  1.00  0.00     0.164 HD
ATOM      6  O   UNL     1      19.938 -31.238  25.263  1.00  0.00    -0.273 OA
BRANCH   4   7
ATOM      7  C   UNL     1      21.474 -33.692  24.920  1.00  0.00     0.175 C 
BRANCH   7   8
ATOM      8  C   UNL     1      21.456 -34.878  23.992  1.00  0.00     0.243 C 
ATOM      9  N   UNL     1      20.302 -35.149  23.181  1.00  0.00    -0.342 N 
ATOM     10  H   UNL     1      20.502 -35.528  22.218  1.00  0.00     0.164 HD
ATOM     11  O   UNL     1      22.472 -35.604  23.857  1.00  0.00    -0.273 OA
BRANCH   9  12
ATOM     12  C   UNL     1      18.952 -35.333  23.727  1.00  0.00     0.174 CG0
ATOM     13  G   UNL     1      17.934 -34.794  22.736  1.00  0.00     0.000 G0
BRANCH  12  14
ATOM     14  C   UNL     1      18.763 -36.840  24.146  1.00  0.00     0.018 C 
ATOM     15  C   UNL     1      19.644 -37.738  23.247  1.00  0.00     0.010 C 
BRANCH  14  16
ATOM     16  C   UNL     1      19.028 -37.130  25.652  1.00  0.00     0.002 C 
ATOM     17  C   UNL     1      17.791 -37.596  26.427  1.00  0.00     0.004 C 
ENDBRANCH  14  16
ENDBRANCH  12  14
ENDBRANCH   9  12
ENDBRANCH   7   8
BRANCH   7  18
ATOM     18  C   UNL     1      22.657 -33.706  25.914  1.00  0.00     0.073 C 
BRANCH  18  19
ATOM     19  C   UNL     1      23.677 -32.656  25.582  1.00  0.00    -0.016 A 
ATOM     20  C   UNL     1      24.638 -32.759  24.584  1.00  0.00     0.134 A 
ATOM     21  C   UNL     1      23.857 -31.404  26.151  1.00  0.00     0.006 A 
ATOM     22  N   UNL     1      25.372 -31.628  24.510  1.00  0.00    -0.191 N 
ATOM     23  C   UNL     1      24.897 -30.793  25.469  1.00  0.00     0.087 A 
ATOM     24  C   UNL     1      23.221 -30.795  27.230  1.00  0.00     0.011 A 
ATOM     25  C   UNL     1      25.297 -29.487  25.812  1.00  0.00     0.030 A 
ATOM     26  C   UNL     1      23.606 -29.488  27.578  1.00  0.00     0.001 A 
ATOM     27  C   UNL     1      24.637 -28.837  26.869  1.00  0.00     0.002 A 
BRANCH  22  28
ATOM     28  O   UNL     1      26.441 -31.507  23.630  1.00  0.00    -0.417 OA
ATOM     29  C   UNL     1      27.595 -32.336  23.633  1.00  0.00     0.313 C 
ENDBRANCH  22  28
ENDBRANCH  18  19
ENDBRANCH   7  18
ENDBRANCH   4   7
ENDBRANCH   2   3
BRANCH   2  30
ATOM     30  N   UNL     1      19.885 -31.447  21.823  1.00  0.00    -0.343 N 
ATOM     31  C   UNL     1      18.633 -32.156  21.773  1.00  0.00     0.243 C 
ATOM     32  H   UNL     1      20.616 -31.661  21.114  1.00  0.00     0.164 HD
ATOM     33  O   UNL     1      17.709 -31.854  22.574  1.00  0.00    -0.273 OA
BRANCH  31  34
ATOM     34  C   UNL     1      18.409 -33.243  20.741  1.00  0.00     0.174 C 
ATOM     35  N   UNL     1      18.196 -34.583  21.332  1.00  0.00    -0.329 N 
ATOM     36  C   UNL     1      17.219 -32.886  19.848  1.00  0.00     0.035 C 
ATOM     37  C   UNL     1      17.962 -35.689  20.398  1.00  0.00     0.120 C 
ATOM     38  C   UNL     1      16.945 -33.994  18.821  1.00  0.00     0.004 C 
ATOM     39  C   UNL     1      16.763 -35.359  19.495  1.00  0.00     0.022 C 
BRANCH  35  40
ATOM     40  C   UNL     1      17.905 -34.792  22.733  1.00  0.00     0.246 CG0
ATOM     41  O   UNL     1      16.746 -34.537  23.153  1.00  0.00    -0.272 OA
ATOM     42  G   UNL     1      18.959 -35.301  23.700  1.00  0.00     0.000 G0
ENDBRANCH  35  40
ENDBRANCH  31  34
ENDBRANCH   2  30
ENDBRANCH   1   2
BRANCH   1  43
ATOM     43  C   UNL     1      22.110 -29.051  23.866  1.00  0.00     0.003 C 
BRANCH  43  44
ATOM     44  C   UNL     1      22.808 -27.726  23.502  1.00  0.00     0.001 C 
BRANCH  44  45
ATOM     45  C   UNL     1      22.838 -27.494  21.989  1.00  0.00     0.008 C 
BRANCH  45  46
ATOM     46  C   UNL     1      22.673 -26.003  21.637  1.00  0.00     0.075 C 
BRANCH  46  47
ATOM     47  C   UNL     1      21.568 -25.809  20.640  1.00  0.00     0.132 C 
ATOM     48  O   UNL     1      21.838 -25.415  19.512  1.00  0.00    -0.300 OA
BRANCH  47  49
ATOM     49  C   UNL     1      20.137 -26.077  21.033  1.00  0.00     0.072 C 
ATOM     50  C   UNL     1      19.512 -27.220  20.231  1.00  0.00     0.012 C 
ENDBRANCH  47  49
ENDBRANCH  46  47
ENDBRANCH  45  46
ENDBRANCH  44  45
ENDBRANCH  43  44
ENDBRANCH   1  43
TORSDOF 12
ENDMDL
MODEL 7
REMARK VINA RESULT:    -6.022      2.118      4.089
REMARK INTER + INTRA:         -15.110
REMARK INTER:                 -11.610
REMARK INTRA:                  -3.499
REMARK UNBOUND:                -2.400
REMARK SMILES CCC(=O)CCCCC[C@H]1NC(=O)[C@@H]2CCCCN2C(=O)[C@@H]([C@@H](C)CC)NC(=O)[C@@H](Cc2cn(OC)c3ccccc23)NC1=O
REMARK SMILES IDX 9 1 10 2 44 3 43 4 45 6 30 7 28 8 27 9 29 11 22 12 23 14
REMARK SMILES IDX 24 15 25 16 26 17 31 18 32 19 33 20 42 21 34 22 37 23 41 24
REMARK SMILES IDX 38 25 40 26 39 27 35 28 36 29 11 30 12 31 13 33 14 34 19 35
REMARK SMILES IDX 15 36 18 37 16 38 17 39 20 40 21 41 8 43 7 44 6 45 5 46 3 47
REMARK SMILES IDX 4 48 2 49 1 50
REMARK H PARENT 43 5 27 10 11 32
REMARK Flexibility Score: 80.00
ROOT
ATOM      1  C   UNL     1      22.029 -28.382  22.484  1.00  0.00     0.035 C 
ENDROOT
BRANCH   1   2
ATOM      2  C   UNL     1      21.879 -29.921  22.429  1.00  0.00     0.171 C 
BRANCH   2   3
ATOM      3  C   UNL     1      20.441 -30.362  22.433  1.00  0.00     0.243 C 
ATOM      4  N   UNL     1      19.787 -30.698  23.660  1.00  0.00    -0.342 N 
ATOM      5  H   UNL     1      20.096 -30.222  24.540  1.00  0.00     0.164 HD
ATOM      6  O   UNL     1      19.787 -30.378  21.356  1.00  0.00    -0.273 OA
BRANCH   4   7
ATOM      7  C   UNL     1      18.703 -31.671  23.734  1.00  0.00     0.175 C 
BRANCH   7   8
ATOM      8  C   UNL     1      18.988 -32.612  24.875  1.00  0.00     0.243 C 
ATOM      9  N   UNL     1      20.174 -33.421  24.870  1.00  0.00    -0.342 N 
ATOM     10  H   UNL     1      20.628 -33.568  25.811  1.00  0.00     0.164 HD
ATOM     11  O   UNL     1      18.235 -32.651  25.880  1.00  0.00    -0.273 OA
BRANCH   9  12
ATOM     12  C   UNL     1      20.519 -34.350  23.787  1.00  0.00     0.174 CG0
ATOM     13  G   UNL     1      22.022 -34.569  23.776  1.00  0.00     0.000 G0
BRANCH  12  14
ATOM     14  C   UNL     1      19.642 -35.652  23.921  1.00  0.00     0.018 C 
ATOM     15  C   UNL     1      19.326 -35.908  25.413  1.00  0.00     0.010 C 
BRANCH  14  16
ATOM     16  C   UNL     1      18.339 -35.644  23.070  1.00  0.00     0.002 C 
ATOM     17  C   UNL     1      18.369 -36.598  21.871  1.00  0.00     0.004 C 
ENDBRANCH  14  16
ENDBRANCH  12  14
ENDBRANCH   9  12
ENDBRANCH   7   8
BRANCH   7  18
ATOM     18  C   UNL     1      17.355 -30.928  23.870  1.00  0.00     0.073 C 
BRANCH  18  19
ATOM     19  C   UNL     1      16.326 -31.459  22.915  1.00  0.00    -0.016 A 
ATOM     20  C   UNL     1      16.488 -32.572  22.100  1.00  0.00     0.134 A 
ATOM     21  C   UNL     1      15.043 -30.995  22.669  1.00  0.00     0.006 A 
ATOM     22  N   UNL     1      15.362 -32.814  21.394  1.00  0.00    -0.191 N 
ATOM     23  C   UNL     1      14.472 -31.848  21.739  1.00  0.00     0.087 A 
ATOM     24  C   UNL     1      14.372 -29.876  23.155  1.00  0.00     0.011 A 
ATOM     25  C   UNL     1      13.148 -31.641  21.307  1.00  0.00     0.030 A 
ATOM     26  C   UNL     1      13.046 -29.661  22.738  1.00  0.00     0.001 A 
ATOM     27  C   UNL     1      12.437 -30.543  21.821  1.00  0.00     0.002 A 
BRANCH  22  28
ATOM     28  O   UNL     1      15.293 -33.839  20.458  1.00  0.00    -0.417 OA
ATOM     29  C   UNL     1      16.271 -34.097  19.460  1.00  0.00     0.313 C 
ENDBRANCH  22  28
ENDBRANCH  18  19
ENDBRANCH   7  18
ENDBRANCH   4   7
ENDBRANCH   2   3
BRANCH   2  30
ATOM     30  N   UNL     1      22.619 -30.583  23.508  1.00  0.00    -0.343 N 
ATOM     31  C   UNL     1      23.134 -31.917  23.349  1.00  0.00     0.243 C 
ATOM     32  H   UNL     1      22.631 -30.145  24.453  1.00  0.00     0.164 HD
ATOM     33  O   UNL     1      23.200 -32.431  22.200  1.00  0.00    -0.273 OA
BRANCH  31  34
ATOM     34  C   UNL     1      23.627 -32.697  24.551  1.00  0.00     0.174 C 
ATOM     35  N   UNL     1      22.898 -33.966  24.771  1.00  0.00    -0.329 N 
ATOM     36  C   UNL     1      25.123 -32.988  24.415  1.00  0.00     0.035 C 
ATOM     37  C   UNL     1      23.322 -34.785  25.911  1.00  0.00     0.120 C 
ATOM     38  C   UNL     1      25.636 -33.816  25.601  1.00  0.00     0.004 C 
ATOM     39  C   UNL     1      24.821 -35.100  25.792  1.00  0.00     0.022 C 
BRANCH  35  40
ATOM     40  C   UNL     1      22.036 -34.565  23.776  1.00  0.00     0.246 CG0
ATOM     41  O   UNL     1      22.554 -35.294  22.889  1.00  0.00    -0.272 OA
ATOM     42  G   UNL     1      20.535 -34.331  23.774  1.00  0.00     0.000 G0
ENDBRANCH  35  40
ENDBRANCH  31  34
ENDBRANCH   2  30
ENDBRANCH   1   2
BRANCH   1  43
ATOM     43  C   UNL     1      23.027 -27.871  23.533  1.00  0.00     0.003 C 
BRANCH  43  44
ATOM     44  C   UNL     1      22.287 -27.103  24.645  1.00  0.00     0.001 C 
BRANCH  44  45
ATOM     45  C   UNL     1      21.688 -28.048  25.689  1.00  0.00     0.008 C 
BRANCH  45  46
ATOM     46  C   UNL     1      22.781 -28.806  26.468  1.00  0.00     0.075 C 
BRANCH  46  47
ATOM     47  C   UNL     1      22.332 -30.200  26.799  1.00  0.00     0.132 C 
ATOM     48  O   UNL     1      21.240 -30.588  26.405  1.00  0.00    -0.300 OA
BRANCH  47  49
ATOM     49  C   UNL     1      23.212 -31.102  27.627  1.00  0.00     0.072 C 
ATOM     50  C   UNL     1      24.683 -30.684  27.589  1.00  0.00     0.012 C 
ENDBRANCH  47  49
ENDBRANCH  46  47
ENDBRANCH  45  46
ENDBRANCH  44  45
ENDBRANCH  43  44
ENDBRANCH   1  43
TORSDOF 12
ENDMDL
MODEL 8
REMARK VINA RESULT:    -5.922      2.540      4.291
REMARK INTER + INTRA:         -14.899
REMARK INTER:                 -12.578
REMARK INTRA:                  -2.321
REMARK UNBOUND:                -2.400
REMARK SMILES CCC(=O)CCCCC[C@H]1NC(=O)[C@@H]2CCCCN2C(=O)[C@@H]([C@@H](C)CC)NC(=O)[C@@H](Cc2cn(OC)c3ccccc23)NC1=O
REMARK SMILES IDX 9 1 10 2 44 3 43 4 45 6 30 7 28 8 27 9 29 11 22 12 23 14
REMARK SMILES IDX 24 15 25 16 26 17 31 18 32 19 33 20 42 21 34 22 37 23 41 24
REMARK SMILES IDX 38 25 40 26 39 27 35 28 36 29 11 30 12 31 13 33 14 34 19 35
REMARK SMILES IDX 15 36 18 37 16 38 17 39 20 40 21 41 8 43 7 44 6 45 5 46 3 47
REMARK SMILES IDX 4 48 2 49 1 50
REMARK H PARENT 43 5 27 10 11 32
REMARK Flexibility Score: 80.00
ROOT
ATOM      1  C   UNL     1      18.887 -29.940  21.477  1.00  0.00     0.035 C 
ENDROOT
BRANCH   1   2
ATOM      2  C   UNL     1      19.930 -31.009  21.883  1.00  0.00     0.171 C 
BRANCH   2   3
ATOM      3  C   UNL     1      19.333 -32.386  21.993  1.00  0.00     0.243 C 
ATOM      4  N   UNL     1      18.918 -32.897  23.262  1.00  0.00    -0.342 N 
ATOM      5  H   UNL     1      18.587 -32.223  23.991  1.00  0.00     0.164 HD
ATOM      6  O   UNL     1      19.142 -33.072  20.954  1.00  0.00    -0.273 OA
BRANCH   4   7
ATOM      7  C   UNL     1      18.929 -34.322  23.579  1.00  0.00     0.175 C 
BRANCH   7   8
ATOM      8  C   UNL     1      19.637 -34.509  24.895  1.00  0.00     0.243 C 
ATOM      9  N   UNL     1      20.972 -34.014  25.078  1.00  0.00    -0.342 N 
ATOM     10  H   UNL     1      21.187 -33.629  26.037  1.00  0.00     0.164 HD
ATOM     11  O   UNL     1      19.047 -35.032  25.873  1.00  0.00    -0.273 OA
BRANCH   9  12
ATOM     12  C   UNL     1      22.102 -34.387  24.218  1.00  0.00     0.174 CG0
ATOM     13  G   UNL     1      23.230 -33.389  24.413  1.00  0.00     0.000 G0
BRANCH  12  14
ATOM     14  C   UNL     1      22.474 -35.896  24.476  1.00  0.00     0.018 C 
ATOM     15  C   UNL     1      22.054 -36.291  25.911  1.00  0.00     0.010 C 
BRANCH  14  16
ATOM     16  C   UNL     1      21.893 -36.893  23.432  1.00  0.00     0.002 C 
ATOM     17  C   UNL     1      20.575 -37.549  23.858  1.00  0.00     0.004 C 
ENDBRANCH  14  16
ENDBRANCH  12  14
ENDBRANCH   9  12
ENDBRANCH   7   8
BRANCH   7  18
ATOM     18  C   UNL     1      17.480 -34.859  23.577  1.00  0.00     0.073 C 
BRANCH  18  19
ATOM     19  C   UNL     1      16.946 -35.017  22.182  1.00  0.00    -0.016 A 
ATOM     20  C   UNL     1      17.363 -35.977  21.269  1.00  0.00     0.134 A 
ATOM     21  C   UNL     1      15.949 -34.296  21.543  1.00  0.00     0.006 A 
ATOM     22  N   UNL     1      16.655 -35.883  20.122  1.00  0.00    -0.191 N 
ATOM     23  C   UNL     1      15.786 -34.853  20.285  1.00  0.00     0.087 A 
ATOM     24  C   UNL     1      15.224 -33.182  21.958  1.00  0.00     0.011 A 
ATOM     25  C   UNL     1      14.815 -34.340  19.405  1.00  0.00     0.030 A 
ATOM     26  C   UNL     1      14.246 -32.663  21.091  1.00  0.00     0.001 A 
ATOM     27  C   UNL     1      14.041 -33.243  19.822  1.00  0.00     0.002 A 
BRANCH  22  28
ATOM     28  O   UNL     1      16.928 -36.694  19.027  1.00  0.00    -0.417 OA
ATOM     29  C   UNL     1      18.000 -37.623  18.949  1.00  0.00     0.313 C 
ENDBRANCH  22  28
ENDBRANCH  18  19
ENDBRANCH   7  18
ENDBRANCH   4   7
ENDBRANCH   2   3
BRANCH   2  30
ATOM     30  N   UNL     1      20.626 -30.653  23.123  1.00  0.00    -0.343 N 
ATOM     31  C   UNL     1      22.005 -31.005  23.330  1.00  0.00     0.243 C 
ATOM     32  H   UNL     1      20.071 -30.286  23.924  1.00  0.00     0.164 HD
ATOM     33  O   UNL     1      22.712 -31.376  22.355  1.00  0.00    -0.273 OA
BRANCH  31  34
ATOM     34  C   UNL     1      22.624 -30.903  24.710  1.00  0.00     0.174 C 
ATOM     35  N   UNL     1      23.089 -32.202  25.246  1.00  0.00    -0.329 N 
ATOM     36  C   UNL     1      23.789 -29.912  24.695  1.00  0.00     0.035 C 
ATOM     37  C   UNL     1      23.708 -32.186  26.575  1.00  0.00     0.120 C 
ATOM     38  C   UNL     1      24.460 -29.825  26.073  1.00  0.00     0.004 C 
ATOM     39  C   UNL     1      24.891 -31.205  26.583  1.00  0.00     0.022 C 
BRANCH  35  40
ATOM     40  C   UNL     1      23.243 -33.385  24.428  1.00  0.00     0.246 CG0
ATOM     41  O   UNL     1      24.355 -33.597  23.878  1.00  0.00    -0.272 OA
ATOM     42  G   UNL     1      22.100 -34.363  24.215  1.00  0.00     0.000 G0
ENDBRANCH  35  40
ENDBRANCH  31  34
ENDBRANCH   2  30
ENDBRANCH   1   2
BRANCH   1  43
ATOM     43  C   UNL     1      17.429 -30.421  21.509  1.00  0.00     0.003 C 
BRANCH  43  44
ATOM     44  C   UNL     1      16.590 -29.521  22.437  1.00  0.00     0.001 C 
BRANCH  44  45
ATOM     45  C   UNL     1      15.125 -29.458  21.998  1.00  0.00     0.008 C 
BRANCH  45  46
ATOM     46  C   UNL     1      14.164 -29.589  23.196  1.00  0.00     0.075 C 
BRANCH  46  47
ATOM     47  C   UNL     1      12.738 -29.428  22.756  1.00  0.00     0.132 C 
ATOM     48  O   UNL     1      12.260 -30.228  21.962  1.00  0.00    -0.300 OA
BRANCH  47  49
ATOM     49  C   UNL     1      11.912 -28.278  23.274  1.00  0.00     0.072 C 
ATOM     50  C   UNL     1      12.765 -27.067  23.657  1.00  0.00     0.012 C 
ENDBRANCH  47  49
ENDBRANCH  46  47
ENDBRANCH  45  46
ENDBRANCH  44  45
ENDBRANCH  43  44
ENDBRANCH   1  43
TORSDOF 12
ENDMDL
MODEL 9
REMARK VINA RESULT:    -5.919      2.757      7.398
REMARK INTER + INTRA:         -14.893
REMARK INTER:                 -11.538
REMARK INTRA:                  -3.355
REMARK UNBOUND:                -2.400
REMARK SMILES CCC(=O)CCCCC[C@H]1NC(=O)[C@@H]2CCCCN2C(=O)[C@@H]([C@@H](C)CC)NC(=O)[C@@H](Cc2cn(OC)c3ccccc23)NC1=O
REMARK SMILES IDX 9 1 10 2 44 3 43 4 45 6 30 7 28 8 27 9 29 11 22 12 23 14
REMARK SMILES IDX 24 15 25 16 26 17 31 18 32 19 33 20 42 21 34 22 37 23 41 24
REMARK SMILES IDX 38 25 40 26 39 27 35 28 36 29 11 30 12 31 13 33 14 34 19 35
REMARK SMILES IDX 15 36 18 37 16 38 17 39 20 40 21 41 8 43 7 44 6 45 5 46 3 47
REMARK SMILES IDX 4 48 2 49 1 50
REMARK H PARENT 43 5 27 10 11 32
REMARK Flexibility Score: 80.00
ROOT
ATOM      1  C   UNL     1      18.004 -30.839  20.776  1.00  0.00     0.035 C 
ENDROOT
BRANCH   1   2
ATOM      2  C   UNL     1      19.485 -30.449  21.001  1.00  0.00     0.171 C 
BRANCH   2   3
ATOM      3  C   UNL     1      20.118 -31.212  22.133  1.00  0.00     0.243 C 
ATOM      4  N   UNL     1      19.689 -30.999  23.480  1.00  0.00    -0.342 N 
ATOM      5  H   UNL     1      18.697 -30.714  23.653  1.00  0.00     0.164 HD
ATOM      6  O   UNL     1      20.989 -32.088  21.889  1.00  0.00    -0.273 OA
BRANCH   4   7
ATOM      7  C   UNL     1      20.577 -31.171  24.625  1.00  0.00     0.175 C 
BRANCH   7   8
ATOM      8  C   UNL     1      20.738 -29.836  25.305  1.00  0.00     0.243 C 
ATOM      9  N   UNL     1      21.461 -28.775  24.661  1.00  0.00    -0.342 N 
ATOM     10  H   UNL     1      21.079 -27.805  24.818  1.00  0.00     0.164 HD
ATOM     11  O   UNL     1      20.182 -29.605  26.407  1.00  0.00    -0.273 OA
BRANCH   9  12
ATOM     12  C   UNL     1      22.848 -28.903  24.197  1.00  0.00     0.174 CG0
ATOM     13  G   UNL     1      23.087 -27.924  23.061  1.00  0.00     0.000 G0
BRANCH  12  14
ATOM     14  C   UNL     1      23.821 -28.770  25.429  1.00  0.00     0.018 C 
ATOM     15  C   UNL     1      23.264 -27.715  26.412  1.00  0.00     0.010 C 
BRANCH  14  16
ATOM     16  C   UNL     1      24.125 -30.109  26.161  1.00  0.00     0.002 C 
ATOM     17  C   UNL     1      24.120 -30.001  27.690  1.00  0.00     0.004 C 
ENDBRANCH  14  16
ENDBRANCH  12  14
ENDBRANCH   9  12
ENDBRANCH   7   8
BRANCH   7  18
ATOM     18  C   UNL     1      20.012 -32.270  25.553  1.00  0.00     0.073 C 
BRANCH  18  19
ATOM     19  C   UNL     1      20.419 -33.643  25.103  1.00  0.00    -0.016 A 
ATOM     20  C   UNL     1      21.656 -33.977  24.567  1.00  0.00     0.134 A 
ATOM     21  C   UNL     1      19.695 -34.825  25.146  1.00  0.00     0.006 A 
ATOM     22  N   UNL     1      21.721 -35.301  24.307  1.00  0.00    -0.191 N 
ATOM     23  C   UNL     1      20.520 -35.826  24.660  1.00  0.00     0.087 A 
ATOM     24  C   UNL     1      18.379 -35.072  25.529  1.00  0.00     0.011 A 
ATOM     25  C   UNL     1      20.062 -37.156  24.606  1.00  0.00     0.030 A 
ATOM     26  C   UNL     1      17.911 -36.397  25.486  1.00  0.00     0.001 A 
ATOM     27  C   UNL     1      18.751 -37.434  25.030  1.00  0.00     0.002 A 
BRANCH  22  28
ATOM     28  O   UNL     1      22.836 -35.874  23.707  1.00  0.00    -0.417 OA
ATOM     29  C   UNL     1      24.020 -36.260  24.391  1.00  0.00     0.313 C 
ENDBRANCH  22  28
ENDBRANCH  18  19
ENDBRANCH   7  18
ENDBRANCH   4   7
ENDBRANCH   2   3
BRANCH   2  30
ATOM     30  N   UNL     1      19.648 -29.007  21.203  1.00  0.00    -0.343 N 
ATOM     31  C   UNL     1      20.947 -28.390  21.160  1.00  0.00     0.243 C 
ATOM     32  H   UNL     1      18.834 -28.450  21.539  1.00  0.00     0.164 HD
ATOM     33  O   UNL     1      21.926 -29.023  20.682  1.00  0.00    -0.273 OA
BRANCH  31  34
ATOM     34  C   UNL     1      21.140 -26.973  21.659  1.00  0.00     0.174 C 
ATOM     35  N   UNL     1      22.154 -26.857  22.730  1.00  0.00    -0.329 N 
ATOM     36  C   UNL     1      21.518 -26.050  20.499  1.00  0.00     0.035 C 
ATOM     37  C   UNL     1      22.406 -25.513  23.262  1.00  0.00     0.120 C 
ATOM     38  C   UNL     1      21.762 -24.615  20.988  1.00  0.00     0.004 C 
ATOM     39  C   UNL     1      22.799 -24.569  22.115  1.00  0.00     0.022 C 
BRANCH  35  40
ATOM     40  C   UNL     1      23.095 -27.909  23.045  1.00  0.00     0.246 CG0
ATOM     41  O   UNL     1      24.148 -28.002  22.359  1.00  0.00    -0.272 OA
ATOM     42  G   UNL     1      22.841 -28.899  24.169  1.00  0.00     0.000 G0
ENDBRANCH  35  40
ENDBRANCH  31  34
ENDBRANCH   2  30
ENDBRANCH   1   2
BRANCH   1  43
ATOM     43  C   UNL     1      17.790 -32.251  20.215  1.00  0.00     0.003 C 
BRANCH  43  44
ATOM     44  C   UNL     1      16.739 -33.006  21.051  1.00  0.00     0.001 C 
BRANCH  44  45
ATOM     45  C   UNL     1      17.335 -33.574  22.341  1.00  0.00     0.008 C 
BRANCH  45  46
ATOM     46  C   UNL     1      17.159 -35.102  22.427  1.00  0.00     0.075 C 
BRANCH  46  47
ATOM     47  C   UNL     1      18.181 -35.806  21.582  1.00  0.00     0.132 C 
ATOM     48  O   UNL     1      19.350 -35.444  21.626  1.00  0.00    -0.300 OA
BRANCH  47  49
ATOM     49  C   UNL     1      17.764 -36.934  20.672  1.00  0.00     0.072 C 
ATOM     50  C   UNL     1      16.880 -36.460  19.516  1.00  0.00     0.012 C 
ENDBRANCH  47  49
ENDBRANCH  46  47
ENDBRANCH  45  46
ENDBRANCH  44  45
ENDBRANCH  43  44
ENDBRANCH   1  43
TORSDOF 12
ENDMDL
