MODEL 1
REMARK VINA RESULT:    -5.439      0.000      0.000
REMARK INTER + INTRA:          -6.352
REMARK INTER:                  -6.233
REMARK INTRA:                  -0.119
REMARK UNBOUND:                -0.119
REMARK SMILES COc1cc(C(C)=O)ccc1O
REMARK SMILES IDX 5 1 4 2 3 3 11 4 10 5 9 6 6 7 7 8 8 9 2 10 1 11 12 12
REMARK H PARENT 12 13
REMARK Flexibility Score: inf
ROOT
ATOM      1  C   UNL     1      18.360 -11.733  66.852  1.00  0.00     0.021 A 
ATOM      2  C   UNL     1      19.200 -12.251  67.859  1.00  0.00     0.062 A 
ATOM      3  C   UNL     1      19.614 -11.443  68.938  1.00  0.00     0.161 A 
ATOM      4  C   UNL     1      19.184 -10.112  69.006  1.00  0.00     0.157 A 
ATOM      5  C   UNL     1      18.350  -9.591  68.009  1.00  0.00     0.051 A 
ATOM      6  C   UNL     1      17.942 -10.393  66.942  1.00  0.00     0.016 A 
ENDROOT
BRANCH   1   7
ATOM      7  C   UNL     1      17.915 -12.574  65.706  1.00  0.00     0.159 C 
ATOM      8  C   UNL     1      17.176 -11.996  64.536  1.00  0.00     0.093 C 
ATOM      9  O   UNL     1      18.162 -13.810  65.705  1.00  0.00    -0.295 OA
ENDBRANCH   1   7
BRANCH   3  10
ATOM     10  O   UNL     1      20.449 -11.927  69.957  1.00  0.00    -0.493 OA
ATOM     11  C   UNL     1      21.319 -13.047  69.827  1.00  0.00     0.278 C 
ENDBRANCH   3  10
BRANCH   4  12
ATOM     12  O   UNL     1      19.590  -9.309  70.070  1.00  0.00    -0.504 OA
ATOM     13  H   UNL     1      20.538  -9.342  70.427  1.00  0.00     0.293 HD
ENDBRANCH   4  12
TORSDOF 3
ENDMDL
MODEL 2
REMARK VINA RESULT:    -5.176      1.123      1.134
REMARK INTER + INTRA:          -6.051
REMARK INTER:                  -5.928
REMARK INTRA:                  -0.123
REMARK UNBOUND:                -0.119
REMARK SMILES COc1cc(C(C)=O)ccc1O
REMARK SMILES IDX 5 1 4 2 3 3 11 4 10 5 9 6 6 7 7 8 8 9 2 10 1 11 12 12
REMARK H PARENT 12 13
REMARK Flexibility Score: inf
ROOT
ATOM      1  C   UNL     1      18.281 -11.387  66.551  1.00  0.00     0.021 A 
ATOM      2  C   UNL     1      18.508 -12.132  67.726  1.00  0.00     0.062 A 
ATOM      3  C   UNL     1      18.933 -11.499  68.911  1.00  0.00     0.161 A 
ATOM      4  C   UNL     1      19.131 -10.112  68.917  1.00  0.00     0.157 A 
ATOM      5  C   UNL     1      18.908  -9.365  67.754  1.00  0.00     0.051 A 
ATOM      6  C   UNL     1      18.487  -9.995  66.582  1.00  0.00     0.016 A 
ENDROOT
BRANCH   1   7
ATOM      7  C   UNL     1      17.833 -12.042  65.291  1.00  0.00     0.159 C 
ATOM      8  C   UNL     1      17.622 -11.268  64.024  1.00  0.00     0.093 C 
ATOM      9  O   UNL     1      17.622 -13.285  65.274  1.00  0.00    -0.295 OA
ENDBRANCH   1   7
BRANCH   3  10
ATOM     10  O   UNL     1      19.167 -12.211  70.097  1.00  0.00    -0.493 OA
ATOM     11  C   UNL     1      18.378 -13.305  70.554  1.00  0.00     0.278 C 
ENDBRANCH   3  10
BRANCH   4  12
ATOM     12  O   UNL     1      19.551  -9.481  70.087  1.00  0.00    -0.504 OA
ATOM     13  H   UNL     1      20.484  -9.095  70.176  1.00  0.00     0.293 HD
ENDBRANCH   4  12
TORSDOF 3
ENDMDL
MODEL 3
REMARK VINA RESULT:    -4.957      2.739      4.736
REMARK INTER + INTRA:          -5.800
REMARK INTER:                  -5.688
REMARK INTRA:                  -0.112
REMARK UNBOUND:                -0.119
REMARK SMILES COc1cc(C(C)=O)ccc1O
REMARK SMILES IDX 5 1 4 2 3 3 11 4 10 5 9 6 6 7 7 8 8 9 2 10 1 11 12 12
REMARK H PARENT 12 13
REMARK Flexibility Score: inf
ROOT
ATOM      1  C   UNL     1      18.971 -10.182  67.646  1.00  0.00     0.021 A 
ATOM      2  C   UNL     1      19.851  -9.801  66.613  1.00  0.00     0.062 A 
ATOM      3  C   UNL     1      19.367  -9.535  65.316  1.00  0.00     0.161 A 
ATOM      4  C   UNL     1      17.995  -9.651  65.055  1.00  0.00     0.157 A 
ATOM      5  C   UNL     1      17.116 -10.029  66.077  1.00  0.00     0.051 A 
ATOM      6  C   UNL     1      17.598 -10.293  67.360  1.00  0.00     0.016 A 
ENDROOT
BRANCH   1   7
ATOM      7  C   UNL     1      19.467 -10.468  69.021  1.00  0.00     0.159 C 
ATOM      8  C   UNL     1      20.037 -11.803  69.399  1.00  0.00     0.093 C 
ATOM      9  O   UNL     1      19.415  -9.569  69.904  1.00  0.00    -0.295 OA
ENDBRANCH   1   7
BRANCH   3  10
ATOM     10  O   UNL     1      20.215  -9.153  64.265  1.00  0.00    -0.493 OA
ATOM     11  C   UNL     1      21.221  -9.984  63.694  1.00  0.00     0.278 C 
ENDBRANCH   3  10
BRANCH   4  12
ATOM     12  O   UNL     1      17.512  -9.389  63.775  1.00  0.00    -0.504 OA
ATOM     13  H   UNL     1      18.018  -8.793  63.129  1.00  0.00     0.293 HD
ENDBRANCH   4  12
TORSDOF 3
ENDMDL
MODEL 4
REMARK VINA RESULT:    -4.903      2.380      4.916
REMARK INTER + INTRA:          -5.739
REMARK INTER:                  -5.626
REMARK INTRA:                  -0.112
REMARK UNBOUND:                -0.119
REMARK SMILES COc1cc(C(C)=O)ccc1O
REMARK SMILES IDX 5 1 4 2 3 3 11 4 10 5 9 6 6 7 7 8 8 9 2 10 1 11 12 12
REMARK H PARENT 12 13
REMARK Flexibility Score: inf
ROOT
ATOM      1  C   UNL     1      19.192 -10.264  67.658  1.00  0.00     0.021 A 
ATOM      2  C   UNL     1      17.907 -10.275  67.078  1.00  0.00     0.062 A 
ATOM      3  C   UNL     1      17.730  -9.979  65.712  1.00  0.00     0.161 A 
ATOM      4  C   UNL     1      18.847  -9.671  64.924  1.00  0.00     0.157 A 
ATOM      5  C   UNL     1      20.125  -9.657  65.493  1.00  0.00     0.051 A 
ATOM      6  C   UNL     1      20.298  -9.950  66.847  1.00  0.00     0.016 A 
ENDROOT
BRANCH   1   7
ATOM      7  C   UNL     1      19.395 -10.573  69.101  1.00  0.00     0.159 C 
ATOM      8  C   UNL     1      19.644 -11.970  69.586  1.00  0.00     0.093 C 
ATOM      9  O   UNL     1      19.360  -9.643  69.951  1.00  0.00    -0.295 OA
ENDBRANCH   1   7
BRANCH   3  10
ATOM     10  O   UNL     1      16.465  -9.983  65.103  1.00  0.00    -0.493 OA
ATOM     11  C   UNL     1      15.630 -11.129  64.979  1.00  0.00     0.278 C 
ENDBRANCH   3  10
BRANCH   4  12
ATOM     12  O   UNL     1      18.677  -9.378  63.572  1.00  0.00    -0.504 OA
ATOM     13  H   UNL     1      19.411  -9.550  62.895  1.00  0.00     0.293 HD
ENDBRANCH   4  12
TORSDOF 3
ENDMDL
MODEL 5
REMARK VINA RESULT:    -4.864      2.657      3.452
REMARK INTER + INTRA:          -5.693
REMARK INTER:                  -5.591
REMARK INTRA:                  -0.102
REMARK UNBOUND:                -0.119
REMARK SMILES COc1cc(C(C)=O)ccc1O
REMARK SMILES IDX 5 1 4 2 3 3 11 4 10 5 9 6 6 7 7 8 8 9 2 10 1 11 12 12
REMARK H PARENT 12 13
REMARK Flexibility Score: inf
ROOT
ATOM      1  C   UNL     1      17.827 -12.138  67.915  1.00  0.00     0.021 A 
ATOM      2  C   UNL     1      19.111 -11.599  67.695  1.00  0.00     0.062 A 
ATOM      3  C   UNL     1      19.308 -10.558  66.766  1.00  0.00     0.161 A 
ATOM      4  C   UNL     1      18.210 -10.054  66.055  1.00  0.00     0.157 A 
ATOM      5  C   UNL     1      16.933 -10.585  66.268  1.00  0.00     0.051 A 
ATOM      6  C   UNL     1      16.741 -11.616  67.188  1.00  0.00     0.016 A 
ENDROOT
BRANCH   1   7
ATOM      7  C   UNL     1      17.605 -13.239  68.892  1.00  0.00     0.159 C 
ATOM      8  C   UNL     1      18.721 -14.125  69.358  1.00  0.00     0.093 C 
ATOM      9  O   UNL     1      16.448 -13.443  69.352  1.00  0.00    -0.295 OA
ENDBRANCH   1   7
BRANCH   3  10
ATOM     10  O   UNL     1      20.572  -9.999  66.524  1.00  0.00    -0.493 OA
ATOM     11  C   UNL     1      21.756 -10.752  66.280  1.00  0.00     0.278 C 
ENDBRANCH   3  10
BRANCH   4  12
ATOM     12  O   UNL     1      18.399  -9.024  65.135  1.00  0.00    -0.504 OA
ATOM     13  H   UNL     1      18.163  -9.137  64.156  1.00  0.00     0.293 HD
ENDBRANCH   4  12
TORSDOF 3
ENDMDL
MODEL 6
REMARK VINA RESULT:    -4.860      1.936      4.278
REMARK INTER + INTRA:          -5.689
REMARK INTER:                  -5.576
REMARK INTRA:                  -0.113
REMARK UNBOUND:                -0.119
REMARK SMILES COc1cc(C(C)=O)ccc1O
REMARK SMILES IDX 5 1 4 2 3 3 11 4 10 5 9 6 6 7 7 8 8 9 2 10 1 11 12 12
REMARK H PARENT 12 13
REMARK Flexibility Score: inf
ROOT
ATOM      1  C   UNL     1      18.677 -11.772  68.717  1.00  0.00     0.021 A 
ATOM      2  C   UNL     1      17.779 -12.244  67.739  1.00  0.00     0.062 A 
ATOM      3  C   UNL     1      17.359 -11.410  66.683  1.00  0.00     0.161 A 
ATOM      4  C   UNL     1      17.843 -10.097  66.609  1.00  0.00     0.157 A 
ATOM      5  C   UNL     1      18.735  -9.622  67.577  1.00  0.00     0.051 A 
ATOM      6  C   UNL     1      19.149 -10.450  68.622  1.00  0.00     0.016 A 
ENDROOT
BRANCH   1   7
ATOM      7  C   UNL     1      19.129 -12.641  69.839  1.00  0.00     0.159 C 
ATOM      8  C   UNL     1      18.215 -13.635  70.491  1.00  0.00     0.093 C 
ATOM      9  O   UNL     1      20.313 -12.551  70.262  1.00  0.00    -0.295 OA
ENDBRANCH   1   7
BRANCH   3  10
ATOM     10  O   UNL     1      16.466 -11.848  65.692  1.00  0.00    -0.493 OA
ATOM     11  C   UNL     1      16.830 -12.652  64.574  1.00  0.00     0.278 C 
ENDBRANCH   3  10
BRANCH   4  12
ATOM     12  O   UNL     1      17.431  -9.268  65.566  1.00  0.00    -0.504 OA
ATOM     13  H   UNL     1      16.648  -9.514  64.972  1.00  0.00     0.293 HD
ENDBRANCH   4  12
TORSDOF 3
ENDMDL
MODEL 7
REMARK VINA RESULT:    -4.770      3.362      4.347
REMARK INTER + INTRA:          -5.586
REMARK INTER:                  -5.458
REMARK INTRA:                  -0.128
REMARK UNBOUND:                -0.119
REMARK SMILES COc1cc(C(C)=O)ccc1O
REMARK SMILES IDX 5 1 4 2 3 3 11 4 10 5 9 6 6 7 7 8 8 9 2 10 1 11 12 12
REMARK H PARENT 12 13
REMARK Flexibility Score: inf
ROOT
ATOM      1  C   UNL     1      17.099 -10.126  64.758  1.00  0.00     0.021 A 
ATOM      2  C   UNL     1      18.201  -9.696  63.991  1.00  0.00     0.062 A 
ATOM      3  C   UNL     1      19.436  -9.402  64.604  1.00  0.00     0.161 A 
ATOM      4  C   UNL     1      19.565  -9.540  65.993  1.00  0.00     0.157 A 
ATOM      5  C   UNL     1      18.475  -9.966  66.760  1.00  0.00     0.051 A 
ATOM      6  C   UNL     1      17.253 -10.257  66.150  1.00  0.00     0.016 A 
ENDROOT
BRANCH   1   7
ATOM      7  C   UNL     1      15.788 -10.440  64.125  1.00  0.00     0.159 C 
ATOM      8  C   UNL     1      14.779 -11.331  64.785  1.00  0.00     0.093 C 
ATOM      9  O   UNL     1      15.504  -9.946  63.000  1.00  0.00    -0.295 OA
ENDBRANCH   1   7
BRANCH   3  10
ATOM     10  O   UNL     1      20.552  -8.972  63.870  1.00  0.00    -0.493 OA
ATOM     11  C   UNL     1      21.476  -9.840  63.220  1.00  0.00     0.278 C 
ENDBRANCH   3  10
BRANCH   4  12
ATOM     12  O   UNL     1      20.783  -9.250  66.603  1.00  0.00    -0.504 OA
ATOM     13  H   UNL     1      21.041  -9.660  67.494  1.00  0.00     0.293 HD
ENDBRANCH   4  12
TORSDOF 3
ENDMDL
MODEL 8
REMARK VINA RESULT:    -4.739      2.367      3.192
REMARK INTER + INTRA:          -5.551
REMARK INTER:                  -5.429
REMARK INTRA:                  -0.121
REMARK UNBOUND:                -0.119
REMARK SMILES COc1cc(C(C)=O)ccc1O
REMARK SMILES IDX 5 1 4 2 3 3 11 4 10 5 9 6 6 7 7 8 8 9 2 10 1 11 12 12
REMARK H PARENT 12 13
REMARK Flexibility Score: inf
ROOT
ATOM      1  C   UNL     1      16.855 -10.374  65.177  1.00  0.00     0.021 A 
ATOM      2  C   UNL     1      17.155 -10.262  66.549  1.00  0.00     0.062 A 
ATOM      3  C   UNL     1      18.433  -9.847  66.977  1.00  0.00     0.161 A 
ATOM      4  C   UNL     1      19.412  -9.542  66.022  1.00  0.00     0.157 A 
ATOM      5  C   UNL     1      19.120  -9.651  64.657  1.00  0.00     0.051 A 
ATOM      6  C   UNL     1      17.855 -10.062  64.237  1.00  0.00     0.016 A 
ENDROOT
BRANCH   1   7
ATOM      7  C   UNL     1      15.510 -10.812  64.711  1.00  0.00     0.159 C 
ATOM      8  C   UNL     1      14.712 -10.014  63.723  1.00  0.00     0.093 C 
ATOM      9  O   UNL     1      15.015 -11.885  65.150  1.00  0.00    -0.295 OA
ENDBRANCH   1   7
BRANCH   3  10
ATOM     10  O   UNL     1      18.765  -9.725  68.335  1.00  0.00    -0.493 OA
ATOM     11  C   UNL     1      19.189 -10.802  69.164  1.00  0.00     0.278 C 
ENDBRANCH   3  10
BRANCH   4  12
ATOM     12  O   UNL     1      20.677  -9.131  66.439  1.00  0.00    -0.504 OA
ATOM     13  H   UNL     1      21.213  -8.450  65.914  1.00  0.00     0.293 HD
ENDBRANCH   4  12
TORSDOF 3
ENDMDL
MODEL 9
REMARK VINA RESULT:    -4.726      3.577      4.457
REMARK INTER + INTRA:          -5.535
REMARK INTER:                  -5.429
REMARK INTRA:                  -0.107
REMARK UNBOUND:                -0.119
REMARK SMILES COc1cc(C(C)=O)ccc1O
REMARK SMILES IDX 5 1 4 2 3 3 11 4 10 5 9 6 6 7 7 8 8 9 2 10 1 11 12 12
REMARK H PARENT 12 13
REMARK Flexibility Score: inf
ROOT
ATOM      1  C   UNL     1      16.513 -11.522  63.541  1.00  0.00     0.021 A 
ATOM      2  C   UNL     1      17.662 -10.706  63.581  1.00  0.00     0.062 A 
ATOM      3  C   UNL     1      18.033 -10.040  64.767  1.00  0.00     0.161 A 
ATOM      4  C   UNL     1      17.248 -10.195  65.917  1.00  0.00     0.157 A 
ATOM      5  C   UNL     1      16.105 -11.003  65.884  1.00  0.00     0.051 A 
ATOM      6  C   UNL     1      15.741 -11.661  64.708  1.00  0.00     0.016 A 
ENDROOT
BRANCH   1   7
ATOM      7  C   UNL     1      16.109 -12.230  62.294  1.00  0.00     0.159 C 
ATOM      8  C   UNL     1      14.759 -12.034  61.671  1.00  0.00     0.093 C 
ATOM      9  O   UNL     1      16.917 -13.020  61.734  1.00  0.00    -0.295 OA
ENDBRANCH   1   7
BRANCH   3  10
ATOM     10  O   UNL     1      19.170  -9.221  64.841  1.00  0.00    -0.493 OA
ATOM     11  C   UNL     1      20.339  -9.384  64.044  1.00  0.00     0.278 C 
ENDBRANCH   3  10
BRANCH   4  12
ATOM     12  O   UNL     1      17.610  -9.539  67.092  1.00  0.00    -0.504 OA
ATOM     13  H   UNL     1      16.959  -8.940  67.588  1.00  0.00     0.293 HD
ENDBRANCH   4  12
TORSDOF 3
ENDMDL
