MODEL 1
REMARK VINA RESULT:    -4.583      0.000      0.000
REMARK INTER + INTRA:          -5.938
REMARK INTER:                  -6.191
REMARK INTRA:                   0.252
REMARK UNBOUND:                 0.252
REMARK SMILES C=C1CCC=C(C)CC[C@@H]2[C@H]1CC2(C)C
REMARK SMILES IDX 11 1 12 2 13 3 10 4 14 5 15 6 9 7 8 8 6 9 7 10 5 11 2 13
REMARK SMILES IDX 1 14 3 15 4 16
REMARK H PARENT
REMARK Flexibility Score: 70.00
ROOT
ATOM      1  C   UNL     1     104.531 110.362 126.526  1.00  0.00     0.018 C 
ATOM      2  C   UNL     1     105.432 111.547 126.914  1.00  0.00     0.015 C 
ATOM      3  C   UNL     1     105.499 111.031 128.365  1.00  0.00    -0.031 C 
ATOM      4  C   UNL     1     104.544 109.867 127.992  1.00  0.00     0.002 C 
ATOM      5  C   UNL     1     106.929 110.646 128.795  1.00  0.00     0.011 C 
ATOM      6  C   UNL     1     104.872 112.019 129.366  1.00  0.00     0.011 C 
ENDROOT
BRANCH   4   7
ATOM      7  C   UNL     1     105.024 108.413 128.265  1.00  0.00     0.009 C 
BRANCH   7   8
ATOM      8  C   UNL     1     103.923 107.441 128.758  1.00  0.00     0.030 C 
BRANCH   8   9
ATOM      9  C   UNL     1     102.710 107.288 127.849  1.00  0.00    -0.077 C 
ATOM     10  C   UNL     1     101.335 107.280 128.468  1.00  0.00     0.039 C 
ATOM     11  C   UNL     1     102.797 107.123 126.511  1.00  0.00    -0.028 CG0
ATOM     12  G   UNL     1     104.068 107.145 125.701  1.00  0.00     0.000 G0
ENDBRANCH   8   9
ENDBRANCH   7   8
ENDBRANCH   4   7
BRANCH   1  13
ATOM     13  C   UNL     1     105.075 109.426 125.441  1.00  0.00    -0.074 C 
ATOM     14  C   UNL     1     106.364 109.413 125.046  1.00  0.00     0.008 C 
BRANCH  13  15
ATOM     15  C   UNL     1     104.131 108.416 124.831  1.00  0.00     0.035 C 
BRANCH  15  16
ATOM     16  C   UNL     1     104.058 107.144 125.684  1.00  0.00     0.032 CG0
ATOM     17  G   UNL     1     102.803 107.132 126.518  1.00  0.00     0.000 G0
ENDBRANCH  15  16
ENDBRANCH  13  15
ENDBRANCH   1  13
TORSDOF 0
ENDMDL
MODEL 2
REMARK VINA RESULT:    -4.550      5.884      7.853
REMARK INTER + INTRA:          -5.893
REMARK INTER:                  -6.083
REMARK INTRA:                   0.190
REMARK UNBOUND:                 0.252
REMARK SMILES C=C1CCC=C(C)CC[C@@H]2[C@H]1CC2(C)C
REMARK SMILES IDX 11 1 12 2 13 3 10 4 14 5 15 6 9 7 8 8 6 9 7 10 5 11 2 13
REMARK SMILES IDX 1 14 3 15 4 16
REMARK H PARENT
REMARK Flexibility Score: 70.00
ROOT
ATOM      1  C   UNL     1     107.933 102.114 126.736  1.00  0.00     0.018 C 
ATOM      2  C   UNL     1     107.186 100.820 127.100  1.00  0.00     0.015 C 
ATOM      3  C   UNL     1     107.052 101.298 128.559  1.00  0.00    -0.031 C 
ATOM      4  C   UNL     1     107.855 102.579 128.210  1.00  0.00     0.002 C 
ATOM      5  C   UNL     1     105.584 101.495 128.989  1.00  0.00     0.011 C 
ATOM      6  C   UNL     1     107.795 100.379 129.546  1.00  0.00     0.011 C 
ENDROOT
BRANCH   4   7
ATOM      7  C   UNL     1     107.198 103.956 128.505  1.00  0.00     0.009 C 
BRANCH   7   8
ATOM      8  C   UNL     1     108.192 105.115 128.768  1.00  0.00     0.030 C 
BRANCH   8   9
ATOM      9  C   UNL     1     109.486 105.081 127.965  1.00  0.00    -0.077 C 
ATOM     10  C   UNL     1     110.796 104.961 128.704  1.00  0.00     0.039 C 
ATOM     11  C   UNL     1     109.532 105.187 126.620  1.00  0.00    -0.028 CG0
ATOM     12  G   UNL     1     108.340 105.269 125.701  1.00  0.00     0.000 G0
ENDBRANCH   8   9
ENDBRANCH   7   8
ENDBRANCH   4   7
BRANCH   1  13
ATOM     13  C   UNL     1     107.280 102.994 125.664  1.00  0.00    -0.074 C 
ATOM     14  C   UNL     1     105.957 102.993 125.406  1.00  0.00     0.008 C 
BRANCH  13  15
ATOM     15  C   UNL     1     108.156 103.964 124.905  1.00  0.00     0.035 C 
BRANCH  15  16
ATOM     16  C   UNL     1     108.338 105.270 125.688  1.00  0.00     0.032 CG0
ATOM     17  G   UNL     1     109.528 105.178 126.608  1.00  0.00     0.000 G0
ENDBRANCH  15  16
ENDBRANCH  13  15
ENDBRANCH   1  13
TORSDOF 0
ENDMDL
MODEL 3
REMARK VINA RESULT:    -4.529      4.064      5.565
REMARK INTER + INTRA:          -5.865
REMARK INTER:                  -6.056
REMARK INTRA:                   0.192
REMARK UNBOUND:                 0.252
REMARK SMILES C=C1CCC=C(C)CC[C@@H]2[C@H]1CC2(C)C
REMARK SMILES IDX 11 1 12 2 13 3 10 4 14 5 15 6 9 7 8 8 6 9 7 10 5 11 2 13
REMARK SMILES IDX 1 14 3 15 4 16
REMARK H PARENT
REMARK Flexibility Score: 70.00
ROOT
ATOM      1  C   UNL     1     110.386 107.843 126.383  1.00  0.00     0.018 C 
ATOM      2  C   UNL     1     111.666 107.102 126.805  1.00  0.00     0.015 C 
ATOM      3  C   UNL     1     111.138 106.996 128.249  1.00  0.00    -0.031 C 
ATOM      4  C   UNL     1     109.871 107.793 127.841  1.00  0.00     0.002 C 
ATOM      5  C   UNL     1     110.925 105.536 128.699  1.00  0.00     0.011 C 
ATOM      6  C   UNL     1     112.023 107.757 129.253  1.00  0.00     0.011 C 
ENDROOT
BRANCH   4   7
ATOM      7  C   UNL     1     108.484 107.141 128.101  1.00  0.00     0.009 C 
BRANCH   7   8
ATOM      8  C   UNL     1     107.348 108.135 128.452  1.00  0.00     0.030 C 
BRANCH   8   9
ATOM      9  C   UNL     1     107.251 109.377 127.576  1.00  0.00    -0.077 C 
ATOM     10  C   UNL     1     107.225 110.732 128.238  1.00  0.00     0.039 C 
ATOM     11  C   UNL     1     107.153 109.334 126.230  1.00  0.00    -0.028 CG0
ATOM     12  G   UNL     1     107.204 108.090 125.381  1.00  0.00     0.000 G0
ENDBRANCH   8   9
ENDBRANCH   7   8
ENDBRANCH   4   7
BRANCH   1  13
ATOM     13  C   UNL     1     109.543 107.170 125.294  1.00  0.00    -0.074 C 
ATOM     14  C   UNL     1     109.629 105.859 124.990  1.00  0.00     0.008 C 
BRANCH  13  15
ATOM     15  C   UNL     1     108.510 108.005 124.571  1.00  0.00     0.035 C 
BRANCH  15  16
ATOM     16  C   UNL     1     107.206 108.081 125.372  1.00  0.00     0.032 CG0
ATOM     17  G   UNL     1     107.168 109.332 126.213  1.00  0.00     0.000 G0
ENDBRANCH  15  16
ENDBRANCH  13  15
ENDBRANCH   1  13
TORSDOF 0
ENDMDL
MODEL 4
REMARK VINA RESULT:    -4.515      3.969      5.468
REMARK INTER + INTRA:          -5.847
REMARK INTER:                  -6.056
REMARK INTRA:                   0.209
REMARK UNBOUND:                 0.252
REMARK SMILES C=C1CCC=C(C)CC[C@@H]2[C@H]1CC2(C)C
REMARK SMILES IDX 11 1 12 2 13 3 10 4 14 5 15 6 9 7 8 8 6 9 7 10 5 11 2 13
REMARK SMILES IDX 1 14 3 15 4 16
REMARK H PARENT
REMARK Flexibility Score: 70.00
ROOT
ATOM      1  C   UNL     1     102.185 104.521 126.510  1.00  0.00     0.018 C 
ATOM      2  C   UNL     1     100.860 105.252 126.782  1.00  0.00     0.015 C 
ATOM      3  C   UNL     1     101.291 105.509 128.239  1.00  0.00    -0.031 C 
ATOM      4  C   UNL     1     102.605 104.722 127.985  1.00  0.00     0.002 C 
ATOM      5  C   UNL     1     101.433 107.010 128.563  1.00  0.00     0.011 C 
ATOM      6  C   UNL     1     100.366 104.813 129.254  1.00  0.00     0.011 C 
ENDROOT
BRANCH   4   7
ATOM      7  C   UNL     1     103.953 105.442 128.267  1.00  0.00     0.009 C 
BRANCH   7   8
ATOM      8  C   UNL     1     105.112 104.515 128.713  1.00  0.00     0.030 C 
BRANCH   8   9
ATOM      9  C   UNL     1     105.230 103.190 127.973  1.00  0.00    -0.077 C 
ATOM     10  C   UNL     1     105.197 101.908 128.767  1.00  0.00     0.039 C 
ATOM     11  C   UNL     1     105.399 103.094 126.636  1.00  0.00    -0.028 CG0
ATOM     12  G   UNL     1     105.414 104.247 125.665  1.00  0.00     0.000 G0
ENDBRANCH   8   9
ENDBRANCH   7   8
ENDBRANCH   4   7
BRANCH   1  13
ATOM     13  C   UNL     1     103.077 105.119 125.416  1.00  0.00    -0.074 C 
ATOM     14  C   UNL     1     102.998 106.404 125.013  1.00  0.00     0.008 C 
BRANCH  13  15
ATOM     15  C   UNL     1     104.146 104.243 124.806  1.00  0.00     0.035 C 
BRANCH  15  16
ATOM     16  C   UNL     1     105.415 104.244 125.666  1.00  0.00     0.032 CG0
ATOM     17  G   UNL     1     105.402 103.094 126.639  1.00  0.00     0.000 G0
ENDBRANCH  15  16
ENDBRANCH  13  15
ENDBRANCH   1  13
TORSDOF 0
ENDMDL
MODEL 5
REMARK VINA RESULT:    -4.495      4.929      7.120
REMARK INTER + INTRA:          -5.820
REMARK INTER:                  -5.884
REMARK INTRA:                   0.064
REMARK UNBOUND:                 0.252
REMARK SMILES C=C1CCC=C(C)CC[C@@H]2[C@H]1CC2(C)C
REMARK SMILES IDX 11 1 12 2 13 3 10 4 14 5 15 6 9 7 8 8 6 9 7 10 5 11 2 13
REMARK SMILES IDX 1 14 3 15 4 16
REMARK H PARENT
REMARK Flexibility Score: 70.00
ROOT
ATOM      1  C   UNL     1     104.581 103.160 127.813  1.00  0.00     0.018 C 
ATOM      2  C   UNL     1     105.163 102.894 129.211  1.00  0.00     0.015 C 
ATOM      3  C   UNL     1     105.789 101.578 128.710  1.00  0.00    -0.031 C 
ATOM      4  C   UNL     1     105.155 101.813 127.313  1.00  0.00     0.002 C 
ATOM      5  C   UNL     1     107.329 101.585 128.783  1.00  0.00     0.011 C 
ATOM      6  C   UNL     1     105.209 100.345 129.427  1.00  0.00     0.011 C 
ENDROOT
BRANCH   4   7
ATOM      7  C   UNL     1     106.099 101.838 126.078  1.00  0.00     0.009 C 
BRANCH   7   8
ATOM      8  C   UNL     1     105.412 101.543 124.721  1.00  0.00     0.030 C 
BRANCH   8   9
ATOM      9  C   UNL     1     105.319 102.714 123.751  1.00  0.00    -0.077 C 
ATOM     10  C   UNL     1     106.162 102.690 122.501  1.00  0.00     0.039 C 
ATOM     11  C   UNL     1     104.543 103.799 123.964  1.00  0.00    -0.028 CG0
ATOM     12  G   UNL     1     103.600 103.994 125.123  1.00  0.00     0.000 G0
ENDBRANCH   8   9
ENDBRANCH   7   8
ENDBRANCH   4   7
BRANCH   1  13
ATOM     13  C   UNL     1     105.044 104.446 127.120  1.00  0.00    -0.074 C 
ATOM     14  C   UNL     1     106.245 105.018 127.340  1.00  0.00     0.008 C 
BRANCH  13  15
ATOM     15  C   UNL     1     104.135 105.067 126.084  1.00  0.00     0.035 C 
BRANCH  15  16
ATOM     16  C   UNL     1     103.594 104.006 125.120  1.00  0.00     0.032 CG0
ATOM     17  G   UNL     1     104.539 103.804 123.963  1.00  0.00     0.000 G0
ENDBRANCH  15  16
ENDBRANCH  13  15
ENDBRANCH   1  13
TORSDOF 0
ENDMDL
MODEL 6
REMARK VINA RESULT:    -4.448      2.426      4.418
REMARK INTER + INTRA:          -5.756
REMARK INTER:                  -5.856
REMARK INTRA:                   0.100
REMARK UNBOUND:                 0.252
REMARK SMILES C=C1CCC=C(C)CC[C@@H]2[C@H]1CC2(C)C
REMARK SMILES IDX 11 1 12 2 13 3 10 4 14 5 15 6 9 7 8 8 6 9 7 10 5 11 2 13
REMARK SMILES IDX 1 14 3 15 4 16
REMARK H PARENT
REMARK Flexibility Score: 70.00
ROOT
ATOM      1  C   UNL     1     103.256 107.874 127.836  1.00  0.00     0.018 C 
ATOM      2  C   UNL     1     102.915 107.372 129.248  1.00  0.00     0.015 C 
ATOM      3  C   UNL     1     101.577 106.807 128.734  1.00  0.00    -0.031 C 
ATOM      4  C   UNL     1     101.890 107.363 127.319  1.00  0.00     0.002 C 
ATOM      5  C   UNL     1     101.484 105.274 128.872  1.00  0.00     0.011 C 
ATOM      6  C   UNL     1     100.362 107.493 129.387  1.00  0.00     0.011 C 
ENDROOT
BRANCH   4   7
ATOM      7  C   UNL     1     101.890 106.366 126.126  1.00  0.00     0.009 C 
BRANCH   7   8
ATOM      8  C   UNL     1     101.565 106.992 124.747  1.00  0.00     0.030 C 
BRANCH   8   9
ATOM      9  C   UNL     1     102.717 107.051 123.752  1.00  0.00    -0.077 C 
ATOM     10  C   UNL     1     102.622 106.240 122.483  1.00  0.00     0.039 C 
ATOM     11  C   UNL     1     103.844 107.766 123.956  1.00  0.00    -0.028 CG0
ATOM     12  G   UNL     1     104.113 108.670 125.131  1.00  0.00     0.000 G0
ENDBRANCH   8   9
ENDBRANCH   7   8
ENDBRANCH   4   7
BRANCH   1  13
ATOM     13  C   UNL     1     104.530 107.302 127.202  1.00  0.00    -0.074 C 
ATOM     14  C   UNL     1     105.069 106.119 127.557  1.00  0.00     0.008 C 
BRANCH  13  15
ATOM     15  C   UNL     1     105.174 108.073 126.073  1.00  0.00     0.035 C 
BRANCH  15  16
ATOM     16  C   UNL     1     104.116 108.675 125.143  1.00  0.00     0.032 CG0
ATOM     17  G   UNL     1     103.855 107.764 123.971  1.00  0.00     0.000 G0
ENDBRANCH  15  16
ENDBRANCH  13  15
ENDBRANCH   1  13
TORSDOF 0
ENDMDL
MODEL 7
REMARK VINA RESULT:    -4.392      2.368      4.966
REMARK INTER + INTRA:          -5.681
REMARK INTER:                  -5.731
REMARK INTRA:                   0.050
REMARK UNBOUND:                 0.252
REMARK SMILES C=C1CCC=C(C)CC[C@@H]2[C@H]1CC2(C)C
REMARK SMILES IDX 11 1 12 2 13 3 10 4 14 5 15 6 9 7 8 8 6 9 7 10 5 11 2 13
REMARK SMILES IDX 1 14 3 15 4 16
REMARK H PARENT
REMARK Flexibility Score: 70.00
ROOT
ATOM      1  C   UNL     1     103.989 106.150 128.845  1.00  0.00     0.018 C 
ATOM      2  C   UNL     1     102.682 105.461 128.420  1.00  0.00     0.015 C 
ATOM      3  C   UNL     1     102.007 106.834 128.238  1.00  0.00    -0.031 C 
ATOM      4  C   UNL     1     103.306 107.533 128.722  1.00  0.00     0.002 C 
ATOM      5  C   UNL     1     101.578 107.100 126.781  1.00  0.00     0.011 C 
ATOM      6  C   UNL     1     100.826 107.038 129.205  1.00  0.00     0.011 C 
ENDROOT
BRANCH   4   7
ATOM      7  C   UNL     1     103.960 108.587 127.786  1.00  0.00     0.009 C 
BRANCH   7   8
ATOM      8  C   UNL     1     104.863 109.626 128.497  1.00  0.00     0.030 C 
BRANCH   8   9
ATOM      9  C   UNL     1     106.355 109.524 128.209  1.00  0.00    -0.077 C 
ATOM     10  C   UNL     1     107.019 110.625 127.420  1.00  0.00     0.039 C 
ATOM     11  C   UNL     1     107.119 108.478 128.591  1.00  0.00    -0.028 CG0
ATOM     12  G   UNL     1     106.658 107.306 129.420  1.00  0.00     0.000 G0
ENDBRANCH   8   9
ENDBRANCH   7   8
ENDBRANCH   4   7
BRANCH   1  13
ATOM     13  C   UNL     1     105.218 105.869 127.972  1.00  0.00    -0.074 C 
ATOM     14  C   UNL     1     105.144 105.559 126.662  1.00  0.00     0.008 C 
BRANCH  13  15
ATOM     15  C   UNL     1     106.587 106.017 128.595  1.00  0.00     0.035 C 
BRANCH  15  16
ATOM     16  C   UNL     1     106.676 107.300 129.429  1.00  0.00     0.032 CG0
ATOM     17  G   UNL     1     107.125 108.460 128.576  1.00  0.00     0.000 G0
ENDBRANCH  15  16
ENDBRANCH  13  15
ENDBRANCH   1  13
TORSDOF 0
ENDMDL
MODEL 8
REMARK VINA RESULT:    -4.386      5.510      7.157
REMARK INTER + INTRA:          -5.672
REMARK INTER:                  -5.808
REMARK INTRA:                   0.137
REMARK UNBOUND:                 0.252
REMARK SMILES C=C1CCC=C(C)CC[C@@H]2[C@H]1CC2(C)C
REMARK SMILES IDX 11 1 12 2 13 3 10 4 14 5 15 6 9 7 8 8 6 9 7 10 5 11 2 13
REMARK SMILES IDX 1 14 3 15 4 16
REMARK H PARENT
REMARK Flexibility Score: 70.00
ROOT
ATOM      1  C   UNL     1     109.205 104.899 127.944  1.00  0.00     0.018 C 
ATOM      2  C   UNL     1     109.618 105.432 129.325  1.00  0.00     0.015 C 
ATOM      3  C   UNL     1     111.007 105.807 128.775  1.00  0.00    -0.031 C 
ATOM      4  C   UNL     1     110.615 105.217 127.394  1.00  0.00     0.002 C 
ATOM      5  C   UNL     1     111.282 107.323 128.830  1.00  0.00     0.011 C 
ATOM      6  C   UNL     1     112.139 105.018 129.459  1.00  0.00     0.011 C 
ENDROOT
BRANCH   4   7
ATOM      7  C   UNL     1     110.720 106.142 126.149  1.00  0.00     0.009 C 
BRANCH   7   8
ATOM      8  C   UNL     1     110.999 105.412 124.811  1.00  0.00     0.030 C 
BRANCH   8   9
ATOM      9  C   UNL     1     109.848 105.383 123.814  1.00  0.00    -0.077 C 
ATOM     10  C   UNL     1     110.025 106.066 122.481  1.00  0.00     0.039 C 
ATOM     11  C   UNL     1     108.654 104.804 124.068  1.00  0.00    -0.028 CG0
ATOM     12  G   UNL     1     108.295 104.037 125.315  1.00  0.00     0.000 G0
ENDBRANCH   8   9
ENDBRANCH   7   8
ENDBRANCH   4   7
BRANCH   1  13
ATOM     13  C   UNL     1     108.000 105.583 127.286  1.00  0.00    -0.074 C 
ATOM     14  C   UNL     1     107.579 106.822 127.612  1.00  0.00     0.008 C 
BRANCH  13  15
ATOM     15  C   UNL     1     107.291 104.859 126.165  1.00  0.00     0.035 C 
BRANCH  15  16
ATOM     16  C   UNL     1     108.281 104.049 125.320  1.00  0.00     0.032 CG0
ATOM     17  G   UNL     1     108.649 104.799 124.066  1.00  0.00     0.000 G0
ENDBRANCH  15  16
ENDBRANCH  13  15
ENDBRANCH   1  13
TORSDOF 0
ENDMDL
MODEL 9
REMARK VINA RESULT:    -4.244      4.015      6.083
REMARK INTER + INTRA:          -5.481
REMARK INTER:                  -5.592
REMARK INTRA:                   0.111
REMARK UNBOUND:                 0.252
REMARK SMILES C=C1CCC=C(C)CC[C@@H]2[C@H]1CC2(C)C
REMARK SMILES IDX 11 1 12 2 13 3 10 4 14 5 15 6 9 7 8 8 6 9 7 10 5 11 2 13
REMARK SMILES IDX 1 14 3 15 4 16
REMARK H PARENT
REMARK Flexibility Score: 70.00
ROOT
ATOM      1  C   UNL     1     106.609 103.920 128.736  1.00  0.00     0.018 C 
ATOM      2  C   UNL     1     107.256 102.603 128.277  1.00  0.00     0.015 C 
ATOM      3  C   UNL     1     105.864 101.965 128.114  1.00  0.00    -0.031 C 
ATOM      4  C   UNL     1     105.208 103.273 128.632  1.00  0.00     0.002 C 
ATOM      5  C   UNL     1     105.557 101.565 126.657  1.00  0.00     0.011 C 
ATOM      6  C   UNL     1     105.651 100.775 129.068  1.00  0.00     0.011 C 
ENDROOT
BRANCH   4   7
ATOM      7  C   UNL     1     104.150 103.966 127.728  1.00  0.00     0.009 C 
BRANCH   7   8
ATOM      8  C   UNL     1     103.082 104.795 128.485  1.00  0.00     0.030 C 
BRANCH   8   9
ATOM      9  C   UNL     1     103.172 106.307 128.324  1.00  0.00    -0.077 C 
ATOM     10  C   UNL     1     102.027 107.038 127.669  1.00  0.00     0.039 C 
ATOM     11  C   UNL     1     104.244 107.036 128.707  1.00  0.00    -0.028 CG0
ATOM     12  G   UNL     1     105.463 106.504 129.415  1.00  0.00     0.000 G0
ENDBRANCH   8   9
ENDBRANCH   7   8
ENDBRANCH   4   7
BRANCH   1  13
ATOM     13  C   UNL     1     106.902 105.155 127.875  1.00  0.00    -0.074 C 
ATOM     14  C   UNL     1     107.282 105.087 126.583  1.00  0.00     0.008 C 
BRANCH  13  15
ATOM     15  C   UNL     1     106.685 106.520 128.486  1.00  0.00     0.035 C 
BRANCH  15  16
ATOM     16  C   UNL     1     105.472 106.517 129.423  1.00  0.00     0.032 CG0
ATOM     17  G   UNL     1     104.243 107.016 128.708  1.00  0.00     0.000 G0
ENDBRANCH  15  16
ENDBRANCH  13  15
ENDBRANCH   1  13
TORSDOF 0
ENDMDL
