MODEL 1
REMARK VINA RESULT:    -4.259      0.000      0.000
REMARK INTER + INTRA:          -9.659
REMARK INTER:                  -7.994
REMARK INTRA:                  -1.664
REMARK UNBOUND:                -1.664
REMARK SMILES O=C([O-])CCCCCCCCCCCCCCC(=O)[O-]
REMARK SMILES IDX 10 1 9 2 8 3 7 4 6 5 5 6 4 7 2 8 1 9 3 10 11 11 12 12 13 13
REMARK SMILES IDX 14 14 15 15 16 16 17 17 18 18 19 19 20 20
REMARK H PARENT
REMARK Flexibility Score: inf
ROOT
ATOM      1  C   UNL     1      45.570  13.114  22.394  1.00  0.00     0.000 C 
ENDROOT
BRANCH   1   2
ATOM      2  C   UNL     1      44.749  11.900  21.942  1.00  0.00     0.000 C 
BRANCH   2   3
ATOM      3  C   UNL     1      45.665  10.755  21.483  1.00  0.00     0.000 C 
BRANCH   3   4
ATOM      4  C   UNL     1      44.895   9.612  20.803  1.00  0.00     0.000 C 
BRANCH   4   5
ATOM      5  C   UNL     1      44.846   8.338  21.665  1.00  0.00     0.000 C 
BRANCH   5   6
ATOM      6  C   UNL     1      45.925   8.326  22.760  1.00  0.00     0.006 C 
BRANCH   6   7
ATOM      7  C   UNL     1      45.337   8.159  24.167  1.00  0.00     0.053 C 
BRANCH   7   8
ATOM      8  C   UNL     1      44.946   9.490  24.730  1.00  0.00     0.041 C 
ATOM      9  O   UNL     1      45.815  10.240  25.246  1.00  0.00    -0.550 OA
ATOM     10  O   UNL     1      43.613   9.879  24.730  1.00  0.00    -0.550 OA
ENDBRANCH   7   8
ENDBRANCH   6   7
ENDBRANCH   5   6
ENDBRANCH   4   5
ENDBRANCH   3   4
ENDBRANCH   2   3
ENDBRANCH   1   2
BRANCH   1  11
ATOM     11  C   UNL     1      45.389  14.293  21.427  1.00  0.00     0.000 C 
BRANCH  11  12
ATOM     12  C   UNL     1      45.766  15.643  22.060  1.00  0.00     0.000 C 
BRANCH  12  13
ATOM     13  C   UNL     1      44.995  16.821  21.440  1.00  0.00     0.000 C 
BRANCH  13  14
ATOM     14  C   UNL     1      43.886  16.362  20.481  1.00  0.00     0.000 C 
BRANCH  14  15
ATOM     15  C   UNL     1      42.476  16.687  21.002  1.00  0.00     0.000 C 
BRANCH  15  16
ATOM     16  C   UNL     1      41.783  15.467  21.630  1.00  0.00     0.006 C 
BRANCH  16  17
ATOM     17  C   UNL     1      41.984  15.394  23.150  1.00  0.00     0.053 C 
BRANCH  17  18
ATOM     18  C   UNL     1      41.791  13.992  23.635  1.00  0.00     0.041 C 
ATOM     19  O   UNL     1      40.755  13.349  23.321  1.00  0.00    -0.550 OA
ATOM     20  O   UNL     1      42.734  13.412  24.474  1.00  0.00    -0.550 OA
ENDBRANCH  17  18
ENDBRANCH  16  17
ENDBRANCH  15  16
ENDBRANCH  14  15
ENDBRANCH  13  14
ENDBRANCH  12  13
ENDBRANCH  11  12
ENDBRANCH   1  11
TORSDOF 15
ENDMDL
MODEL 2
REMARK VINA RESULT:    -4.249      2.118      3.853
REMARK INTER + INTRA:          -9.639
REMARK INTER:                  -7.384
REMARK INTRA:                  -2.255
REMARK UNBOUND:                -1.664
REMARK SMILES O=C([O-])CCCCCCCCCCCCCCC(=O)[O-]
REMARK SMILES IDX 10 1 9 2 8 3 7 4 6 5 5 6 4 7 2 8 1 9 3 10 11 11 12 12 13 13
REMARK SMILES IDX 14 14 15 15 16 16 17 17 18 18 19 19 20 20
REMARK H PARENT
REMARK Flexibility Score: inf
ROOT
ATOM      1  C   UNL     1      41.661  15.887  21.528  1.00  0.00     0.000 C 
ENDROOT
BRANCH   1   2
ATOM      2  C   UNL     1      42.162  15.300  22.853  1.00  0.00     0.000 C 
BRANCH   2   3
ATOM      3  C   UNL     1      41.807  13.810  22.964  1.00  0.00     0.000 C 
BRANCH   3   4
ATOM      4  C   UNL     1      42.969  12.959  23.503  1.00  0.00     0.000 C 
BRANCH   4   5
ATOM      5  C   UNL     1      43.415  11.872  22.509  1.00  0.00     0.000 C 
BRANCH   5   6
ATOM      6  C   UNL     1      44.784  12.177  21.879  1.00  0.00     0.006 C 
BRANCH   6   7
ATOM      7  C   UNL     1      45.890  11.244  22.387  1.00  0.00     0.053 C 
BRANCH   7   8
ATOM      8  C   UNL     1      45.659   9.848  21.899  1.00  0.00     0.041 C 
ATOM      9  O   UNL     1      45.890   8.866  22.652  1.00  0.00    -0.550 OA
ATOM     10  O   UNL     1      45.237   9.630  20.594  1.00  0.00    -0.550 OA
ENDBRANCH   7   8
ENDBRANCH   6   7
ENDBRANCH   5   6
ENDBRANCH   4   5
ENDBRANCH   3   4
ENDBRANCH   2   3
ENDBRANCH   1   2
BRANCH   1  11
ATOM     11  C   UNL     1      42.797  16.593  20.774  1.00  0.00     0.000 C 
BRANCH  11  12
ATOM     12  C   UNL     1      44.186  16.050  21.149  1.00  0.00     0.000 C 
BRANCH  12  13
ATOM     13  C   UNL     1      45.175  17.166  21.529  1.00  0.00     0.000 C 
BRANCH  13  14
ATOM     14  C   UNL     1      45.939  16.861  22.827  1.00  0.00     0.000 C 
BRANCH  14  15
ATOM     15  C   UNL     1      45.926  15.365  23.187  1.00  0.00     0.000 C 
BRANCH  15  16
ATOM     16  C   UNL     1      45.695  15.120  24.686  1.00  0.00     0.006 C 
BRANCH  16  17
ATOM     17  C   UNL     1      44.871  16.235  25.345  1.00  0.00     0.053 C 
BRANCH  17  18
ATOM     18  C   UNL     1      43.708  15.656  26.087  1.00  0.00     0.041 C 
ATOM     19  O   UNL     1      42.644  16.316  26.213  1.00  0.00    -0.550 OA
ATOM     20  O   UNL     1      43.817  14.405  26.682  1.00  0.00    -0.550 OA
ENDBRANCH  17  18
ENDBRANCH  16  17
ENDBRANCH  15  16
ENDBRANCH  14  15
ENDBRANCH  13  14
ENDBRANCH  12  13
ENDBRANCH  11  12
ENDBRANCH   1  11
TORSDOF 15
ENDMDL
MODEL 3
REMARK VINA RESULT:    -4.191      1.978      6.438
REMARK INTER + INTRA:          -9.530
REMARK INTER:                  -7.697
REMARK INTRA:                  -1.833
REMARK UNBOUND:                -1.664
REMARK SMILES O=C([O-])CCCCCCCCCCCCCCC(=O)[O-]
REMARK SMILES IDX 10 1 9 2 8 3 7 4 6 5 5 6 4 7 2 8 1 9 3 10 11 11 12 12 13 13
REMARK SMILES IDX 14 14 15 15 16 16 17 17 18 18 19 19 20 20
REMARK H PARENT
REMARK Flexibility Score: inf
ROOT
ATOM      1  C   UNL     1      41.431  13.953  22.651  1.00  0.00     0.000 C 
ENDROOT
BRANCH   1   2
ATOM      2  C   UNL     1      42.164  15.299  22.613  1.00  0.00     0.000 C 
BRANCH   2   3
ATOM      3  C   UNL     1      41.911  16.026  21.284  1.00  0.00     0.000 C 
BRANCH   3   4
ATOM      4  C   UNL     1      43.113  16.869  20.827  1.00  0.00     0.000 C 
BRANCH   4   5
ATOM      5  C   UNL     1      44.280  16.006  20.317  1.00  0.00     0.000 C 
BRANCH   5   6
ATOM      6  C   UNL     1      45.536  16.137  21.194  1.00  0.00     0.006 C 
BRANCH   6   7
ATOM      7  C   UNL     1      45.605  17.481  21.930  1.00  0.00     0.053 C 
BRANCH   7   8
ATOM      8  C   UNL     1      45.784  17.262  23.400  1.00  0.00     0.041 C 
ATOM      9  O   UNL     1      45.851  16.094  23.863  1.00  0.00    -0.550 OA
ATOM     10  O   UNL     1      45.824  18.349  24.264  1.00  0.00    -0.550 OA
ENDBRANCH   7   8
ENDBRANCH   6   7
ENDBRANCH   5   6
ENDBRANCH   4   5
ENDBRANCH   3   4
ENDBRANCH   2   3
ENDBRANCH   1   2
BRANCH   1  11
ATOM     11  C   UNL     1      42.401  12.806  22.969  1.00  0.00     0.000 C 
BRANCH  11  12
ATOM     12  C   UNL     1      43.867  13.269  23.032  1.00  0.00     0.000 C 
BRANCH  12  13
ATOM     13  C   UNL     1      44.726  12.662  21.910  1.00  0.00     0.000 C 
BRANCH  13  14
ATOM     14  C   UNL     1      45.829  11.736  22.447  1.00  0.00     0.000 C 
BRANCH  14  15
ATOM     15  C   UNL     1      45.707  10.297  21.918  1.00  0.00     0.000 C 
BRANCH  15  16
ATOM     16  C   UNL     1      44.351   9.657  22.254  1.00  0.00     0.006 C 
BRANCH  16  17
ATOM     17  C   UNL     1      44.479   8.486  23.237  1.00  0.00     0.053 C 
BRANCH  17  18
ATOM     18  C   UNL     1      43.974   8.880  24.589  1.00  0.00     0.041 C 
ATOM     19  O   UNL     1      43.525  10.041  24.784  1.00  0.00    -0.550 OA
ATOM     20  O   UNL     1      44.043   7.982  25.646  1.00  0.00    -0.550 OA
ENDBRANCH  17  18
ENDBRANCH  16  17
ENDBRANCH  15  16
ENDBRANCH  14  15
ENDBRANCH  13  14
ENDBRANCH  12  13
ENDBRANCH  11  12
ENDBRANCH   1  11
TORSDOF 15
ENDMDL
MODEL 4
REMARK VINA RESULT:    -4.129      7.213     10.192
REMARK INTER + INTRA:          -9.415
REMARK INTER:                  -7.880
REMARK INTRA:                  -1.534
REMARK UNBOUND:                -1.664
REMARK SMILES O=C([O-])CCCCCCCCCCCCCCC(=O)[O-]
REMARK SMILES IDX 10 1 9 2 8 3 7 4 6 5 5 6 4 7 2 8 1 9 3 10 11 11 12 12 13 13
REMARK SMILES IDX 14 14 15 15 16 16 17 17 18 18 19 19 20 20
REMARK H PARENT
REMARK Flexibility Score: inf
ROOT
ATOM      1  C   UNL     1      35.136   8.843  26.165  1.00  0.00     0.000 C 
ENDROOT
BRANCH   1   2
ATOM      2  C   UNL     1      34.312   8.883  27.457  1.00  0.00     0.000 C 
BRANCH   2   3
ATOM      3  C   UNL     1      35.189   8.574  28.679  1.00  0.00     0.000 C 
BRANCH   3   4
ATOM      4  C   UNL     1      34.908   9.510  29.866  1.00  0.00     0.000 C 
BRANCH   4   5
ATOM      5  C   UNL     1      33.727  10.461  29.603  1.00  0.00     0.000 C 
BRANCH   5   6
ATOM      6  C   UNL     1      34.104  11.937  29.810  1.00  0.00     0.006 C 
BRANCH   6   7
ATOM      7  C   UNL     1      35.486  12.280  29.241  1.00  0.00     0.053 C 
BRANCH   7   8
ATOM      8  C   UNL     1      35.443  13.591  28.520  1.00  0.00     0.041 C 
ATOM      9  O   UNL     1      36.287  13.849  27.622  1.00  0.00    -0.550 OA
ATOM     10  O   UNL     1      34.501  14.548  28.875  1.00  0.00    -0.550 OA
ENDBRANCH   7   8
ENDBRANCH   6   7
ENDBRANCH   5   6
ENDBRANCH   4   5
ENDBRANCH   3   4
ENDBRANCH   2   3
ENDBRANCH   1   2
BRANCH   1  11
ATOM     11  C   UNL     1      36.636   8.982  26.463  1.00  0.00     0.000 C 
BRANCH  11  12
ATOM     12  C   UNL     1      37.135  10.432  26.331  1.00  0.00     0.000 C 
BRANCH  12  13
ATOM     13  C   UNL     1      38.238  10.771  27.348  1.00  0.00     0.000 C 
BRANCH  13  14
ATOM     14  C   UNL     1      39.146  11.917  26.874  1.00  0.00     0.000 C 
BRANCH  14  15
ATOM     15  C   UNL     1      40.152  11.472  25.798  1.00  0.00     0.000 C 
BRANCH  15  16
ATOM     16  C   UNL     1      40.572  12.622  24.870  1.00  0.00     0.006 C 
BRANCH  16  17
ATOM     17  C   UNL     1      40.728  13.954  25.616  1.00  0.00     0.053 C 
BRANCH  17  18
ATOM     18  C   UNL     1      41.273  15.004  24.701  1.00  0.00     0.041 C 
ATOM     19  O   UNL     1      41.301  16.210  25.064  1.00  0.00    -0.550 OA
ATOM     20  O   UNL     1      41.708  14.659  23.427  1.00  0.00    -0.550 OA
ENDBRANCH  17  18
ENDBRANCH  16  17
ENDBRANCH  15  16
ENDBRANCH  14  15
ENDBRANCH  13  14
ENDBRANCH  12  13
ENDBRANCH  11  12
ENDBRANCH   1  11
TORSDOF 15
ENDMDL
MODEL 5
REMARK VINA RESULT:    -4.107      2.435      5.511
REMARK INTER + INTRA:          -9.372
REMARK INTER:                  -7.244
REMARK INTRA:                  -2.129
REMARK UNBOUND:                -1.664
REMARK SMILES O=C([O-])CCCCCCCCCCCCCCC(=O)[O-]
REMARK SMILES IDX 10 1 9 2 8 3 7 4 6 5 5 6 4 7 2 8 1 9 3 10 11 11 12 12 13 13
REMARK SMILES IDX 14 14 15 15 16 16 17 17 18 18 19 19 20 20
REMARK H PARENT
REMARK Flexibility Score: inf
ROOT
ATOM      1  C   UNL     1      44.578   8.589  23.905  1.00  0.00     0.000 C 
ENDROOT
BRANCH   1   2
ATOM      2  C   UNL     1      45.425   9.318  24.956  1.00  0.00     0.000 C 
BRANCH   2   3
ATOM      3  C   UNL     1      44.686  10.548  25.503  1.00  0.00     0.000 C 
BRANCH   3   4
ATOM      4  C   UNL     1      43.338  10.792  24.805  1.00  0.00     0.000 C 
BRANCH   4   5
ATOM      5  C   UNL     1      43.014  12.288  24.650  1.00  0.00     0.000 C 
BRANCH   5   6
ATOM      6  C   UNL     1      42.304  12.602  23.323  1.00  0.00     0.006 C 
BRANCH   6   7
ATOM      7  C   UNL     1      41.005  13.395  23.521  1.00  0.00     0.053 C 
BRANCH   7   8
ATOM      8  C   UNL     1      41.289  14.700  24.196  1.00  0.00     0.041 C 
ATOM      9  O   UNL     1      41.931  15.600  23.593  1.00  0.00    -0.550 OA
ATOM     10  O   UNL     1      40.890  14.903  25.511  1.00  0.00    -0.550 OA
ENDBRANCH   7   8
ENDBRANCH   6   7
ENDBRANCH   5   6
ENDBRANCH   4   5
ENDBRANCH   3   4
ENDBRANCH   2   3
ENDBRANCH   1   2
BRANCH   1  11
ATOM     11  C   UNL     1      45.411   8.260  22.658  1.00  0.00     0.000 C 
BRANCH  11  12
ATOM     12  C   UNL     1      44.807   8.844  21.370  1.00  0.00     0.000 C 
BRANCH  12  13
ATOM     13  C   UNL     1      44.569  10.361  21.465  1.00  0.00     0.000 C 
BRANCH  13  14
ATOM     14  C   UNL     1      45.877  11.167  21.422  1.00  0.00     0.000 C 
BRANCH  14  15
ATOM     15  C   UNL     1      45.841  12.408  22.331  1.00  0.00     0.000 C 
BRANCH  15  16
ATOM     16  C   UNL     1      45.947  13.722  21.542  1.00  0.00     0.006 C 
BRANCH  16  17
ATOM     17  C   UNL     1      44.990  14.802  22.065  1.00  0.00     0.053 C 
BRANCH  17  18
ATOM     18  C   UNL     1      44.919  15.947  21.104  1.00  0.00     0.041 C 
ATOM     19  O   UNL     1      44.654  15.741  19.891  1.00  0.00    -0.550 OA
ATOM     20  O   UNL     1      45.193  17.237  21.540  1.00  0.00    -0.550 OA
ENDBRANCH  17  18
ENDBRANCH  16  17
ENDBRANCH  15  16
ENDBRANCH  14  15
ENDBRANCH  13  14
ENDBRANCH  12  13
ENDBRANCH  11  12
ENDBRANCH   1  11
TORSDOF 15
ENDMDL
MODEL 6
REMARK VINA RESULT:    -4.100      1.289      5.295
REMARK INTER + INTRA:          -9.360
REMARK INTER:                  -7.287
REMARK INTRA:                  -2.074
REMARK UNBOUND:                -1.664
REMARK SMILES O=C([O-])CCCCCCCCCCCCCCC(=O)[O-]
REMARK SMILES IDX 10 1 9 2 8 3 7 4 6 5 5 6 4 7 2 8 1 9 3 10 11 11 12 12 13 13
REMARK SMILES IDX 14 14 15 15 16 16 17 17 18 18 19 19 20 20
REMARK H PARENT
REMARK Flexibility Score: inf
ROOT
ATOM      1  C   UNL     1      44.504  15.733  21.611  1.00  0.00     0.000 C 
ENDROOT
BRANCH   1   2
ATOM      2  C   UNL     1      43.487  16.443  20.709  1.00  0.00     0.000 C 
BRANCH   2   3
ATOM      3  C   UNL     1      42.063  16.306  21.270  1.00  0.00     0.000 C 
BRANCH   3   4
ATOM      4  C   UNL     1      41.995  15.397  22.508  1.00  0.00     0.000 C 
BRANCH   4   5
ATOM      5  C   UNL     1      41.146  14.137  22.270  1.00  0.00     0.000 C 
BRANCH   5   6
ATOM      6  C   UNL     1      41.279  13.114  23.410  1.00  0.00     0.006 C 
BRANCH   6   7
ATOM      7  C   UNL     1      42.093  13.650  24.594  1.00  0.00     0.053 C 
BRANCH   7   8
ATOM      8  C   UNL     1      42.740  12.523  25.335  1.00  0.00     0.041 C 
ATOM      9  O   UNL     1      43.801  12.717  25.984  1.00  0.00    -0.550 OA
ATOM     10  O   UNL     1      42.198  11.246  25.269  1.00  0.00    -0.550 OA
ENDBRANCH   7   8
ENDBRANCH   6   7
ENDBRANCH   5   6
ENDBRANCH   4   5
ENDBRANCH   3   4
ENDBRANCH   2   3
ENDBRANCH   1   2
BRANCH   1  11
ATOM     11  C   UNL     1      45.594  15.044  20.778  1.00  0.00     0.000 C 
BRANCH  11  12
ATOM     12  C   UNL     1      46.105  13.746  21.426  1.00  0.00     0.000 C 
BRANCH  12  13
ATOM     13  C   UNL     1      45.149  13.208  22.503  1.00  0.00     0.000 C 
BRANCH  13  14
ATOM     14  C   UNL     1      44.498  11.875  22.102  1.00  0.00     0.000 C 
BRANCH  14  15
ATOM     15  C   UNL     1      45.485  10.914  21.417  1.00  0.00     0.000 C 
BRANCH  15  16
ATOM     16  C   UNL     1      45.825   9.695  22.290  1.00  0.00     0.006 C 
BRANCH  16  17
ATOM     17  C   UNL     1      44.591   9.107  22.987  1.00  0.00     0.053 C 
BRANCH  17  18
ATOM     18  C   UNL     1      44.793   9.079  24.469  1.00  0.00     0.041 C 
ATOM     19  O   UNL     1      44.167   8.248  25.179  1.00  0.00    -0.550 OA
ATOM     20  O   UNL     1      45.638  10.001  25.073  1.00  0.00    -0.550 OA
ENDBRANCH  17  18
ENDBRANCH  16  17
ENDBRANCH  15  16
ENDBRANCH  14  15
ENDBRANCH  13  14
ENDBRANCH  12  13
ENDBRANCH  11  12
ENDBRANCH   1  11
TORSDOF 15
ENDMDL
MODEL 7
REMARK VINA RESULT:    -4.077      2.554      4.903
REMARK INTER + INTRA:          -9.317
REMARK INTER:                  -7.270
REMARK INTRA:                  -2.047
REMARK UNBOUND:                -1.664
REMARK SMILES O=C([O-])CCCCCCCCCCCCCCC(=O)[O-]
REMARK SMILES IDX 10 1 9 2 8 3 7 4 6 5 5 6 4 7 2 8 1 9 3 10 11 11 12 12 13 13
REMARK SMILES IDX 14 14 15 15 16 16 17 17 18 18 19 19 20 20
REMARK H PARENT
REMARK Flexibility Score: inf
ROOT
ATOM      1  C   UNL     1      41.854  15.691  22.353  1.00  0.00     0.000 C 
ENDROOT
BRANCH   1   2
ATOM      2  C   UNL     1      41.296  14.324  21.938  1.00  0.00     0.000 C 
BRANCH   2   3
ATOM      3  C   UNL     1      40.994  13.455  23.168  1.00  0.00     0.000 C 
BRANCH   3   4
ATOM      4  C   UNL     1      41.327  14.161  24.492  1.00  0.00     0.000 C 
BRANCH   4   5
ATOM      5  C   UNL     1      41.262  13.211  25.701  1.00  0.00     0.000 C 
BRANCH   5   6
ATOM      6  C   UNL     1      40.759  11.809  25.321  1.00  0.00     0.006 C 
BRANCH   6   7
ATOM      7  C   UNL     1      39.417  11.464  25.978  1.00  0.00     0.053 C 
BRANCH   7   8
ATOM      8  C   UNL     1      39.547  10.225  26.808  1.00  0.00     0.041 C 
ATOM      9  O   UNL     1      40.510  10.095  27.608  1.00  0.00    -0.550 OA
ATOM     10  O   UNL     1      38.631   9.190  26.660  1.00  0.00    -0.550 OA
ENDBRANCH   7   8
ENDBRANCH   6   7
ENDBRANCH   5   6
ENDBRANCH   4   5
ENDBRANCH   3   4
ENDBRANCH   2   3
ENDBRANCH   1   2
BRANCH   1  11
ATOM     11  C   UNL     1      42.018  16.613  21.136  1.00  0.00     0.000 C 
BRANCH  11  12
ATOM     12  C   UNL     1      43.348  16.389  20.397  1.00  0.00     0.000 C 
BRANCH  12  13
ATOM     13  C   UNL     1      44.572  16.636  21.296  1.00  0.00     0.000 C 
BRANCH  13  14
ATOM     14  C   UNL     1      45.407  15.365  21.518  1.00  0.00     0.000 C 
BRANCH  14  15
ATOM     15  C   UNL     1      45.607  15.037  23.007  1.00  0.00     0.000 C 
BRANCH  15  16
ATOM     16  C   UNL     1      44.880  13.751  23.432  1.00  0.00     0.006 C 
BRANCH  16  17
ATOM     17  C   UNL     1      44.608  12.810  22.251  1.00  0.00     0.053 C 
BRANCH  17  18
ATOM     18  C   UNL     1      43.989  11.536  22.730  1.00  0.00     0.041 C 
ATOM     19  O   UNL     1      43.929  11.284  23.962  1.00  0.00    -0.550 OA
ATOM     20  O   UNL     1      43.522  10.603  21.813  1.00  0.00    -0.550 OA
ENDBRANCH  17  18
ENDBRANCH  16  17
ENDBRANCH  15  16
ENDBRANCH  14  15
ENDBRANCH  13  14
ENDBRANCH  12  13
ENDBRANCH  11  12
ENDBRANCH   1  11
TORSDOF 15
ENDMDL
MODEL 8
REMARK VINA RESULT:    -4.063     15.700     19.462
REMARK INTER + INTRA:          -9.290
REMARK INTER:                  -7.618
REMARK INTRA:                  -1.672
REMARK UNBOUND:                -1.664
REMARK SMILES O=C([O-])CCCCCCCCCCCCCCC(=O)[O-]
REMARK SMILES IDX 10 1 9 2 8 3 7 4 6 5 5 6 4 7 2 8 1 9 3 10 11 11 12 12 13 13
REMARK SMILES IDX 14 14 15 15 16 16 17 17 18 18 19 19 20 20
REMARK H PARENT
REMARK Flexibility Score: inf
ROOT
ATOM      1  C   UNL     1      28.333  22.046  10.804  1.00  0.00     0.000 C 
ENDROOT
BRANCH   1   2
ATOM      2  C   UNL     1      29.655  22.294  10.066  1.00  0.00     0.000 C 
BRANCH   2   3
ATOM      3  C   UNL     1      30.649  23.053  10.958  1.00  0.00     0.000 C 
BRANCH   3   4
ATOM      4  C   UNL     1      30.638  22.561  12.415  1.00  0.00     0.000 C 
BRANCH   4   5
ATOM      5  C   UNL     1      31.823  23.106  13.231  1.00  0.00     0.000 C 
BRANCH   5   6
ATOM      6  C   UNL     1      32.371  22.076  14.233  1.00  0.00     0.006 C 
BRANCH   6   7
ATOM      7  C   UNL     1      33.594  22.592  15.002  1.00  0.00     0.053 C 
BRANCH   7   8
ATOM      8  C   UNL     1      34.643  21.528  15.085  1.00  0.00     0.041 C 
ATOM      9  O   UNL     1      34.868  20.781  14.097  1.00  0.00    -0.550 OA
ATOM     10  O   UNL     1      35.338  21.329  16.271  1.00  0.00    -0.550 OA
ENDBRANCH   7   8
ENDBRANCH   6   7
ENDBRANCH   5   6
ENDBRANCH   4   5
ENDBRANCH   3   4
ENDBRANCH   2   3
ENDBRANCH   1   2
BRANCH   1  11
ATOM     11  C   UNL     1      27.297  21.398   9.875  1.00  0.00     0.000 C 
BRANCH  11  12
ATOM     12  C   UNL     1      27.251  19.867  10.014  1.00  0.00     0.000 C 
BRANCH  12  13
ATOM     13  C   UNL     1      27.559  19.394  11.445  1.00  0.00     0.000 C 
BRANCH  13  14
ATOM     14  C   UNL     1      28.826  18.530  11.521  1.00  0.00     0.000 C 
BRANCH  14  15
ATOM     15  C   UNL     1      29.692  18.631  10.253  1.00  0.00     0.000 C 
BRANCH  15  16
ATOM     16  C   UNL     1      30.985  17.806  10.352  1.00  0.00     0.006 C 
BRANCH  16  17
ATOM     17  C   UNL     1      32.243  18.653  10.117  1.00  0.00     0.053 C 
BRANCH  17  18
ATOM     18  C   UNL     1      32.555  19.475  11.327  1.00  0.00     0.041 C 
ATOM     19  O   UNL     1      33.234  20.529  11.221  1.00  0.00    -0.550 OA
ATOM     20  O   UNL     1      32.134  19.050  12.581  1.00  0.00    -0.550 OA
ENDBRANCH  17  18
ENDBRANCH  16  17
ENDBRANCH  15  16
ENDBRANCH  14  15
ENDBRANCH  13  14
ENDBRANCH  12  13
ENDBRANCH  11  12
ENDBRANCH   1  11
TORSDOF 15
ENDMDL
