MODEL 1
REMARK VINA RESULT:    -4.658      0.000      0.000
REMARK INTER + INTRA:          -7.639
REMARK INTER:                  -6.291
REMARK INTRA:                  -1.348
REMARK UNBOUND:                -1.348
REMARK SMILES O=c1c(-c2ccc(O)cc2)coc2c([C@@H]3O[C@H](CO)[C@@H](O)[C@@H](O)[C@H]3O)c(O)ccc12
REMARK SMILES IDX 3 1 11 2 12 3 13 4 30 5 2 6 1 7 29 8 28 9 26 10 14 11 4 12
REMARK SMILES IDX 5 13 6 14 7 15 10 16 9 17 8 18 15 20 24 21 16 22 22 23 17 24
REMARK SMILES IDX 20 25 25 26 23 28 18 30 19 31 21 33 27 35
REMARK H PARENT 8 19 25 27 23 29 19 32 21 34 27 36
REMARK Flexibility Score: inf
ROOT
ATOM      1  C   UNL     1      35.584 -46.840 199.173  1.00  0.00     0.065 A 
ATOM      2  C   UNL     1      35.897 -47.394 200.421  1.00  0.00     0.208 A 
ATOM      3  O   UNL     1      36.674 -46.745 201.279  1.00  0.00    -0.463 OA
ATOM      4  C   UNL     1      37.203 -45.550 201.027  1.00  0.00     0.147 A 
ATOM      5  C   UNL     1      36.937 -44.918 199.790  1.00  0.00     0.066 A 
ATOM      6  C   UNL     1      36.111 -45.574 198.860  1.00  0.00     0.200 A 
ATOM      7  O   UNL     1      35.827 -45.024 197.759  1.00  0.00    -0.288 OA
ATOM      8  C   UNL     1      37.497 -43.663 199.519  1.00  0.00     0.020 A 
ATOM      9  C   UNL     1      38.324 -43.048 200.453  1.00  0.00     0.047 A 
ATOM     10  C   UNL     1      38.609 -43.660 201.677  1.00  0.00     0.125 A 
ATOM     11  C   UNL     1      38.026 -44.919 201.996  1.00  0.00     0.069 A 
ENDROOT
BRANCH   1  12
ATOM     12  C   UNL     1      34.718 -47.588 198.226  1.00  0.00    -0.011 A 
ATOM     13  C   UNL     1      35.276 -48.497 197.309  1.00  0.00     0.013 A 
ATOM     14  C   UNL     1      34.453 -49.206 196.427  1.00  0.00     0.047 A 
ATOM     15  C   UNL     1      33.065 -49.018 196.453  1.00  0.00     0.115 A 
ATOM     16  C   UNL     1      33.323 -47.411 198.250  1.00  0.00     0.013 A 
ATOM     17  C   UNL     1      32.504 -48.120 197.366  1.00  0.00     0.047 A 
BRANCH  15  18
ATOM     18  O   UNL     1      32.237 -49.717 195.579  1.00  0.00    -0.508 OA
ATOM     19  H   UNL     1      31.309 -49.382 195.347  1.00  0.00     0.293 HD
ENDBRANCH  15  18
ENDBRANCH   1  12
BRANCH  11  20
ATOM     20  C   UNL     1      38.291 -45.623 203.323  1.00  0.00     0.188 C 
ATOM     21  C   UNL     1      39.623 -46.420 203.259  1.00  0.00     0.179 C 
ATOM     22  O   UNL     1      38.308 -44.667 204.371  1.00  0.00    -0.362 OA
ATOM     23  C   UNL     1      39.968 -47.055 204.625  1.00  0.00     0.177 C 
ATOM     24  C   UNL     1      38.415 -45.292 205.639  1.00  0.00     0.176 C 
ATOM     25  C   UNL     1      39.776 -46.028 205.764  1.00  0.00     0.177 C 
BRANCH  21  26
ATOM     26  O   UNL     1      39.599 -47.393 202.242  1.00  0.00    -0.387 OA
ATOM     27  H   UNL     1      38.827 -47.993 202.411  1.00  0.00     0.211 HD
ENDBRANCH  21  26
BRANCH  23  28
ATOM     28  O   UNL     1      39.240 -48.240 204.857  1.00  0.00    -0.387 OA
ATOM     29  H   UNL     1      38.928 -48.235 205.797  1.00  0.00     0.211 HD
ENDBRANCH  23  28
BRANCH  24  30
ATOM     30  C   UNL     1      38.286 -44.212 206.723  1.00  0.00     0.191 C 
BRANCH  30  31
ATOM     31  O   UNL     1      39.555 -43.789 207.145  1.00  0.00    -0.394 OA
ATOM     32  H   UNL     1      40.204 -44.471 206.830  1.00  0.00     0.210 HD
ENDBRANCH  30  31
ENDBRANCH  24  30
BRANCH  25  33
ATOM     33  O   UNL     1      39.933 -46.639 207.021  1.00  0.00    -0.388 OA
ATOM     34  H   UNL     1      40.842 -47.036 207.055  1.00  0.00     0.211 HD
ENDBRANCH  25  33
ENDBRANCH  11  20
BRANCH  10  35
ATOM     35  O   UNL     1      39.479 -42.978 202.534  1.00  0.00    -0.507 OA
ATOM     36  H   UNL     1      40.306 -43.377 202.952  1.00  0.00     0.293 HD
ENDBRANCH  10  35
TORSDOF 9
ENDMDL
MODEL 2
REMARK VINA RESULT:    -4.416     12.671     16.106
REMARK INTER + INTRA:          -7.312
REMARK INTER:                  -5.969
REMARK INTRA:                  -1.343
REMARK UNBOUND:                -1.348
REMARK SMILES O=c1c(-c2ccc(O)cc2)coc2c([C@@H]3O[C@H](CO)[C@@H](O)[C@@H](O)[C@H]3O)c(O)ccc12
REMARK SMILES IDX 3 1 11 2 12 3 13 4 30 5 2 6 1 7 29 8 28 9 26 10 14 11 4 12
REMARK SMILES IDX 5 13 6 14 7 15 10 16 9 17 8 18 15 20 24 21 16 22 22 23 17 24
REMARK SMILES IDX 20 25 25 26 23 28 18 30 19 31 21 33 27 35
REMARK H PARENT 8 19 25 27 23 29 19 32 21 34 27 36
REMARK Flexibility Score: inf
ROOT
ATOM      1  C   UNL     1      25.705 -42.896 207.835  1.00  0.00     0.065 A 
ATOM      2  C   UNL     1      25.388 -44.191 207.405  1.00  0.00     0.208 A 
ATOM      3  O   UNL     1      24.657 -44.388 206.315  1.00  0.00    -0.463 OA
ATOM      4  C   UNL     1      24.180 -43.396 205.566  1.00  0.00     0.147 A 
ATOM      5  C   UNL     1      24.453 -42.057 205.928  1.00  0.00     0.066 A 
ATOM      6  C   UNL     1      25.232 -41.812 207.074  1.00  0.00     0.200 A 
ATOM      7  O   UNL     1      25.522 -40.629 207.407  1.00  0.00    -0.288 OA
ATOM      8  C   UNL     1      23.948 -41.011 205.146  1.00  0.00     0.020 A 
ATOM      9  C   UNL     1      23.166 -41.286 204.028  1.00  0.00     0.047 A 
ATOM     10  C   UNL     1      22.874 -42.602 203.659  1.00  0.00     0.125 A 
ATOM     11  C   UNL     1      23.404 -43.687 204.414  1.00  0.00     0.069 A 
ENDROOT
BRANCH   1  12
ATOM     12  C   UNL     1      26.519 -42.701 209.062  1.00  0.00    -0.011 A 
ATOM     13  C   UNL     1      27.921 -42.628 208.987  1.00  0.00     0.013 A 
ATOM     14  C   UNL     1      28.681 -42.434 210.146  1.00  0.00     0.047 A 
ATOM     15  C   UNL     1      28.050 -42.307 211.390  1.00  0.00     0.115 A 
ATOM     16  C   UNL     1      25.893 -42.565 210.314  1.00  0.00     0.013 A 
ATOM     17  C   UNL     1      26.656 -42.374 211.469  1.00  0.00     0.047 A 
BRANCH  15  18
ATOM     18  O   UNL     1      28.797 -42.116 212.549  1.00  0.00    -0.508 OA
ATOM     19  H   UNL     1      28.872 -41.204 212.986  1.00  0.00     0.293 HD
ENDBRANCH  15  18
ENDBRANCH   1  12
BRANCH  11  20
ATOM     20  C   UNL     1      23.129 -45.142 204.046  1.00  0.00     0.188 C 
ATOM     21  C   UNL     1      21.756 -45.596 204.612  1.00  0.00     0.179 C 
ATOM     22  O   UNL     1      23.185 -45.292 202.636  1.00  0.00    -0.362 OA
ATOM     23  C   UNL     1      21.406 -47.032 204.162  1.00  0.00     0.177 C 
ATOM     24  C   UNL     1      23.072 -46.653 202.256  1.00  0.00     0.176 C 
ATOM     25  C   UNL     1      21.676 -47.207 202.650  1.00  0.00     0.177 C 
BRANCH  21  26
ATOM     26  O   UNL     1      21.706 -45.480 206.013  1.00  0.00    -0.387 OA
ATOM     27  H   UNL     1      21.661 -44.515 206.239  1.00  0.00     0.211 HD
ENDBRANCH  21  26
BRANCH  23  28
ATOM     28  O   UNL     1      22.074 -48.005 204.932  1.00  0.00    -0.387 OA
ATOM     29  H   UNL     1      22.807 -48.387 204.385  1.00  0.00     0.211 HD
ENDBRANCH  23  28
BRANCH  24  30
ATOM     30  C   UNL     1      23.281 -46.751 200.738  1.00  0.00     0.191 C 
BRANCH  30  31
ATOM     31  O   UNL     1      22.062 -46.584 200.066  1.00  0.00    -0.394 OA
ATOM     32  H   UNL     1      22.067 -47.218 199.301  1.00  0.00     0.210 HD
ENDBRANCH  30  31
ENDBRANCH  24  30
BRANCH  25  33
ATOM     33  O   UNL     1      21.513 -48.551 202.265  1.00  0.00    -0.388 OA
ATOM     34  H   UNL     1      20.642 -48.629 201.797  1.00  0.00     0.211 HD
ENDBRANCH  25  33
ENDBRANCH  11  20
BRANCH  10  35
ATOM     35  O   UNL     1      22.052 -42.774 202.541  1.00  0.00    -0.507 OA
ATOM     36  H   UNL     1      21.271 -42.181 202.303  1.00  0.00     0.293 HD
ENDBRANCH  10  35
TORSDOF 9
ENDMDL
MODEL 3
REMARK VINA RESULT:    -4.407      4.947      6.607
REMARK INTER + INTRA:          -7.301
REMARK INTER:                  -5.956
REMARK INTRA:                  -1.345
REMARK UNBOUND:                -1.348
REMARK SMILES O=c1c(-c2ccc(O)cc2)coc2c([C@@H]3O[C@H](CO)[C@@H](O)[C@@H](O)[C@H]3O)c(O)ccc12
REMARK SMILES IDX 3 1 11 2 12 3 13 4 30 5 2 6 1 7 29 8 28 9 26 10 14 11 4 12
REMARK SMILES IDX 5 13 6 14 7 15 10 16 9 17 8 18 15 20 24 21 16 22 22 23 17 24
REMARK SMILES IDX 20 25 25 26 23 28 18 30 19 31 21 33 27 35
REMARK H PARENT 8 19 25 27 23 29 19 32 21 34 27 36
REMARK Flexibility Score: inf
ROOT
ATOM      1  C   UNL     1      35.010 -50.528 205.347  1.00  0.00     0.065 A 
ATOM      2  C   UNL     1      35.261 -49.370 206.095  1.00  0.00     0.208 A 
ATOM      3  O   UNL     1      36.130 -48.460 205.673  1.00  0.00    -0.463 OA
ATOM      4  C   UNL     1      36.815 -48.575 204.537  1.00  0.00     0.147 A 
ATOM      5  C   UNL     1      36.622 -49.714 203.720  1.00  0.00     0.066 A 
ATOM      6  C   UNL     1      35.701 -50.694 204.133  1.00  0.00     0.200 A 
ATOM      7  O   UNL     1      35.481 -51.707 203.411  1.00  0.00    -0.288 OA
ATOM      8  C   UNL     1      37.345 -49.840 202.527  1.00  0.00     0.020 A 
ATOM      9  C   UNL     1      38.261 -48.862 202.155  1.00  0.00     0.047 A 
ATOM     10  C   UNL     1      38.475 -47.735 202.953  1.00  0.00     0.125 A 
ATOM     11  C   UNL     1      37.729 -47.560 204.153  1.00  0.00     0.069 A 
ENDROOT
BRANCH   1  12
ATOM     12  C   UNL     1      34.037 -51.535 205.843  1.00  0.00    -0.011 A 
ATOM     13  C   UNL     1      32.683 -51.467 205.471  1.00  0.00     0.013 A 
ATOM     14  C   UNL     1      31.774 -52.424 205.934  1.00  0.00     0.047 A 
ATOM     15  C   UNL     1      32.208 -53.461 206.770  1.00  0.00     0.115 A 
ATOM     16  C   UNL     1      34.466 -52.584 206.676  1.00  0.00     0.013 A 
ATOM     17  C   UNL     1      33.554 -53.537 207.138  1.00  0.00     0.047 A 
BRANCH  15  18
ATOM     18  O   UNL     1      31.311 -54.419 207.237  1.00  0.00    -0.508 OA
ATOM     19  H   UNL     1      30.812 -54.294 208.111  1.00  0.00     0.293 HD
ENDBRANCH  15  18
ENDBRANCH   1  12
BRANCH  11  20
ATOM     20  C   UNL     1      37.912 -46.341 205.053  1.00  0.00     0.188 C 
ATOM     21  C   UNL     1      39.133 -46.539 205.993  1.00  0.00     0.179 C 
ATOM     22  O   UNL     1      38.056 -45.179 204.252  1.00  0.00    -0.362 OA
ATOM     23  C   UNL     1      39.404 -45.274 206.839  1.00  0.00     0.177 C 
ATOM     24  C   UNL     1      38.092 -44.005 205.046  1.00  0.00     0.176 C 
ATOM     25  C   UNL     1      39.351 -44.009 205.954  1.00  0.00     0.177 C 
BRANCH  21  26
ATOM     26  O   UNL     1      38.981 -47.672 206.814  1.00  0.00    -0.387 OA
ATOM     27  H   UNL     1      39.093 -47.383 207.757  1.00  0.00     0.211 HD
ENDBRANCH  21  26
BRANCH  23  28
ATOM     28  O   UNL     1      38.535 -45.181 207.945  1.00  0.00    -0.387 OA
ATOM     29  H   UNL     1      39.054 -44.854 208.723  1.00  0.00     0.211 HD
ENDBRANCH  23  28
BRANCH  24  30
ATOM     30  C   UNL     1      38.106 -42.788 204.110  1.00  0.00     0.191 C 
BRANCH  30  31
ATOM     31  O   UNL     1      39.425 -42.391 203.846  1.00  0.00    -0.394 OA
ATOM     32  H   UNL     1      39.937 -43.216 203.637  1.00  0.00     0.210 HD
ENDBRANCH  30  31
ENDBRANCH  24  30
BRANCH  25  33
ATOM     33  O   UNL     1      39.438 -42.845 206.741  1.00  0.00    -0.388 OA
ATOM     34  H   UNL     1      40.096 -42.238 206.313  1.00  0.00     0.211 HD
ENDBRANCH  25  33
ENDBRANCH  11  20
BRANCH  10  35
ATOM     35  O   UNL     1      39.441 -46.825 202.511  1.00  0.00    -0.507 OA
ATOM     36  H   UNL     1      39.248 -46.005 201.956  1.00  0.00     0.293 HD
ENDBRANCH  10  35
TORSDOF 9
ENDMDL
MODEL 4
REMARK VINA RESULT:    -4.315     12.529     14.458
REMARK INTER + INTRA:          -7.177
REMARK INTER:                  -6.018
REMARK INTRA:                  -1.158
REMARK UNBOUND:                -1.348
REMARK SMILES O=c1c(-c2ccc(O)cc2)coc2c([C@@H]3O[C@H](CO)[C@@H](O)[C@@H](O)[C@H]3O)c(O)ccc12
REMARK SMILES IDX 3 1 11 2 12 3 13 4 30 5 2 6 1 7 29 8 28 9 26 10 14 11 4 12
REMARK SMILES IDX 5 13 6 14 7 15 10 16 9 17 8 18 15 20 24 21 16 22 22 23 17 24
REMARK SMILES IDX 20 25 25 26 23 28 18 30 19 31 21 33 27 35
REMARK H PARENT 8 19 25 27 23 29 19 32 21 34 27 36
REMARK Flexibility Score: inf
ROOT
ATOM      1  C   UNL     1      23.878 -45.181 201.233  1.00  0.00     0.065 A 
ATOM      2  C   UNL     1      24.717 -45.332 202.344  1.00  0.00     0.208 A 
ATOM      3  O   UNL     1      24.310 -45.989 203.422  1.00  0.00    -0.463 OA
ATOM      4  C   UNL     1      23.102 -46.540 203.529  1.00  0.00     0.147 A 
ATOM      5  C   UNL     1      22.192 -46.435 202.453  1.00  0.00     0.066 A 
ATOM      6  C   UNL     1      22.594 -45.752 201.291  1.00  0.00     0.200 A 
ATOM      7  O   UNL     1      21.817 -45.668 200.299  1.00  0.00    -0.288 OA
ATOM      8  C   UNL     1      20.919 -47.009 202.564  1.00  0.00     0.020 A 
ATOM      9  C   UNL     1      20.544 -47.663 203.734  1.00  0.00     0.047 A 
ATOM     10  C   UNL     1      21.424 -47.768 204.814  1.00  0.00     0.125 A 
ATOM     11  C   UNL     1      22.738 -47.227 204.717  1.00  0.00     0.069 A 
ENDROOT
BRANCH   1  12
ATOM     12  C   UNL     1      24.355 -44.435 200.040  1.00  0.00    -0.011 A 
ATOM     13  C   UNL     1      25.074 -45.091 199.025  1.00  0.00     0.013 A 
ATOM     14  C   UNL     1      25.511 -44.385 197.899  1.00  0.00     0.047 A 
ATOM     15  C   UNL     1      25.232 -43.018 197.773  1.00  0.00     0.115 A 
ATOM     16  C   UNL     1      24.073 -43.064 199.902  1.00  0.00     0.013 A 
ATOM     17  C   UNL     1      24.513 -42.362 198.776  1.00  0.00     0.047 A 
BRANCH  15  18
ATOM     18  O   UNL     1      25.664 -42.305 196.658  1.00  0.00    -0.508 OA
ATOM     19  H   UNL     1      25.220 -42.416 195.753  1.00  0.00     0.293 HD
ENDBRANCH  15  18
ENDBRANCH   1  12
BRANCH  11  20
ATOM     20  C   UNL     1      23.744 -47.328 205.859  1.00  0.00     0.188 C 
ATOM     21  C   UNL     1      23.504 -46.196 206.896  1.00  0.00     0.179 C 
ATOM     22  O   UNL     1      23.651 -48.610 206.460  1.00  0.00    -0.362 OA
ATOM     23  C   UNL     1      24.441 -46.340 208.117  1.00  0.00     0.177 C 
ATOM     24  C   UNL     1      24.660 -48.797 207.438  1.00  0.00     0.176 C 
ATOM     25  C   UNL     1      24.462 -47.803 208.613  1.00  0.00     0.177 C 
BRANCH  21  26
ATOM     26  O   UNL     1      23.628 -44.921 206.313  1.00  0.00    -0.387 OA
ATOM     27  H   UNL     1      22.917 -44.341 206.692  1.00  0.00     0.211 HD
ENDBRANCH  21  26
BRANCH  23  28
ATOM     28  O   UNL     1      25.737 -45.855 207.849  1.00  0.00    -0.387 OA
ATOM     29  H   UNL     1      26.346 -46.630 207.757  1.00  0.00     0.211 HD
ENDBRANCH  23  28
BRANCH  24  30
ATOM     30  C   UNL     1      24.585 -50.246 207.939  1.00  0.00     0.191 C 
BRANCH  30  31
ATOM     31  O   UNL     1      23.294 -50.761 207.752  1.00  0.00    -0.394 OA
ATOM     32  H   UNL     1      22.971 -50.417 206.878  1.00  0.00     0.210 HD
ENDBRANCH  30  31
ENDBRANCH  24  30
BRANCH  25  33
ATOM     33  O   UNL     1      25.431 -47.975 209.619  1.00  0.00    -0.388 OA
ATOM     34  H   UNL     1      24.956 -48.186 210.465  1.00  0.00     0.211 HD
ENDBRANCH  25  33
ENDBRANCH  11  20
BRANCH  10  35
ATOM     35  O   UNL     1      20.944 -48.414 205.957  1.00  0.00    -0.507 OA
ATOM     36  H   UNL     1      21.319 -48.296 206.886  1.00  0.00     0.293 HD
ENDBRANCH  10  35
TORSDOF 9
ENDMDL
MODEL 5
REMARK VINA RESULT:    -4.283     10.564     13.406
REMARK INTER + INTRA:          -7.132
REMARK INTER:                  -5.826
REMARK INTRA:                  -1.306
REMARK UNBOUND:                -1.348
REMARK SMILES O=c1c(-c2ccc(O)cc2)coc2c([C@@H]3O[C@H](CO)[C@@H](O)[C@@H](O)[C@H]3O)c(O)ccc12
REMARK SMILES IDX 3 1 11 2 12 3 13 4 30 5 2 6 1 7 29 8 28 9 26 10 14 11 4 12
REMARK SMILES IDX 5 13 6 14 7 15 10 16 9 17 8 18 15 20 24 21 16 22 22 23 17 24
REMARK SMILES IDX 20 25 25 26 23 28 18 30 19 31 21 33 27 35
REMARK H PARENT 8 19 25 27 23 29 19 32 21 34 27 36
REMARK Flexibility Score: inf
ROOT
ATOM      1  C   UNL     1      26.635 -48.263 198.363  1.00  0.00     0.065 A 
ATOM      2  C   UNL     1      26.360 -46.921 198.656  1.00  0.00     0.208 A 
ATOM      3  O   UNL     1      25.532 -46.592 199.639  1.00  0.00    -0.463 OA
ATOM      4  C   UNL     1      24.913 -47.489 200.403  1.00  0.00     0.147 A 
ATOM      5  C   UNL     1      25.135 -48.867 200.177  1.00  0.00     0.066 A 
ATOM      6  C   UNL     1      26.013 -49.251 199.148  1.00  0.00     0.200 A 
ATOM      7  O   UNL     1      26.258 -50.473 198.940  1.00  0.00    -0.288 OA
ATOM      8  C   UNL     1      24.480 -49.814 200.976  1.00  0.00     0.020 A 
ATOM      9  C   UNL     1      23.604 -49.403 201.975  1.00  0.00     0.047 A 
ATOM     10  C   UNL     1      23.362 -48.047 202.208  1.00  0.00     0.125 A 
ATOM     11  C   UNL     1      24.039 -47.060 201.436  1.00  0.00     0.069 A 
ENDROOT
BRANCH   1  12
ATOM     12  C   UNL     1      27.560 -48.606 197.254  1.00  0.00    -0.011 A 
ATOM     13  C   UNL     1      27.061 -48.995 195.998  1.00  0.00     0.013 A 
ATOM     14  C   UNL     1      27.939 -49.307 194.955  1.00  0.00     0.047 A 
ATOM     15  C   UNL     1      29.323 -49.230 195.151  1.00  0.00     0.115 A 
ATOM     16  C   UNL     1      28.952 -48.524 197.441  1.00  0.00     0.013 A 
ATOM     17  C   UNL     1      29.826 -48.838 196.396  1.00  0.00     0.047 A 
BRANCH  15  18
ATOM     18  O   UNL     1      30.206 -49.540 194.120  1.00  0.00    -0.508 OA
ATOM     19  H   UNL     1      31.148 -49.167 194.099  1.00  0.00     0.293 HD
ENDBRANCH  15  18
ENDBRANCH   1  12
BRANCH  11  20
ATOM     20  C   UNL     1      23.824 -45.566 201.659  1.00  0.00     0.188 C 
ATOM     21  C   UNL     1      22.572 -45.076 200.881  1.00  0.00     0.179 C 
ATOM     22  O   UNL     1      23.706 -45.308 203.049  1.00  0.00    -0.362 OA
ATOM     23  C   UNL     1      22.271 -43.589 201.176  1.00  0.00     0.177 C 
ATOM     24  C   UNL     1      23.641 -43.916 203.312  1.00  0.00     0.176 C 
ATOM     25  C   UNL     1      22.352 -43.311 202.694  1.00  0.00     0.177 C 
BRANCH  21  26
ATOM     26  O   UNL     1      22.698 -45.300 199.497  1.00  0.00    -0.387 OA
ATOM     27  H   UNL     1      23.639 -45.117 199.242  1.00  0.00     0.211 HD
ENDBRANCH  21  26
BRANCH  23  28
ATOM     28  O   UNL     1      23.101 -42.723 200.437  1.00  0.00    -0.387 OA
ATOM     29  H   UNL     1      22.835 -42.774 199.484  1.00  0.00     0.211 HD
ENDBRANCH  23  28
BRANCH  24  30
ATOM     30  C   UNL     1      23.657 -43.710 204.834  1.00  0.00     0.191 C 
BRANCH  30  31
ATOM     31  O   UNL     1      22.356 -43.797 205.351  1.00  0.00    -0.394 OA
ATOM     32  H   UNL     1      21.894 -44.519 204.850  1.00  0.00     0.210 HD
ENDBRANCH  30  31
ENDBRANCH  24  30
BRANCH  25  33
ATOM     33  O   UNL     1      22.237 -41.933 202.957  1.00  0.00    -0.388 OA
ATOM     34  H   UNL     1      23.133 -41.525 202.836  1.00  0.00     0.211 HD
ENDBRANCH  25  33
ENDBRANCH  11  20
BRANCH  10  35
ATOM     35  O   UNL     1      22.438 -47.735 203.211  1.00  0.00    -0.507 OA
ATOM     36  H   UNL     1      22.206 -48.337 203.987  1.00  0.00     0.293 HD
ENDBRANCH  10  35
TORSDOF 9
ENDMDL
MODEL 6
REMARK VINA RESULT:    -4.280      4.662      9.792
REMARK INTER + INTRA:          -7.129
REMARK INTER:                  -5.794
REMARK INTRA:                  -1.335
REMARK UNBOUND:                -1.348
REMARK SMILES O=c1c(-c2ccc(O)cc2)coc2c([C@@H]3O[C@H](CO)[C@@H](O)[C@@H](O)[C@H]3O)c(O)ccc12
REMARK SMILES IDX 3 1 11 2 12 3 13 4 30 5 2 6 1 7 29 8 28 9 26 10 14 11 4 12
REMARK SMILES IDX 5 13 6 14 7 15 10 16 9 17 8 18 15 20 24 21 16 22 22 23 17 24
REMARK SMILES IDX 20 25 25 26 23 28 18 30 19 31 21 33 27 35
REMARK H PARENT 8 19 25 27 23 29 19 32 21 34 27 36
REMARK Flexibility Score: inf
ROOT
ATOM      1  C   UNL     1      34.428 -44.110 209.376  1.00  0.00     0.065 A 
ATOM      2  C   UNL     1      34.884 -43.394 208.262  1.00  0.00     0.208 A 
ATOM      3  O   UNL     1      35.754 -43.931 207.416  1.00  0.00    -0.463 OA
ATOM      4  C   UNL     1      36.247 -45.159 207.556  1.00  0.00     0.147 A 
ATOM      5  C   UNL     1      35.839 -45.952 208.654  1.00  0.00     0.066 A 
ATOM      6  C   UNL     1      34.912 -45.417 209.567  1.00  0.00     0.200 A 
ATOM      7  O   UNL     1      34.502 -46.110 210.539  1.00  0.00    -0.288 OA
ATOM      8  C   UNL     1      36.361 -47.243 208.808  1.00  0.00     0.020 A 
ATOM      9  C   UNL     1      37.290 -47.737 207.898  1.00  0.00     0.047 A 
ATOM     10  C   UNL     1      37.715 -46.966 206.813  1.00  0.00     0.125 A 
ATOM     11  C   UNL     1      37.176 -45.664 206.609  1.00  0.00     0.069 A 
ENDROOT
BRANCH   1  12
ATOM     12  C   UNL     1      33.460 -43.485 210.313  1.00  0.00    -0.011 A 
ATOM     13  C   UNL     1      33.909 -42.738 211.416  1.00  0.00     0.013 A 
ATOM     14  C   UNL     1      32.992 -42.144 212.289  1.00  0.00     0.047 A 
ATOM     15  C   UNL     1      31.616 -42.286 212.069  1.00  0.00     0.115 A 
ATOM     16  C   UNL     1      32.076 -43.617 210.095  1.00  0.00     0.013 A 
ATOM     17  C   UNL     1      31.163 -43.024 210.971  1.00  0.00     0.047 A 
BRANCH  15  18
ATOM     18  O   UNL     1      30.694 -41.701 212.933  1.00  0.00    -0.508 OA
ATOM     19  H   UNL     1      29.695 -41.805 212.791  1.00  0.00     0.293 HD
ENDBRANCH  15  18
ENDBRANCH   1  12
BRANCH  11  20
ATOM     20  C   UNL     1      37.594 -44.787 205.433  1.00  0.00     0.188 C 
ATOM     21  C   UNL     1      38.867 -43.971 205.789  1.00  0.00     0.179 C 
ATOM     22  O   UNL     1      37.800 -45.598 204.288  1.00  0.00    -0.362 OA
ATOM     23  C   UNL     1      39.372 -43.155 204.577  1.00  0.00     0.177 C 
ATOM     24  C   UNL     1      38.058 -44.811 203.136  1.00  0.00     0.176 C 
ATOM     25  C   UNL     1      39.389 -44.031 203.304  1.00  0.00     0.177 C 
BRANCH  21  26
ATOM     26  O   UNL     1      38.657 -43.139 206.905  1.00  0.00    -0.387 OA
ATOM     27  H   UNL     1      38.212 -43.678 207.609  1.00  0.00     0.211 HD
ENDBRANCH  21  26
BRANCH  23  28
ATOM     28  O   UNL     1      38.633 -41.970 204.392  1.00  0.00    -0.387 OA
ATOM     29  H   UNL     1      37.919 -41.938 205.077  1.00  0.00     0.211 HD
ENDBRANCH  23  28
BRANCH  24  30
ATOM     30  C   UNL     1      38.130 -45.745 201.919  1.00  0.00     0.191 C 
BRANCH  30  31
ATOM     31  O   UNL     1      39.455 -46.139 201.685  1.00  0.00    -0.394 OA
ATOM     32  H   UNL     1      40.016 -45.682 202.365  1.00  0.00     0.210 HD
ENDBRANCH  30  31
ENDBRANCH  24  30
BRANCH  25  33
ATOM     33  O   UNL     1      39.694 -43.257 202.169  1.00  0.00    -0.388 OA
ATOM     34  H   UNL     1      40.404 -43.729 201.662  1.00  0.00     0.211 HD
ENDBRANCH  25  33
ENDBRANCH  11  20
BRANCH  10  35
ATOM     35  O   UNL     1      38.677 -47.538 205.973  1.00  0.00    -0.507 OA
ATOM     36  H   UNL     1      38.510 -48.317 205.353  1.00  0.00     0.293 HD
ENDBRANCH  10  35
TORSDOF 9
ENDMDL
MODEL 7
REMARK VINA RESULT:    -4.248     12.434     15.032
REMARK INTER + INTRA:          -7.086
REMARK INTER:                  -5.739
REMARK INTRA:                  -1.347
REMARK UNBOUND:                -1.348
REMARK SMILES O=c1c(-c2ccc(O)cc2)coc2c([C@@H]3O[C@H](CO)[C@@H](O)[C@@H](O)[C@H]3O)c(O)ccc12
REMARK SMILES IDX 3 1 11 2 12 3 13 4 30 5 2 6 1 7 29 8 28 9 26 10 14 11 4 12
REMARK SMILES IDX 5 13 6 14 7 15 10 16 9 17 8 18 15 20 24 21 16 22 22 23 17 24
REMARK SMILES IDX 20 25 25 26 23 28 18 30 19 31 21 33 27 35
REMARK H PARENT 8 19 25 27 23 29 19 32 21 34 27 36
REMARK Flexibility Score: inf
ROOT
ATOM      1  C   UNL     1      26.015 -50.197 205.835  1.00  0.00     0.065 A 
ATOM      2  C   UNL     1      25.860 -49.830 204.492  1.00  0.00     0.208 A 
ATOM      3  O   UNL     1      25.107 -48.792 204.151  1.00  0.00    -0.463 OA
ATOM      4  C   UNL     1      24.454 -48.041 205.035  1.00  0.00     0.147 A 
ATOM      5  C   UNL     1      24.556 -48.341 206.413  1.00  0.00     0.066 A 
ATOM      6  C   UNL     1      25.354 -49.429 206.811  1.00  0.00     0.200 A 
ATOM      7  O   UNL     1      25.492 -49.705 208.036  1.00  0.00    -0.288 OA
ATOM      8  C   UNL     1      23.866 -47.556 207.346  1.00  0.00     0.020 A 
ATOM      9  C   UNL     1      23.071 -46.497 206.919  1.00  0.00     0.047 A 
ATOM     10  C   UNL     1      22.947 -46.190 205.561  1.00  0.00     0.125 A 
ATOM     11  C   UNL     1      23.665 -46.947 204.592  1.00  0.00     0.069 A 
ENDROOT
BRANCH   1  12
ATOM     12  C   UNL     1      26.859 -51.365 206.192  1.00  0.00    -0.011 A 
ATOM     13  C   UNL     1      28.237 -51.210 206.424  1.00  0.00     0.013 A 
ATOM     14  C   UNL     1      29.024 -52.314 206.770  1.00  0.00     0.047 A 
ATOM     15  C   UNL     1      28.444 -53.583 206.890  1.00  0.00     0.115 A 
ATOM     16  C   UNL     1      26.283 -52.642 206.323  1.00  0.00     0.013 A 
ATOM     17  C   UNL     1      27.074 -53.743 206.666  1.00  0.00     0.047 A 
BRANCH  15  18
ATOM     18  O   UNL     1      29.219 -54.688 207.232  1.00  0.00    -0.508 OA
ATOM     19  H   UNL     1      29.353 -55.460 206.588  1.00  0.00     0.293 HD
ENDBRANCH  15  18
ENDBRANCH   1  12
BRANCH  11  20
ATOM     20  C   UNL     1      23.579 -46.645 203.099  1.00  0.00     0.188 C 
ATOM     21  C   UNL     1      22.332 -47.333 202.477  1.00  0.00     0.179 C 
ATOM     22  O   UNL     1      23.549 -45.241 202.902  1.00  0.00    -0.362 OA
ATOM     23  C   UNL     1      22.163 -46.955 200.988  1.00  0.00     0.177 C 
ATOM     24  C   UNL     1      23.607 -44.911 201.524  1.00  0.00     0.176 C 
ATOM     25  C   UNL     1      22.340 -45.432 200.793  1.00  0.00     0.177 C 
BRANCH  21  26
ATOM     26  O   UNL     1      22.372 -48.730 202.641  1.00  0.00    -0.387 OA
ATOM     27  H   UNL     1      23.207 -48.957 203.126  1.00  0.00     0.211 HD
ENDBRANCH  21  26
BRANCH  23  28
ATOM     28  O   UNL     1      23.021 -47.697 200.153  1.00  0.00    -0.387 OA
ATOM     29  H   UNL     1      23.955 -47.536 200.443  1.00  0.00     0.211 HD
ENDBRANCH  23  28
BRANCH  24  30
ATOM     30  C   UNL     1      23.713 -43.385 201.396  1.00  0.00     0.191 C 
BRANCH  30  31
ATOM     31  O   UNL     1      22.439 -42.817 201.253  1.00  0.00    -0.394 OA
ATOM     32  H   UNL     1      22.570 -41.905 200.881  1.00  0.00     0.210 HD
ENDBRANCH  30  31
ENDBRANCH  24  30
BRANCH  25  33
ATOM     33  O   UNL     1      22.347 -45.101 199.425  1.00  0.00    -0.388 OA
ATOM     34  H   UNL     1      22.557 -44.134 199.348  1.00  0.00     0.211 HD
ENDBRANCH  25  33
ENDBRANCH  11  20
BRANCH  10  35
ATOM     35  O   UNL     1      22.098 -45.129 205.230  1.00  0.00    -0.507 OA
ATOM     36  H   UNL     1      21.151 -45.232 204.899  1.00  0.00     0.293 HD
ENDBRANCH  10  35
TORSDOF 9
ENDMDL
MODEL 8
REMARK VINA RESULT:    -4.222      3.564      5.144
REMARK INTER + INTRA:          -7.050
REMARK INTER:                  -5.721
REMARK INTRA:                  -1.329
REMARK UNBOUND:                -1.348
REMARK SMILES O=c1c(-c2ccc(O)cc2)coc2c([C@@H]3O[C@H](CO)[C@@H](O)[C@@H](O)[C@H]3O)c(O)ccc12
REMARK SMILES IDX 3 1 11 2 12 3 13 4 30 5 2 6 1 7 29 8 28 9 26 10 14 11 4 12
REMARK SMILES IDX 5 13 6 14 7 15 10 16 9 17 8 18 15 20 24 21 16 22 22 23 17 24
REMARK SMILES IDX 20 25 25 26 23 28 18 30 19 31 21 33 27 35
REMARK H PARENT 8 19 25 27 23 29 19 32 21 34 27 36
REMARK Flexibility Score: inf
ROOT
ATOM      1  C   UNL     1      36.714 -50.445 201.544  1.00  0.00     0.065 A 
ATOM      2  C   UNL     1      37.575 -49.366 201.780  1.00  0.00     0.208 A 
ATOM      3  O   UNL     1      37.564 -48.727 202.943  1.00  0.00    -0.463 OA
ATOM      4  C   UNL     1      36.754 -49.052 203.948  1.00  0.00     0.147 A 
ATOM      5  C   UNL     1      35.853 -50.131 203.794  1.00  0.00     0.066 A 
ATOM      6  C   UNL     1      35.844 -50.836 202.577  1.00  0.00     0.200 A 
ATOM      7  O   UNL     1      35.074 -51.825 202.418  1.00  0.00    -0.288 OA
ATOM      8  C   UNL     1      34.995 -50.473 204.848  1.00  0.00     0.020 A 
ATOM      9  C   UNL     1      35.016 -49.745 206.033  1.00  0.00     0.047 A 
ATOM     10  C   UNL     1      35.891 -48.668 206.202  1.00  0.00     0.125 A 
ATOM     11  C   UNL     1      36.800 -48.319 205.163  1.00  0.00     0.069 A 
ENDROOT
BRANCH   1  12
ATOM     12  C   UNL     1      36.741 -51.141 200.232  1.00  0.00    -0.011 A 
ATOM     13  C   UNL     1      37.535 -52.286 200.043  1.00  0.00     0.013 A 
ATOM     14  C   UNL     1      37.547 -52.942 198.808  1.00  0.00     0.047 A 
ATOM     15  C   UNL     1      36.765 -52.464 197.749  1.00  0.00     0.115 A 
ATOM     16  C   UNL     1      35.953 -50.673 199.165  1.00  0.00     0.013 A 
ATOM     17  C   UNL     1      35.969 -51.330 197.931  1.00  0.00     0.047 A 
BRANCH  15  18
ATOM     18  O   UNL     1      36.771 -53.109 196.514  1.00  0.00    -0.508 OA
ATOM     19  H   UNL     1      36.683 -54.116 196.442  1.00  0.00     0.293 HD
ENDBRANCH  15  18
ENDBRANCH   1  12
BRANCH  11  20
ATOM     20  C   UNL     1      37.786 -47.164 205.301  1.00  0.00     0.188 C 
ATOM     21  C   UNL     1      37.083 -45.811 205.002  1.00  0.00     0.179 C 
ATOM     22  O   UNL     1      38.352 -47.178 206.601  1.00  0.00    -0.362 OA
ATOM     23  C   UNL     1      38.034 -44.616 205.239  1.00  0.00     0.177 C 
ATOM     24  C   UNL     1      39.375 -46.205 206.730  1.00  0.00     0.176 C 
ATOM     25  C   UNL     1      38.783 -44.778 206.581  1.00  0.00     0.177 C 
BRANCH  21  26
ATOM     26  O   UNL     1      36.548 -45.779 203.700  1.00  0.00    -0.387 OA
ATOM     27  H   UNL     1      36.998 -45.048 203.203  1.00  0.00     0.211 HD
ENDBRANCH  21  26
BRANCH  23  28
ATOM     28  O   UNL     1      38.921 -44.423 204.161  1.00  0.00    -0.387 OA
ATOM     29  H   UNL     1      39.495 -43.642 204.365  1.00  0.00     0.211 HD
ENDBRANCH  23  28
BRANCH  24  30
ATOM     30  C   UNL     1      40.033 -46.373 208.107  1.00  0.00     0.191 C 
BRANCH  30  31
ATOM     31  O   UNL     1      39.371 -45.590 209.064  1.00  0.00    -0.394 OA
ATOM     32  H   UNL     1      38.401 -45.782 208.971  1.00  0.00     0.210 HD
ENDBRANCH  30  31
ENDBRANCH  24  30
BRANCH  25  33
ATOM     33  O   UNL     1      39.764 -43.780 206.730  1.00  0.00    -0.388 OA
ATOM     34  H   UNL     1      40.544 -44.188 207.186  1.00  0.00     0.211 HD
ENDBRANCH  25  33
ENDBRANCH  11  20
BRANCH  10  35
ATOM     35  O   UNL     1      35.812 -47.977 207.416  1.00  0.00    -0.507 OA
ATOM     36  H   UNL     1      36.570 -47.458 207.833  1.00  0.00     0.293 HD
ENDBRANCH  10  35
TORSDOF 9
ENDMDL
MODEL 9
REMARK VINA RESULT:    -4.177      4.722      7.763
REMARK INTER + INTRA:          -6.990
REMARK INTER:                  -5.733
REMARK INTRA:                  -1.257
REMARK UNBOUND:                -1.348
REMARK SMILES O=c1c(-c2ccc(O)cc2)coc2c([C@@H]3O[C@H](CO)[C@@H](O)[C@@H](O)[C@H]3O)c(O)ccc12
REMARK SMILES IDX 3 1 11 2 12 3 13 4 30 5 2 6 1 7 29 8 28 9 26 10 14 11 4 12
REMARK SMILES IDX 5 13 6 14 7 15 10 16 9 17 8 18 15 20 24 21 16 22 22 23 17 24
REMARK SMILES IDX 20 25 25 26 23 28 18 30 19 31 21 33 27 35
REMARK H PARENT 8 19 25 27 23 29 19 32 21 34 27 36
REMARK Flexibility Score: inf
ROOT
ATOM      1  C   UNL     1      35.253 -39.666 203.231  1.00  0.00     0.065 A 
ATOM      2  C   UNL     1      35.586 -40.766 202.430  1.00  0.00     0.208 A 
ATOM      3  O   UNL     1      36.202 -41.823 202.944  1.00  0.00    -0.463 OA
ATOM      4  C   UNL     1      36.545 -41.916 204.227  1.00  0.00     0.147 A 
ATOM      5  C   UNL     1      36.245 -40.851 205.107  1.00  0.00     0.066 A 
ATOM      6  C   UNL     1      35.585 -39.718 204.597  1.00  0.00     0.200 A 
ATOM      7  O   UNL     1      35.274 -38.762 205.362  1.00  0.00    -0.288 OA
ATOM      8  C   UNL     1      36.609 -40.944 206.456  1.00  0.00     0.020 A 
ATOM      9  C   UNL     1      37.277 -42.070 206.926  1.00  0.00     0.047 A 
ATOM     10  C   UNL     1      37.593 -43.130 206.071  1.00  0.00     0.125 A 
ATOM     11  C   UNL     1      37.204 -43.080 204.702  1.00  0.00     0.069 A 
ENDROOT
BRANCH   1  12
ATOM     12  C   UNL     1      34.569 -38.492 202.632  1.00  0.00    -0.011 A 
ATOM     13  C   UNL     1      33.216 -38.564 202.257  1.00  0.00     0.013 A 
ATOM     14  C   UNL     1      32.575 -37.452 201.702  1.00  0.00     0.047 A 
ATOM     15  C   UNL     1      33.277 -36.254 201.518  1.00  0.00     0.115 A 
ATOM     16  C   UNL     1      35.264 -37.283 202.450  1.00  0.00     0.013 A 
ATOM     17  C   UNL     1      34.621 -36.173 201.894  1.00  0.00     0.047 A 
BRANCH  15  18
ATOM     18  O   UNL     1      32.650 -35.140 200.965  1.00  0.00    -0.508 OA
ATOM     19  H   UNL     1      32.476 -34.304 201.512  1.00  0.00     0.293 HD
ENDBRANCH  15  18
ENDBRANCH   1  12
BRANCH  11  20
ATOM     20  C   UNL     1      37.509 -44.215 203.730  1.00  0.00     0.188 C 
ATOM     21  C   UNL     1      38.944 -44.067 203.155  1.00  0.00     0.179 C 
ATOM     22  O   UNL     1      37.339 -45.460 204.389  1.00  0.00    -0.362 OA
ATOM     23  C   UNL     1      39.317 -45.264 202.250  1.00  0.00     0.177 C 
ATOM     24  C   UNL     1      37.479 -46.545 203.486  1.00  0.00     0.176 C 
ATOM     25  C   UNL     1      38.926 -46.597 202.927  1.00  0.00     0.177 C 
BRANCH  21  26
ATOM     26  O   UNL     1      39.109 -42.848 202.473  1.00  0.00    -0.387 OA
ATOM     27  H   UNL     1      38.214 -42.432 202.369  1.00  0.00     0.211 HD
ENDBRANCH  21  26
BRANCH  23  28
ATOM     28  O   UNL     1      38.760 -45.144 200.961  1.00  0.00    -0.387 OA
ATOM     29  H   UNL     1      39.250 -45.753 200.353  1.00  0.00     0.211 HD
ENDBRANCH  23  28
BRANCH  24  30
ATOM     30  C   UNL     1      37.144 -47.843 204.235  1.00  0.00     0.191 C 
BRANCH  30  31
ATOM     31  O   UNL     1      38.309 -48.411 204.772  1.00  0.00    -0.394 OA
ATOM     32  H   UNL     1      38.892 -47.658 205.055  1.00  0.00     0.210 HD
ENDBRANCH  30  31
ENDBRANCH  24  30
BRANCH  25  33
ATOM     33  O   UNL     1      39.114 -47.678 202.047  1.00  0.00    -0.388 OA
ATOM     34  H   UNL     1      38.604 -48.451 202.402  1.00  0.00     0.211 HD
ENDBRANCH  25  33
ENDBRANCH  11  20
BRANCH  10  35
ATOM     35  O   UNL     1      38.295 -44.202 206.631  1.00  0.00    -0.507 OA
ATOM     36  H   UNL     1      38.001 -44.721 207.445  1.00  0.00     0.293 HD
ENDBRANCH  10  35
TORSDOF 9
ENDMDL
