MODEL 1
REMARK VINA RESULT:    -4.424      0.000      0.000
REMARK INTER + INTRA:          -6.069
REMARK INTER:                  -5.975
REMARK INTRA:                  -0.094
REMARK UNBOUND:                -0.094
REMARK SMILES [NH3+]CCCC[C@@H]([NH3+])C(=O)[O-]
REMARK SMILES IDX 4 1 3 2 2 3 1 4 5 8 6 9 7 10 8 14 9 15 10 16
REMARK H PARENT 1 5 1 6 1 7 7 11 7 12 7 13
REMARK Flexibility Score: inf
ROOT
ATOM      1  C   UNL     1     -15.847  13.542  -9.356  1.00  0.00     0.012 C 
ENDROOT
BRANCH   1   2
ATOM      2  C   UNL     1     -15.267  12.615 -10.435  1.00  0.00     0.061 C 
BRANCH   2   3
ATOM      3  C   UNL     1     -15.481  11.126 -10.111  1.00  0.00     0.258 C 
BRANCH   3   4
ATOM      4  N   UNL     1     -14.226  10.372 -10.122  1.00  0.00    -0.358 N 
ATOM      5  H   UNL     1     -14.310   9.514  -9.529  1.00  0.00     0.344 HD
ATOM      6  H   UNL     1     -13.970  10.107 -11.100  1.00  0.00     0.344 HD
ATOM      7  H   UNL     1     -13.466  10.975  -9.733  1.00  0.00     0.344 HD
ENDBRANCH   3   4
ENDBRANCH   2   3
ENDBRANCH   1   2
BRANCH   1   8
ATOM      8  C   UNL     1     -15.065  14.863  -9.289  1.00  0.00     0.072 C 
BRANCH   8   9
ATOM      9  C   UNL     1     -14.934  15.393  -7.844  1.00  0.00     0.227 C 
BRANCH   9  10
ATOM     10  N   UNL     1     -14.705  14.286  -6.909  1.00  0.00    -0.350 N 
ATOM     11  H   UNL     1     -15.547  13.664  -6.883  1.00  0.00     0.345 HD
ATOM     12  H   UNL     1     -14.547  14.661  -5.946  1.00  0.00     0.345 HD
ATOM     13  H   UNL     1     -13.873  13.721  -7.200  1.00  0.00     0.345 HD
ENDBRANCH   9  10
BRANCH   9  14
ATOM     14  C   UNL     1     -13.821  16.403  -7.734  1.00  0.00     0.099 C 
ATOM     15  O   UNL     1     -13.160  16.740  -8.752  1.00  0.00    -0.544 OA
ATOM     16  O   UNL     1     -13.525  16.977  -6.504  1.00  0.00    -0.544 OA
ENDBRANCH   9  14
ENDBRANCH   8   9
ENDBRANCH   1   8
TORSDOF 7
ENDMDL
MODEL 2
REMARK VINA RESULT:    -4.413      3.765      5.547
REMARK INTER + INTRA:          -6.055
REMARK INTER:                  -5.959
REMARK INTRA:                  -0.096
REMARK UNBOUND:                -0.094
REMARK SMILES [NH3+]CCCC[C@@H]([NH3+])C(=O)[O-]
REMARK SMILES IDX 4 1 3 2 2 3 1 4 5 8 6 9 7 10 8 14 9 15 10 16
REMARK H PARENT 1 5 1 6 1 7 7 11 7 12 7 13
REMARK Flexibility Score: inf
ROOT
ATOM      1  C   UNL     1     -15.933  14.350  -9.326  1.00  0.00     0.012 C 
ENDROOT
BRANCH   1   2
ATOM      2  C   UNL     1     -14.865  15.201  -8.620  1.00  0.00     0.061 C 
BRANCH   2   3
ATOM      3  C   UNL     1     -14.549  16.501  -9.380  1.00  0.00     0.258 C 
BRANCH   3   4
ATOM      4  N   UNL     1     -13.254  17.064  -8.996  1.00  0.00    -0.358 N 
ATOM      5  H   UNL     1     -13.289  17.428  -8.016  1.00  0.00     0.344 HD
ATOM      6  H   UNL     1     -12.503  16.342  -9.083  1.00  0.00     0.344 HD
ATOM      7  H   UNL     1     -13.025  17.856  -9.640  1.00  0.00     0.344 HD
ENDBRANCH   3   4
ENDBRANCH   2   3
ENDBRANCH   1   2
BRANCH   1   8
ATOM      8  C   UNL     1     -15.387  12.954  -9.664  1.00  0.00     0.072 C 
BRANCH   8   9
ATOM      9  C   UNL     1     -16.040  12.362 -10.932  1.00  0.00     0.227 C 
BRANCH   9  10
ATOM     10  N   UNL     1     -15.045  11.639 -11.732  1.00  0.00    -0.350 N 
ATOM     11  H   UNL     1     -15.092  11.957 -12.728  1.00  0.00     0.345 HD
ATOM     12  H   UNL     1     -15.247  10.613 -11.708  1.00  0.00     0.345 HD
ATOM     13  H   UNL     1     -14.080  11.808 -11.365  1.00  0.00     0.345 HD
ENDBRANCH   9  10
BRANCH   9  14
ATOM     14  C   UNL     1     -17.185  11.448 -10.579  1.00  0.00     0.099 C 
ATOM     15  O   UNL     1     -18.116  11.242 -11.402  1.00  0.00    -0.544 OA
ATOM     16  O   UNL     1     -17.212  10.817  -9.341  1.00  0.00    -0.544 OA
ENDBRANCH   9  14
ENDBRANCH   8   9
ENDBRANCH   1   8
TORSDOF 7
ENDMDL
MODEL 3
REMARK VINA RESULT:    -4.376      1.732      1.893
REMARK INTER + INTRA:          -6.005
REMARK INTER:                  -5.911
REMARK INTRA:                  -0.094
REMARK UNBOUND:                -0.094
REMARK SMILES [NH3+]CCCC[C@@H]([NH3+])C(=O)[O-]
REMARK SMILES IDX 4 1 3 2 2 3 1 4 5 8 6 9 7 10 8 14 9 15 10 16
REMARK H PARENT 1 5 1 6 1 7 7 11 7 12 7 13
REMARK Flexibility Score: inf
ROOT
ATOM      1  C   UNL     1     -15.532  14.089  -8.767  1.00  0.00     0.012 C 
ENDROOT
BRANCH   1   2
ATOM      2  C   UNL     1     -16.058  13.231  -9.929  1.00  0.00     0.061 C 
BRANCH   2   3
ATOM      3  C   UNL     1     -15.164  12.012 -10.213  1.00  0.00     0.258 C 
BRANCH   3   4
ATOM      4  N   UNL     1     -15.553  11.316 -11.441  1.00  0.00    -0.358 N 
ATOM      5  H   UNL     1     -16.447  11.709 -11.816  1.00  0.00     0.344 HD
ATOM      6  H   UNL     1     -14.799  11.396 -12.159  1.00  0.00     0.344 HD
ATOM      7  H   UNL     1     -15.697  10.303 -11.225  1.00  0.00     0.344 HD
ENDBRANCH   3   4
ENDBRANCH   2   3
ENDBRANCH   1   2
BRANCH   1   8
ATOM      8  C   UNL     1     -15.058  15.461  -9.269  1.00  0.00     0.072 C 
BRANCH   8   9
ATOM      9  C   UNL     1     -13.796  15.952  -8.527  1.00  0.00     0.227 C 
BRANCH   9  10
ATOM     10  N   UNL     1     -12.856  16.574  -9.466  1.00  0.00    -0.350 N 
ATOM     11  H   UNL     1     -13.122  17.574  -9.625  1.00  0.00     0.345 HD
ATOM     12  H   UNL     1     -12.892  16.078 -10.386  1.00  0.00     0.345 HD
ATOM     13  H   UNL     1     -11.879  16.536  -9.093  1.00  0.00     0.345 HD
ENDBRANCH   9  10
BRANCH   9  14
ATOM     14  C   UNL     1     -14.151  16.922  -7.430  1.00  0.00     0.099 C 
ATOM     15  O   UNL     1     -13.443  17.001  -6.392  1.00  0.00    -0.544 OA
ATOM     16  O   UNL     1     -15.262  17.746  -7.567  1.00  0.00    -0.544 OA
ENDBRANCH   9  14
ENDBRANCH   8   9
ENDBRANCH   1   8
TORSDOF 7
ENDMDL
MODEL 4
REMARK VINA RESULT:    -4.221      4.455      5.187
REMARK INTER + INTRA:          -5.795
REMARK INTER:                  -5.264
REMARK INTRA:                  -0.531
REMARK UNBOUND:                -0.094
REMARK SMILES [NH3+]CCCC[C@@H]([NH3+])C(=O)[O-]
REMARK SMILES IDX 4 1 3 2 2 3 1 4 5 8 6 9 7 10 8 14 9 15 10 16
REMARK H PARENT 1 5 1 6 1 7 7 11 7 12 7 13
REMARK Flexibility Score: inf
ROOT
ATOM      1  C   UNL     1     -16.625  13.523  -8.925  1.00  0.00     0.012 C 
ENDROOT
BRANCH   1   2
ATOM      2  C   UNL     1     -15.459  13.217  -9.878  1.00  0.00     0.061 C 
BRANCH   2   3
ATOM      3  C   UNL     1     -15.287  11.710 -10.136  1.00  0.00     0.258 C 
BRANCH   3   4
ATOM      4  N   UNL     1     -15.370  11.380 -11.559  1.00  0.00    -0.358 N 
ATOM      5  H   UNL     1     -16.109  11.955 -12.025  1.00  0.00     0.344 HD
ATOM      6  H   UNL     1     -14.447  11.539 -12.023  1.00  0.00     0.344 HD
ATOM      7  H   UNL     1     -15.618  10.370 -11.659  1.00  0.00     0.344 HD
ENDBRANCH   3   4
ENDBRANCH   2   3
ENDBRANCH   1   2
BRANCH   1   8
ATOM      8  C   UNL     1     -17.746  12.484  -9.079  1.00  0.00     0.072 C 
BRANCH   8   9
ATOM      9  C   UNL     1     -18.908  13.002  -9.955  1.00  0.00     0.227 C 
BRANCH   9  10
ATOM     10  N   UNL     1     -18.936  14.469  -9.956  1.00  0.00    -0.350 N 
ATOM     11  H   UNL     1     -17.964  14.843 -10.056  1.00  0.00     0.345 HD
ATOM     12  H   UNL     1     -19.329  14.818  -9.052  1.00  0.00     0.345 HD
ATOM     13  H   UNL     1     -19.522  14.827 -10.746  1.00  0.00     0.345 HD
ENDBRANCH   9  10
BRANCH   9  14
ATOM     14  C   UNL     1     -18.799  12.484 -11.366  1.00  0.00     0.099 C 
ATOM     15  O   UNL     1     -18.996  13.250 -12.345  1.00  0.00    -0.544 OA
ATOM     16  O   UNL     1     -18.467  11.154 -11.592  1.00  0.00    -0.544 OA
ENDBRANCH   9  14
ENDBRANCH   8   9
ENDBRANCH   1   8
TORSDOF 7
ENDMDL
MODEL 5
REMARK VINA RESULT:    -4.180     16.046     16.718
REMARK INTER + INTRA:          -5.740
REMARK INTER:                  -5.611
REMARK INTRA:                  -0.129
REMARK UNBOUND:                -0.094
REMARK SMILES [NH3+]CCCC[C@@H]([NH3+])C(=O)[O-]
REMARK SMILES IDX 4 1 3 2 2 3 1 4 5 8 6 9 7 10 8 14 9 15 10 16
REMARK H PARENT 1 5 1 6 1 7 7 11 7 12 7 13
REMARK Flexibility Score: inf
ROOT
ATOM      1  C   UNL     1      -4.366  10.712 -21.970  1.00  0.00     0.012 C 
ENDROOT
BRANCH   1   2
ATOM      2  C   UNL     1      -3.440   9.563 -22.398  1.00  0.00     0.061 C 
BRANCH   2   3
ATOM      3  C   UNL     1      -3.949   8.188 -21.929  1.00  0.00     0.258 C 
BRANCH   3   4
ATOM      4  N   UNL     1      -4.699   8.275 -20.675  1.00  0.00    -0.358 N 
ATOM      5  H   UNL     1      -5.576   8.829 -20.811  1.00  0.00     0.344 HD
ATOM      6  H   UNL     1      -4.931   7.319 -20.323  1.00  0.00     0.344 HD
ATOM      7  H   UNL     1      -4.107   8.755 -19.959  1.00  0.00     0.344 HD
ENDBRANCH   3   4
ENDBRANCH   2   3
ENDBRANCH   1   2
BRANCH   1   8
ATOM      8  C   UNL     1      -3.610  12.049 -21.955  1.00  0.00     0.072 C 
BRANCH   8   9
ATOM      9  C   UNL     1      -3.377  12.575 -20.522  1.00  0.00     0.227 C 
BRANCH   9  10
ATOM     10  N   UNL     1      -1.964  12.448 -20.151  1.00  0.00    -0.350 N 
ATOM     11  H   UNL     1      -1.411  13.222 -20.588  1.00  0.00     0.345 HD
ATOM     12  H   UNL     1      -1.584  11.539 -20.502  1.00  0.00     0.345 HD
ATOM     13  H   UNL     1      -1.848  12.491 -19.112  1.00  0.00     0.345 HD
ENDBRANCH   9  10
BRANCH   9  14
ATOM     14  C   UNL     1      -3.822  14.009 -20.389  1.00  0.00     0.099 C 
ATOM     15  O   UNL     1      -4.741  14.464 -21.120  1.00  0.00    -0.544 OA
ATOM     16  O   UNL     1      -3.224  14.835 -19.446  1.00  0.00    -0.544 OA
ENDBRANCH   9  14
ENDBRANCH   8   9
ENDBRANCH   1   8
TORSDOF 7
ENDMDL
MODEL 6
REMARK VINA RESULT:    -4.147     16.393     17.287
REMARK INTER + INTRA:          -5.695
REMARK INTER:                  -5.553
REMARK INTRA:                  -0.142
REMARK UNBOUND:                -0.094
REMARK SMILES [NH3+]CCCC[C@@H]([NH3+])C(=O)[O-]
REMARK SMILES IDX 4 1 3 2 2 3 1 4 5 8 6 9 7 10 8 14 9 15 10 16
REMARK H PARENT 1 5 1 6 1 7 7 11 7 12 7 13
REMARK Flexibility Score: inf
ROOT
ATOM      1  C   UNL     1      -2.164  17.365 -19.409  1.00  0.00     0.012 C 
ENDROOT
BRANCH   1   2
ATOM      2  C   UNL     1      -1.408  18.679 -19.660  1.00  0.00     0.061 C 
BRANCH   2   3
ATOM      3  C   UNL     1      -2.309  19.773 -20.257  1.00  0.00     0.258 C 
BRANCH   3   4
ATOM      4  N   UNL     1      -3.469  20.056 -19.410  1.00  0.00    -0.358 N 
ATOM      5  H   UNL     1      -3.176  20.571 -18.548  1.00  0.00     0.344 HD
ATOM      6  H   UNL     1      -4.177  20.616 -19.938  1.00  0.00     0.344 HD
ATOM      7  H   UNL     1      -3.910  19.152 -19.126  1.00  0.00     0.344 HD
ENDBRANCH   3   4
ENDBRANCH   2   3
ENDBRANCH   1   2
BRANCH   1   8
ATOM      8  C   UNL     1      -2.357  16.583 -20.717  1.00  0.00     0.072 C 
BRANCH   8   9
ATOM      9  C   UNL     1      -3.821  16.136 -20.922  1.00  0.00     0.227 C 
BRANCH   9  10
ATOM     10  N   UNL     1      -4.251  16.398 -22.300  1.00  0.00    -0.350 N 
ATOM     11  H   UNL     1      -5.096  17.015 -22.296  1.00  0.00     0.345 HD
ATOM     12  H   UNL     1      -4.506  15.499 -22.769  1.00  0.00     0.345 HD
ATOM     13  H   UNL     1      -3.488  16.865 -22.843  1.00  0.00     0.345 HD
ENDBRANCH   9  10
BRANCH   9  14
ATOM     14  C   UNL     1      -3.995  14.676 -20.592  1.00  0.00     0.099 C 
ATOM     15  O   UNL     1      -4.886  13.993 -21.163  1.00  0.00    -0.544 OA
ATOM     16  O   UNL     1      -3.160  14.071 -19.661  1.00  0.00    -0.544 OA
ENDBRANCH   9  14
ENDBRANCH   8   9
ENDBRANCH   1   8
TORSDOF 7
ENDMDL
MODEL 7
REMARK VINA RESULT:    -4.122      2.855      3.564
REMARK INTER + INTRA:          -5.662
REMARK INTER:                  -5.151
REMARK INTRA:                  -0.511
REMARK UNBOUND:                -0.094
REMARK SMILES [NH3+]CCCC[C@@H]([NH3+])C(=O)[O-]
REMARK SMILES IDX 4 1 3 2 2 3 1 4 5 8 6 9 7 10 8 14 9 15 10 16
REMARK H PARENT 1 5 1 6 1 7 7 11 7 12 7 13
REMARK Flexibility Score: inf
ROOT
ATOM      1  C   UNL     1     -15.312  14.554  -7.974  1.00  0.00     0.012 C 
ENDROOT
BRANCH   1   2
ATOM      2  C   UNL     1     -14.857  15.253  -9.264  1.00  0.00     0.061 C 
BRANCH   2   3
ATOM      3  C   UNL     1     -14.611  16.758  -9.065  1.00  0.00     0.258 C 
BRANCH   3   4
ATOM      4  N   UNL     1     -13.185  17.079  -8.983  1.00  0.00    -0.358 N 
ATOM      5  H   UNL     1     -12.691  16.772  -9.852  1.00  0.00     0.344 HD
ATOM      6  H   UNL     1     -13.051  18.105  -8.838  1.00  0.00     0.344 HD
ATOM      7  H   UNL     1     -12.771  16.574  -8.166  1.00  0.00     0.344 HD
ENDBRANCH   3   4
ENDBRANCH   2   3
ENDBRANCH   1   2
BRANCH   1   8
ATOM      8  C   UNL     1     -15.685  15.582  -6.895  1.00  0.00     0.072 C 
BRANCH   8   9
ATOM      9  C   UNL     1     -14.949  15.325  -5.562  1.00  0.00     0.227 C 
BRANCH   9  10
ATOM     10  N   UNL     1     -15.024  13.906  -5.198  1.00  0.00    -0.350 N 
ATOM     11  H   UNL     1     -14.275  13.372  -5.698  1.00  0.00     0.345 HD
ATOM     12  H   UNL     1     -15.950  13.514  -5.485  1.00  0.00     0.345 HD
ATOM     13  H   UNL     1     -14.902  13.781  -4.166  1.00  0.00     0.345 HD
ENDBRANCH   9  10
BRANCH   9  14
ATOM     14  C   UNL     1     -13.509  15.765  -5.642  1.00  0.00     0.099 C 
ATOM     15  O   UNL     1     -12.578  14.922  -5.558  1.00  0.00    -0.544 OA
ATOM     16  O   UNL     1     -13.204  17.109  -5.821  1.00  0.00    -0.544 OA
ENDBRANCH   9  14
ENDBRANCH   8   9
ENDBRANCH   1   8
TORSDOF 7
ENDMDL
MODEL 8
REMARK VINA RESULT:    -4.015      4.575      5.270
REMARK INTER + INTRA:          -5.518
REMARK INTER:                  -5.084
REMARK INTRA:                  -0.433
REMARK UNBOUND:                -0.094
REMARK SMILES [NH3+]CCCC[C@@H]([NH3+])C(=O)[O-]
REMARK SMILES IDX 4 1 3 2 2 3 1 4 5 8 6 9 7 10 8 14 9 15 10 16
REMARK H PARENT 1 5 1 6 1 7 7 11 7 12 7 13
REMARK Flexibility Score: inf
ROOT
ATOM      1  C   UNL     1     -18.841  12.699 -11.862  1.00  0.00     0.012 C 
ENDROOT
BRANCH   1   2
ATOM      2  C   UNL     1     -19.616  11.380 -11.717  1.00  0.00     0.061 C 
BRANCH   2   3
ATOM      3  C   UNL     1     -20.388  11.292 -10.389  1.00  0.00     0.258 C 
BRANCH   3   4
ATOM      4  N   UNL     1     -20.039  10.092  -9.626  1.00  0.00    -0.358 N 
ATOM      5  H   UNL     1     -19.330  10.320  -8.892  1.00  0.00     0.344 HD
ATOM      6  H   UNL     1     -20.892   9.682  -9.184  1.00  0.00     0.344 HD
ATOM      7  H   UNL     1     -19.632   9.383 -10.277  1.00  0.00     0.344 HD
ENDBRANCH   3   4
ENDBRANCH   2   3
ENDBRANCH   1   2
BRANCH   1   8
ATOM      8  C   UNL     1     -18.371  13.212 -10.492  1.00  0.00     0.072 C 
BRANCH   8   9
ATOM      9  C   UNL     1     -16.860  12.984 -10.269  1.00  0.00     0.227 C 
BRANCH   9  10
ATOM     10  N   UNL     1     -16.435  13.567  -8.991  1.00  0.00    -0.350 N 
ATOM     11  H   UNL     1     -15.400  13.723  -8.998  1.00  0.00     0.345 HD
ATOM     12  H   UNL     1     -16.661  12.910  -8.208  1.00  0.00     0.345 HD
ATOM     13  H   UNL     1     -16.917  14.481  -8.822  1.00  0.00     0.345 HD
ENDBRANCH   9  10
BRANCH   9  14
ATOM     14  C   UNL     1     -16.519  11.517 -10.308  1.00  0.00     0.099 C 
ATOM     15  O   UNL     1     -15.756  11.062 -11.201  1.00  0.00    -0.544 OA
ATOM     16  O   UNL     1     -17.038  10.658  -9.347  1.00  0.00    -0.544 OA
ENDBRANCH   9  14
ENDBRANCH   8   9
ENDBRANCH   1   8
TORSDOF 7
ENDMDL
MODEL 9
REMARK VINA RESULT:    -3.995      3.634      5.055
REMARK INTER + INTRA:          -5.490
REMARK INTER:                  -4.993
REMARK INTRA:                  -0.497
REMARK UNBOUND:                -0.094
REMARK SMILES [NH3+]CCCC[C@@H]([NH3+])C(=O)[O-]
REMARK SMILES IDX 4 1 3 2 2 3 1 4 5 8 6 9 7 10 8 14 9 15 10 16
REMARK H PARENT 1 5 1 6 1 7 7 11 7 12 7 13
REMARK Flexibility Score: inf
ROOT
ATOM      1  C   UNL     1     -18.239  13.007 -11.762  1.00  0.00     0.012 C 
ENDROOT
BRANCH   1   2
ATOM      2  C   UNL     1     -19.639  13.580 -11.494  1.00  0.00     0.061 C 
BRANCH   2   3
ATOM      3  C   UNL     1     -20.010  13.557 -10.001  1.00  0.00     0.258 C 
BRANCH   3   4
ATOM      4  N   UNL     1     -19.450  14.698  -9.275  1.00  0.00    -0.358 N 
ATOM      5  H   UNL     1     -19.211  14.425  -8.294  1.00  0.00     0.344 HD
ATOM      6  H   UNL     1     -18.598  15.057  -9.763  1.00  0.00     0.344 HD
ATOM      7  H   UNL     1     -20.161  15.464  -9.246  1.00  0.00     0.344 HD
ENDBRANCH   3   4
ENDBRANCH   2   3
ENDBRANCH   1   2
BRANCH   1   8
ATOM      8  C   UNL     1     -18.014  11.713 -10.964  1.00  0.00     0.072 C 
BRANCH   8   9
ATOM      9  C   UNL     1     -16.580  11.617 -10.398  1.00  0.00     0.227 C 
BRANCH   9  10
ATOM     10  N   UNL     1     -15.612  11.410 -11.480  1.00  0.00    -0.350 N 
ATOM     11  H   UNL     1     -15.878  11.991 -12.309  1.00  0.00     0.345 HD
ATOM     12  H   UNL     1     -15.613  10.406 -11.772  1.00  0.00     0.345 HD
ATOM     13  H   UNL     1     -14.648  11.678 -11.171  1.00  0.00     0.345 HD
ENDBRANCH   9  10
BRANCH   9  14
ATOM     14  C   UNL     1     -16.223  12.851  -9.610  1.00  0.00     0.099 C 
ATOM     15  O   UNL     1     -16.897  13.182  -8.599  1.00  0.00    -0.544 OA
ATOM     16  O   UNL     1     -15.134  13.625  -9.991  1.00  0.00    -0.544 OA
ENDBRANCH   9  14
ENDBRANCH   8   9
ENDBRANCH   1   8
TORSDOF 7
ENDMDL
