MODEL 1
REMARK VINA RESULT:    -3.736      0.000      0.000
REMARK INTER + INTRA:          -4.507
REMARK INTER:                  -4.500
REMARK INTRA:                  -0.007
REMARK UNBOUND:                -0.007
REMARK SMILES OCC(O)CO
REMARK SMILES IDX 3 1 5 2 6 3 2 5 1 6 4 8
REMARK H PARENT 6 4 1 7 4 9
REMARK Flexibility Score: inf
ROOT
ATOM      1  C   UNL     1      28.729   2.824  23.527  1.00  0.00     0.165 C 
ENDROOT
BRANCH   1   2
ATOM      2  C   UNL     1      27.984   1.568  23.999  1.00  0.00     0.190 C 
BRANCH   2   3
ATOM      3  O   UNL     1      26.601   1.733  23.849  1.00  0.00    -0.394 OA
ATOM      4  H   UNL     1      26.192   1.419  24.698  1.00  0.00     0.210 HD
ENDBRANCH   2   3
ENDBRANCH   1   2
BRANCH   1   5
ATOM      5  C   UNL     1      29.339   3.603  24.702  1.00  0.00     0.190 C 
BRANCH   5   6
ATOM      6  O   UNL     1      28.990   4.957  24.616  1.00  0.00    -0.394 OA
ATOM      7  H   UNL     1      28.055   4.980  24.283  1.00  0.00     0.210 HD
ENDBRANCH   5   6
ENDBRANCH   1   5
BRANCH   1   8
ATOM      8  O   UNL     1      29.739   2.447  22.628  1.00  0.00    -0.388 OA
ATOM      9  H   UNL     1      29.605   2.983  21.803  1.00  0.00     0.211 HD
ENDBRANCH   1   8
TORSDOF 5
ENDMDL
MODEL 2
REMARK VINA RESULT:    -3.652      0.583      2.590
REMARK INTER + INTRA:          -4.406
REMARK INTER:                  -4.205
REMARK INTRA:                  -0.201
REMARK UNBOUND:                -0.007
REMARK SMILES OCC(O)CO
REMARK SMILES IDX 3 1 5 2 6 3 2 5 1 6 4 8
REMARK H PARENT 6 4 1 7 4 9
REMARK Flexibility Score: inf
ROOT
ATOM      1  C   UNL     1      29.461   2.227  24.002  1.00  0.00     0.165 C 
ENDROOT
BRANCH   1   2
ATOM      2  C   UNL     1      29.439   3.471  24.899  1.00  0.00     0.190 C 
BRANCH   2   3
ATOM      3  O   UNL     1      28.900   4.565  24.208  1.00  0.00    -0.394 OA
ATOM      4  H   UNL     1      27.916   4.438  24.216  1.00  0.00     0.210 HD
ENDBRANCH   2   3
ENDBRANCH   1   2
BRANCH   1   5
ATOM      5  C   UNL     1      28.190   1.379  24.169  1.00  0.00     0.190 C 
BRANCH   5   6
ATOM      6  O   UNL     1      27.066   2.108  23.759  1.00  0.00    -0.394 OA
ATOM      7  H   UNL     1      26.626   1.563  23.056  1.00  0.00     0.210 HD
ENDBRANCH   5   6
ENDBRANCH   1   5
BRANCH   1   8
ATOM      8  O   UNL     1      29.594   2.629  22.663  1.00  0.00    -0.388 OA
ATOM      9  H   UNL     1      28.678   2.799  22.321  1.00  0.00     0.211 HD
ENDBRANCH   1   8
TORSDOF 5
ENDMDL
MODEL 3
REMARK VINA RESULT:    -3.644      1.320      1.949
REMARK INTER + INTRA:          -4.397
REMARK INTER:                  -4.393
REMARK INTRA:                  -0.004
REMARK UNBOUND:                -0.007
REMARK SMILES OCC(O)CO
REMARK SMILES IDX 3 1 5 2 6 3 2 5 1 6 4 8
REMARK H PARENT 6 4 1 7 4 9
REMARK Flexibility Score: inf
ROOT
ATOM      1  C   UNL     1      28.952   2.662  24.332  1.00  0.00     0.165 C 
ENDROOT
BRANCH   1   2
ATOM      2  C   UNL     1      30.035   1.611  24.058  1.00  0.00     0.190 C 
BRANCH   2   3
ATOM      3  O   UNL     1      30.317   1.544  22.687  1.00  0.00    -0.394 OA
ATOM      4  H   UNL     1      31.248   1.207  22.614  1.00  0.00     0.210 HD
ENDBRANCH   2   3
ENDBRANCH   1   2
BRANCH   1   5
ATOM      5  C   UNL     1      29.485   3.826  25.182  1.00  0.00     0.190 C 
BRANCH   5   6
ATOM      6  O   UNL     1      29.030   5.047  24.668  1.00  0.00    -0.394 OA
ATOM      7  H   UNL     1      29.543   5.753  25.140  1.00  0.00     0.210 HD
ENDBRANCH   5   6
ENDBRANCH   1   5
BRANCH   1   8
ATOM      8  O   UNL     1      28.464   3.149  23.108  1.00  0.00    -0.388 OA
ATOM      9  H   UNL     1      29.249   3.474  22.595  1.00  0.00     0.211 HD
ENDBRANCH   1   8
TORSDOF 5
ENDMDL
MODEL 4
REMARK VINA RESULT:    -3.557      1.167      2.999
REMARK INTER + INTRA:          -4.292
REMARK INTER:                  -4.289
REMARK INTRA:                  -0.003
REMARK UNBOUND:                -0.007
REMARK SMILES OCC(O)CO
REMARK SMILES IDX 3 1 5 2 6 3 2 5 1 6 4 8
REMARK H PARENT 6 4 1 7 4 9
REMARK Flexibility Score: inf
ROOT
ATOM      1  C   UNL     1      29.052   2.703  23.692  1.00  0.00     0.165 C 
ENDROOT
BRANCH   1   2
ATOM      2  C   UNL     1      29.367   3.637  24.866  1.00  0.00     0.190 C 
BRANCH   2   3
ATOM      3  O   UNL     1      28.977   4.950  24.567  1.00  0.00    -0.394 OA
ATOM      4  H   UNL     1      29.689   5.322  23.984  1.00  0.00     0.210 HD
ENDBRANCH   2   3
ENDBRANCH   1   2
BRANCH   1   5
ATOM      5  C   UNL     1      29.758   1.346  23.835  1.00  0.00     0.190 C 
BRANCH   5   6
ATOM      6  O   UNL     1      30.975   1.358  23.142  1.00  0.00    -0.394 OA
ATOM      7  H   UNL     1      30.764   1.659  22.220  1.00  0.00     0.210 HD
ENDBRANCH   5   6
ENDBRANCH   1   5
BRANCH   1   8
ATOM      8  O   UNL     1      27.663   2.513  23.615  1.00  0.00    -0.388 OA
ATOM      9  H   UNL     1      27.374   2.856  22.730  1.00  0.00     0.211 HD
ENDBRANCH   1   8
TORSDOF 5
ENDMDL
MODEL 5
REMARK VINA RESULT:    -3.376      5.793      6.731
REMARK INTER + INTRA:          -4.073
REMARK INTER:                  -4.066
REMARK INTRA:                  -0.007
REMARK UNBOUND:                -0.007
REMARK SMILES OCC(O)CO
REMARK SMILES IDX 3 1 5 2 6 3 2 5 1 6 4 8
REMARK H PARENT 6 4 1 7 4 9
REMARK Flexibility Score: inf
ROOT
ATOM      1  C   UNL     1      27.119  -0.124  18.957  1.00  0.00     0.165 C 
ENDROOT
BRANCH   1   2
ATOM      2  C   UNL     1      25.944  -0.744  19.722  1.00  0.00     0.190 C 
BRANCH   2   3
ATOM      3  O   UNL     1      24.770  -0.673  18.959  1.00  0.00    -0.394 OA
ATOM      4  H   UNL     1      25.006  -0.167  18.138  1.00  0.00     0.210 HD
ENDBRANCH   2   3
ENDBRANCH   1   2
BRANCH   1   5
ATOM      5  C   UNL     1      27.047  -0.427  17.452  1.00  0.00     0.190 C 
BRANCH   5   6
ATOM      6  O   UNL     1      28.073   0.245  16.774  1.00  0.00    -0.394 OA
ATOM      7  H   UNL     1      28.100  -0.144  15.862  1.00  0.00     0.210 HD
ENDBRANCH   5   6
ENDBRANCH   1   5
BRANCH   1   8
ATOM      8  O   UNL     1      27.120   1.265  19.164  1.00  0.00    -0.388 OA
ATOM      9  H   UNL     1      27.766   1.652  18.518  1.00  0.00     0.211 HD
ENDBRANCH   1   8
TORSDOF 5
ENDMDL
MODEL 6
REMARK VINA RESULT:    -3.368      5.966      7.080
REMARK INTER + INTRA:          -4.063
REMARK INTER:                  -3.852
REMARK INTRA:                  -0.211
REMARK UNBOUND:                -0.007
REMARK SMILES OCC(O)CO
REMARK SMILES IDX 3 1 5 2 6 3 2 5 1 6 4 8
REMARK H PARENT 6 4 1 7 4 9
REMARK Flexibility Score: inf
ROOT
ATOM      1  C   UNL     1      27.218  -0.850  18.094  1.00  0.00     0.165 C 
ENDROOT
BRANCH   1   2
ATOM      2  C   UNL     1      27.316  -0.056  19.403  1.00  0.00     0.190 C 
BRANCH   2   3
ATOM      3  O   UNL     1      27.153   1.314  19.158  1.00  0.00    -0.394 OA
ATOM      4  H   UNL     1      27.701   1.518  18.356  1.00  0.00     0.210 HD
ENDBRANCH   2   3
ENDBRANCH   1   2
BRANCH   1   5
ATOM      5  C   UNL     1      25.759  -1.130  17.703  1.00  0.00     0.190 C 
BRANCH   5   6
ATOM      6  O   UNL     1      24.896  -0.706  18.722  1.00  0.00    -0.394 OA
ATOM      7  H   UNL     1      23.977  -0.903  18.404  1.00  0.00     0.210 HD
ENDBRANCH   5   6
ENDBRANCH   1   5
BRANCH   1   8
ATOM      8  O   UNL     1      27.858  -0.131  17.072  1.00  0.00    -0.388 OA
ATOM      9  H   UNL     1      28.627  -0.681  16.771  1.00  0.00     0.211 HD
ENDBRANCH   1   8
TORSDOF 5
ENDMDL
MODEL 7
REMARK VINA RESULT:    -3.316     20.585     21.004
REMARK INTER + INTRA:          -4.001
REMARK INTER:                  -3.798
REMARK INTRA:                  -0.203
REMARK UNBOUND:                -0.007
REMARK SMILES OCC(O)CO
REMARK SMILES IDX 3 1 5 2 6 3 2 5 1 6 4 8
REMARK H PARENT 6 4 1 7 4 9
REMARK Flexibility Score: inf
ROOT
ATOM      1  C   UNL     1      18.539  14.057   8.632  1.00  0.00     0.165 C 
ENDROOT
BRANCH   1   2
ATOM      2  C   UNL     1      19.554  14.933   7.887  1.00  0.00     0.190 C 
BRANCH   2   3
ATOM      3  O   UNL     1      20.852  14.684   8.354  1.00  0.00    -0.394 OA
ATOM      4  H   UNL     1      21.444  15.318   7.871  1.00  0.00     0.210 HD
ENDBRANCH   2   3
ENDBRANCH   1   2
BRANCH   1   5
ATOM      5  C   UNL     1      18.887  12.564   8.530  1.00  0.00     0.190 C 
BRANCH   5   6
ATOM      6  O   UNL     1      19.617  12.161   9.657  1.00  0.00    -0.394 OA
ATOM      7  H   UNL     1      20.263  12.892   9.842  1.00  0.00     0.210 HD
ENDBRANCH   5   6
ENDBRANCH   1   5
BRANCH   1   8
ATOM      8  O   UNL     1      18.498  14.447   9.980  1.00  0.00    -0.388 OA
ATOM      9  H   UNL     1      18.336  13.625  10.512  1.00  0.00     0.211 HD
ENDBRANCH   1   8
TORSDOF 5
ENDMDL
MODEL 8
REMARK VINA RESULT:    -3.257      5.941      6.940
REMARK INTER + INTRA:          -3.930
REMARK INTER:                  -3.747
REMARK INTRA:                  -0.183
REMARK UNBOUND:                -0.007
REMARK SMILES OCC(O)CO
REMARK SMILES IDX 3 1 5 2 6 3 2 5 1 6 4 8
REMARK H PARENT 6 4 1 7 4 9
REMARK Flexibility Score: inf
ROOT
ATOM      1  C   UNL     1      26.398  -0.981  18.625  1.00  0.00     0.165 C 
ENDROOT
BRANCH   1   2
ATOM      2  C   UNL     1      26.806  -0.917  17.148  1.00  0.00     0.190 C 
BRANCH   2   3
ATOM      3  O   UNL     1      27.953  -0.127  16.990  1.00  0.00    -0.394 OA
ATOM      4  H   UNL     1      28.500  -0.270  17.806  1.00  0.00     0.210 HD
ENDBRANCH   2   3
ENDBRANCH   1   2
BRANCH   1   5
ATOM      5  C   UNL     1      27.279  -0.079  19.502  1.00  0.00     0.190 C 
BRANCH   5   6
ATOM      6  O   UNL     1      27.098   1.265  19.149  1.00  0.00    -0.394 OA
ATOM      7  H   UNL     1      26.429   1.269  18.416  1.00  0.00     0.210 HD
ENDBRANCH   5   6
ENDBRANCH   1   5
BRANCH   1   8
ATOM      8  O   UNL     1      25.052  -0.597  18.746  1.00  0.00    -0.388 OA
ATOM      9  H   UNL     1      25.046   0.294  19.183  1.00  0.00     0.211 HD
ENDBRANCH   1   8
TORSDOF 5
ENDMDL
MODEL 9
REMARK VINA RESULT:    -3.253      1.731      2.852
REMARK INTER + INTRA:          -3.926
REMARK INTER:                  -3.703
REMARK INTRA:                  -0.223
REMARK UNBOUND:                -0.007
REMARK SMILES OCC(O)CO
REMARK SMILES IDX 3 1 5 2 6 3 2 5 1 6 4 8
REMARK H PARENT 6 4 1 7 4 9
REMARK Flexibility Score: inf
ROOT
ATOM      1  C   UNL     1      29.417   1.420  23.298  1.00  0.00     0.165 C 
ENDROOT
BRANCH   1   2
ATOM      2  C   UNL     1      28.314   1.599  24.349  1.00  0.00     0.190 C 
BRANCH   2   3
ATOM      3  O   UNL     1      27.127   2.037  23.745  1.00  0.00    -0.394 OA
ATOM      4  H   UNL     1      27.003   2.979  24.032  1.00  0.00     0.210 HD
ENDBRANCH   2   3
ENDBRANCH   1   2
BRANCH   1   5
ATOM      5  C   UNL     1      29.078   0.305  22.297  1.00  0.00     0.190 C 
BRANCH   5   6
ATOM      6  O   UNL     1      28.228   0.795  21.297  1.00  0.00    -0.394 OA
ATOM      7  H   UNL     1      28.416   1.768  21.228  1.00  0.00     0.210 HD
ENDBRANCH   5   6
ENDBRANCH   1   5
BRANCH   1   8
ATOM      8  O   UNL     1      29.602   2.634  22.616  1.00  0.00    -0.388 OA
ATOM      9  H   UNL     1      28.825   2.744  22.009  1.00  0.00     0.211 HD
ENDBRANCH   1   8
TORSDOF 5
ENDMDL
