MODEL 1
REMARK VINA RESULT:    -2.391      0.000      0.000
REMARK INTER + INTRA:          -8.126
REMARK INTER:                  -6.026
REMARK INTRA:                  -2.100
REMARK UNBOUND:                -2.100
REMARK SMILES CCCCCCCCCCCCCCCCCCCCCCCCCCCC(=O)[O-]
REMARK SMILES IDX 15 1 16 2 17 3 18 4 19 5 20 6 21 7 22 8 23 9 24 10 25 11
REMARK SMILES IDX 26 12 27 13 28 14 29 15 30 16 14 17 13 18 12 19 11 20 10 21
REMARK SMILES IDX 9 22 8 23 7 24 6 25 5 26 4 27 3 28 2 29 1 30
REMARK H PARENT
REMARK Flexibility Score: inf
ROOT
ATOM      1  C   UNL     1      -3.610   4.904  -3.695  1.00  0.00     0.000 C 
ENDROOT
BRANCH   1   2
ATOM      2  C   UNL     1      -2.919   4.160  -2.541  1.00  0.00     0.000 C 
BRANCH   2   3
ATOM      3  C   UNL     1      -3.142   4.842  -1.180  1.00  0.00     0.000 C 
BRANCH   3   4
ATOM      4  C   UNL     1      -2.704   3.965   0.003  1.00  0.00     0.000 C 
BRANCH   4   5
ATOM      5  C   UNL     1      -3.890   3.278   0.701  1.00  0.00     0.000 C 
BRANCH   5   6
ATOM      6  C   UNL     1      -4.055   1.808   0.277  1.00  0.00     0.000 C 
BRANCH   6   7
ATOM      7  C   UNL     1      -2.737   1.060  -0.014  1.00  0.00     0.000 C 
BRANCH   7   8
ATOM      8  C   UNL     1      -2.833   0.062  -1.188  1.00  0.00     0.000 C 
BRANCH   8   9
ATOM      9  C   UNL     1      -4.248  -0.526  -1.340  1.00  0.00     0.000 C 
BRANCH   9  10
ATOM     10  C   UNL     1      -4.392  -1.414  -2.586  1.00  0.00     0.000 C 
BRANCH  10  11
ATOM     11  C   UNL     1      -3.300  -2.495  -2.672  1.00  0.00     0.000 C 
BRANCH  11  12
ATOM     12  C   UNL     1      -3.749  -3.789  -1.975  1.00  0.00     0.006 C 
BRANCH  12  13
ATOM     13  C   UNL     1      -3.685  -3.678  -0.445  1.00  0.00     0.053 C 
BRANCH  13  14
ATOM     14  C   UNL     1      -4.666  -4.595   0.223  1.00  0.00     0.041 C 
ATOM     15  O   UNL     1      -4.963  -5.697  -0.306  1.00  0.00    -0.550 OA
ATOM     16  O   UNL     1      -5.278  -4.214   1.412  1.00  0.00    -0.550 OA
ENDBRANCH  13  14
ENDBRANCH  12  13
ENDBRANCH  11  12
ENDBRANCH  10  11
ENDBRANCH   9  10
ENDBRANCH   8   9
ENDBRANCH   7   8
ENDBRANCH   6   7
ENDBRANCH   5   6
ENDBRANCH   4   5
ENDBRANCH   3   4
ENDBRANCH   2   3
ENDBRANCH   1   2
BRANCH   1  17
ATOM     17  C   UNL     1      -5.072   5.263  -3.376  1.00  0.00     0.000 C 
BRANCH  17  18
ATOM     18  C   UNL     1      -5.631   6.364  -4.296  1.00  0.00     0.000 C 
BRANCH  18  19
ATOM     19  C   UNL     1      -5.801   5.958  -5.775  1.00  0.00     0.000 C 
BRANCH  19  20
ATOM     20  C   UNL     1      -7.249   5.992  -6.300  1.00  0.00     0.000 C 
BRANCH  20  21
ATOM     21  C   UNL     1      -7.377   6.160  -7.826  1.00  0.00     0.000 C 
BRANCH  21  22
ATOM     22  C   UNL     1      -8.545   7.056  -8.285  1.00  0.00    -0.000 C 
BRANCH  22  23
ATOM     23  C   UNL     1      -8.153   8.423  -8.889  1.00  0.00    -0.000 C 
BRANCH  23  24
ATOM     24  C   UNL     1      -7.358   9.366  -7.960  1.00  0.00    -0.000 C 
BRANCH  24  25
ATOM     25  C   UNL     1      -5.833   9.335  -8.164  1.00  0.00    -0.000 C 
BRANCH  25  26
ATOM     26  C   UNL     1      -5.407   8.741  -9.514  1.00  0.00    -0.000 C 
BRANCH  26  27
ATOM     27  C   UNL     1      -3.932   9.042  -9.817  1.00  0.00    -0.000 C 
BRANCH  27  28
ATOM     28  C   UNL     1      -3.074   7.772  -9.924  1.00  0.00    -0.000 C 
BRANCH  28  29
ATOM     29  C   UNL     1      -3.863   6.492  -9.610  1.00  0.00    -0.003 C 
ATOM     30  C   UNL     1      -2.985   5.253  -9.761  1.00  0.00     0.004 C 
ENDBRANCH  28  29
ENDBRANCH  27  28
ENDBRANCH  26  27
ENDBRANCH  25  26
ENDBRANCH  24  25
ENDBRANCH  23  24
ENDBRANCH  22  23
ENDBRANCH  21  22
ENDBRANCH  20  21
ENDBRANCH  19  20
ENDBRANCH  18  19
ENDBRANCH  17  18
ENDBRANCH   1  17
TORSDOF 26
ENDMDL
MODEL 2
REMARK VINA RESULT:    -1.323      1.307      2.273
REMARK INTER + INTRA:          -5.433
REMARK INTER:                  -4.557
REMARK INTRA:                  -0.875
REMARK UNBOUND:                -2.100
REMARK SMILES CCCCCCCCCCCCCCCCCCCCCCCCCCCC(=O)[O-]
REMARK SMILES IDX 15 1 16 2 17 3 18 4 19 5 20 6 21 7 22 8 23 9 24 10 25 11
REMARK SMILES IDX 26 12 27 13 28 14 29 15 30 16 14 17 13 18 12 19 11 20 10 21
REMARK SMILES IDX 9 22 8 23 7 24 6 25 5 26 4 27 3 28 2 29 1 30
REMARK H PARENT
REMARK Flexibility Score: inf
ROOT
ATOM      1  C   UNL     1      -3.010   4.824  -2.645  1.00  0.00     0.000 C 
ENDROOT
BRANCH   1   2
ATOM      2  C   UNL     1      -3.665   5.245  -1.319  1.00  0.00     0.000 C 
BRANCH   2   3
ATOM      3  C   UNL     1      -2.930   4.682  -0.090  1.00  0.00     0.000 C 
BRANCH   3   4
ATOM      4  C   UNL     1      -2.087   3.442  -0.419  1.00  0.00     0.000 C 
BRANCH   4   5
ATOM      5  C   UNL     1      -2.662   2.155   0.197  1.00  0.00     0.000 C 
BRANCH   5   6
ATOM      6  C   UNL     1      -4.133   2.308   0.622  1.00  0.00     0.000 C 
BRANCH   6   7
ATOM      7  C   UNL     1      -4.842   0.993   1.006  1.00  0.00     0.000 C 
BRANCH   7   8
ATOM      8  C   UNL     1      -4.559  -0.174   0.036  1.00  0.00     0.000 C 
BRANCH   8   9
ATOM      9  C   UNL     1      -3.813   0.287  -1.230  1.00  0.00     0.000 C 
BRANCH   9  10
ATOM     10  C   UNL     1      -3.408  -0.883  -2.140  1.00  0.00     0.000 C 
BRANCH  10  11
ATOM     11  C   UNL     1      -4.441  -2.023  -2.134  1.00  0.00     0.000 C 
BRANCH  11  12
ATOM     12  C   UNL     1      -3.753  -3.391  -2.003  1.00  0.00     0.006 C 
BRANCH  12  13
ATOM     13  C   UNL     1      -3.432  -3.744  -0.544  1.00  0.00     0.053 C 
BRANCH  13  14
ATOM     14  C   UNL     1      -4.529  -4.545   0.092  1.00  0.00     0.041 C 
ATOM     15  O   UNL     1      -5.105  -4.118   1.126  1.00  0.00    -0.550 OA
ATOM     16  O   UNL     1      -4.887  -5.780  -0.436  1.00  0.00    -0.550 OA
ENDBRANCH  13  14
ENDBRANCH  12  13
ENDBRANCH  11  12
ENDBRANCH  10  11
ENDBRANCH   9  10
ENDBRANCH   8   9
ENDBRANCH   7   8
ENDBRANCH   6   7
ENDBRANCH   5   6
ENDBRANCH   4   5
ENDBRANCH   3   4
ENDBRANCH   2   3
ENDBRANCH   1   2
BRANCH   1  17
ATOM     17  C   UNL     1      -3.997   4.848  -3.825  1.00  0.00     0.000 C 
BRANCH  17  18
ATOM     18  C   UNL     1      -5.190   5.791  -3.585  1.00  0.00     0.000 C 
BRANCH  18  19
ATOM     19  C   UNL     1      -5.651   6.593  -4.820  1.00  0.00     0.000 C 
BRANCH  19  20
ATOM     20  C   UNL     1      -6.716   5.898  -5.691  1.00  0.00     0.000 C 
BRANCH  20  21
ATOM     21  C   UNL     1      -6.797   6.411  -7.141  1.00  0.00     0.000 C 
BRANCH  21  22
ATOM     22  C   UNL     1      -8.064   7.225  -7.473  1.00  0.00    -0.000 C 
BRANCH  22  23
ATOM     23  C   UNL     1      -8.760   6.881  -8.808  1.00  0.00    -0.000 C 
BRANCH  23  24
ATOM     24  C   UNL     1      -9.885   7.842  -9.248  1.00  0.00    -0.000 C 
BRANCH  24  25
ATOM     25  C   UNL     1      -9.660   9.316  -8.866  1.00  0.00    -0.000 C 
BRANCH  25  26
ATOM     26  C   UNL     1      -8.898  10.115  -9.933  1.00  0.00    -0.000 C 
BRANCH  26  27
ATOM     27  C   UNL     1      -7.381   9.905  -9.812  1.00  0.00    -0.000 C 
BRANCH  27  28
ATOM     28  C   UNL     1      -6.869  10.083  -8.374  1.00  0.00    -0.000 C 
BRANCH  28  29
ATOM     29  C   UNL     1      -5.336  10.092  -8.284  1.00  0.00    -0.003 C 
ATOM     30  C   UNL     1      -4.713   9.281  -9.416  1.00  0.00     0.004 C 
ENDBRANCH  28  29
ENDBRANCH  27  28
ENDBRANCH  26  27
ENDBRANCH  25  26
ENDBRANCH  24  25
ENDBRANCH  23  24
ENDBRANCH  22  23
ENDBRANCH  21  22
ENDBRANCH  20  21
ENDBRANCH  19  20
ENDBRANCH  18  19
ENDBRANCH  17  18
ENDBRANCH   1  17
TORSDOF 26
ENDMDL
MODEL 3
REMARK VINA RESULT:    -1.149      4.587     11.855
REMARK INTER + INTRA:          -4.995
REMARK INTER:                  -3.548
REMARK INTRA:                  -1.447
REMARK UNBOUND:                -2.100
REMARK SMILES CCCCCCCCCCCCCCCCCCCCCCCCCCCC(=O)[O-]
REMARK SMILES IDX 15 1 16 2 17 3 18 4 19 5 20 6 21 7 22 8 23 9 24 10 25 11
REMARK SMILES IDX 26 12 27 13 28 14 29 15 30 16 14 17 13 18 12 19 11 20 10 21
REMARK SMILES IDX 9 22 8 23 7 24 6 25 5 26 4 27 3 28 2 29 1 30
REMARK H PARENT
REMARK Flexibility Score: inf
ROOT
ATOM      1  C   UNL     1      -2.659   5.420  -0.180  1.00  0.00     0.000 C 
ENDROOT
BRANCH   1   2
ATOM      2  C   UNL     1      -3.502   5.575  -1.457  1.00  0.00     0.000 C 
BRANCH   2   3
ATOM      3  C   UNL     1      -3.078   4.597  -2.567  1.00  0.00     0.000 C 
BRANCH   3   4
ATOM      4  C   UNL     1      -3.896   4.770  -3.855  1.00  0.00     0.000 C 
BRANCH   4   5
ATOM      5  C   UNL     1      -4.915   5.918  -3.759  1.00  0.00     0.000 C 
BRANCH   5   6
ATOM      6  C   UNL     1      -6.213   5.623  -4.531  1.00  0.00     0.000 C 
BRANCH   6   7
ATOM      7  C   UNL     1      -6.325   6.309  -5.908  1.00  0.00     0.000 C 
BRANCH   7   8
ATOM      8  C   UNL     1      -7.642   6.000  -6.653  1.00  0.00     0.000 C 
BRANCH   8   9
ATOM      9  C   UNL     1      -7.591   6.433  -8.130  1.00  0.00     0.000 C 
BRANCH   9  10
ATOM     10  C   UNL     1      -8.950   6.924  -8.652  1.00  0.00     0.000 C 
BRANCH  10  11
ATOM     11  C   UNL     1      -8.811   8.013  -9.730  1.00  0.00     0.000 C 
BRANCH  11  12
ATOM     12  C   UNL     1      -8.268   9.319  -9.129  1.00  0.00     0.006 C 
BRANCH  12  13
ATOM     13  C   UNL     1      -6.828   9.609  -9.574  1.00  0.00     0.053 C 
BRANCH  13  14
ATOM     14  C   UNL     1      -5.892   9.718  -8.407  1.00  0.00     0.041 C 
ATOM     15  O   UNL     1      -4.650   9.778  -8.597  1.00  0.00    -0.550 OA
ATOM     16  O   UNL     1      -6.392   9.715  -7.110  1.00  0.00    -0.550 OA
ENDBRANCH  13  14
ENDBRANCH  12  13
ENDBRANCH  11  12
ENDBRANCH  10  11
ENDBRANCH   9  10
ENDBRANCH   8   9
ENDBRANCH   7   8
ENDBRANCH   6   7
ENDBRANCH   5   6
ENDBRANCH   4   5
ENDBRANCH   3   4
ENDBRANCH   2   3
ENDBRANCH   1   2
BRANCH   1  17
ATOM     17  C   UNL     1      -2.777   4.016   0.439  1.00  0.00     0.000 C 
BRANCH  17  18
ATOM     18  C   UNL     1      -4.176   3.736   1.019  1.00  0.00     0.000 C 
BRANCH  18  19
ATOM     19  C   UNL     1      -4.518   2.245   1.213  1.00  0.00     0.000 C 
BRANCH  19  20
ATOM     20  C   UNL     1      -3.488   1.256   0.631  1.00  0.00     0.000 C 
BRANCH  20  21
ATOM     21  C   UNL     1      -3.738   0.852  -0.834  1.00  0.00     0.000 C 
BRANCH  21  22
ATOM     22  C   UNL     1      -3.345  -0.597  -1.184  1.00  0.00    -0.000 C 
BRANCH  22  23
ATOM     23  C   UNL     1      -3.749  -1.087  -2.593  1.00  0.00    -0.000 C 
BRANCH  23  24
ATOM     24  C   UNL     1      -3.146  -2.438  -3.034  1.00  0.00    -0.000 C 
BRANCH  24  25
ATOM     25  C   UNL     1      -4.148  -3.605  -3.088  1.00  0.00    -0.000 C 
BRANCH  25  26
ATOM     26  C   UNL     1      -4.136  -4.482  -1.827  1.00  0.00    -0.000 C 
BRANCH  26  27
ATOM     27  C   UNL     1      -3.402  -3.786  -0.670  1.00  0.00    -0.000 C 
BRANCH  27  28
ATOM     28  C   UNL     1      -3.606  -4.497   0.677  1.00  0.00    -0.000 C 
BRANCH  28  29
ATOM     29  C   UNL     1      -5.081  -4.562   1.100  1.00  0.00    -0.003 C 
ATOM     30  C   UNL     1      -5.580  -3.198   1.570  1.00  0.00     0.004 C 
ENDBRANCH  28  29
ENDBRANCH  27  28
ENDBRANCH  26  27
ENDBRANCH  25  26
ENDBRANCH  24  25
ENDBRANCH  23  24
ENDBRANCH  22  23
ENDBRANCH  21  22
ENDBRANCH  20  21
ENDBRANCH  19  20
ENDBRANCH  18  19
ENDBRANCH  17  18
ENDBRANCH   1  17
TORSDOF 26
ENDMDL
MODEL 4
REMARK VINA RESULT:    -0.843      1.473      3.209
REMARK INTER + INTRA:          -4.225
REMARK INTER:                  -3.204
REMARK INTRA:                  -1.021
REMARK UNBOUND:                -2.100
REMARK SMILES CCCCCCCCCCCCCCCCCCCCCCCCCCCC(=O)[O-]
REMARK SMILES IDX 15 1 16 2 17 3 18 4 19 5 20 6 21 7 22 8 23 9 24 10 25 11
REMARK SMILES IDX 26 12 27 13 28 14 29 15 30 16 14 17 13 18 12 19 11 20 10 21
REMARK SMILES IDX 9 22 8 23 7 24 6 25 5 26 4 27 3 28 2 29 1 30
REMARK H PARENT
REMARK Flexibility Score: inf
ROOT
ATOM      1  C   UNL     1      -2.533   5.625  -0.018  1.00  0.00     0.000 C 
ENDROOT
BRANCH   1   2
ATOM      2  C   UNL     1      -2.976   4.527   0.964  1.00  0.00     0.000 C 
BRANCH   2   3
ATOM      3  C   UNL     1      -4.333   3.908   0.588  1.00  0.00     0.000 C 
BRANCH   3   4
ATOM      4  C   UNL     1      -4.877   2.966   1.671  1.00  0.00     0.000 C 
BRANCH   4   5
ATOM      5  C   UNL     1      -4.502   1.495   1.419  1.00  0.00     0.000 C 
BRANCH   5   6
ATOM      6  C   UNL     1      -4.201   1.206  -0.061  1.00  0.00     0.000 C 
BRANCH   6   7
ATOM      7  C   UNL     1      -2.774   0.698  -0.351  1.00  0.00     0.000 C 
BRANCH   7   8
ATOM      8  C   UNL     1      -2.730  -0.706  -0.992  1.00  0.00     0.000 C 
BRANCH   8   9
ATOM      9  C   UNL     1      -4.101  -1.140  -1.544  1.00  0.00     0.000 C 
BRANCH   9  10
ATOM     10  C   UNL     1      -4.009  -1.753  -2.949  1.00  0.00     0.000 C 
BRANCH  10  11
ATOM     11  C   UNL     1      -3.324  -3.131  -2.950  1.00  0.00     0.000 C 
BRANCH  11  12
ATOM     12  C   UNL     1      -4.103  -4.135  -2.086  1.00  0.00     0.006 C 
BRANCH  12  13
ATOM     13  C   UNL     1      -3.644  -4.120  -0.621  1.00  0.00     0.053 C 
BRANCH  13  14
ATOM     14  C   UNL     1      -4.672  -4.716   0.294  1.00  0.00     0.041 C 
ATOM     15  O   UNL     1      -5.159  -4.029   1.229  1.00  0.00    -0.550 OA
ATOM     16  O   UNL     1      -5.063  -6.040   0.135  1.00  0.00    -0.550 OA
ENDBRANCH  13  14
ENDBRANCH  12  13
ENDBRANCH  11  12
ENDBRANCH  10  11
ENDBRANCH   9  10
ENDBRANCH   8   9
ENDBRANCH   7   8
ENDBRANCH   6   7
ENDBRANCH   5   6
ENDBRANCH   4   5
ENDBRANCH   3   4
ENDBRANCH   2   3
ENDBRANCH   1   2
BRANCH   1  17
ATOM     17  C   UNL     1      -3.432   5.697  -1.265  1.00  0.00     0.000 C 
BRANCH  17  18
ATOM     18  C   UNL     1      -2.923   4.812  -2.418  1.00  0.00     0.000 C 
BRANCH  18  19
ATOM     19  C   UNL     1      -3.719   4.930  -3.734  1.00  0.00     0.000 C 
BRANCH  19  20
ATOM     20  C   UNL     1      -5.210   5.284  -3.568  1.00  0.00     0.000 C 
BRANCH  20  21
ATOM     21  C   UNL     1      -5.704   6.433  -4.467  1.00  0.00     0.000 C 
BRANCH  21  22
ATOM     22  C   UNL     1      -6.163   6.006  -5.875  1.00  0.00    -0.000 C 
BRANCH  22  23
ATOM     23  C   UNL     1      -7.378   6.767  -6.451  1.00  0.00    -0.000 C 
BRANCH  23  24
ATOM     24  C   UNL     1      -7.438   6.873  -7.991  1.00  0.00    -0.000 C 
BRANCH  24  25
ATOM     25  C   UNL     1      -6.340   7.749  -8.620  1.00  0.00    -0.000 C 
BRANCH  25  26
ATOM     26  C   UNL     1      -6.734   9.228  -8.745  1.00  0.00    -0.000 C 
BRANCH  26  27
ATOM     27  C   UNL     1      -7.786   9.616  -7.695  1.00  0.00    -0.000 C 
BRANCH  27  28
ATOM     28  C   UNL     1      -9.210   9.664  -8.269  1.00  0.00    -0.000 C 
BRANCH  28  29
ATOM     29  C   UNL     1      -9.251   9.427  -9.786  1.00  0.00    -0.003 C 
ATOM     30  C   UNL     1     -10.045   8.169 -10.125  1.00  0.00     0.004 C 
ENDBRANCH  28  29
ENDBRANCH  27  28
ENDBRANCH  26  27
ENDBRANCH  25  26
ENDBRANCH  24  25
ENDBRANCH  23  24
ENDBRANCH  22  23
ENDBRANCH  21  22
ENDBRANCH  20  21
ENDBRANCH  19  20
ENDBRANCH  18  19
ENDBRANCH  17  18
ENDBRANCH   1  17
TORSDOF 26
ENDMDL
MODEL 5
REMARK VINA RESULT:    -0.638      4.379     11.873
REMARK INTER + INTRA:          -3.707
REMARK INTER:                  -2.977
REMARK INTRA:                  -0.730
REMARK UNBOUND:                -2.100
REMARK SMILES CCCCCCCCCCCCCCCCCCCCCCCCCCCC(=O)[O-]
REMARK SMILES IDX 15 1 16 2 17 3 18 4 19 5 20 6 21 7 22 8 23 9 24 10 25 11
REMARK SMILES IDX 26 12 27 13 28 14 29 15 30 16 14 17 13 18 12 19 11 20 10 21
REMARK SMILES IDX 9 22 8 23 7 24 6 25 5 26 4 27 3 28 2 29 1 30
REMARK H PARENT
REMARK Flexibility Score: inf
ROOT
ATOM      1  C   UNL     1      -3.786   5.307  -1.593  1.00  0.00     0.000 C 
ENDROOT
BRANCH   1   2
ATOM      2  C   UNL     1      -2.974   4.883  -2.828  1.00  0.00     0.000 C 
BRANCH   2   3
ATOM      3  C   UNL     1      -3.790   4.967  -4.130  1.00  0.00     0.000 C 
BRANCH   3   4
ATOM      4  C   UNL     1      -5.201   5.532  -3.912  1.00  0.00     0.000 C 
BRANCH   4   5
ATOM      5  C   UNL     1      -5.706   6.344  -5.117  1.00  0.00     0.000 C 
BRANCH   5   6
ATOM      6  C   UNL     1      -6.826   5.624  -5.888  1.00  0.00     0.000 C 
BRANCH   6   7
ATOM      7  C   UNL     1      -7.903   6.549  -6.491  1.00  0.00     0.000 C 
BRANCH   7   8
ATOM      8  C   UNL     1      -7.962   6.515  -8.033  1.00  0.00     0.000 C 
BRANCH   8   9
ATOM      9  C   UNL     1      -8.173   7.914  -8.641  1.00  0.00     0.000 C 
BRANCH   9  10
ATOM     10  C   UNL     1      -7.681   9.042  -7.721  1.00  0.00     0.000 C 
BRANCH  10  11
ATOM     11  C   UNL     1      -6.192   9.369  -7.931  1.00  0.00     0.000 C 
BRANCH  11  12
ATOM     12  C   UNL     1      -5.974  10.125  -9.251  1.00  0.00     0.006 C 
BRANCH  12  13
ATOM     13  C   UNL     1      -4.530  10.004  -9.758  1.00  0.00     0.053 C 
BRANCH  13  14
ATOM     14  C   UNL     1      -4.057   8.582  -9.768  1.00  0.00     0.041 C 
ATOM     15  O   UNL     1      -2.881   8.309 -10.121  1.00  0.00    -0.550 OA
ATOM     16  O   UNL     1      -4.929   7.554  -9.424  1.00  0.00    -0.550 OA
ENDBRANCH  13  14
ENDBRANCH  12  13
ENDBRANCH  11  12
ENDBRANCH  10  11
ENDBRANCH   9  10
ENDBRANCH   8   9
ENDBRANCH   7   8
ENDBRANCH   6   7
ENDBRANCH   5   6
ENDBRANCH   4   5
ENDBRANCH   3   4
ENDBRANCH   2   3
ENDBRANCH   1   2
BRANCH   1  17
ATOM     17  C   UNL     1      -2.906   5.502  -0.346  1.00  0.00     0.000 C 
BRANCH  17  18
ATOM     18  C   UNL     1      -3.015   4.332   0.650  1.00  0.00     0.000 C 
BRANCH  18  19
ATOM     19  C   UNL     1      -2.858   2.928   0.031  1.00  0.00     0.000 C 
BRANCH  19  20
ATOM     20  C   UNL     1      -1.450   2.313   0.153  1.00  0.00     0.000 C 
BRANCH  20  21
ATOM     21  C   UNL     1      -1.409   0.775   0.068  1.00  0.00     0.000 C 
BRANCH  21  22
ATOM     22  C   UNL     1      -2.269   0.163  -1.056  1.00  0.00    -0.000 C 
BRANCH  22  23
ATOM     23  C   UNL     1      -3.783   0.058  -0.770  1.00  0.00    -0.000 C 
BRANCH  23  24
ATOM     24  C   UNL     1      -4.460  -1.261  -1.201  1.00  0.00    -0.000 C 
BRANCH  24  25
ATOM     25  C   UNL     1      -4.130  -1.716  -2.635  1.00  0.00    -0.000 C 
BRANCH  25  26
ATOM     26  C   UNL     1      -3.826  -3.217  -2.746  1.00  0.00    -0.000 C 
BRANCH  26  27
ATOM     27  C   UNL     1      -3.482  -3.821  -1.376  1.00  0.00    -0.000 C 
BRANCH  27  28
ATOM     28  C   UNL     1      -4.562  -4.786  -0.863  1.00  0.00    -0.000 C 
BRANCH  28  29
ATOM     29  C   UNL     1      -4.511  -4.983   0.660  1.00  0.00    -0.003 C 
ATOM     30  C   UNL     1      -5.290  -3.889   1.383  1.00  0.00     0.004 C 
ENDBRANCH  28  29
ENDBRANCH  27  28
ENDBRANCH  26  27
ENDBRANCH  25  26
ENDBRANCH  24  25
ENDBRANCH  23  24
ENDBRANCH  22  23
ENDBRANCH  21  22
ENDBRANCH  20  21
ENDBRANCH  19  20
ENDBRANCH  18  19
ENDBRANCH  17  18
ENDBRANCH   1  17
TORSDOF 26
ENDMDL
MODEL 6
REMARK VINA RESULT:    -0.456      1.473      3.218
REMARK INTER + INTRA:          -3.249
REMARK INTER:                  -1.421
REMARK INTRA:                  -1.828
REMARK UNBOUND:                -2.100
REMARK SMILES CCCCCCCCCCCCCCCCCCCCCCCCCCCC(=O)[O-]
REMARK SMILES IDX 15 1 16 2 17 3 18 4 19 5 20 6 21 7 22 8 23 9 24 10 25 11
REMARK SMILES IDX 26 12 27 13 28 14 29 15 30 16 14 17 13 18 12 19 11 20 10 21
REMARK SMILES IDX 9 22 8 23 7 24 6 25 5 26 4 27 3 28 2 29 1 30
REMARK H PARENT
REMARK Flexibility Score: inf
ROOT
ATOM      1  C   UNL     1      -5.254   6.245  -4.761  1.00  0.00     0.000 C 
ENDROOT
BRANCH   1   2
ATOM      2  C   UNL     1      -4.908   5.271  -3.623  1.00  0.00     0.000 C 
BRANCH   2   3
ATOM      3  C   UNL     1      -3.518   4.633  -3.793  1.00  0.00     0.000 C 
BRANCH   3   4
ATOM      4  C   UNL     1      -2.813   4.378  -2.453  1.00  0.00     0.000 C 
BRANCH   4   5
ATOM      5  C   UNL     1      -2.959   5.556  -1.474  1.00  0.00     0.000 C 
BRANCH   5   6
ATOM      6  C   UNL     1      -2.916   5.112  -0.002  1.00  0.00     0.000 C 
BRANCH   6   7
ATOM      7  C   UNL     1      -3.007   3.589   0.224  1.00  0.00     0.000 C 
BRANCH   7   8
ATOM      8  C   UNL     1      -4.201   3.159   1.104  1.00  0.00     0.000 C 
BRANCH   8   9
ATOM      9  C   UNL     1      -4.529   1.662   0.953  1.00  0.00     0.000 C 
BRANCH   9  10
ATOM     10  C   UNL     1      -3.598   0.947  -0.038  1.00  0.00     0.000 C 
BRANCH  10  11
ATOM     11  C   UNL     1      -4.216  -0.344  -0.603  1.00  0.00     0.000 C 
BRANCH  11  12
ATOM     12  C   UNL     1      -3.365  -0.904  -1.754  1.00  0.00     0.006 C 
BRANCH  12  13
ATOM     13  C   UNL     1      -4.169  -1.839  -2.669  1.00  0.00     0.053 C 
BRANCH  13  14
ATOM     14  C   UNL     1      -3.857  -3.282  -2.409  1.00  0.00     0.041 C 
ATOM     15  O   UNL     1      -3.816  -4.102  -3.363  1.00  0.00    -0.550 OA
ATOM     16  O   UNL     1      -3.649  -3.727  -1.108  1.00  0.00    -0.550 OA
ENDBRANCH  13  14
ENDBRANCH  12  13
ENDBRANCH  11  12
ENDBRANCH  10  11
ENDBRANCH   9  10
ENDBRANCH   8   9
ENDBRANCH   7   8
ENDBRANCH   6   7
ENDBRANCH   5   6
ENDBRANCH   4   5
ENDBRANCH   3   4
ENDBRANCH   2   3
ENDBRANCH   1   2
BRANCH   1  17
ATOM     17  C   UNL     1      -6.769   6.353  -5.005  1.00  0.00     0.000 C 
BRANCH  17  18
ATOM     18  C   UNL     1      -7.167   7.662  -5.714  1.00  0.00     0.000 C 
BRANCH  18  19
ATOM     19  C   UNL     1      -5.996   8.462  -6.318  1.00  0.00     0.000 C 
BRANCH  19  20
ATOM     20  C   UNL     1      -6.404   9.705  -7.134  1.00  0.00     0.000 C 
BRANCH  20  21
ATOM     21  C   UNL     1      -5.826   9.757  -8.561  1.00  0.00     0.000 C 
BRANCH  21  22
ATOM     22  C   UNL     1      -6.873   9.934  -9.680  1.00  0.00    -0.000 C 
BRANCH  22  23
ATOM     23  C   UNL     1      -8.351   9.940  -9.230  1.00  0.00    -0.000 C 
BRANCH  23  24
ATOM     24  C   UNL     1      -9.326   9.129 -10.110  1.00  0.00    -0.000 C 
BRANCH  24  25
ATOM     25  C   UNL     1      -9.438   7.639  -9.742  1.00  0.00    -0.000 C 
BRANCH  25  26
ATOM     26  C   UNL     1      -8.794   7.291  -8.392  1.00  0.00    -0.000 C 
BRANCH  26  27
ATOM     27  C   UNL     1      -7.916   6.035  -8.500  1.00  0.00    -0.000 C 
BRANCH  27  28
ATOM     28  C   UNL     1      -6.420   6.364  -8.629  1.00  0.00    -0.000 C 
BRANCH  28  29
ATOM     29  C   UNL     1      -5.514   5.202  -8.195  1.00  0.00    -0.003 C 
ATOM     30  C   UNL     1      -4.205   5.203  -8.978  1.00  0.00     0.004 C 
ENDBRANCH  28  29
ENDBRANCH  27  28
ENDBRANCH  26  27
ENDBRANCH  25  26
ENDBRANCH  24  25
ENDBRANCH  23  24
ENDBRANCH  22  23
ENDBRANCH  21  22
ENDBRANCH  20  21
ENDBRANCH  19  20
ENDBRANCH  18  19
ENDBRANCH  17  18
ENDBRANCH   1  17
TORSDOF 26
ENDMDL
MODEL 7
REMARK VINA RESULT:    -0.026      4.596     11.541
REMARK INTER + INTRA:          -2.167
REMARK INTER:                  -2.472
REMARK INTRA:                   0.305
REMARK UNBOUND:                -2.100
REMARK SMILES CCCCCCCCCCCCCCCCCCCCCCCCCCCC(=O)[O-]
REMARK SMILES IDX 15 1 16 2 17 3 18 4 19 5 20 6 21 7 22 8 23 9 24 10 25 11
REMARK SMILES IDX 26 12 27 13 28 14 29 15 30 16 14 17 13 18 12 19 11 20 10 21
REMARK SMILES IDX 9 22 8 23 7 24 6 25 5 26 4 27 3 28 2 29 1 30
REMARK H PARENT
REMARK Flexibility Score: inf
ROOT
ATOM      1  C   UNL     1      -4.124   4.144   0.799  1.00  0.00     0.000 C 
ENDROOT
BRANCH   1   2
ATOM      2  C   UNL     1      -2.925   4.618  -0.039  1.00  0.00     0.000 C 
BRANCH   2   3
ATOM      3  C   UNL     1      -3.353   5.333  -1.333  1.00  0.00     0.000 C 
BRANCH   3   4
ATOM      4  C   UNL     1      -2.947   4.563  -2.598  1.00  0.00     0.000 C 
BRANCH   4   5
ATOM      5  C   UNL     1      -3.826   4.915  -3.811  1.00  0.00     0.000 C 
BRANCH   5   6
ATOM      6  C   UNL     1      -5.138   5.611  -3.410  1.00  0.00     0.000 C 
BRANCH   6   7
ATOM      7  C   UNL     1      -5.718   6.570  -4.469  1.00  0.00     0.000 C 
BRANCH   7   8
ATOM      8  C   UNL     1      -6.041   5.890  -5.817  1.00  0.00     0.000 C 
BRANCH   8   9
ATOM      9  C   UNL     1      -7.469   6.202  -6.302  1.00  0.00     0.000 C 
BRANCH   9  10
ATOM     10  C   UNL     1      -7.628   6.050  -7.822  1.00  0.00     0.000 C 
BRANCH  10  11
ATOM     11  C   UNL     1      -8.670   7.018  -8.408  1.00  0.00     0.000 C 
BRANCH  11  12
ATOM     12  C   UNL     1      -7.998   8.097  -9.272  1.00  0.00     0.006 C 
BRANCH  12  13
ATOM     13  C   UNL     1      -7.765   9.401  -8.497  1.00  0.00     0.053 C 
BRANCH  13  14
ATOM     14  C   UNL     1      -6.340   9.541  -8.052  1.00  0.00     0.041 C 
ATOM     15  O   UNL     1      -6.077   9.839  -6.858  1.00  0.00    -0.550 OA
ATOM     16  O   UNL     1      -5.304   9.378  -8.965  1.00  0.00    -0.550 OA
ENDBRANCH  13  14
ENDBRANCH  12  13
ENDBRANCH  11  12
ENDBRANCH  10  11
ENDBRANCH   9  10
ENDBRANCH   8   9
ENDBRANCH   7   8
ENDBRANCH   6   7
ENDBRANCH   5   6
ENDBRANCH   4   5
ENDBRANCH   3   4
ENDBRANCH   2   3
ENDBRANCH   1   2
BRANCH   1  17
ATOM     17  C   UNL     1      -4.103   2.627   1.056  1.00  0.00     0.000 C 
BRANCH  17  18
ATOM     18  C   UNL     1      -3.341   1.849  -0.032  1.00  0.00     0.000 C 
BRANCH  18  19
ATOM     19  C   UNL     1      -1.804   1.874   0.098  1.00  0.00     0.000 C 
BRANCH  19  20
ATOM     20  C   UNL     1      -1.084   0.607  -0.404  1.00  0.00     0.000 C 
BRANCH  20  21
ATOM     21  C   UNL     1      -2.014  -0.576  -0.731  1.00  0.00     0.000 C 
BRANCH  21  22
ATOM     22  C   UNL     1      -3.480  -0.191  -1.016  1.00  0.00    -0.000 C 
BRANCH  22  23
ATOM     23  C   UNL     1      -4.212  -1.049  -2.072  1.00  0.00    -0.000 C 
BRANCH  23  24
ATOM     24  C   UNL     1      -3.366  -1.491  -3.285  1.00  0.00    -0.000 C 
BRANCH  24  25
ATOM     25  C   UNL     1      -3.103  -3.005  -3.370  1.00  0.00    -0.000 C 
BRANCH  25  26
ATOM     26  C   UNL     1      -4.187  -3.854  -2.689  1.00  0.00    -0.000 C 
BRANCH  26  27
ATOM     27  C   UNL     1      -3.657  -4.511  -1.406  1.00  0.00    -0.000 C 
BRANCH  27  28
ATOM     28  C   UNL     1      -4.035  -3.730  -0.138  1.00  0.00    -0.000 C 
BRANCH  28  29
ATOM     29  C   UNL     1      -4.757  -4.597   0.904  1.00  0.00    -0.003 C 
ATOM     30  C   UNL     1      -5.056  -5.987   0.351  1.00  0.00     0.004 C 
ENDBRANCH  28  29
ENDBRANCH  27  28
ENDBRANCH  26  27
ENDBRANCH  25  26
ENDBRANCH  24  25
ENDBRANCH  23  24
ENDBRANCH  22  23
ENDBRANCH  21  22
ENDBRANCH  20  21
ENDBRANCH  19  20
ENDBRANCH  18  19
ENDBRANCH  17  18
ENDBRANCH   1  17
TORSDOF 26
ENDMDL
