MODEL 1
REMARK VINA RESULT:    -5.634      0.000      0.000
REMARK INTER + INTRA:          -7.056
REMARK INTER:                  -6.787
REMARK INTRA:                  -0.269
REMARK UNBOUND:                -0.269
REMARK SMILES O=c1c(O)c(-c2ccc(O)c(O)c2)oc2cc(O)cc(O)c12
REMARK SMILES IDX 5 1 3 2 2 3 1 4 22 5 20 6 19 7 17 8 16 9 15 10 14 11 6 12
REMARK SMILES IDX 7 13 8 14 9 15 13 16 11 17 10 18 12 20 4 22 21 24 18 26
REMARK H PARENT 10 19 12 21 4 23 21 25 18 27
REMARK Flexibility Score: inf
ROOT
ATOM      1  C   UNL     1      28.238  48.030  62.854  1.00  0.00     0.180 A 
ATOM      2  C   UNL     1      28.411  48.684  64.086  1.00  0.00     0.208 A 
ATOM      3  C   UNL     1      27.987  48.045  65.262  1.00  0.00     0.238 A 
ATOM      4  O   UNL     1      28.194  48.612  66.367  1.00  0.00    -0.285 OA
ATOM      5  C   UNL     1      27.381  46.767  65.191  1.00  0.00     0.111 A 
ATOM      6  C   UNL     1      26.878  46.045  66.314  1.00  0.00     0.134 A 
ATOM      7  C   UNL     1      26.418  44.734  66.142  1.00  0.00     0.093 A 
ATOM      8  C   UNL     1      26.381  44.142  64.880  1.00  0.00     0.123 A 
ATOM      9  C   UNL     1      26.815  44.862  63.766  1.00  0.00     0.094 A 
ATOM     10  C   UNL     1      27.314  46.159  63.910  1.00  0.00     0.146 A 
ATOM     11  O   UNL     1      27.727  46.805  62.827  1.00  0.00    -0.452 OA
ENDROOT
BRANCH   1  12
ATOM     12  C   UNL     1      28.637  48.650  61.570  1.00  0.00     0.025 A 
ATOM     13  C   UNL     1      29.744  48.144  60.873  1.00  0.00     0.016 A 
ATOM     14  C   UNL     1      30.125  48.700  59.649  1.00  0.00     0.051 A 
ATOM     15  C   UNL     1      29.398  49.759  59.097  1.00  0.00     0.157 A 
ATOM     16  C   UNL     1      27.893  49.701  61.003  1.00  0.00     0.062 A 
ATOM     17  C   UNL     1      28.273  50.260  59.774  1.00  0.00     0.158 A 
BRANCH  15  18
ATOM     18  O   UNL     1      29.803  50.295  57.875  1.00  0.00    -0.504 OA
ATOM     19  H   UNL     1      29.468  51.192  57.543  1.00  0.00     0.293 HD
ENDBRANCH  15  18
BRANCH  17  20
ATOM     20  O   UNL     1      27.535  51.305  59.222  1.00  0.00    -0.504 OA
ATOM     21  H   UNL     1      27.173  51.258  58.276  1.00  0.00     0.293 HD
ENDBRANCH  17  20
ENDBRANCH   1  12
BRANCH   2  22
ATOM     22  O   UNL     1      29.032  49.935  64.137  1.00  0.00    -0.502 OA
ATOM     23  H   UNL     1      28.973  50.603  63.378  1.00  0.00     0.293 HD
ENDBRANCH   2  22
BRANCH   6  24
ATOM     24  O   UNL     1      26.785  46.575  67.604  1.00  0.00    -0.507 OA
ATOM     25  H   UNL     1      27.271  46.214  68.411  1.00  0.00     0.293 HD
ENDBRANCH   6  24
BRANCH   8  26
ATOM     26  O   UNL     1      25.902  42.842  64.743  1.00  0.00    -0.508 OA
ATOM     27  H   UNL     1      26.398  42.148  64.195  1.00  0.00     0.293 HD
ENDBRANCH   8  26
TORSDOF 6
ENDMDL
MODEL 2
REMARK VINA RESULT:    -5.572      1.672      6.999
REMARK INTER + INTRA:          -6.981
REMARK INTER:                  -6.658
REMARK INTRA:                  -0.323
REMARK UNBOUND:                -0.269
REMARK SMILES O=c1c(O)c(-c2ccc(O)c(O)c2)oc2cc(O)cc(O)c12
REMARK SMILES IDX 5 1 3 2 2 3 1 4 22 5 20 6 19 7 17 8 16 9 15 10 14 11 6 12
REMARK SMILES IDX 7 13 8 14 9 15 13 16 11 17 10 18 12 20 4 22 21 24 18 26
REMARK H PARENT 10 19 12 21 4 23 21 25 18 27
REMARK Flexibility Score: inf
ROOT
ATOM      1  C   UNL     1      27.436  47.515  63.136  1.00  0.00     0.180 A 
ATOM      2  C   UNL     1      28.720  47.599  62.571  1.00  0.00     0.208 A 
ATOM      3  C   UNL     1      28.959  48.547  61.563  1.00  0.00     0.238 A 
ATOM      4  O   UNL     1      30.125  48.654  61.099  1.00  0.00    -0.285 OA
ATOM      5  C   UNL     1      27.909  49.387  61.122  1.00  0.00     0.111 A 
ATOM      6  C   UNL     1      28.028  50.355  60.080  1.00  0.00     0.134 A 
ATOM      7  C   UNL     1      26.960  51.221  59.816  1.00  0.00     0.093 A 
ATOM      8  C   UNL     1      25.756  51.112  60.510  1.00  0.00     0.123 A 
ATOM      9  C   UNL     1      25.608  50.130  61.490  1.00  0.00     0.094 A 
ATOM     10  C   UNL     1      26.668  49.274  61.801  1.00  0.00     0.146 A 
ATOM     11  O   UNL     1      26.489  48.361  62.747  1.00  0.00    -0.452 OA
ENDROOT
BRANCH   1  12
ATOM     12  C   UNL     1      27.099  46.524  64.185  1.00  0.00     0.025 A 
ATOM     13  C   UNL     1      27.070  46.925  65.529  1.00  0.00     0.016 A 
ATOM     14  C   UNL     1      26.735  46.012  66.533  1.00  0.00     0.051 A 
ATOM     15  C   UNL     1      26.411  44.692  66.208  1.00  0.00     0.157 A 
ATOM     16  C   UNL     1      26.753  45.201  63.858  1.00  0.00     0.062 A 
ATOM     17  C   UNL     1      26.415  44.283  64.863  1.00  0.00     0.158 A 
BRANCH  15  18
ATOM     18  O   UNL     1      26.083  43.803  67.231  1.00  0.00    -0.504 OA
ATOM     19  H   UNL     1      25.403  44.032  67.946  1.00  0.00     0.293 HD
ENDBRANCH  15  18
BRANCH  17  20
ATOM     20  O   UNL     1      26.079  42.973  64.532  1.00  0.00    -0.504 OA
ATOM     21  H   UNL     1      26.635  42.430  63.880  1.00  0.00     0.293 HD
ENDBRANCH  17  20
ENDBRANCH   1  12
BRANCH   2  22
ATOM     22  O   UNL     1      29.748  46.775  63.036  1.00  0.00    -0.502 OA
ATOM     23  H   UNL     1      30.278  46.985  63.873  1.00  0.00     0.293 HD
ENDBRANCH   2  22
BRANCH   6  24
ATOM     24  O   UNL     1      29.156  50.487  59.263  1.00  0.00    -0.507 OA
ATOM     25  H   UNL     1      29.160  50.355  58.263  1.00  0.00     0.293 HD
ENDBRANCH   6  24
BRANCH   8  26
ATOM     26  O   UNL     1      24.709  51.980  60.210  1.00  0.00    -0.508 OA
ATOM     27  H   UNL     1      24.879  52.921  59.873  1.00  0.00     0.293 HD
ENDBRANCH   8  26
TORSDOF 6
ENDMDL
MODEL 3
REMARK VINA RESULT:    -5.550      1.537      7.047
REMARK INTER + INTRA:          -6.955
REMARK INTER:                  -6.697
REMARK INTRA:                  -0.258
REMARK UNBOUND:                -0.269
REMARK SMILES O=c1c(O)c(-c2ccc(O)c(O)c2)oc2cc(O)cc(O)c12
REMARK SMILES IDX 5 1 3 2 2 3 1 4 22 5 20 6 19 7 17 8 16 9 15 10 14 11 6 12
REMARK SMILES IDX 7 13 8 14 9 15 13 16 11 17 10 18 12 20 4 22 21 24 18 26
REMARK H PARENT 10 19 12 21 4 23 21 25 18 27
REMARK Flexibility Score: inf
ROOT
ATOM      1  C   UNL     1      27.576  47.800  62.728  1.00  0.00     0.180 A 
ATOM      2  C   UNL     1      28.784  47.653  62.025  1.00  0.00     0.208 A 
ATOM      3  C   UNL     1      29.019  48.458  60.898  1.00  0.00     0.238 A 
ATOM      4  O   UNL     1      30.125  48.360  60.305  1.00  0.00    -0.285 OA
ATOM      5  C   UNL     1      28.036  49.388  60.480  1.00  0.00     0.111 A 
ATOM      6  C   UNL     1      28.151  50.226  59.330  1.00  0.00     0.134 A 
ATOM      7  C   UNL     1      27.176  51.200  59.086  1.00  0.00     0.093 A 
ATOM      8  C   UNL     1      26.059  51.324  59.910  1.00  0.00     0.123 A 
ATOM      9  C   UNL     1      25.907  50.470  61.003  1.00  0.00     0.094 A 
ATOM     10  C   UNL     1      26.881  49.512  61.294  1.00  0.00     0.146 A 
ATOM     11  O   UNL     1      26.703  48.726  62.349  1.00  0.00    -0.452 OA
ENDROOT
BRANCH   1  12
ATOM     12  C   UNL     1      27.246  46.970  63.909  1.00  0.00     0.025 A 
ATOM     13  C   UNL     1      26.894  45.624  63.730  1.00  0.00     0.016 A 
ATOM     14  C   UNL     1      26.598  44.817  64.833  1.00  0.00     0.051 A 
ATOM     15  C   UNL     1      26.664  45.338  66.128  1.00  0.00     0.157 A 
ATOM     16  C   UNL     1      27.331  47.487  65.214  1.00  0.00     0.062 A 
ATOM     17  C   UNL     1      27.036  46.680  66.322  1.00  0.00     0.158 A 
BRANCH  15  18
ATOM     18  O   UNL     1      26.361  44.511  67.209  1.00  0.00    -0.504 OA
ATOM     19  H   UNL     1      26.982  44.412  68.002  1.00  0.00     0.293 HD
ENDBRANCH  15  18
BRANCH  17  20
ATOM     20  O   UNL     1      27.117  47.201  67.611  1.00  0.00    -0.504 OA
ATOM     21  H   UNL     1      26.293  47.526  68.106  1.00  0.00     0.293 HD
ENDBRANCH  17  20
ENDBRANCH   1  12
BRANCH   2  22
ATOM     22  O   UNL     1      29.750  46.744  62.467  1.00  0.00    -0.502 OA
ATOM     23  H   UNL     1      30.000  45.917  61.941  1.00  0.00     0.293 HD
ENDBRANCH   2  22
BRANCH   6  24
ATOM     24  O   UNL     1      29.181  50.123  58.390  1.00  0.00    -0.507 OA
ATOM     25  H   UNL     1      29.943  49.464  58.441  1.00  0.00     0.293 HD
ENDBRANCH   6  24
BRANCH   8  26
ATOM     26  O   UNL     1      25.100  52.295  59.628  1.00  0.00    -0.508 OA
ATOM     27  H   UNL     1      24.343  52.495  60.271  1.00  0.00     0.293 HD
ENDBRANCH   8  26
TORSDOF 6
ENDMDL
MODEL 4
REMARK VINA RESULT:    -5.525      2.945      4.622
REMARK INTER + INTRA:          -6.925
REMARK INTER:                  -6.623
REMARK INTRA:                  -0.303
REMARK UNBOUND:                -0.269
REMARK SMILES O=c1c(O)c(-c2ccc(O)c(O)c2)oc2cc(O)cc(O)c12
REMARK SMILES IDX 5 1 3 2 2 3 1 4 22 5 20 6 19 7 17 8 16 9 15 10 14 11 6 12
REMARK SMILES IDX 7 13 8 14 9 15 13 16 11 17 10 18 12 20 4 22 21 24 18 26
REMARK H PARENT 10 19 12 21 4 23 21 25 18 27
REMARK Flexibility Score: inf
ROOT
ATOM      1  C   UNL     1      26.368  49.646  61.130  1.00  0.00     0.180 A 
ATOM      2  C   UNL     1      27.541  49.126  60.557  1.00  0.00     0.208 A 
ATOM      3  C   UNL     1      28.380  48.315  61.338  1.00  0.00     0.238 A 
ATOM      4  O   UNL     1      29.401  47.808  60.803  1.00  0.00    -0.285 OA
ATOM      5  C   UNL     1      28.044  48.048  62.688  1.00  0.00     0.111 A 
ATOM      6  C   UNL     1      28.841  47.273  63.583  1.00  0.00     0.134 A 
ATOM      7  C   UNL     1      28.347  46.965  64.856  1.00  0.00     0.093 A 
ATOM      8  C   UNL     1      27.116  47.456  65.291  1.00  0.00     0.123 A 
ATOM      9  C   UNL     1      26.356  48.265  64.444  1.00  0.00     0.094 A 
ATOM     10  C   UNL     1      26.806  48.560  63.154  1.00  0.00     0.146 A 
ATOM     11  O   UNL     1      26.047  49.324  62.377  1.00  0.00    -0.452 OA
ENDROOT
BRANCH   1  12
ATOM     12  C   UNL     1      25.447  50.529  60.378  1.00  0.00     0.025 A 
ATOM     13  C   UNL     1      25.570  51.920  60.502  1.00  0.00     0.016 A 
ATOM     14  C   UNL     1      24.725  52.773  59.786  1.00  0.00     0.051 A 
ATOM     15  C   UNL     1      23.757  52.248  58.925  1.00  0.00     0.157 A 
ATOM     16  C   UNL     1      24.487  50.002  59.495  1.00  0.00     0.062 A 
ATOM     17  C   UNL     1      23.638  50.855  58.774  1.00  0.00     0.158 A 
BRANCH  15  18
ATOM     18  O   UNL     1      22.926  53.122  58.225  1.00  0.00    -0.504 OA
ATOM     19  H   UNL     1      22.995  53.243  57.222  1.00  0.00     0.293 HD
ENDBRANCH  15  18
BRANCH  17  20
ATOM     20  O   UNL     1      22.685  50.327  57.907  1.00  0.00    -0.504 OA
ATOM     21  H   UNL     1      21.693  50.376  58.113  1.00  0.00     0.293 HD
ENDBRANCH  17  20
ENDBRANCH   1  12
BRANCH   2  22
ATOM     22  O   UNL     1      27.843  49.384  59.217  1.00  0.00    -0.502 OA
ATOM     23  H   UNL     1      28.724  49.790  58.926  1.00  0.00     0.293 HD
ENDBRANCH   2  22
BRANCH   6  24
ATOM     24  O   UNL     1      30.125  46.809  63.282  1.00  0.00    -0.507 OA
ATOM     25  H   UNL     1      30.964  47.082  63.771  1.00  0.00     0.293 HD
ENDBRANCH   6  24
BRANCH   8  26
ATOM     26  O   UNL     1      26.663  47.143  66.570  1.00  0.00    -0.508 OA
ATOM     27  H   UNL     1      26.505  47.861  67.267  1.00  0.00     0.293 HD
ENDBRANCH   8  26
TORSDOF 6
ENDMDL
MODEL 5
REMARK VINA RESULT:    -5.182      2.400      3.912
REMARK INTER + INTRA:          -6.511
REMARK INTER:                  -6.192
REMARK INTRA:                  -0.319
REMARK UNBOUND:                -0.269
REMARK SMILES O=c1c(O)c(-c2ccc(O)c(O)c2)oc2cc(O)cc(O)c12
REMARK SMILES IDX 5 1 3 2 2 3 1 4 22 5 20 6 19 7 17 8 16 9 15 10 14 11 6 12
REMARK SMILES IDX 7 13 8 14 9 15 13 16 11 17 10 18 12 20 4 22 21 24 18 26
REMARK H PARENT 10 19 12 21 4 23 21 25 18 27
REMARK Flexibility Score: inf
ROOT
ATOM      1  C   UNL     1      26.153  48.875  61.923  1.00  0.00     0.180 A 
ATOM      2  C   UNL     1      25.639  47.595  61.653  1.00  0.00     0.208 A 
ATOM      3  C   UNL     1      25.839  46.569  62.590  1.00  0.00     0.238 A 
ATOM      4  O   UNL     1      25.330  45.439  62.368  1.00  0.00    -0.285 OA
ATOM      5  C   UNL     1      26.564  46.831  63.778  1.00  0.00     0.111 A 
ATOM      6  C   UNL     1      26.861  45.857  64.778  1.00  0.00     0.134 A 
ATOM      7  C   UNL     1      27.471  46.258  65.972  1.00  0.00     0.093 A 
ATOM      8  C   UNL     1      27.855  47.582  66.177  1.00  0.00     0.123 A 
ATOM      9  C   UNL     1      27.623  48.532  65.180  1.00  0.00     0.094 A 
ATOM     10  C   UNL     1      26.983  48.170  63.992  1.00  0.00     0.146 A 
ATOM     11  O   UNL     1      26.772  49.106  63.075  1.00  0.00    -0.452 OA
ENDROOT
BRANCH   1  12
ATOM     12  C   UNL     1      26.005  50.001  60.972  1.00  0.00     0.025 A 
ATOM     13  C   UNL     1      26.929  50.147  59.926  1.00  0.00     0.016 A 
ATOM     14  C   UNL     1      26.796  51.190  59.005  1.00  0.00     0.051 A 
ATOM     15  C   UNL     1      25.733  52.092  59.107  1.00  0.00     0.157 A 
ATOM     16  C   UNL     1      24.924  50.896  61.061  1.00  0.00     0.062 A 
ATOM     17  C   UNL     1      24.789  51.943  60.137  1.00  0.00     0.158 A 
BRANCH  15  18
ATOM     18  O   UNL     1      25.628  53.125  58.176  1.00  0.00    -0.504 OA
ATOM     19  H   UNL     1      25.532  52.947  57.183  1.00  0.00     0.293 HD
ENDBRANCH  15  18
BRANCH  17  20
ATOM     20  O   UNL     1      23.719  52.830  60.235  1.00  0.00    -0.504 OA
ATOM     21  H   UNL     1      23.864  53.828  60.347  1.00  0.00     0.293 HD
ENDBRANCH  17  20
ENDBRANCH   1  12
BRANCH   2  22
ATOM     22  O   UNL     1      24.908  47.363  60.485  1.00  0.00    -0.502 OA
ATOM     23  H   UNL     1      25.119  46.601  59.853  1.00  0.00     0.293 HD
ENDBRANCH   2  22
BRANCH   6  24
ATOM     24  O   UNL     1      26.603  44.490  64.636  1.00  0.00    -0.507 OA
ATOM     25  H   UNL     1      26.336  44.042  63.773  1.00  0.00     0.293 HD
ENDBRANCH   6  24
BRANCH   8  26
ATOM     26  O   UNL     1      28.474  47.942  67.371  1.00  0.00    -0.508 OA
ATOM     27  H   UNL     1      28.414  47.358  68.197  1.00  0.00     0.293 HD
ENDBRANCH   8  26
TORSDOF 6
ENDMDL
MODEL 6
REMARK VINA RESULT:    -5.171      2.556      4.212
REMARK INTER + INTRA:          -6.498
REMARK INTER:                  -6.174
REMARK INTRA:                  -0.324
REMARK UNBOUND:                -0.269
REMARK SMILES O=c1c(O)c(-c2ccc(O)c(O)c2)oc2cc(O)cc(O)c12
REMARK SMILES IDX 5 1 3 2 2 3 1 4 22 5 20 6 19 7 17 8 16 9 15 10 14 11 6 12
REMARK SMILES IDX 7 13 8 14 9 15 13 16 11 17 10 18 12 20 4 22 21 24 18 26
REMARK H PARENT 10 19 12 21 4 23 21 25 18 27
REMARK Flexibility Score: inf
ROOT
ATOM      1  C   UNL     1      25.747  48.751  61.885  1.00  0.00     0.180 A 
ATOM      2  C   UNL     1      25.325  47.436  61.626  1.00  0.00     0.208 A 
ATOM      3  C   UNL     1      25.665  46.420  62.534  1.00  0.00     0.238 A 
ATOM      4  O   UNL     1      25.238  45.254  62.325  1.00  0.00    -0.285 OA
ATOM      5  C   UNL     1      26.436  46.729  63.681  1.00  0.00     0.111 A 
ATOM      6  C   UNL     1      26.871  45.773  64.647  1.00  0.00     0.134 A 
ATOM      7  C   UNL     1      27.517  46.210  65.809  1.00  0.00     0.093 A 
ATOM      8  C   UNL     1      27.801  47.560  66.012  1.00  0.00     0.123 A 
ATOM      9  C   UNL     1      27.432  48.497  65.045  1.00  0.00     0.094 A 
ATOM     10  C   UNL     1      26.754  48.096  63.892  1.00  0.00     0.146 A 
ATOM     11  O   UNL     1      26.412  49.020  63.003  1.00  0.00    -0.452 OA
ENDROOT
BRANCH   1  12
ATOM     12  C   UNL     1      25.450  49.871  60.963  1.00  0.00     0.025 A 
ATOM     13  C   UNL     1      24.377  50.730  61.243  1.00  0.00     0.016 A 
ATOM     14  C   UNL     1      24.091  51.805  60.397  1.00  0.00     0.051 A 
ATOM     15  C   UNL     1      24.881  52.046  59.269  1.00  0.00     0.157 A 
ATOM     16  C   UNL     1      26.256  50.127  59.839  1.00  0.00     0.062 A 
ATOM     17  C   UNL     1      25.973  51.206  58.989  1.00  0.00     0.158 A 
BRANCH  15  18
ATOM     18  O   UNL     1      24.570  53.125  58.442  1.00  0.00    -0.504 OA
ATOM     19  H   UNL     1      24.078  53.941  58.783  1.00  0.00     0.293 HD
ENDBRANCH  15  18
BRANCH  17  20
ATOM     20  O   UNL     1      26.772  51.450  57.875  1.00  0.00    -0.504 OA
ATOM     21  H   UNL     1      27.595  52.040  57.930  1.00  0.00     0.293 HD
ENDBRANCH  17  20
ENDBRANCH   1  12
BRANCH   2  22
ATOM     22  O   UNL     1      24.547  47.156  60.500  1.00  0.00    -0.502 OA
ATOM     23  H   UNL     1      24.684  47.625  59.613  1.00  0.00     0.293 HD
ENDBRANCH   2  22
BRANCH   6  24
ATOM     24  O   UNL     1      26.719  44.390  64.499  1.00  0.00    -0.507 OA
ATOM     25  H   UNL     1      26.551  43.747  65.257  1.00  0.00     0.293 HD
ENDBRANCH   6  24
BRANCH   8  26
ATOM     26  O   UNL     1      28.459  47.958  67.173  1.00  0.00    -0.508 OA
ATOM     27  H   UNL     1      28.544  47.341  67.973  1.00  0.00     0.293 HD
ENDBRANCH   8  26
TORSDOF 6
ENDMDL
MODEL 7
REMARK VINA RESULT:    -4.774      3.768      6.370
REMARK INTER + INTRA:          -6.020
REMARK INTER:                  -5.804
REMARK INTRA:                  -0.217
REMARK UNBOUND:                -0.269
REMARK SMILES O=c1c(O)c(-c2ccc(O)c(O)c2)oc2cc(O)cc(O)c12
REMARK SMILES IDX 5 1 3 2 2 3 1 4 22 5 20 6 19 7 17 8 16 9 15 10 14 11 6 12
REMARK SMILES IDX 7 13 8 14 9 15 13 16 11 17 10 18 12 20 4 22 21 24 18 26
REMARK H PARENT 10 19 12 21 4 23 21 25 18 27
REMARK Flexibility Score: inf
ROOT
ATOM      1  C   UNL     1      25.906  49.196  63.055  1.00  0.00     0.180 A 
ATOM      2  C   UNL     1      26.535  48.205  63.828  1.00  0.00     0.208 A 
ATOM      3  C   UNL     1      27.726  47.627  63.356  1.00  0.00     0.238 A 
ATOM      4  O   UNL     1      28.313  46.779  64.078  1.00  0.00    -0.285 OA
ATOM      5  C   UNL     1      28.263  48.037  62.112  1.00  0.00     0.111 A 
ATOM      6  C   UNL     1      29.441  47.492  61.519  1.00  0.00     0.134 A 
ATOM      7  C   UNL     1      29.953  48.064  60.348  1.00  0.00     0.093 A 
ATOM      8  C   UNL     1      29.296  49.117  59.714  1.00  0.00     0.123 A 
ATOM      9  C   UNL     1      28.110  49.618  60.253  1.00  0.00     0.094 A 
ATOM     10  C   UNL     1      27.594  49.093  61.440  1.00  0.00     0.146 A 
ATOM     11  O   UNL     1      26.470  49.606  61.925  1.00  0.00    -0.452 OA
ENDROOT
BRANCH   1  12
ATOM     12  C   UNL     1      24.636  49.833  63.473  1.00  0.00     0.025 A 
ATOM     13  C   UNL     1      23.448  49.505  62.804  1.00  0.00     0.016 A 
ATOM     14  C   UNL     1      22.234  50.079  63.195  1.00  0.00     0.051 A 
ATOM     15  C   UNL     1      22.189  50.975  64.267  1.00  0.00     0.157 A 
ATOM     16  C   UNL     1      24.586  50.719  64.564  1.00  0.00     0.062 A 
ATOM     17  C   UNL     1      23.369  51.295  64.959  1.00  0.00     0.158 A 
BRANCH  15  18
ATOM     18  O   UNL     1      20.964  51.533  64.633  1.00  0.00    -0.504 OA
ATOM     19  H   UNL     1      20.810  52.534  64.642  1.00  0.00     0.293 HD
ENDBRANCH  15  18
BRANCH  17  20
ATOM     20  O   UNL     1      23.328  52.176  66.038  1.00  0.00    -0.504 OA
ATOM     21  H   UNL     1      22.487  52.693  66.269  1.00  0.00     0.293 HD
ENDBRANCH  17  20
ENDBRANCH   1  12
BRANCH   2  22
ATOM     22  O   UNL     1      26.000  47.830  65.063  1.00  0.00    -0.502 OA
ATOM     23  H   UNL     1      25.009  47.883  65.265  1.00  0.00     0.293 HD
ENDBRANCH   2  22
BRANCH   6  24
ATOM     24  O   UNL     1      30.125  46.381  62.022  1.00  0.00    -0.507 OA
ATOM     25  H   UNL     1      31.092  46.166  61.832  1.00  0.00     0.293 HD
ENDBRANCH   6  24
BRANCH   8  26
ATOM     26  O   UNL     1      29.825  49.651  58.541  1.00  0.00    -0.508 OA
ATOM     27  H   UNL     1      30.822  49.795  58.427  1.00  0.00     0.293 HD
ENDBRANCH   8  26
TORSDOF 6
ENDMDL
MODEL 8
REMARK VINA RESULT:    -4.754      2.072      7.380
REMARK INTER + INTRA:          -5.996
REMARK INTER:                  -5.678
REMARK INTRA:                  -0.319
REMARK UNBOUND:                -0.269
REMARK SMILES O=c1c(O)c(-c2ccc(O)c(O)c2)oc2cc(O)cc(O)c12
REMARK SMILES IDX 5 1 3 2 2 3 1 4 22 5 20 6 19 7 17 8 16 9 15 10 14 11 6 12
REMARK SMILES IDX 7 13 8 14 9 15 13 16 11 17 10 18 12 20 4 22 21 24 18 26
REMARK H PARENT 10 19 12 21 4 23 21 25 18 27
REMARK Flexibility Score: inf
ROOT
ATOM      1  C   UNL     1      26.480  48.458  62.000  1.00  0.00     0.180 A 
ATOM      2  C   UNL     1      25.224  48.757  61.443  1.00  0.00     0.208 A 
ATOM      3  C   UNL     1      25.166  49.517  60.263  1.00  0.00     0.238 A 
ATOM      4  O   UNL     1      24.041  49.735  59.740  1.00  0.00    -0.285 OA
ATOM      5  C   UNL     1      26.362  49.981  59.664  1.00  0.00     0.111 A 
ATOM      6  C   UNL     1      26.418  50.791  58.490  1.00  0.00     0.134 A 
ATOM      7  C   UNL     1      27.659  51.082  57.912  1.00  0.00     0.093 A 
ATOM      8  C   UNL     1      28.848  50.649  58.499  1.00  0.00     0.123 A 
ATOM      9  C   UNL     1      28.806  49.906  59.680  1.00  0.00     0.094 A 
ATOM     10  C   UNL     1      27.581  49.569  60.261  1.00  0.00     0.146 A 
ATOM     11  O   UNL     1      27.585  48.852  61.378  1.00  0.00    -0.452 OA
ENDROOT
BRANCH   1  12
ATOM     12  C   UNL     1      26.622  47.685  63.255  1.00  0.00     0.025 A 
ATOM     13  C   UNL     1      26.677  48.364  64.481  1.00  0.00     0.016 A 
ATOM     14  C   UNL     1      26.790  47.653  65.679  1.00  0.00     0.051 A 
ATOM     15  C   UNL     1      26.835  46.256  65.671  1.00  0.00     0.157 A 
ATOM     16  C   UNL     1      26.645  46.279  63.249  1.00  0.00     0.062 A 
ATOM     17  C   UNL     1      26.757  45.563  64.450  1.00  0.00     0.158 A 
BRANCH  15  18
ATOM     18  O   UNL     1      26.950  45.574  66.881  1.00  0.00    -0.504 OA
ATOM     19  H   UNL     1      26.151  45.156  67.343  1.00  0.00     0.293 HD
ENDBRANCH  15  18
BRANCH  17  20
ATOM     20  O   UNL     1      26.786  44.170  64.436  1.00  0.00    -0.504 OA
ATOM     21  H   UNL     1      26.509  43.641  63.617  1.00  0.00     0.293 HD
ENDBRANCH  17  20
ENDBRANCH   1  12
BRANCH   2  22
ATOM     22  O   UNL     1      24.057  48.271  62.039  1.00  0.00    -0.502 OA
ATOM     23  H   UNL     1      23.155  48.312  61.580  1.00  0.00     0.293 HD
ENDBRANCH   2  22
BRANCH   6  24
ATOM     24  O   UNL     1      25.295  51.353  57.875  1.00  0.00    -0.507 OA
ATOM     25  H   UNL     1      25.320  51.920  57.041  1.00  0.00     0.293 HD
ENDBRANCH   6  24
BRANCH   8  26
ATOM     26  O   UNL     1      30.066  50.971  57.904  1.00  0.00    -0.508 OA
ATOM     27  H   UNL     1      30.153  51.081  56.901  1.00  0.00     0.293 HD
ENDBRANCH   8  26
TORSDOF 6
ENDMDL
MODEL 9
REMARK VINA RESULT:    -4.131      5.198      6.823
REMARK INTER + INTRA:          -5.246
REMARK INTER:                  -4.924
REMARK INTRA:                  -0.322
REMARK UNBOUND:                -0.269
REMARK SMILES O=c1c(O)c(-c2ccc(O)c(O)c2)oc2cc(O)cc(O)c12
REMARK SMILES IDX 5 1 3 2 2 3 1 4 22 5 20 6 19 7 17 8 16 9 15 10 14 11 6 12
REMARK SMILES IDX 7 13 8 14 9 15 13 16 11 17 10 18 12 20 4 22 21 24 18 26
REMARK H PARENT 10 19 12 21 4 23 21 25 18 27
REMARK Flexibility Score: inf
ROOT
ATOM      1  C   UNL     1      24.129  50.137  63.275  1.00  0.00     0.180 A 
ATOM      2  C   UNL     1      24.542  50.032  61.936  1.00  0.00     0.208 A 
ATOM      3  C   UNL     1      25.718  49.324  61.639  1.00  0.00     0.238 A 
ATOM      4  O   UNL     1      26.053  49.186  60.433  1.00  0.00    -0.285 OA
ATOM      5  C   UNL     1      26.474  48.744  62.686  1.00  0.00     0.111 A 
ATOM      6  C   UNL     1      27.702  48.039  62.504  1.00  0.00     0.134 A 
ATOM      7  C   UNL     1      28.296  47.395  63.596  1.00  0.00     0.093 A 
ATOM      8  C   UNL     1      27.745  47.485  64.874  1.00  0.00     0.123 A 
ATOM      9  C   UNL     1      26.576  48.222  65.073  1.00  0.00     0.094 A 
ATOM     10  C   UNL     1      25.940  48.845  63.996  1.00  0.00     0.146 A 
ATOM     11  O   UNL     1      24.824  49.527  64.227  1.00  0.00    -0.452 OA
ENDROOT
BRANCH   1  12
ATOM     12  C   UNL     1      22.915  50.889  63.669  1.00  0.00     0.025 A 
ATOM     13  C   UNL     1      23.001  52.271  63.893  1.00  0.00     0.016 A 
ATOM     14  C   UNL     1      21.864  53.003  64.245  1.00  0.00     0.051 A 
ATOM     15  C   UNL     1      20.624  52.369  64.365  1.00  0.00     0.157 A 
ATOM     16  C   UNL     1      21.663  50.256  63.769  1.00  0.00     0.062 A 
ATOM     17  C   UNL     1      20.520  50.989  64.122  1.00  0.00     0.158 A 
BRANCH  15  18
ATOM     18  O   UNL     1      19.508  53.125  64.721  1.00  0.00    -0.504 OA
ATOM     19  H   UNL     1      18.784  52.763  65.330  1.00  0.00     0.293 HD
ENDBRANCH  15  18
BRANCH  17  20
ATOM     20  O   UNL     1      19.285  50.354  64.226  1.00  0.00    -0.504 OA
ATOM     21  H   UNL     1      18.509  50.778  64.723  1.00  0.00     0.293 HD
ENDBRANCH  17  20
ENDBRANCH   1  12
BRANCH   2  22
ATOM     22  O   UNL     1      23.769  50.592  60.915  1.00  0.00    -0.502 OA
ATOM     23  H   UNL     1      23.384  50.041  60.158  1.00  0.00     0.293 HD
ENDBRANCH   2  22
BRANCH   6  24
ATOM     24  O   UNL     1      28.386  47.965  61.287  1.00  0.00    -0.507 OA
ATOM     25  H   UNL     1      29.323  48.305  61.133  1.00  0.00     0.293 HD
ENDBRANCH   6  24
BRANCH   8  26
ATOM     26  O   UNL     1      28.372  46.845  65.940  1.00  0.00    -0.508 OA
ATOM     27  H   UNL     1      28.578  47.333  66.804  1.00  0.00     0.293 HD
ENDBRANCH   8  26
TORSDOF 6
ENDMDL
