MODEL 1
REMARK VINA RESULT:    -4.584      0.000      0.000
REMARK INTER + INTRA:          -5.400
REMARK INTER:                  -5.254
REMARK INTRA:                  -0.146
REMARK UNBOUND:                -0.146
REMARK SMILES O=C([O-])C=Cc1ccc(O)cc1
REMARK SMILES IDX 6 1 7 2 12 3 8 4 11 5 9 6 5 7 4 8 2 9 1 10 3 11 10 12
REMARK H PARENT 10 13
REMARK Flexibility Score: inf
ROOT
ATOM      1  C   UNL     1      15.229  28.818  21.263  1.00  0.00    -0.025 A 
ATOM      2  C   UNL     1      14.545  27.875  20.468  1.00  0.00     0.012 A 
ATOM      3  C   UNL     1      15.774  29.957  20.645  1.00  0.00     0.012 A 
ATOM      4  C   UNL     1      14.437  28.060  19.086  1.00  0.00     0.047 A 
ATOM      5  C   UNL     1      15.664  30.138  19.263  1.00  0.00     0.047 A 
ATOM      6  C   UNL     1      14.996  29.188  18.479  1.00  0.00     0.115 A 
ENDROOT
BRANCH   1   7
ATOM      7  C   UNL     1      15.363  28.676  22.734  1.00  0.00     0.010 C 
ATOM      8  C   UNL     1      15.245  29.697  23.594  1.00  0.00     0.025 C 
BRANCH   8   9
ATOM      9  C   UNL     1      15.374  29.508  25.047  1.00  0.00     0.064 C 
ATOM     10  O   UNL     1      15.620  30.499  25.783  1.00  0.00    -0.545 OA
ATOM     11  O   UNL     1      15.231  28.251  25.623  1.00  0.00    -0.545 OA
ENDBRANCH   8   9
ENDBRANCH   1   7
BRANCH   6  12
ATOM     12  O   UNL     1      14.881  29.358  17.102  1.00  0.00    -0.508 OA
ATOM     13  H   UNL     1      14.322  28.729  16.536  1.00  0.00     0.293 HD
ENDBRANCH   6  12
TORSDOF 3
ENDMDL
MODEL 2
REMARK VINA RESULT:    -4.272     14.432     16.234
REMARK INTER + INTRA:          -5.042
REMARK INTER:                  -4.890
REMARK INTRA:                  -0.152
REMARK UNBOUND:                -0.146
REMARK SMILES O=C([O-])C=Cc1ccc(O)cc1
REMARK SMILES IDX 6 1 7 2 12 3 8 4 11 5 9 6 5 7 4 8 2 9 1 10 3 11 10 12
REMARK H PARENT 10 13
REMARK Flexibility Score: inf
ROOT
ATOM      1  C   UNL     1      21.321  41.399  27.601  1.00  0.00    -0.025 A 
ATOM      2  C   UNL     1      20.847  40.139  28.022  1.00  0.00     0.012 A 
ATOM      3  C   UNL     1      21.553  42.393  28.568  1.00  0.00     0.012 A 
ATOM      4  C   UNL     1      20.588  39.896  29.375  1.00  0.00     0.047 A 
ATOM      5  C   UNL     1      21.294  42.145  29.919  1.00  0.00     0.047 A 
ATOM      6  C   UNL     1      20.808  40.896  30.326  1.00  0.00     0.115 A 
ENDROOT
BRANCH   1   7
ATOM      7  C   UNL     1      21.623  41.706  26.181  1.00  0.00     0.010 C 
ATOM      8  C   UNL     1      21.997  42.917  25.745  1.00  0.00     0.025 C 
BRANCH   8   9
ATOM      9  C   UNL     1      22.297  43.173  24.328  1.00  0.00     0.064 C 
ATOM     10  O   UNL     1      22.157  44.334  23.863  1.00  0.00    -0.545 OA
ATOM     11  O   UNL     1      22.733  42.153  23.490  1.00  0.00    -0.545 OA
ENDBRANCH   8   9
ENDBRANCH   1   7
BRANCH   6  12
ATOM     12  O   UNL     1      20.545  40.638  31.670  1.00  0.00    -0.508 OA
ATOM     13  H   UNL     1      19.787  40.028  31.953  1.00  0.00     0.293 HD
ENDBRANCH   6  12
TORSDOF 3
ENDMDL
MODEL 3
REMARK VINA RESULT:    -4.113     15.023     16.370
REMARK INTER + INTRA:          -4.861
REMARK INTER:                  -4.720
REMARK INTRA:                  -0.141
REMARK UNBOUND:                -0.146
REMARK SMILES O=C([O-])C=Cc1ccc(O)cc1
REMARK SMILES IDX 6 1 7 2 12 3 8 4 11 5 9 6 5 7 4 8 2 9 1 10 3 11 10 12
REMARK H PARENT 10 13
REMARK Flexibility Score: inf
ROOT
ATOM      1  C   UNL     1      22.214  42.976  26.176  1.00  0.00    -0.025 A 
ATOM      2  C   UNL     1      21.943  43.115  24.799  1.00  0.00     0.012 A 
ATOM      3  C   UNL     1      22.730  44.078  26.880  1.00  0.00     0.012 A 
ATOM      4  C   UNL     1      22.208  44.322  24.144  1.00  0.00     0.047 A 
ATOM      5  C   UNL     1      22.993  45.283  26.221  1.00  0.00     0.047 A 
ATOM      6  C   UNL     1      22.735  45.407  24.850  1.00  0.00     0.115 A 
ENDROOT
BRANCH   1   7
ATOM      7  C   UNL     1      21.941  41.722  26.921  1.00  0.00     0.010 C 
ATOM      8  C   UNL     1      21.080  41.637  27.944  1.00  0.00     0.025 C 
BRANCH   8   9
ATOM      9  C   UNL     1      20.831  40.369  28.648  1.00  0.00     0.064 C 
ATOM     10  O   UNL     1      20.622  39.321  27.984  1.00  0.00    -0.545 OA
ATOM     11  O   UNL     1      20.820  40.310  30.037  1.00  0.00    -0.545 OA
ENDBRANCH   8   9
ENDBRANCH   1   7
BRANCH   6  12
ATOM     12  O   UNL     1      22.994  46.603  24.183  1.00  0.00    -0.508 OA
ATOM     13  H   UNL     1      22.752  47.499  24.590  1.00  0.00     0.293 HD
ENDBRANCH   6  12
TORSDOF 3
ENDMDL
MODEL 4
REMARK VINA RESULT:    -3.559     15.703     17.642
REMARK INTER + INTRA:          -4.225
REMARK INTER:                  -4.072
REMARK INTRA:                  -0.153
REMARK UNBOUND:                -0.146
REMARK SMILES O=C([O-])C=Cc1ccc(O)cc1
REMARK SMILES IDX 6 1 7 2 12 3 8 4 11 5 9 6 5 7 4 8 2 9 1 10 3 11 10 12
REMARK H PARENT 10 13
REMARK Flexibility Score: inf
ROOT
ATOM      1  C   UNL     1      21.712  43.077  29.326  1.00  0.00    -0.025 A 
ATOM      2  C   UNL     1      22.030  42.952  27.958  1.00  0.00     0.012 A 
ATOM      3  C   UNL     1      21.115  41.988  29.984  1.00  0.00     0.012 A 
ATOM      4  C   UNL     1      21.731  41.774  27.266  1.00  0.00     0.047 A 
ATOM      5  C   UNL     1      20.819  40.811  29.290  1.00  0.00     0.047 A 
ATOM      6  C   UNL     1      21.124  40.702  27.927  1.00  0.00     0.115 A 
ENDROOT
BRANCH   1   7
ATOM      7  C   UNL     1      22.016  44.300  30.110  1.00  0.00     0.010 C 
ATOM      8  C   UNL     1      21.638  44.481  31.382  1.00  0.00     0.025 C 
BRANCH   8   9
ATOM      9  C   UNL     1      21.973  45.706  32.125  1.00  0.00     0.064 C 
ATOM     10  O   UNL     1      23.124  46.203  32.018  1.00  0.00    -0.545 OA
ATOM     11  O   UNL     1      21.039  46.324  32.949  1.00  0.00    -0.545 OA
ENDBRANCH   8   9
ENDBRANCH   1   7
BRANCH   6  12
ATOM     12  O   UNL     1      20.833  39.536  27.224  1.00  0.00    -0.508 OA
ATOM     13  H   UNL     1      21.564  38.897  26.932  1.00  0.00     0.293 HD
ENDBRANCH   6  12
TORSDOF 3
ENDMDL
MODEL 5
REMARK VINA RESULT:    -3.256     16.809     18.350
REMARK INTER + INTRA:          -3.878
REMARK INTER:                  -3.736
REMARK INTRA:                  -0.142
REMARK UNBOUND:                -0.146
REMARK SMILES O=C([O-])C=Cc1ccc(O)cc1
REMARK SMILES IDX 6 1 7 2 12 3 8 4 11 5 9 6 5 7 4 8 2 9 1 10 3 11 10 12
REMARK H PARENT 10 13
REMARK Flexibility Score: inf
ROOT
ATOM      1  C   UNL     1      22.405  44.491  28.481  1.00  0.00    -0.025 A 
ATOM      2  C   UNL     1      22.041  43.130  28.403  1.00  0.00     0.012 A 
ATOM      3  C   UNL     1      22.742  45.171  27.298  1.00  0.00     0.012 A 
ATOM      4  C   UNL     1      22.042  42.468  27.171  1.00  0.00     0.047 A 
ATOM      5  C   UNL     1      22.741  44.505  26.069  1.00  0.00     0.047 A 
ATOM      6  C   UNL     1      22.393  43.150  26.003  1.00  0.00     0.115 A 
ENDROOT
BRANCH   1   7
ATOM      7  C   UNL     1      22.410  45.245  29.759  1.00  0.00     0.010 C 
ATOM      8  C   UNL     1      21.870  44.786  30.897  1.00  0.00     0.025 C 
BRANCH   8   9
ATOM      9  C   UNL     1      21.908  45.563  32.145  1.00  0.00     0.064 C 
ATOM     10  O   UNL     1      20.851  45.730  32.806  1.00  0.00    -0.545 OA
ATOM     11  O   UNL     1      23.095  46.121  32.606  1.00  0.00    -0.545 OA
ENDBRANCH   8   9
ENDBRANCH   1   7
BRANCH   6  12
ATOM     12  O   UNL     1      22.390  42.475  24.784  1.00  0.00    -0.508 OA
ATOM     13  H   UNL     1      22.725  42.914  23.935  1.00  0.00     0.293 HD
ENDBRANCH   6  12
TORSDOF 3
ENDMDL
MODEL 6
REMARK VINA RESULT:    -3.050     17.773     19.827
REMARK INTER + INTRA:          -3.643
REMARK INTER:                  -3.492
REMARK INTRA:                  -0.151
REMARK UNBOUND:                -0.146
REMARK SMILES O=C([O-])C=Cc1ccc(O)cc1
REMARK SMILES IDX 6 1 7 2 12 3 8 4 11 5 9 6 5 7 4 8 2 9 1 10 3 11 10 12
REMARK H PARENT 10 13
REMARK Flexibility Score: inf
ROOT
ATOM      1  C   UNL     1      21.790  44.923  31.032  1.00  0.00    -0.025 A 
ATOM      2  C   UNL     1      22.181  45.142  29.694  1.00  0.00     0.012 A 
ATOM      3  C   UNL     1      21.348  43.643  31.407  1.00  0.00     0.012 A 
ATOM      4  C   UNL     1      22.103  44.108  28.756  1.00  0.00     0.047 A 
ATOM      5  C   UNL     1      21.272  42.612  30.466  1.00  0.00     0.047 A 
ATOM      6  C   UNL     1      21.648  42.842  29.137  1.00  0.00     0.115 A 
ENDROOT
BRANCH   1   7
ATOM      7  C   UNL     1      21.863  45.981  32.069  1.00  0.00     0.010 C 
ATOM      8  C   UNL     1      21.781  45.741  33.385  1.00  0.00     0.025 C 
BRANCH   8   9
ATOM      9  C   UNL     1      21.871  46.820  34.380  1.00  0.00     0.064 C 
ATOM     10  O   UNL     1      22.882  46.897  35.125  1.00  0.00    -0.545 OA
ATOM     11  O   UNL     1      20.854  47.759  34.514  1.00  0.00    -0.545 OA
ENDBRANCH   8   9
ENDBRANCH   1   7
BRANCH   6  12
ATOM     12  O   UNL     1      21.575  41.823  28.190  1.00  0.00    -0.508 OA
ATOM     13  H   UNL     1      20.756  41.232  28.110  1.00  0.00     0.293 HD
ENDBRANCH   6  12
TORSDOF 3
ENDMDL
MODEL 7
REMARK VINA RESULT:    -2.986     17.109     19.521
REMARK INTER + INTRA:          -3.569
REMARK INTER:                  -3.423
REMARK INTRA:                  -0.146
REMARK UNBOUND:                -0.146
REMARK SMILES O=C([O-])C=Cc1ccc(O)cc1
REMARK SMILES IDX 6 1 7 2 12 3 8 4 11 5 9 6 5 7 4 8 2 9 1 10 3 11 10 12
REMARK H PARENT 10 13
REMARK Flexibility Score: inf
ROOT
ATOM      1  C   UNL     1      22.387  44.954  29.497  1.00  0.00    -0.025 A 
ATOM      2  C   UNL     1      23.124  45.976  30.132  1.00  0.00     0.012 A 
ATOM      3  C   UNL     1      21.581  44.112  30.283  1.00  0.00     0.012 A 
ATOM      4  C   UNL     1      23.070  46.128  31.522  1.00  0.00     0.047 A 
ATOM      5  C   UNL     1      21.530  44.268  31.671  1.00  0.00     0.047 A 
ATOM      6  C   UNL     1      22.276  45.276  32.295  1.00  0.00     0.115 A 
ENDROOT
BRANCH   1   7
ATOM      7  C   UNL     1      22.399  44.756  28.027  1.00  0.00     0.010 C 
ATOM      8  C   UNL     1      22.405  43.552  27.438  1.00  0.00     0.025 C 
BRANCH   8   9
ATOM      9  C   UNL     1      22.404  43.402  25.975  1.00  0.00     0.064 C 
ATOM     10  O   UNL     1      22.286  42.256  25.468  1.00  0.00    -0.545 OA
ATOM     11  O   UNL     1      22.535  44.506  25.140  1.00  0.00    -0.545 OA
ENDBRANCH   8   9
ENDBRANCH   1   7
BRANCH   6  12
ATOM     12  O   UNL     1      22.234  45.440  33.678  1.00  0.00    -0.508 OA
ATOM     13  H   UNL     1      23.079  45.439  34.237  1.00  0.00     0.293 HD
ENDBRANCH   6  12
TORSDOF 3
ENDMDL
MODEL 8
REMARK VINA RESULT:    -2.984      1.078      5.775
REMARK INTER + INTRA:          -3.567
REMARK INTER:                  -3.433
REMARK INTRA:                  -0.133
REMARK UNBOUND:                -0.146
REMARK SMILES O=C([O-])C=Cc1ccc(O)cc1
REMARK SMILES IDX 6 1 7 2 12 3 8 4 11 5 9 6 5 7 4 8 2 9 1 10 3 11 10 12
REMARK H PARENT 10 13
REMARK Flexibility Score: inf
ROOT
ATOM      1  C   UNL     1      15.531  29.029  22.203  1.00  0.00    -0.025 A 
ATOM      2  C   UNL     1      16.029  27.908  22.898  1.00  0.00     0.012 A 
ATOM      3  C   UNL     1      15.038  30.119  22.941  1.00  0.00     0.012 A 
ATOM      4  C   UNL     1      16.008  27.875  24.296  1.00  0.00     0.047 A 
ATOM      5  C   UNL     1      15.018  30.082  24.338  1.00  0.00     0.047 A 
ATOM      6  C   UNL     1      15.502  28.958  25.020  1.00  0.00     0.115 A 
ENDROOT
BRANCH   1   7
ATOM      7  C   UNL     1      15.540  29.121  20.722  1.00  0.00     0.010 C 
ATOM      8  C   UNL     1      14.495  28.793  19.949  1.00  0.00     0.025 C 
BRANCH   8   9
ATOM      9  C   UNL     1      14.545  28.912  18.484  1.00  0.00     0.064 C 
ATOM     10  O   UNL     1      14.898  27.921  17.792  1.00  0.00    -0.545 OA
ATOM     11  O   UNL     1      14.211  30.102  17.848  1.00  0.00    -0.545 OA
ENDBRANCH   8   9
ENDBRANCH   1   7
BRANCH   6  12
ATOM     12  O   UNL     1      15.487  28.910  26.412  1.00  0.00    -0.508 OA
ATOM     13  H   UNL     1      15.494  29.755  26.971  1.00  0.00     0.293 HD
ENDBRANCH   6  12
TORSDOF 3
ENDMDL
