MODEL 1
REMARK VINA RESULT:    -4.488      0.000      0.000
REMARK INTER + INTRA:          -6.438
REMARK INTER:                  -6.062
REMARK INTRA:                  -0.376
REMARK UNBOUND:                -0.376
REMARK SMILES CCCCCCC=CC(=O)[O-]
REMARK SMILES IDX 5 1 6 2 7 3 8 4 9 5 10 6 11 7 4 8 3 9 2 10 1 11
REMARK H PARENT
REMARK Flexibility Score: inf
ROOT
ATOM      1  C   UNL     1     118.461 116.539 108.559  1.00  0.00     0.004 C 
ENDROOT
BRANCH   1   2
ATOM      2  C   UNL     1     118.551 115.447 107.477  1.00  0.00     0.027 C 
BRANCH   2   3
ATOM      3  C   UNL     1     118.948 114.107 108.027  1.00  0.00    -0.025 C 
ATOM      4  C   UNL     1     118.796 113.806 109.320  1.00  0.00     0.020 C 
BRANCH   4   5
ATOM      5  C   UNL     1     119.186 112.499 109.868  1.00  0.00     0.064 C 
ATOM      6  O   UNL     1     118.689 112.107 110.956  1.00  0.00    -0.545 OA
ATOM      7  O   UNL     1     120.095 111.685 109.201  1.00  0.00    -0.545 OA
ENDBRANCH   4   5
ENDBRANCH   2   3
ENDBRANCH   1   2
BRANCH   1   8
ATOM      8  C   UNL     1     117.036 117.084 108.778  1.00  0.00     0.000 C 
BRANCH   8   9
ATOM      9  C   UNL     1     116.037 116.605 107.711  1.00  0.00    -0.000 C 
BRANCH   9  10
ATOM     10  C   UNL     1     115.531 117.753 106.822  1.00  0.00    -0.003 C 
ATOM     11  C   UNL     1     114.212 118.344 107.318  1.00  0.00     0.004 C 
ENDBRANCH   9  10
ENDBRANCH   8   9
ENDBRANCH   1   8
TORSDOF 6
ENDMDL
MODEL 2
REMARK VINA RESULT:    -4.461      3.617      6.211
REMARK INTER + INTRA:          -6.401
REMARK INTER:                  -6.181
REMARK INTRA:                  -0.220
REMARK UNBOUND:                -0.376
REMARK SMILES CCCCCCC=CC(=O)[O-]
REMARK SMILES IDX 5 1 6 2 7 3 8 4 9 5 10 6 11 7 4 8 3 9 2 10 1 11
REMARK H PARENT
REMARK Flexibility Score: inf
ROOT
ATOM      1  C   UNL     1     118.695 115.463 107.928  1.00  0.00     0.004 C 
ENDROOT
BRANCH   1   2
ATOM      2  C   UNL     1     117.421 115.531 107.065  1.00  0.00     0.027 C 
BRANCH   2   3
ATOM      3  C   UNL     1     116.296 116.265 107.738  1.00  0.00    -0.025 C 
ATOM      4  C   UNL     1     115.831 117.424 107.262  1.00  0.00     0.020 C 
BRANCH   4   5
ATOM      5  C   UNL     1     114.734 118.153 107.917  1.00  0.00     0.064 C 
ATOM      6  O   UNL     1     113.690 118.418 107.267  1.00  0.00    -0.545 OA
ATOM      7  O   UNL     1     114.831 118.551 109.246  1.00  0.00    -0.545 OA
ENDBRANCH   4   5
ENDBRANCH   2   3
ENDBRANCH   1   2
BRANCH   1   8
ATOM      8  C   UNL     1     119.170 114.028 108.227  1.00  0.00     0.000 C 
BRANCH   8   9
ATOM      9  C   UNL     1     118.734 113.526 109.614  1.00  0.00    -0.000 C 
BRANCH   9  10
ATOM     10  C   UNL     1     119.514 112.279 110.060  1.00  0.00    -0.003 C 
ATOM     11  C   UNL     1     119.986 111.427 108.883  1.00  0.00     0.004 C 
ENDBRANCH   9  10
ENDBRANCH   8   9
ENDBRANCH   1   8
TORSDOF 6
ENDMDL
MODEL 3
REMARK VINA RESULT:    -4.362      2.715      4.190
REMARK INTER + INTRA:          -6.268
REMARK INTER:                  -5.985
REMARK INTRA:                  -0.283
REMARK UNBOUND:                -0.376
REMARK SMILES CCCCCCC=CC(=O)[O-]
REMARK SMILES IDX 5 1 6 2 7 3 8 4 9 5 10 6 11 7 4 8 3 9 2 10 1 11
REMARK H PARENT
REMARK Flexibility Score: inf
ROOT
ATOM      1  C   UNL     1     114.149 118.276 107.815  1.00  0.00     0.004 C 
ENDROOT
BRANCH   1   2
ATOM      2  C   UNL     1     115.303 117.789 106.920  1.00  0.00     0.027 C 
BRANCH   2   3
ATOM      3  C   UNL     1     116.455 117.225 107.703  1.00  0.00    -0.025 C 
ATOM      4  C   UNL     1     116.828 115.948 107.581  1.00  0.00     0.020 C 
BRANCH   4   5
ATOM      5  C   UNL     1     117.950 115.387 108.347  1.00  0.00     0.064 C 
ATOM      6  O   UNL     1     119.127 115.533 107.924  1.00  0.00    -0.545 OA
ATOM      7  O   UNL     1     117.733 114.697 109.535  1.00  0.00    -0.545 OA
ENDBRANCH   4   5
ENDBRANCH   2   3
ENDBRANCH   1   2
BRANCH   1   8
ATOM      8  C   UNL     1     114.606 118.825 109.180  1.00  0.00     0.000 C 
BRANCH   8   9
ATOM      9  C   UNL     1     113.870 120.112 109.589  1.00  0.00    -0.000 C 
BRANCH   9  10
ATOM     10  C   UNL     1     114.202 120.549 111.024  1.00  0.00    -0.003 C 
ATOM     11  C   UNL     1     114.764 119.409 111.872  1.00  0.00     0.004 C 
ENDBRANCH   9  10
ENDBRANCH   8   9
ENDBRANCH   1   8
TORSDOF 6
ENDMDL
MODEL 4
REMARK VINA RESULT:    -4.251      4.829      6.918
REMARK INTER + INTRA:          -6.118
REMARK INTER:                  -5.857
REMARK INTRA:                  -0.260
REMARK UNBOUND:                -0.376
REMARK SMILES CCCCCCC=CC(=O)[O-]
REMARK SMILES IDX 5 1 6 2 7 3 8 4 9 5 10 6 11 7 4 8 3 9 2 10 1 11
REMARK H PARENT
REMARK Flexibility Score: inf
ROOT
ATOM      1  C   UNL     1     116.037 117.364 108.287  1.00  0.00     0.004 C 
ENDROOT
BRANCH   1   2
ATOM      2  C   UNL     1     114.672 117.585 107.608  1.00  0.00     0.027 C 
BRANCH   2   3
ATOM      3  C   UNL     1     113.973 118.825 108.086  1.00  0.00    -0.025 C 
ATOM      4  C   UNL     1     114.259 119.382 109.266  1.00  0.00     0.020 C 
BRANCH   4   5
ATOM      5  C   UNL     1     113.576 120.593 109.744  1.00  0.00     0.064 C 
ATOM      6  O   UNL     1     113.299 120.709 110.966  1.00  0.00    -0.545 OA
ATOM      7  O   UNL     1     113.233 121.616 108.866  1.00  0.00    -0.545 OA
ENDBRANCH   4   5
ENDBRANCH   2   3
ENDBRANCH   1   2
BRANCH   1   8
ATOM      8  C   UNL     1     116.499 115.895 108.297  1.00  0.00     0.000 C 
BRANCH   8   9
ATOM      9  C   UNL     1     117.927 115.716 108.840  1.00  0.00    -0.000 C 
BRANCH   9  10
ATOM     10  C   UNL     1     118.894 115.160 107.782  1.00  0.00    -0.003 C 
ATOM     11  C   UNL     1     118.193 114.812 106.469  1.00  0.00     0.004 C 
ENDBRANCH   9  10
ENDBRANCH   8   9
ENDBRANCH   1   8
TORSDOF 6
ENDMDL
MODEL 5
REMARK VINA RESULT:    -4.204      2.182      3.672
REMARK INTER + INTRA:          -6.054
REMARK INTER:                  -5.482
REMARK INTRA:                  -0.572
REMARK UNBOUND:                -0.376
REMARK SMILES CCCCCCC=CC(=O)[O-]
REMARK SMILES IDX 5 1 6 2 7 3 8 4 9 5 10 6 11 7 4 8 3 9 2 10 1 11
REMARK H PARENT
REMARK Flexibility Score: inf
ROOT
ATOM      1  C   UNL     1     114.738 117.256 107.970  1.00  0.00     0.004 C 
ENDROOT
BRANCH   1   2
ATOM      2  C   UNL     1     116.113 117.371 107.284  1.00  0.00     0.027 C 
BRANCH   2   3
ATOM      3  C   UNL     1     116.895 116.089 107.320  1.00  0.00    -0.025 C 
ATOM      4  C   UNL     1     118.072 116.002 107.946  1.00  0.00     0.020 C 
BRANCH   4   5
ATOM      5  C   UNL     1     118.847 114.753 107.982  1.00  0.00     0.064 C 
ATOM      6  O   UNL     1     119.551 114.430 106.991  1.00  0.00    -0.545 OA
ATOM      7  O   UNL     1     118.817 113.924 109.098  1.00  0.00    -0.545 OA
ENDBRANCH   4   5
ENDBRANCH   2   3
ENDBRANCH   1   2
BRANCH   1   8
ATOM      8  C   UNL     1     114.797 116.660 109.389  1.00  0.00     0.000 C 
BRANCH   8   9
ATOM      9  C   UNL     1     115.503 117.580 110.400  1.00  0.00    -0.000 C 
BRANCH   9  10
ATOM     10  C   UNL     1     115.905 116.840 111.686  1.00  0.00    -0.003 C 
ATOM     11  C   UNL     1     117.240 116.108 111.552  1.00  0.00     0.004 C 
ENDBRANCH   9  10
ENDBRANCH   8   9
ENDBRANCH   1   8
TORSDOF 6
ENDMDL
MODEL 6
REMARK VINA RESULT:    -4.177      1.234      1.846
REMARK INTER + INTRA:          -6.018
REMARK INTER:                  -5.755
REMARK INTRA:                  -0.263
REMARK UNBOUND:                -0.376
REMARK SMILES CCCCCCC=CC(=O)[O-]
REMARK SMILES IDX 5 1 6 2 7 3 8 4 9 5 10 6 11 7 4 8 3 9 2 10 1 11
REMARK H PARENT
REMARK Flexibility Score: inf
ROOT
ATOM      1  C   UNL     1     117.850 115.127 108.155  1.00  0.00     0.004 C 
ENDROOT
BRANCH   1   2
ATOM      2  C   UNL     1     117.510 115.443 109.623  1.00  0.00     0.027 C 
BRANCH   2   3
ATOM      3  C   UNL     1     118.165 114.501 110.593  1.00  0.00    -0.025 C 
ATOM      4  C   UNL     1     118.795 113.397 110.181  1.00  0.00     0.020 C 
BRANCH   4   5
ATOM      5  C   UNL     1     119.434 112.466 111.123  1.00  0.00     0.064 C 
ATOM      6  O   UNL     1     120.613 112.079 110.910  1.00  0.00    -0.545 OA
ATOM      7  O   UNL     1     118.758 112.009 112.249  1.00  0.00    -0.545 OA
ENDBRANCH   4   5
ENDBRANCH   2   3
ENDBRANCH   1   2
BRANCH   1   8
ATOM      8  C   UNL     1     117.084 115.994 107.137  1.00  0.00     0.000 C 
BRANCH   8   9
ATOM      9  C   UNL     1     116.358 117.185 107.785  1.00  0.00    -0.000 C 
BRANCH   9  10
ATOM     10  C   UNL     1     115.321 117.822 106.847  1.00  0.00    -0.003 C 
ATOM     11  C   UNL     1     114.067 118.289 107.585  1.00  0.00     0.004 C 
ENDBRANCH   9  10
ENDBRANCH   8   9
ENDBRANCH   1   8
TORSDOF 6
ENDMDL
MODEL 7
REMARK VINA RESULT:    -3.994      4.972      6.570
REMARK INTER + INTRA:          -5.771
REMARK INTER:                  -5.422
REMARK INTRA:                  -0.349
REMARK UNBOUND:                -0.376
REMARK SMILES CCCCCCC=CC(=O)[O-]
REMARK SMILES IDX 5 1 6 2 7 3 8 4 9 5 10 6 11 7 4 8 3 9 2 10 1 11
REMARK H PARENT
REMARK Flexibility Score: inf
ROOT
ATOM      1  C   UNL     1     115.400 117.827 109.556  1.00  0.00     0.004 C 
ENDROOT
BRANCH   1   2
ATOM      2  C   UNL     1     115.588 117.030 110.860  1.00  0.00     0.027 C 
BRANCH   2   3
ATOM      3  C   UNL     1     115.242 117.823 112.087  1.00  0.00    -0.025 C 
ATOM      4  C   UNL     1     114.821 119.089 112.010  1.00  0.00     0.020 C 
BRANCH   4   5
ATOM      5  C   UNL     1     114.485 119.874 113.206  1.00  0.00     0.064 C 
ATOM      6  O   UNL     1     114.680 119.382 114.348  1.00  0.00    -0.545 OA
ATOM      7  O   UNL     1     113.958 121.157 113.097  1.00  0.00    -0.545 OA
ENDBRANCH   4   5
ENDBRANCH   2   3
ENDBRANCH   1   2
BRANCH   1   8
ATOM      8  C   UNL     1     115.096 116.951 108.326  1.00  0.00     0.000 C 
BRANCH   8   9
ATOM      9  C   UNL     1     116.197 117.013 107.254  1.00  0.00    -0.000 C 
BRANCH   9  10
ATOM     10  C   UNL     1     117.106 115.773 107.272  1.00  0.00    -0.003 C 
ATOM     11  C   UNL     1     118.349 115.966 108.139  1.00  0.00     0.004 C 
ENDBRANCH   9  10
ENDBRANCH   8   9
ENDBRANCH   1   8
TORSDOF 6
ENDMDL
MODEL 8
REMARK VINA RESULT:    -3.961      3.702      4.655
REMARK INTER + INTRA:          -5.727
REMARK INTER:                  -5.168
REMARK INTRA:                  -0.558
REMARK UNBOUND:                -0.376
REMARK SMILES CCCCCCC=CC(=O)[O-]
REMARK SMILES IDX 5 1 6 2 7 3 8 4 9 5 10 6 11 7 4 8 3 9 2 10 1 11
REMARK H PARENT
REMARK Flexibility Score: inf
ROOT
ATOM      1  C   UNL     1     118.039 116.562 109.080  1.00  0.00     0.004 C 
ENDROOT
BRANCH   1   2
ATOM      2  C   UNL     1     117.616 115.580 110.188  1.00  0.00     0.027 C 
BRANCH   2   3
ATOM      3  C   UNL     1     116.954 116.259 111.353  1.00  0.00    -0.025 C 
ATOM      4  C   UNL     1     115.845 116.989 111.202  1.00  0.00     0.020 C 
BRANCH   4   5
ATOM      5  C   UNL     1     115.193 117.662 112.335  1.00  0.00     0.064 C 
ATOM      6  O   UNL     1     115.344 118.901 112.492  1.00  0.00    -0.545 OA
ATOM      7  O   UNL     1     114.408 116.950 113.235  1.00  0.00    -0.545 OA
ENDBRANCH   4   5
ENDBRANCH   2   3
ENDBRANCH   1   2
BRANCH   1   8
ATOM      8  C   UNL     1     117.559 116.159 107.672  1.00  0.00     0.000 C 
BRANCH   8   9
ATOM      9  C   UNL     1     116.036 116.282 107.496  1.00  0.00    -0.000 C 
BRANCH   9  10
ATOM     10  C   UNL     1     115.609 117.684 107.035  1.00  0.00    -0.003 C 
ATOM     11  C   UNL     1     114.384 118.204 107.786  1.00  0.00     0.004 C 
ENDBRANCH   9  10
ENDBRANCH   8   9
ENDBRANCH   1   8
TORSDOF 6
ENDMDL
MODEL 9
REMARK VINA RESULT:    -3.914      4.062      5.609
REMARK INTER + INTRA:          -5.662
REMARK INTER:                  -5.074
REMARK INTRA:                  -0.588
REMARK UNBOUND:                -0.376
REMARK SMILES CCCCCCC=CC(=O)[O-]
REMARK SMILES IDX 5 1 6 2 7 3 8 4 9 5 10 6 11 7 4 8 3 9 2 10 1 11
REMARK H PARENT
REMARK Flexibility Score: inf
ROOT
ATOM      1  C   UNL     1     118.097 116.004 108.769  1.00  0.00     0.004 C 
ENDROOT
BRANCH   1   2
ATOM      2  C   UNL     1     117.354 115.941 107.421  1.00  0.00     0.027 C 
BRANCH   2   3
ATOM      3  C   UNL     1     116.169 116.862 107.361  1.00  0.00    -0.025 C 
ATOM      4  C   UNL     1     115.745 117.532 108.437  1.00  0.00     0.020 C 
BRANCH   4   5
ATOM      5  C   UNL     1     114.583 118.431 108.389  1.00  0.00     0.064 C 
ATOM      6  O   UNL     1     114.372 119.225 109.342  1.00  0.00    -0.545 OA
ATOM      7  O   UNL     1     113.714 118.422 107.303  1.00  0.00    -0.545 OA
ENDBRANCH   4   5
ENDBRANCH   2   3
ENDBRANCH   1   2
BRANCH   1   8
ATOM      8  C   UNL     1     118.125 114.664 109.529  1.00  0.00     0.000 C 
BRANCH   8   9
ATOM      9  C   UNL     1     117.775 114.810 111.020  1.00  0.00    -0.000 C 
BRANCH   9  10
ATOM     10  C   UNL     1     117.671 116.279 111.459  1.00  0.00    -0.003 C 
ATOM     11  C   UNL     1     116.343 116.596 112.146  1.00  0.00     0.004 C 
ENDBRANCH   9  10
ENDBRANCH   8   9
ENDBRANCH   1   8
TORSDOF 6
ENDMDL
