MODEL 1
REMARK VINA RESULT:    -4.353      0.000      0.000
REMARK INTER + INTRA:          -4.800
REMARK INTER:                  -4.735
REMARK INTRA:                  -0.065
REMARK UNBOUND:                -0.065
REMARK SMILES COc1cc2ccc(=O)oc2cc1O
REMARK SMILES IDX 3 1 13 2 12 3 11 4 5 5 4 6 6 7 7 8 8 9 9 10 10 11 2 12 1 13
REMARK SMILES IDX 14 14
REMARK H PARENT 14 15
REMARK Flexibility Score: inf
ROOT
ATOM      1  C   UNL     1       3.696   9.631  12.159  1.00  0.00     0.161 A 
ATOM      2  C   UNL     1       3.636   9.617  13.562  1.00  0.00     0.161 A 
ATOM      3  C   UNL     1       4.318   8.631  14.289  1.00  0.00     0.098 A 
ATOM      4  C   UNL     1       5.061   7.653  13.625  1.00  0.00     0.142 A 
ATOM      5  C   UNL     1       5.126   7.660  12.215  1.00  0.00     0.022 A 
ATOM      6  C   UNL     1       4.446   8.646  11.487  1.00  0.00     0.062 A 
ATOM      7  C   UNL     1       5.880   6.668  11.579  1.00  0.00     0.019 A 
ATOM      8  C   UNL     1       6.539   5.709  12.348  1.00  0.00     0.094 A 
ATOM      9  C   UNL     1       6.429   5.765  13.741  1.00  0.00     0.336 A 
ATOM     10  O   UNL     1       7.016   4.909  14.452  1.00  0.00    -0.246 OA
ATOM     11  O   UNL     1       5.707   6.720  14.322  1.00  0.00    -0.423 OA
ENDROOT
BRANCH   1  12
ATOM     12  O   UNL     1       2.998  10.637  11.472  1.00  0.00    -0.493 OA
ATOM     13  C   UNL     1       3.608  11.778  10.877  1.00  0.00     0.278 C 
ENDBRANCH   1  12
BRANCH   2  14
ATOM     14  O   UNL     1       2.895  10.592  14.227  1.00  0.00    -0.504 OA
ATOM     15  H   UNL     1       3.150  10.910  15.155  1.00  0.00     0.293 HD
ENDBRANCH   2  14
TORSDOF 2
ENDMDL
MODEL 2
REMARK VINA RESULT:    -4.119      1.384      5.388
REMARK INTER + INTRA:          -4.545
REMARK INTER:                  -4.685
REMARK INTRA:                   0.140
REMARK UNBOUND:                -0.065
REMARK SMILES COc1cc2ccc(=O)oc2cc1O
REMARK SMILES IDX 3 1 13 2 12 3 11 4 5 5 4 6 6 7 7 8 8 9 9 10 10 11 2 12 1 13
REMARK SMILES IDX 14 14
REMARK H PARENT 14 15
REMARK Flexibility Score: inf
ROOT
ATOM      1  C   UNL     1       5.936   7.140  13.596  1.00  0.00     0.161 A 
ATOM      2  C   UNL     1       6.091   7.120  12.201  1.00  0.00     0.161 A 
ATOM      3  C   UNL     1       5.301   7.948  11.389  1.00  0.00     0.098 A 
ATOM      4  C   UNL     1       4.354   8.799  11.962  1.00  0.00     0.142 A 
ATOM      5  C   UNL     1       4.192   8.825  13.364  1.00  0.00     0.022 A 
ATOM      6  C   UNL     1       4.981   7.999  14.176  1.00  0.00     0.062 A 
ATOM      7  C   UNL     1       3.236   9.689  13.907  1.00  0.00     0.019 A 
ATOM      8  C   UNL     1       2.476  10.492  13.057  1.00  0.00     0.094 A 
ATOM      9  C   UNL     1       2.691  10.413  11.677  1.00  0.00     0.336 A 
ATOM     10  O   UNL     1       2.016  11.129  10.894  1.00  0.00    -0.246 OA
ATOM     11  O   UNL     1       3.609   9.583  11.186  1.00  0.00    -0.423 OA
ENDROOT
BRANCH   1  12
ATOM     12  O   UNL     1       6.748   6.295  14.369  1.00  0.00    -0.493 OA
ATOM     13  C   UNL     1       6.636   4.875  14.398  1.00  0.00     0.278 C 
ENDBRANCH   1  12
BRANCH   2  14
ATOM     14  O   UNL     1       7.036   6.272  11.627  1.00  0.00    -0.504 OA
ATOM     15  H   UNL     1       6.776   5.369  11.246  1.00  0.00     0.293 HD
ENDBRANCH   2  14
TORSDOF 2
ENDMDL
MODEL 3
REMARK VINA RESULT:    -4.117      1.350      2.434
REMARK INTER + INTRA:          -4.543
REMARK INTER:                  -4.632
REMARK INTRA:                   0.089
REMARK UNBOUND:                -0.065
REMARK SMILES COc1cc2ccc(=O)oc2cc1O
REMARK SMILES IDX 3 1 13 2 12 3 11 4 5 5 4 6 6 7 7 8 8 9 9 10 10 11 2 12 1 13
REMARK SMILES IDX 14 14
REMARK H PARENT 14 15
REMARK Flexibility Score: inf
ROOT
ATOM      1  C   UNL     1       3.582   9.454  13.154  1.00  0.00     0.161 A 
ATOM      2  C   UNL     1       3.758   9.267  11.773  1.00  0.00     0.161 A 
ATOM      3  C   UNL     1       4.701   8.342  11.299  1.00  0.00     0.098 A 
ATOM      4  C   UNL     1       5.472   7.601  12.196  1.00  0.00     0.142 A 
ATOM      5  C   UNL     1       5.302   7.783  13.585  1.00  0.00     0.022 A 
ATOM      6  C   UNL     1       4.360   8.706  14.060  1.00  0.00     0.062 A 
ATOM      7  C   UNL     1       6.090   7.024  14.457  1.00  0.00     0.019 A 
ATOM      8  C   UNL     1       7.013   6.119  13.936  1.00  0.00     0.094 A 
ATOM      9  C   UNL     1       7.127   5.992  12.547  1.00  0.00     0.336 A 
ATOM     10  O   UNL     1       7.955   5.181  12.057  1.00  0.00    -0.246 OA
ATOM     11  O   UNL     1       6.365   6.725  11.739  1.00  0.00    -0.423 OA
ENDROOT
BRANCH   1  12
ATOM     12  O   UNL     1       2.627  10.389  13.583  1.00  0.00    -0.493 OA
ATOM     13  C   UNL     1       1.219  10.185  13.531  1.00  0.00     0.278 C 
ENDBRANCH   1  12
BRANCH   2  14
ATOM     14  O   UNL     1       2.989  10.005  10.877  1.00  0.00    -0.504 OA
ATOM     15  H   UNL     1       1.977  10.022  10.934  1.00  0.00     0.293 HD
ENDBRANCH   2  14
TORSDOF 2
ENDMDL
MODEL 4
REMARK VINA RESULT:    -3.072      1.372      4.860
REMARK INTER + INTRA:          -3.407
REMARK INTER:                  -3.851
REMARK INTRA:                   0.445
REMARK UNBOUND:                -0.065
REMARK SMILES COc1cc2ccc(=O)oc2cc1O
REMARK SMILES IDX 3 1 13 2 12 3 11 4 5 5 4 6 6 7 7 8 8 9 9 10 10 11 2 12 1 13
REMARK SMILES IDX 14 14
REMARK H PARENT 14 15
REMARK Flexibility Score: inf
ROOT
ATOM      1  C   UNL     1       6.479   7.022  12.374  1.00  0.00     0.161 A 
ATOM      2  C   UNL     1       6.228   7.044  13.755  1.00  0.00     0.161 A 
ATOM      3  C   UNL     1       5.175   7.815  14.270  1.00  0.00     0.098 A 
ATOM      4  C   UNL     1       4.368   8.566  13.414  1.00  0.00     0.142 A 
ATOM      5  C   UNL     1       4.614   8.550  12.025  1.00  0.00     0.022 A 
ATOM      6  C   UNL     1       5.665   7.779  11.509  1.00  0.00     0.062 A 
ATOM      7  C   UNL     1       3.787   9.312  11.193  1.00  0.00     0.019 A 
ATOM      8  C   UNL     1       2.754  10.061  11.755  1.00  0.00     0.094 A 
ATOM      9  C   UNL     1       2.570  10.030  13.141  1.00  0.00     0.336 A 
ATOM     10  O   UNL     1       1.644  10.700  13.667  1.00  0.00    -0.246 OA
ATOM     11  O   UNL     1       3.370   9.295  13.910  1.00  0.00    -0.423 OA
ENDROOT
BRANCH   1  12
ATOM     12  O   UNL     1       7.543   6.236  11.903  1.00  0.00    -0.493 OA
ATOM     13  C   UNL     1       7.761   4.875  12.262  1.00  0.00     0.278 C 
ENDBRANCH   1  12
BRANCH   2  14
ATOM     14  O   UNL     1       7.031   6.294  14.612  1.00  0.00    -0.504 OA
ATOM     15  H   UNL     1       7.665   5.586  14.260  1.00  0.00     0.293 HD
ENDBRANCH   2  14
TORSDOF 2
ENDMDL
