MODEL 1
REMARK VINA RESULT:    -3.994      0.000      0.000
REMARK INTER + INTRA:          -4.475
REMARK INTER:                  -4.461
REMARK INTRA:                  -0.014
REMARK UNBOUND:                -0.014
REMARK SMILES COc1cc2ccc(=O)oc2c(O)c1O
REMARK SMILES IDX 3 1 14 2 12 3 11 4 5 5 4 6 6 7 7 8 8 9 9 10 10 11 2 12 1 13
REMARK SMILES IDX 15 14 13 16
REMARK H PARENT 15 15 13 17
REMARK Flexibility Score: inf
ROOT
ATOM      1  C   UNL     1      35.038 -32.072   9.267  1.00  0.00     0.165 A 
ATOM      2  C   UNL     1      36.441 -32.073   9.343  1.00  0.00     0.204 A 
ATOM      3  C   UNL     1      37.116 -31.033  10.028  1.00  0.00     0.205 A 
ATOM      4  C   UNL     1      36.376 -30.006  10.629  1.00  0.00     0.184 A 
ATOM      5  C   UNL     1      34.968 -30.007  10.551  1.00  0.00     0.025 A 
ATOM      6  C   UNL     1      34.304 -31.035   9.875  1.00  0.00     0.062 A 
ATOM      7  C   UNL     1      34.263 -28.965  11.163  1.00  0.00     0.020 A 
ATOM      8  C   UNL     1      34.965 -27.960  11.828  1.00  0.00     0.094 A 
ATOM      9  C   UNL     1      36.361 -28.022  11.865  1.00  0.00     0.336 A 
ATOM     10  O   UNL     1      37.014 -27.126  12.460  1.00  0.00    -0.246 OA
ATOM     11  O   UNL     1      37.006 -29.026  11.275  1.00  0.00    -0.419 OA
ENDROOT
BRANCH   1  12
ATOM     12  O   UNL     1      34.407 -33.121   8.579  1.00  0.00    -0.493 OA
ATOM     13  C   UNL     1      34.135 -33.125   7.181  1.00  0.00     0.278 C 
ENDBRANCH   1  12
BRANCH   2  14
ATOM     14  O   UNL     1      37.123 -33.125   8.724  1.00  0.00    -0.502 OA
ATOM     15  H   UNL     1      37.651 -33.035   7.869  1.00  0.00     0.293 HD
ENDBRANCH   2  14
BRANCH   3  16
ATOM     16  O   UNL     1      38.508 -30.984  10.134  1.00  0.00    -0.502 OA
ATOM     17  H   UNL     1      39.142 -31.107   9.358  1.00  0.00     0.293 HD
ENDBRANCH   3  16
TORSDOF 3
ENDMDL
MODEL 2
REMARK VINA RESULT:    -3.828      1.725      5.453
REMARK INTER + INTRA:          -4.289
REMARK INTER:                  -4.237
REMARK INTRA:                  -0.052
REMARK UNBOUND:                -0.014
REMARK SMILES COc1cc2ccc(=O)oc2c(O)c1O
REMARK SMILES IDX 3 1 14 2 12 3 11 4 5 5 4 6 6 7 7 8 8 9 9 10 10 11 2 12 1 13
REMARK SMILES IDX 15 14 13 16
REMARK H PARENT 15 15 13 17
REMARK Flexibility Score: inf
ROOT
ATOM      1  C   UNL     1      35.668 -28.611  11.748  1.00  0.00     0.165 A 
ATOM      2  C   UNL     1      34.285 -28.849  11.690  1.00  0.00     0.204 A 
ATOM      3  C   UNL     1      33.771 -29.843  10.820  1.00  0.00     0.205 A 
ATOM      4  C   UNL     1      34.651 -30.584  10.020  1.00  0.00     0.184 A 
ATOM      5  C   UNL     1      36.039 -30.342  10.080  1.00  0.00     0.025 A 
ATOM      6  C   UNL     1      36.543 -29.361  10.939  1.00  0.00     0.062 A 
ATOM      7  C   UNL     1      36.886 -31.101   9.266  1.00  0.00     0.020 A 
ATOM      8  C   UNL     1      36.341 -32.070   8.424  1.00  0.00     0.094 A 
ATOM      9  C   UNL     1      34.956 -32.256   8.416  1.00  0.00     0.336 A 
ATOM     10  O   UNL     1      34.443 -33.125   7.663  1.00  0.00    -0.246 OA
ATOM     11  O   UNL     1      34.174 -31.519   9.201  1.00  0.00    -0.419 OA
ENDROOT
BRANCH   1  12
ATOM     12  O   UNL     1      36.136 -27.617  12.623  1.00  0.00    -0.493 OA
ATOM     13  C   UNL     1      37.472 -27.125  12.649  1.00  0.00     0.278 C 
ENDBRANCH   1  12
BRANCH   2  14
ATOM     14  O   UNL     1      33.458 -28.078  12.513  1.00  0.00    -0.502 OA
ATOM     15  H   UNL     1      32.790 -28.461  13.166  1.00  0.00     0.293 HD
ENDBRANCH   2  14
BRANCH   3  16
ATOM     16  O   UNL     1      32.405 -30.122  10.723  1.00  0.00    -0.502 OA
ATOM     17  H   UNL     1      31.907 -30.226   9.851  1.00  0.00     0.293 HD
ENDBRANCH   3  16
TORSDOF 3
ENDMDL
MODEL 3
REMARK VINA RESULT:    -3.713      1.806      3.365
REMARK INTER + INTRA:          -4.161
REMARK INTER:                  -4.093
REMARK INTRA:                  -0.068
REMARK UNBOUND:                -0.014
REMARK SMILES COc1cc2ccc(=O)oc2c(O)c1O
REMARK SMILES IDX 3 1 14 2 12 3 11 4 5 5 4 6 6 7 7 8 8 9 9 10 10 11 2 12 1 13
REMARK SMILES IDX 15 14 13 16
REMARK H PARENT 15 15 13 17
REMARK Flexibility Score: inf
ROOT
ATOM      1  C   UNL     1      35.479 -32.397   8.859  1.00  0.00     0.165 A 
ATOM      2  C   UNL     1      35.038 -31.219   9.484  1.00  0.00     0.204 A 
ATOM      3  C   UNL     1      35.934 -30.455  10.273  1.00  0.00     0.205 A 
ATOM      4  C   UNL     1      37.259 -30.882  10.424  1.00  0.00     0.184 A 
ATOM      5  C   UNL     1      37.699 -32.066   9.796  1.00  0.00     0.025 A 
ATOM      6  C   UNL     1      36.814 -32.817   9.018  1.00  0.00     0.062 A 
ATOM      7  C   UNL     1      39.030 -32.460   9.970  1.00  0.00     0.020 A 
ATOM      8  C   UNL     1      39.880 -31.681  10.754  1.00  0.00     0.094 A 
ATOM      9  C   UNL     1      39.375 -30.520  11.348  1.00  0.00     0.336 A 
ATOM     10  O   UNL     1      40.125 -29.801  12.059  1.00  0.00    -0.246 OA
ATOM     11  O   UNL     1      38.105 -30.168  11.164  1.00  0.00    -0.419 OA
ENDROOT
BRANCH   1  12
ATOM     12  O   UNL     1      34.560 -33.125   8.086  1.00  0.00    -0.493 OA
ATOM     13  C   UNL     1      34.498 -33.097   6.664  1.00  0.00     0.278 C 
ENDBRANCH   1  12
BRANCH   2  14
ATOM     14  O   UNL     1      33.704 -30.844   9.295  1.00  0.00    -0.502 OA
ATOM     15  H   UNL     1      33.203 -30.944   8.424  1.00  0.00     0.293 HD
ENDBRANCH   2  14
BRANCH   3  16
ATOM     16  O   UNL     1      35.548 -29.276  10.917  1.00  0.00    -0.502 OA
ATOM     17  H   UNL     1      35.243 -29.226  11.877  1.00  0.00     0.293 HD
ENDBRANCH   3  16
TORSDOF 3
ENDMDL
MODEL 4
REMARK VINA RESULT:    -3.066     21.699     22.715
REMARK INTER + INTRA:          -3.438
REMARK INTER:                  -3.377
REMARK INTRA:                  -0.062
REMARK UNBOUND:                -0.014
REMARK SMILES COc1cc2ccc(=O)oc2c(O)c1O
REMARK SMILES IDX 3 1 14 2 12 3 11 4 5 5 4 6 6 7 7 8 8 9 9 10 10 11 2 12 1 13
REMARK SMILES IDX 15 14 13 16
REMARK H PARENT 15 15 13 17
REMARK Flexibility Score: inf
ROOT
ATOM      1  C   UNL     1      19.974 -19.444  -0.168  1.00  0.00     0.165 A 
ATOM      2  C   UNL     1      20.160 -19.262   1.213  1.00  0.00     0.204 A 
ATOM      3  C   UNL     1      20.260 -17.954   1.750  1.00  0.00     0.205 A 
ATOM      4  C   UNL     1      20.172 -16.847   0.896  1.00  0.00     0.184 A 
ATOM      5  C   UNL     1      19.986 -17.033  -0.490  1.00  0.00     0.025 A 
ATOM      6  C   UNL     1      19.887 -18.324  -1.016  1.00  0.00     0.062 A 
ATOM      7  C   UNL     1      19.904 -15.903  -1.310  1.00  0.00     0.020 A 
ATOM      8  C   UNL     1      20.006 -14.634  -0.743  1.00  0.00     0.094 A 
ATOM      9  C   UNL     1      20.191 -14.524   0.638  1.00  0.00     0.336 A 
ATOM     10  O   UNL     1      20.286 -13.388   1.172  1.00  0.00    -0.246 OA
ATOM     11  O   UNL     1      20.265 -15.616   1.396  1.00  0.00    -0.419 OA
ENDROOT
BRANCH   1  12
ATOM     12  O   UNL     1      19.880 -20.756  -0.659  1.00  0.00    -0.493 OA
ATOM     13  C   UNL     1      20.611 -21.257  -1.773  1.00  0.00     0.278 C 
ENDBRANCH   1  12
BRANCH   2  14
ATOM     14  O   UNL     1      20.239 -20.405   2.014  1.00  0.00    -0.502 OA
ATOM     15  H   UNL     1      19.932 -21.323   1.726  1.00  0.00     0.293 HD
ENDBRANCH   2  14
BRANCH   3  16
ATOM     16  O   UNL     1      20.444 -17.716   3.115  1.00  0.00    -0.502 OA
ATOM     17  H   UNL     1      20.067 -18.295   3.849  1.00  0.00     0.293 HD
ENDBRANCH   3  16
TORSDOF 3
ENDMDL
MODEL 5
REMARK VINA RESULT:    -2.961     21.481     22.783
REMARK INTER + INTRA:          -3.321
REMARK INTER:                  -3.251
REMARK INTRA:                  -0.070
REMARK UNBOUND:                -0.014
REMARK SMILES COc1cc2ccc(=O)oc2c(O)c1O
REMARK SMILES IDX 3 1 14 2 12 3 11 4 5 5 4 6 6 7 7 8 8 9 9 10 10 11 2 12 1 13
REMARK SMILES IDX 15 14 13 16
REMARK H PARENT 15 15 13 17
REMARK Flexibility Score: inf
ROOT
ATOM      1  C   UNL     1      20.058 -16.311   3.237  1.00  0.00     0.165 A 
ATOM      2  C   UNL     1      20.222 -15.563   2.059  1.00  0.00     0.204 A 
ATOM      3  C   UNL     1      20.271 -16.218   0.803  1.00  0.00     0.205 A 
ATOM      4  C   UNL     1      20.153 -17.612   0.745  1.00  0.00     0.184 A 
ATOM      5  C   UNL     1      19.988 -18.360   1.929  1.00  0.00     0.025 A 
ATOM      6  C   UNL     1      19.940 -17.712   3.166  1.00  0.00     0.062 A 
ATOM      7  C   UNL     1      19.875 -19.751   1.831  1.00  0.00     0.020 A 
ATOM      8  C   UNL     1      19.927 -20.357   0.576  1.00  0.00     0.094 A 
ATOM      9  C   UNL     1      20.093 -19.553  -0.556  1.00  0.00     0.336 A 
ATOM     10  O   UNL     1      20.143 -20.079  -1.698  1.00  0.00    -0.246 OA
ATOM     11  O   UNL     1      20.198 -18.232  -0.433  1.00  0.00    -0.419 OA
ENDROOT
BRANCH   1  12
ATOM     12  O   UNL     1      20.014 -15.624   4.461  1.00  0.00    -0.493 OA
ATOM     13  C   UNL     1      21.063 -15.619   5.424  1.00  0.00     0.278 C 
ENDBRANCH   1  12
BRANCH   2  14
ATOM     14  O   UNL     1      20.333 -14.175   2.182  1.00  0.00    -0.502 OA
ATOM     15  H   UNL     1      21.080 -13.705   2.673  1.00  0.00     0.293 HD
ENDBRANCH   2  14
BRANCH   3  16
ATOM     16  O   UNL     1      20.433 -15.524  -0.399  1.00  0.00    -0.502 OA
ATOM     17  H   UNL     1      20.253 -14.537  -0.515  1.00  0.00     0.293 HD
ENDBRANCH   3  16
TORSDOF 3
ENDMDL
MODEL 6
REMARK VINA RESULT:    -2.934     21.618     22.906
REMARK INTER + INTRA:          -3.291
REMARK INTER:                  -3.222
REMARK INTRA:                  -0.069
REMARK UNBOUND:                -0.014
REMARK SMILES COc1cc2ccc(=O)oc2c(O)c1O
REMARK SMILES IDX 3 1 14 2 12 3 11 4 5 5 4 6 6 7 7 8 8 9 9 10 10 11 2 12 1 13
REMARK SMILES IDX 15 14 13 16
REMARK H PARENT 15 15 13 17
REMARK Flexibility Score: inf
ROOT
ATOM      1  C   UNL     1      20.381 -15.664   4.256  1.00  0.00     0.165 A 
ATOM      2  C   UNL     1      20.638 -14.707   3.260  1.00  0.00     0.204 A 
ATOM      3  C   UNL     1      20.643 -15.088   1.895  1.00  0.00     0.205 A 
ATOM      4  C   UNL     1      20.390 -16.421   1.548  1.00  0.00     0.184 A 
ATOM      5  C   UNL     1      20.133 -17.379   2.550  1.00  0.00     0.025 A 
ATOM      6  C   UNL     1      20.128 -17.001   3.895  1.00  0.00     0.062 A 
ATOM      7  C   UNL     1      19.885 -18.701   2.164  1.00  0.00     0.020 A 
ATOM      8  C   UNL     1      19.898 -19.034   0.810  1.00  0.00     0.094 A 
ATOM      9  C   UNL     1      20.161 -18.034  -0.129  1.00  0.00     0.336 A 
ATOM     10  O   UNL     1      20.178 -18.313  -1.356  1.00  0.00    -0.246 OA
ATOM     11  O   UNL     1      20.393 -16.784   0.266  1.00  0.00    -0.419 OA
ENDROOT
BRANCH   1  12
ATOM     12  O   UNL     1      20.385 -15.246   5.597  1.00  0.00    -0.493 OA
ATOM     13  C   UNL     1      21.448 -15.481   6.515  1.00  0.00     0.278 C 
ENDBRANCH   1  12
BRANCH   2  14
ATOM     14  O   UNL     1      20.883 -13.393   3.669  1.00  0.00    -0.502 OA
ATOM     15  H   UNL     1      20.211 -12.813   4.149  1.00  0.00     0.293 HD
ENDBRANCH   2  14
BRANCH   3  16
ATOM     16  O   UNL     1      20.893 -14.179   0.863  1.00  0.00    -0.502 OA
ATOM     17  H   UNL     1      21.783 -13.731   0.704  1.00  0.00     0.293 HD
ENDBRANCH   3  16
TORSDOF 3
ENDMDL
MODEL 7
REMARK VINA RESULT:    -2.765     21.520     22.541
REMARK INTER + INTRA:          -3.102
REMARK INTER:                  -3.032
REMARK INTRA:                  -0.070
REMARK UNBOUND:                -0.014
REMARK SMILES COc1cc2ccc(=O)oc2c(O)c1O
REMARK SMILES IDX 3 1 14 2 12 3 11 4 5 5 4 6 6 7 7 8 8 9 9 10 10 11 2 12 1 13
REMARK SMILES IDX 15 14 13 16
REMARK H PARENT 15 15 13 17
REMARK Flexibility Score: inf
ROOT
ATOM      1  C   UNL     1      20.068 -16.928   0.044  1.00  0.00     0.165 A 
ATOM      2  C   UNL     1      20.026 -18.177   0.686  1.00  0.00     0.204 A 
ATOM      3  C   UNL     1      19.977 -18.247   2.100  1.00  0.00     0.205 A 
ATOM      4  C   UNL     1      19.972 -17.065   2.851  1.00  0.00     0.184 A 
ATOM      5  C   UNL     1      20.015 -15.812   2.204  1.00  0.00     0.025 A 
ATOM      6  C   UNL     1      20.062 -15.746   0.809  1.00  0.00     0.062 A 
ATOM      7  C   UNL     1      20.009 -14.654   2.988  1.00  0.00     0.020 A 
ATOM      8  C   UNL     1      19.960 -14.766   4.377  1.00  0.00     0.094 A 
ATOM      9  C   UNL     1      19.920 -16.039   4.951  1.00  0.00     0.336 A 
ATOM     10  O   UNL     1      19.875 -16.163   6.203  1.00  0.00    -0.246 OA
ATOM     11  O   UNL     1      19.926 -17.125   4.181  1.00  0.00    -0.419 OA
ENDROOT
BRANCH   1  12
ATOM     12  O   UNL     1      20.115 -16.902  -1.360  1.00  0.00    -0.493 OA
ATOM     13  C   UNL     1      21.254 -16.520  -2.125  1.00  0.00     0.278 C 
ENDBRANCH   1  12
BRANCH   2  14
ATOM     14  O   UNL     1      20.033 -19.321  -0.118  1.00  0.00    -0.502 OA
ATOM     15  H   UNL     1      20.214 -20.254   0.222  1.00  0.00     0.293 HD
ENDBRANCH   2  14
BRANCH   3  16
ATOM     16  O   UNL     1      19.934 -19.461   2.790  1.00  0.00    -0.502 OA
ATOM     17  H   UNL     1      20.746 -19.940   3.150  1.00  0.00     0.293 HD
ENDBRANCH   3  16
TORSDOF 3
ENDMDL
MODEL 8
REMARK VINA RESULT:    -2.735     21.585     22.925
REMARK INTER + INTRA:          -3.069
REMARK INTER:                  -2.999
REMARK INTRA:                  -0.070
REMARK UNBOUND:                -0.014
REMARK SMILES COc1cc2ccc(=O)oc2c(O)c1O
REMARK SMILES IDX 3 1 14 2 12 3 11 4 5 5 4 6 6 7 7 8 8 9 9 10 10 11 2 12 1 13
REMARK SMILES IDX 15 14 13 16
REMARK H PARENT 15 15 13 17
REMARK Flexibility Score: inf
ROOT
ATOM      1  C   UNL     1      20.263 -14.163   1.539  1.00  0.00     0.165 A 
ATOM      2  C   UNL     1      20.253 -15.564   1.646  1.00  0.00     0.204 A 
ATOM      3  C   UNL     1      20.617 -16.185   2.866  1.00  0.00     0.205 A 
ATOM      4  C   UNL     1      20.986 -15.394   3.962  1.00  0.00     0.184 A 
ATOM      5  C   UNL     1      20.995 -13.988   3.852  1.00  0.00     0.025 A 
ATOM      6  C   UNL     1      20.635 -13.378   2.647  1.00  0.00     0.062 A 
ATOM      7  C   UNL     1      21.370 -13.232   4.967  1.00  0.00     0.020 A 
ATOM      8  C   UNL     1      21.721 -13.882   6.150  1.00  0.00     0.094 A 
ATOM      9  C   UNL     1      21.690 -15.279   6.188  1.00  0.00     0.336 A 
ATOM     10  O   UNL     1      22.003 -15.886   7.245  1.00  0.00    -0.246 OA
ATOM     11  O   UNL     1      21.329 -15.973   5.112  1.00  0.00    -0.419 OA
ENDROOT
BRANCH   1  12
ATOM     12  O   UNL     1      19.894 -13.587   0.312  1.00  0.00    -0.493 OA
ATOM     13  C   UNL     1      20.799 -12.962  -0.592  1.00  0.00     0.278 C 
ENDBRANCH   1  12
BRANCH   2  14
ATOM     14  O   UNL     1      19.875 -16.298   0.518  1.00  0.00    -0.502 OA
ATOM     15  H   UNL     1      20.496 -16.900  -0.003  1.00  0.00     0.293 HD
ENDBRANCH   2  14
BRANCH   3  16
ATOM     16  O   UNL     1      20.625 -17.573   3.029  1.00  0.00    -0.502 OA
ATOM     17  H   UNL     1      19.845 -18.109   3.379  1.00  0.00     0.293 HD
ENDBRANCH   3  16
TORSDOF 3
ENDMDL
