MODEL 1
REMARK VINA RESULT:    -4.978      0.000      0.000
REMARK INTER + INTRA:          -7.970
REMARK INTER:                  -7.597
REMARK INTRA:                  -0.374
REMARK UNBOUND:                -0.374
REMARK SMILES CCCCCCCCCC=CC(=O)[O-]
REMARK SMILES IDX 7 1 8 2 9 3 10 4 11 5 12 6 13 7 14 8 6 9 5 10 4 11 3 12 2 13
REMARK SMILES IDX 1 14
REMARK H PARENT
REMARK Flexibility Score: inf
ROOT
ATOM      1  C   UNL     1      36.524  44.129  38.035  1.00  0.00     0.000 C 
ENDROOT
BRANCH   1   2
ATOM      2  C   UNL     1      36.318  43.759  36.558  1.00  0.00     0.004 C 
BRANCH   2   3
ATOM      3  C   UNL     1      36.286  44.994  35.641  1.00  0.00     0.027 C 
BRANCH   3   4
ATOM      4  C   UNL     1      35.221  44.858  34.588  1.00  0.00    -0.025 C 
ATOM      5  C   UNL     1      35.044  45.672  33.535  1.00  0.00     0.020 C 
BRANCH   5   6
ATOM      6  C   UNL     1      35.879  46.837  33.171  1.00  0.00     0.064 C 
ATOM      7  O   UNL     1      35.666  47.939  33.740  1.00  0.00    -0.545 OA
ATOM      8  O   UNL     1      36.874  46.764  32.205  1.00  0.00    -0.545 OA
ENDBRANCH   5   6
ENDBRANCH   3   4
ENDBRANCH   2   3
ENDBRANCH   1   2
BRANCH   1   9
ATOM      9  C   UNL     1      35.671  43.268  38.981  1.00  0.00     0.000 C 
BRANCH   9  10
ATOM     10  C   UNL     1      35.192  44.086  40.186  1.00  0.00     0.000 C 
BRANCH  10  11
ATOM     11  C   UNL     1      34.316  43.234  41.116  1.00  0.00    -0.000 C 
BRANCH  11  12
ATOM     12  C   UNL     1      33.641  44.059  42.226  1.00  0.00    -0.000 C 
BRANCH  12  13
ATOM     13  C   UNL     1      32.111  43.906  42.306  1.00  0.00    -0.003 C 
ATOM     14  C   UNL     1      31.490  43.426  40.995  1.00  0.00     0.004 C 
ENDBRANCH  12  13
ENDBRANCH  11  12
ENDBRANCH  10  11
ENDBRANCH   9  10
ENDBRANCH   1   9
TORSDOF 9
ENDMDL
MODEL 2
REMARK VINA RESULT:    -4.959      4.217      7.942
REMARK INTER + INTRA:          -7.942
REMARK INTER:                  -7.570
REMARK INTRA:                  -0.372
REMARK UNBOUND:                -0.374
REMARK SMILES CCCCCCCCCC=CC(=O)[O-]
REMARK SMILES IDX 7 1 8 2 9 3 10 4 11 5 12 6 13 7 14 8 6 9 5 10 4 11 3 12 2 13
REMARK SMILES IDX 1 14
REMARK H PARENT
REMARK Flexibility Score: inf
ROOT
ATOM      1  C   UNL     1      36.096  43.527  38.475  1.00  0.00     0.000 C 
ENDROOT
BRANCH   1   2
ATOM      2  C   UNL     1      35.614  42.293  39.253  1.00  0.00     0.004 C 
BRANCH   2   3
ATOM      3  C   UNL     1      34.524  42.636  40.282  1.00  0.00     0.027 C 
BRANCH   3   4
ATOM      4  C   UNL     1      34.753  43.997  40.881  1.00  0.00    -0.025 C 
ATOM      5  C   UNL     1      34.060  44.540  41.895  1.00  0.00     0.020 C 
BRANCH   5   6
ATOM      6  C   UNL     1      32.963  43.903  42.654  1.00  0.00     0.064 C 
ATOM      7  O   UNL     1      31.781  44.044  42.249  1.00  0.00    -0.545 OA
ATOM      8  O   UNL     1      33.190  43.175  43.815  1.00  0.00    -0.545 OA
ENDBRANCH   5   6
ENDBRANCH   3   4
ENDBRANCH   2   3
ENDBRANCH   1   2
BRANCH   1   9
ATOM      9  C   UNL     1      35.999  43.337  36.953  1.00  0.00     0.000 C 
BRANCH   9  10
ATOM     10  C   UNL     1      36.494  44.584  36.211  1.00  0.00     0.000 C 
BRANCH  10  11
ATOM     11  C   UNL     1      35.576  44.921  35.027  1.00  0.00    -0.000 C 
BRANCH  11  12
ATOM     12  C   UNL     1      35.871  46.302  34.414  1.00  0.00    -0.000 C 
BRANCH  12  13
ATOM     13  C   UNL     1      35.455  46.457  32.940  1.00  0.00    -0.003 C 
ATOM     14  C   UNL     1      36.530  47.124  32.082  1.00  0.00     0.004 C 
ENDBRANCH  12  13
ENDBRANCH  11  12
ENDBRANCH  10  11
ENDBRANCH   9  10
ENDBRANCH   1   9
TORSDOF 9
ENDMDL
MODEL 3
REMARK VINA RESULT:    -4.848     11.780     12.766
REMARK INTER + INTRA:          -7.773
REMARK INTER:                  -7.691
REMARK INTRA:                  -0.082
REMARK UNBOUND:                -0.374
REMARK SMILES CCCCCCCCCC=CC(=O)[O-]
REMARK SMILES IDX 7 1 8 2 9 3 10 4 11 5 12 6 13 7 14 8 6 9 5 10 4 11 3 12 2 13
REMARK SMILES IDX 1 14
REMARK H PARENT
REMARK Flexibility Score: inf
ROOT
ATOM      1  C   UNL     1      25.505  52.751  38.157  1.00  0.00     0.000 C 
ENDROOT
BRANCH   1   2
ATOM      2  C   UNL     1      26.406  53.759  37.429  1.00  0.00     0.004 C 
BRANCH   2   3
ATOM      3  C   UNL     1      27.308  54.547  38.393  1.00  0.00     0.027 C 
BRANCH   3   4
ATOM      4  C   UNL     1      28.658  53.898  38.526  1.00  0.00    -0.025 C 
ATOM      5  C   UNL     1      29.764  54.471  39.026  1.00  0.00     0.020 C 
BRANCH   5   6
ATOM      6  C   UNL     1      29.874  55.836  39.585  1.00  0.00     0.064 C 
ATOM      7  O   UNL     1      30.801  56.088  40.396  1.00  0.00    -0.545 OA
ATOM      8  O   UNL     1      28.972  56.843  39.265  1.00  0.00    -0.545 OA
ENDBRANCH   5   6
ENDBRANCH   3   4
ENDBRANCH   2   3
ENDBRANCH   1   2
BRANCH   1   9
ATOM      9  C   UNL     1      24.837  51.756  37.194  1.00  0.00     0.000 C 
BRANCH   9  10
ATOM     10  C   UNL     1      25.747  50.551  36.933  1.00  0.00     0.000 C 
BRANCH  10  11
ATOM     11  C   UNL     1      24.927  49.324  36.508  1.00  0.00    -0.000 C 
BRANCH  11  12
ATOM     12  C   UNL     1      23.461  49.666  36.181  1.00  0.00    -0.000 C 
BRANCH  12  13
ATOM     13  C   UNL     1      22.700  48.574  35.409  1.00  0.00    -0.003 C 
ATOM     14  C   UNL     1      23.603  47.436  34.935  1.00  0.00     0.004 C 
ENDBRANCH  12  13
ENDBRANCH  11  12
ENDBRANCH  10  11
ENDBRANCH   9  10
ENDBRANCH   1   9
TORSDOF 9
ENDMDL
MODEL 4
REMARK VINA RESULT:    -4.729     11.812     12.922
REMARK INTER + INTRA:          -7.592
REMARK INTER:                  -7.546
REMARK INTRA:                  -0.045
REMARK UNBOUND:                -0.374
REMARK SMILES CCCCCCCCCC=CC(=O)[O-]
REMARK SMILES IDX 7 1 8 2 9 3 10 4 11 5 12 6 13 7 14 8 6 9 5 10 4 11 3 12 2 13
REMARK SMILES IDX 1 14
REMARK H PARENT
REMARK Flexibility Score: inf
ROOT
ATOM      1  C   UNL     1      26.100  53.253  37.148  1.00  0.00     0.000 C 
ENDROOT
BRANCH   1   2
ATOM      2  C   UNL     1      25.161  52.313  37.917  1.00  0.00     0.004 C 
BRANCH   2   3
ATOM      3  C   UNL     1      24.450  51.307  36.996  1.00  0.00     0.027 C 
BRANCH   3   4
ATOM      4  C   UNL     1      25.256  50.046  36.848  1.00  0.00    -0.025 C 
ATOM      5  C   UNL     1      24.828  48.894  36.306  1.00  0.00     0.020 C 
BRANCH   5   6
ATOM      6  C   UNL     1      23.498  48.642  35.708  1.00  0.00     0.064 C 
ATOM      7  O   UNL     1      22.504  49.272  36.151  1.00  0.00    -0.545 OA
ATOM      8  O   UNL     1      23.305  47.715  34.693  1.00  0.00    -0.545 OA
ENDBRANCH   5   6
ENDBRANCH   3   4
ENDBRANCH   2   3
ENDBRANCH   1   2
BRANCH   1   9
ATOM      9  C   UNL     1      26.987  54.092  38.082  1.00  0.00     0.000 C 
BRANCH   9  10
ATOM     10  C   UNL     1      28.268  53.334  38.450  1.00  0.00     0.000 C 
BRANCH  10  11
ATOM     11  C   UNL     1      29.402  54.308  38.801  1.00  0.00    -0.000 C 
BRANCH  11  12
ATOM     12  C   UNL     1      28.892  55.711  39.179  1.00  0.00    -0.000 C 
BRANCH  12  13
ATOM     13  C   UNL     1      29.913  56.590  39.925  1.00  0.00    -0.003 C 
ATOM     14  C   UNL     1      31.138  55.811  40.401  1.00  0.00     0.004 C 
ENDBRANCH  12  13
ENDBRANCH  11  12
ENDBRANCH  10  11
ENDBRANCH   9  10
ENDBRANCH   1   9
TORSDOF 9
ENDMDL
MODEL 5
REMARK VINA RESULT:    -4.480      3.635      7.541
REMARK INTER + INTRA:          -7.210
REMARK INTER:                  -7.017
REMARK INTRA:                  -0.193
REMARK UNBOUND:                -0.374
REMARK SMILES CCCCCCCCCC=CC(=O)[O-]
REMARK SMILES IDX 7 1 8 2 9 3 10 4 11 5 12 6 13 7 14 8 6 9 5 10 4 11 3 12 2 13
REMARK SMILES IDX 1 14
REMARK H PARENT
REMARK Flexibility Score: inf
ROOT
ATOM      1  C   UNL     1      36.910  43.607  36.740  1.00  0.00     0.000 C 
ENDROOT
BRANCH   1   2
ATOM      2  C   UNL     1      36.114  42.666  37.657  1.00  0.00     0.004 C 
BRANCH   2   3
ATOM      3  C   UNL     1      35.790  43.306  39.018  1.00  0.00     0.027 C 
BRANCH   3   4
ATOM      4  C   UNL     1      35.177  42.302  39.956  1.00  0.00    -0.025 C 
ATOM      5  C   UNL     1      34.412  42.582  41.023  1.00  0.00     0.020 C 
BRANCH   5   6
ATOM      6  C   UNL     1      33.983  43.924  41.471  1.00  0.00     0.064 C 
ATOM      7  O   UNL     1      32.771  44.114  41.747  1.00  0.00    -0.545 OA
ATOM      8  O   UNL     1      34.868  44.990  41.573  1.00  0.00    -0.545 OA
ENDBRANCH   5   6
ENDBRANCH   3   4
ENDBRANCH   2   3
ENDBRANCH   1   2
BRANCH   1   9
ATOM      9  C   UNL     1      36.020  44.668  36.072  1.00  0.00     0.000 C 
BRANCH   9  10
ATOM     10  C   UNL     1      36.619  45.123  34.736  1.00  0.00     0.000 C 
BRANCH  10  11
ATOM     11  C   UNL     1      35.555  45.799  33.858  1.00  0.00    -0.000 C 
BRANCH  11  12
ATOM     12  C   UNL     1      36.161  46.710  32.775  1.00  0.00    -0.000 C 
BRANCH  12  13
ATOM     13  C   UNL     1      36.520  48.129  33.251  1.00  0.00    -0.003 C 
ATOM     14  C   UNL     1      35.763  48.547  34.511  1.00  0.00     0.004 C 
ENDBRANCH  12  13
ENDBRANCH  11  12
ENDBRANCH  10  11
ENDBRANCH   9  10
ENDBRANCH   1   9
TORSDOF 9
ENDMDL
MODEL 6
REMARK VINA RESULT:    -4.425      3.812      7.347
REMARK INTER + INTRA:          -7.128
REMARK INTER:                  -6.627
REMARK INTRA:                  -0.501
REMARK UNBOUND:                -0.374
REMARK SMILES CCCCCCCCCC=CC(=O)[O-]
REMARK SMILES IDX 7 1 8 2 9 3 10 4 11 5 12 6 13 7 14 8 6 9 5 10 4 11 3 12 2 13
REMARK SMILES IDX 1 14
REMARK H PARENT
REMARK Flexibility Score: inf
ROOT
ATOM      1  C   UNL     1      35.579  45.079  40.376  1.00  0.00     0.000 C 
ENDROOT
BRANCH   1   2
ATOM      2  C   UNL     1      34.459  45.120  41.427  1.00  0.00     0.004 C 
BRANCH   2   3
ATOM      3  C   UNL     1      34.222  43.752  42.089  1.00  0.00     0.027 C 
BRANCH   3   4
ATOM      4  C   UNL     1      32.954  43.754  42.898  1.00  0.00    -0.025 C 
ATOM      5  C   UNL     1      31.719  43.510  42.431  1.00  0.00     0.020 C 
BRANCH   5   6
ATOM      6  C   UNL     1      31.357  43.151  41.043  1.00  0.00     0.064 C 
ATOM      7  O   UNL     1      30.791  44.010  40.320  1.00  0.00    -0.545 OA
ATOM      8  O   UNL     1      31.597  41.887  40.517  1.00  0.00    -0.545 OA
ENDBRANCH   5   6
ENDBRANCH   3   4
ENDBRANCH   2   3
ENDBRANCH   1   2
BRANCH   1   9
ATOM      9  C   UNL     1      35.520  43.815  39.504  1.00  0.00     0.000 C 
BRANCH   9  10
ATOM     10  C   UNL     1      36.602  43.847  38.418  1.00  0.00     0.000 C 
BRANCH  10  11
ATOM     11  C   UNL     1      36.010  43.509  37.042  1.00  0.00    -0.000 C 
BRANCH  11  12
ATOM     12  C   UNL     1      36.675  44.290  35.894  1.00  0.00    -0.000 C 
BRANCH  12  13
ATOM     13  C   UNL     1      35.822  45.429  35.308  1.00  0.00    -0.003 C 
ATOM     14  C   UNL     1      35.018  45.004  34.080  1.00  0.00     0.004 C 
ENDBRANCH  12  13
ENDBRANCH  11  12
ENDBRANCH  10  11
ENDBRANCH   9  10
ENDBRANCH   1   9
TORSDOF 9
ENDMDL
MODEL 7
REMARK VINA RESULT:    -4.410     10.970     12.309
REMARK INTER + INTRA:          -7.105
REMARK INTER:                  -6.925
REMARK INTRA:                  -0.180
REMARK UNBOUND:                -0.374
REMARK SMILES CCCCCCCCCC=CC(=O)[O-]
REMARK SMILES IDX 7 1 8 2 9 3 10 4 11 5 12 6 13 7 14 8 6 9 5 10 4 11 3 12 2 13
REMARK SMILES IDX 1 14
REMARK H PARENT
REMARK Flexibility Score: inf
ROOT
ATOM      1  C   UNL     1      25.928  52.794  38.033  1.00  0.00     0.000 C 
ENDROOT
BRANCH   1   2
ATOM      2  C   UNL     1      26.636  54.025  37.448  1.00  0.00     0.004 C 
BRANCH   2   3
ATOM      3  C   UNL     1      27.492  54.763  38.491  1.00  0.00     0.027 C 
BRANCH   3   4
ATOM      4  C   UNL     1      28.834  54.103  38.655  1.00  0.00    -0.025 C 
ATOM      5  C   UNL     1      29.936  54.672  39.169  1.00  0.00     0.020 C 
BRANCH   5   6
ATOM      6  C   UNL     1      30.048  56.042  39.715  1.00  0.00     0.064 C 
ATOM      7  O   UNL     1      30.722  56.227  40.760  1.00  0.00    -0.545 OA
ATOM      8  O   UNL     1      29.412  57.128  39.128  1.00  0.00    -0.545 OA
ENDBRANCH   5   6
ENDBRANCH   3   4
ENDBRANCH   2   3
ENDBRANCH   1   2
BRANCH   1   9
ATOM      9  C   UNL     1      24.820  52.261  37.111  1.00  0.00     0.000 C 
BRANCH   9  10
ATOM     10  C   UNL     1      24.751  50.730  37.163  1.00  0.00     0.000 C 
BRANCH  10  11
ATOM     11  C   UNL     1      26.031  50.102  36.593  1.00  0.00    -0.000 C 
BRANCH  11  12
ATOM     12  C   UNL     1      25.837  48.638  36.154  1.00  0.00    -0.000 C 
BRANCH  12  13
ATOM     13  C   UNL     1      27.117  47.783  36.173  1.00  0.00    -0.003 C 
ATOM     14  C   UNL     1      28.394  48.620  36.239  1.00  0.00     0.004 C 
ENDBRANCH  12  13
ENDBRANCH  11  12
ENDBRANCH  10  11
ENDBRANCH   9  10
ENDBRANCH   1   9
TORSDOF 9
ENDMDL
MODEL 8
REMARK VINA RESULT:    -4.393     10.989     12.325
REMARK INTER + INTRA:          -7.078
REMARK INTER:                  -6.918
REMARK INTRA:                  -0.160
REMARK UNBOUND:                -0.374
REMARK SMILES CCCCCCCCCC=CC(=O)[O-]
REMARK SMILES IDX 7 1 8 2 9 3 10 4 11 5 12 6 13 7 14 8 6 9 5 10 4 11 3 12 2 13
REMARK SMILES IDX 1 14
REMARK H PARENT
REMARK Flexibility Score: inf
ROOT
ATOM      1  C   UNL     1      25.591  53.518  37.414  1.00  0.00     0.000 C 
ENDROOT
BRANCH   1   2
ATOM      2  C   UNL     1      25.327  52.111  37.972  1.00  0.00     0.004 C 
BRANCH   2   3
ATOM      3  C   UNL     1      24.596  51.206  36.966  1.00  0.00     0.027 C 
BRANCH   3   4
ATOM      4  C   UNL     1      25.346  49.920  36.751  1.00  0.00    -0.025 C 
ATOM      5  C   UNL     1      24.846  48.795  36.214  1.00  0.00     0.020 C 
BRANCH   5   6
ATOM      6  C   UNL     1      23.478  48.602  35.687  1.00  0.00     0.064 C 
ATOM      7  O   UNL     1      23.293  47.766  34.766  1.00  0.00    -0.545 OA
ATOM      8  O   UNL     1      22.393  49.332  36.157  1.00  0.00    -0.545 OA
ENDBRANCH   5   6
ENDBRANCH   3   4
ENDBRANCH   2   3
ENDBRANCH   1   2
BRANCH   1   9
ATOM      9  C   UNL     1      26.667  54.273  38.210  1.00  0.00     0.000 C 
BRANCH   9  10
ATOM     10  C   UNL     1      28.071  53.782  37.838  1.00  0.00     0.000 C 
BRANCH  10  11
ATOM     11  C   UNL     1      29.121  54.323  38.820  1.00  0.00    -0.000 C 
BRANCH  11  12
ATOM     12  C   UNL     1      30.197  53.282  39.181  1.00  0.00    -0.000 C 
BRANCH  12  13
ATOM     13  C   UNL     1      29.720  51.819  39.138  1.00  0.00    -0.003 C 
ATOM     14  C   UNL     1      30.872  50.814  39.145  1.00  0.00     0.004 C 
ENDBRANCH  12  13
ENDBRANCH  11  12
ENDBRANCH  10  11
ENDBRANCH   9  10
ENDBRANCH   1   9
TORSDOF 9
ENDMDL
MODEL 9
REMARK VINA RESULT:    -4.212     12.151     13.870
REMARK INTER + INTRA:          -6.802
REMARK INTER:                  -6.279
REMARK INTRA:                  -0.523
REMARK UNBOUND:                -0.374
REMARK SMILES CCCCCCCCCC=CC(=O)[O-]
REMARK SMILES IDX 7 1 8 2 9 3 10 4 11 5 12 6 13 7 14 8 6 9 5 10 4 11 3 12 2 13
REMARK SMILES IDX 1 14
REMARK H PARENT
REMARK Flexibility Score: inf
ROOT
ATOM      1  C   UNL     1      23.366  49.579  36.105  1.00  0.00     0.000 C 
ENDROOT
BRANCH   1   2
ATOM      2  C   UNL     1      24.838  49.195  36.318  1.00  0.00     0.004 C 
BRANCH   2   3
ATOM      3  C   UNL     1      25.677  50.362  36.865  1.00  0.00     0.027 C 
BRANCH   3   4
ATOM      4  C   UNL     1      24.797  51.452  37.413  1.00  0.00    -0.025 C 
ATOM      5  C   UNL     1      25.195  52.685  37.766  1.00  0.00     0.020 C 
BRANCH   5   6
ATOM      6  C   UNL     1      26.562  53.237  37.651  1.00  0.00     0.064 C 
ATOM      7  O   UNL     1      26.779  54.157  36.821  1.00  0.00    -0.545 OA
ATOM      8  O   UNL     1      27.622  52.756  38.409  1.00  0.00    -0.545 OA
ENDBRANCH   5   6
ENDBRANCH   3   4
ENDBRANCH   2   3
ENDBRANCH   1   2
BRANCH   1   9
ATOM      9  C   UNL     1      22.620  48.576  35.211  1.00  0.00     0.000 C 
BRANCH   9  10
ATOM     10  C   UNL     1      21.109  48.629  35.467  1.00  0.00     0.000 C 
BRANCH  10  11
ATOM     11  C   UNL     1      20.805  48.611  36.972  1.00  0.00    -0.000 C 
BRANCH  11  12
ATOM     12  C   UNL     1      19.326  48.897  37.289  1.00  0.00    -0.000 C 
BRANCH  12  13
ATOM     13  C   UNL     1      18.342  48.536  36.160  1.00  0.00    -0.003 C 
ATOM     14  C   UNL     1      17.249  47.566  36.607  1.00  0.00     0.004 C 
ENDBRANCH  12  13
ENDBRANCH  11  12
ENDBRANCH  10  11
ENDBRANCH   9  10
ENDBRANCH   1   9
TORSDOF 9
ENDMDL
