MODEL 1
REMARK VINA RESULT:    -3.466      0.000      0.000
REMARK INTER + INTRA:          -9.248
REMARK INTER:                  -6.302
REMARK INTRA:                  -2.946
REMARK UNBOUND:                -2.946
REMARK SMILES CCCCCC=CCC=CCCCCCCCC(=O)[O-]
REMARK SMILES IDX 11 1 12 2 13 3 14 4 15 5 16 6 17 7 18 8 19 9 20 10 10 11
REMARK SMILES IDX 9 12 8 13 7 14 6 15 5 16 4 17 3 18 2 19 1 20
REMARK H PARENT
REMARK Flexibility Score: inf
ROOT
ATOM      1  C   UNL     1       7.804   5.039  -3.965  1.00  0.00     0.027 C 
ENDROOT
BRANCH   1   2
ATOM      2  C   UNL     1       7.912   5.803  -2.637  1.00  0.00     0.004 C 
BRANCH   2   3
ATOM      3  C   UNL     1       6.642   6.604  -2.312  1.00  0.00     0.000 C 
BRANCH   3   4
ATOM      4  C   UNL     1       6.947   7.914  -1.563  1.00  0.00     0.000 C 
BRANCH   4   5
ATOM      5  C   UNL     1       5.934   9.026  -1.880  1.00  0.00     0.000 C 
BRANCH   5   6
ATOM      6  C   UNL     1       4.998   8.657  -3.044  1.00  0.00     0.006 C 
BRANCH   6   7
ATOM      7  C   UNL     1       3.591   9.241  -2.863  1.00  0.00     0.053 C 
BRANCH   7   8
ATOM      8  C   UNL     1       2.668   8.273  -2.186  1.00  0.00     0.041 C 
ATOM      9  O   UNL     1       1.500   8.624  -1.875  1.00  0.00    -0.550 OA
ATOM     10  O   UNL     1       3.109   6.991  -1.877  1.00  0.00    -0.550 OA
ENDBRANCH   7   8
ENDBRANCH   6   7
ENDBRANCH   5   6
ENDBRANCH   4   5
ENDBRANCH   3   4
ENDBRANCH   2   3
ENDBRANCH   1   2
BRANCH   1  11
ATOM     11  C   UNL     1       6.780   5.669  -4.870  1.00  0.00    -0.031 C 
ATOM     12  C   UNL     1       6.440   5.087  -6.029  1.00  0.00    -0.027 C 
BRANCH  12  13
ATOM     13  C   UNL     1       5.415   5.687  -6.950  1.00  0.00     0.054 C 
BRANCH  13  14
ATOM     14  C   UNL     1       4.870   6.970  -6.377  1.00  0.00    -0.027 C 
ATOM     15  C   UNL     1       5.303   8.212  -6.674  1.00  0.00    -0.031 C 
BRANCH  15  16
ATOM     16  C   UNL     1       6.417   8.552  -7.634  1.00  0.00     0.027 C 
BRANCH  16  17
ATOM     17  C   UNL     1       7.540   9.360  -6.962  1.00  0.00     0.004 C 
BRANCH  17  18
ATOM     18  C   UNL     1       7.547   9.249  -5.425  1.00  0.00     0.000 C 
BRANCH  18  19
ATOM     19  C   UNL     1       8.906   8.801  -4.869  1.00  0.00    -0.003 C 
ATOM     20  C   UNL     1       9.582   7.805  -5.807  1.00  0.00     0.004 C 
ENDBRANCH  18  19
ENDBRANCH  17  18
ENDBRANCH  16  17
ENDBRANCH  15  16
ENDBRANCH  13  14
ENDBRANCH  12  13
ENDBRANCH   1  11
TORSDOF 14
ENDMDL
MODEL 2
REMARK VINA RESULT:    -3.443      1.653      3.236
REMARK INTER + INTRA:          -9.206
REMARK INTER:                  -6.826
REMARK INTRA:                  -2.380
REMARK UNBOUND:                -2.946
REMARK SMILES CCCCCC=CCC=CCCCCCCCC(=O)[O-]
REMARK SMILES IDX 11 1 12 2 13 3 14 4 15 5 16 6 17 7 18 8 19 9 20 10 10 11
REMARK SMILES IDX 9 12 8 13 7 14 6 15 5 16 4 17 3 18 2 19 1 20
REMARK H PARENT
REMARK Flexibility Score: inf
ROOT
ATOM      1  C   UNL     1       7.345   5.548  -3.604  1.00  0.00     0.027 C 
ENDROOT
BRANCH   1   2
ATOM      2  C   UNL     1       6.905   6.158  -2.265  1.00  0.00     0.004 C 
BRANCH   2   3
ATOM      3  C   UNL     1       7.622   7.482  -1.956  1.00  0.00     0.000 C 
BRANCH   3   4
ATOM      4  C   UNL     1       6.673   8.543  -1.368  1.00  0.00     0.000 C 
BRANCH   4   5
ATOM      5  C   UNL     1       6.208   9.565  -2.417  1.00  0.00     0.000 C 
BRANCH   5   6
ATOM      6  C   UNL     1       4.713   9.905  -2.290  1.00  0.00     0.006 C 
BRANCH   6   7
ATOM      7  C   UNL     1       3.836   8.990  -3.154  1.00  0.00     0.053 C 
BRANCH   7   8
ATOM      8  C   UNL     1       2.922   8.143  -2.321  1.00  0.00     0.041 C 
ATOM      9  O   UNL     1       1.794   8.583  -1.972  1.00  0.00    -0.550 OA
ATOM     10  O   UNL     1       3.326   6.880  -1.908  1.00  0.00    -0.550 OA
ENDBRANCH   7   8
ENDBRANCH   6   7
ENDBRANCH   5   6
ENDBRANCH   4   5
ENDBRANCH   3   4
ENDBRANCH   2   3
ENDBRANCH   1   2
BRANCH   1  11
ATOM     11  C   UNL     1       6.901   6.403  -4.760  1.00  0.00    -0.031 C 
ATOM     12  C   UNL     1       5.599   6.539  -5.050  1.00  0.00    -0.027 C 
BRANCH  12  13
ATOM     13  C   UNL     1       5.124   7.392  -6.193  1.00  0.00     0.054 C 
BRANCH  13  14
ATOM     14  C   UNL     1       5.672   6.883  -7.502  1.00  0.00    -0.027 C 
ATOM     15  C   UNL     1       5.099   5.948  -8.285  1.00  0.00    -0.031 C 
BRANCH  15  16
ATOM     16  C   UNL     1       3.801   5.232  -7.999  1.00  0.00     0.027 C 
BRANCH  16  17
ATOM     17  C   UNL     1       4.026   3.823  -7.425  1.00  0.00     0.004 C 
BRANCH  17  18
ATOM     18  C   UNL     1       5.510   3.416  -7.349  1.00  0.00     0.000 C 
BRANCH  18  19
ATOM     19  C   UNL     1       5.934   2.979  -5.941  1.00  0.00    -0.003 C 
ATOM     20  C   UNL     1       7.228   2.170  -5.983  1.00  0.00     0.004 C 
ENDBRANCH  18  19
ENDBRANCH  17  18
ENDBRANCH  16  17
ENDBRANCH  15  16
ENDBRANCH  13  14
ENDBRANCH  12  13
ENDBRANCH   1  11
TORSDOF 14
ENDMDL
MODEL 3
REMARK VINA RESULT:    -3.255      1.392      3.250
REMARK INTER + INTRA:          -8.865
REMARK INTER:                  -6.246
REMARK INTRA:                  -2.620
REMARK UNBOUND:                -2.946
REMARK SMILES CCCCCC=CCC=CCCCCCCCC(=O)[O-]
REMARK SMILES IDX 11 1 12 2 13 3 14 4 15 5 16 6 17 7 18 8 19 9 20 10 10 11
REMARK SMILES IDX 9 12 8 13 7 14 6 15 5 16 4 17 3 18 2 19 1 20
REMARK H PARENT
REMARK Flexibility Score: inf
ROOT
ATOM      1  C   UNL     1       8.667   6.782  -2.123  1.00  0.00     0.027 C 
ENDROOT
BRANCH   1   2
ATOM      2  C   UNL     1       8.816   8.176  -2.750  1.00  0.00     0.004 C 
BRANCH   2   3
ATOM      3  C   UNL     1       8.441   8.197  -4.240  1.00  0.00     0.000 C 
BRANCH   3   4
ATOM      4  C   UNL     1       7.665   9.467  -4.635  1.00  0.00     0.000 C 
BRANCH   4   5
ATOM      5  C   UNL     1       6.677   9.917  -3.546  1.00  0.00     0.000 C 
BRANCH   5   6
ATOM      6  C   UNL     1       5.334   9.171  -3.624  1.00  0.00     0.006 C 
BRANCH   6   7
ATOM      7  C   UNL     1       4.726   8.928  -2.237  1.00  0.00     0.053 C 
BRANCH   7   8
ATOM      8  C   UNL     1       4.234   7.520  -2.082  1.00  0.00     0.041 C 
ATOM      9  O   UNL     1       3.011   7.295  -1.885  1.00  0.00    -0.550 OA
ATOM     10  O   UNL     1       5.132   6.461  -2.128  1.00  0.00    -0.550 OA
ENDBRANCH   7   8
ENDBRANCH   6   7
ENDBRANCH   5   6
ENDBRANCH   4   5
ENDBRANCH   3   4
ENDBRANCH   2   3
ENDBRANCH   1   2
BRANCH   1  11
ATOM     11  C   UNL     1       8.595   5.717  -3.184  1.00  0.00    -0.031 C 
ATOM     12  C   UNL     1       7.941   4.569  -2.957  1.00  0.00    -0.027 C 
BRANCH  12  13
ATOM     13  C   UNL     1       7.845   3.490  -3.999  1.00  0.00     0.054 C 
BRANCH  13  14
ATOM     14  C   UNL     1       8.299   4.003  -5.342  1.00  0.00    -0.027 C 
ATOM     15  C   UNL     1       7.505   4.546  -6.286  1.00  0.00    -0.031 C 
BRANCH  15  16
ATOM     16  C   UNL     1       6.012   4.741  -6.178  1.00  0.00     0.027 C 
BRANCH  16  17
ATOM     17  C   UNL     1       5.644   6.147  -5.676  1.00  0.00     0.004 C 
BRANCH  17  18
ATOM     18  C   UNL     1       4.775   6.950  -6.663  1.00  0.00     0.000 C 
BRANCH  18  19
ATOM     19  C   UNL     1       5.503   8.175  -7.233  1.00  0.00    -0.003 C 
ATOM     20  C   UNL     1       6.524   7.765  -8.290  1.00  0.00     0.004 C 
ENDBRANCH  18  19
ENDBRANCH  17  18
ENDBRANCH  16  17
ENDBRANCH  15  16
ENDBRANCH  13  14
ENDBRANCH  12  13
ENDBRANCH   1  11
TORSDOF 14
ENDMDL
MODEL 4
REMARK VINA RESULT:    -3.244      3.142      5.521
REMARK INTER + INTRA:          -8.845
REMARK INTER:                  -6.056
REMARK INTRA:                  -2.789
REMARK UNBOUND:                -2.946
REMARK SMILES CCCCCC=CCC=CCCCCCCCC(=O)[O-]
REMARK SMILES IDX 11 1 12 2 13 3 14 4 15 5 16 6 17 7 18 8 19 9 20 10 10 11
REMARK SMILES IDX 9 12 8 13 7 14 6 15 5 16 4 17 3 18 2 19 1 20
REMARK H PARENT
REMARK Flexibility Score: inf
ROOT
ATOM      1  C   UNL     1       8.613   4.490  -2.178  1.00  0.00     0.027 C 
ENDROOT
BRANCH   1   2
ATOM      2  C   UNL     1       9.730   3.867  -3.028  1.00  0.00     0.004 C 
BRANCH   2   3
ATOM      3  C   UNL     1       9.500   2.373  -3.303  1.00  0.00     0.000 C 
BRANCH   3   4
ATOM      4  C   UNL     1       9.103   2.097  -4.765  1.00  0.00     0.000 C 
BRANCH   4   5
ATOM      5  C   UNL     1       7.583   2.160  -4.986  1.00  0.00     0.000 C 
BRANCH   5   6
ATOM      6  C   UNL     1       7.168   3.317  -5.911  1.00  0.00     0.006 C 
BRANCH   6   7
ATOM      7  C   UNL     1       5.655   3.345  -6.160  1.00  0.00     0.053 C 
BRANCH   7   8
ATOM      8  C   UNL     1       5.149   2.032  -6.674  1.00  0.00     0.041 C 
ATOM      9  O   UNL     1       4.363   1.338  -5.975  1.00  0.00    -0.550 OA
ATOM     10  O   UNL     1       5.566   1.562  -7.913  1.00  0.00    -0.550 OA
ENDBRANCH   7   8
ENDBRANCH   6   7
ENDBRANCH   5   6
ENDBRANCH   4   5
ENDBRANCH   3   4
ENDBRANCH   2   3
ENDBRANCH   1   2
BRANCH   1  11
ATOM     11  C   UNL     1       7.857   5.531  -2.957  1.00  0.00    -0.031 C 
ATOM     12  C   UNL     1       8.487   6.312  -3.846  1.00  0.00    -0.027 C 
BRANCH  12  13
ATOM     13  C   UNL     1       7.758   7.356  -4.645  1.00  0.00     0.054 C 
BRANCH  13  14
ATOM     14  C   UNL     1       6.470   6.801  -5.197  1.00  0.00    -0.027 C 
ATOM     15  C   UNL     1       5.230   7.127  -4.780  1.00  0.00    -0.031 C 
BRANCH  15  16
ATOM     16  C   UNL     1       4.897   8.105  -3.680  1.00  0.00     0.027 C 
BRANCH  16  17
ATOM     17  C   UNL     1       4.614   7.403  -2.341  1.00  0.00     0.004 C 
BRANCH  17  18
ATOM     18  C   UNL     1       5.566   7.826  -1.206  1.00  0.00     0.000 C 
BRANCH  18  19
ATOM     19  C   UNL     1       6.473   9.001  -1.599  1.00  0.00    -0.003 C 
ATOM     20  C   UNL     1       7.886   8.809  -1.055  1.00  0.00     0.004 C 
ENDBRANCH  18  19
ENDBRANCH  17  18
ENDBRANCH  16  17
ENDBRANCH  15  16
ENDBRANCH  13  14
ENDBRANCH  12  13
ENDBRANCH   1  11
TORSDOF 14
ENDMDL
MODEL 5
REMARK VINA RESULT:    -3.227      1.716      4.120
REMARK INTER + INTRA:          -8.814
REMARK INTER:                  -6.069
REMARK INTRA:                  -2.745
REMARK UNBOUND:                -2.946
REMARK SMILES CCCCCC=CCC=CCCCCCCCC(=O)[O-]
REMARK SMILES IDX 11 1 12 2 13 3 14 4 15 5 16 6 17 7 18 8 19 9 20 10 10 11
REMARK SMILES IDX 9 12 8 13 7 14 6 15 5 16 4 17 3 18 2 19 1 20
REMARK H PARENT
REMARK Flexibility Score: inf
ROOT
ATOM      1  C   UNL     1       5.182   7.663  -5.456  1.00  0.00     0.027 C 
ENDROOT
BRANCH   1   2
ATOM      2  C   UNL     1       6.138   8.806  -5.827  1.00  0.00     0.004 C 
BRANCH   2   3
ATOM      3  C   UNL     1       6.415   9.751  -4.648  1.00  0.00     0.000 C 
BRANCH   3   4
ATOM      4  C   UNL     1       7.730   9.416  -3.920  1.00  0.00     0.000 C 
BRANCH   4   5
ATOM      5  C   UNL     1       7.503   8.615  -2.628  1.00  0.00     0.000 C 
BRANCH   5   6
ATOM      6  C   UNL     1       6.206   9.018  -1.904  1.00  0.00     0.006 C 
BRANCH   6   7
ATOM      7  C   UNL     1       5.253   7.831  -1.718  1.00  0.00     0.053 C 
BRANCH   7   8
ATOM      8  C   UNL     1       3.850   8.174  -2.116  1.00  0.00     0.041 C 
ATOM      9  O   UNL     1       3.589   9.303  -2.607  1.00  0.00    -0.550 OA
ATOM     10  O   UNL     1       2.826   7.254  -1.918  1.00  0.00    -0.550 OA
ENDBRANCH   7   8
ENDBRANCH   6   7
ENDBRANCH   5   6
ENDBRANCH   4   5
ENDBRANCH   3   4
ENDBRANCH   2   3
ENDBRANCH   1   2
BRANCH   1  11
ATOM     11  C   UNL     1       5.923   6.362  -5.313  1.00  0.00    -0.031 C 
ATOM     12  C   UNL     1       7.000   6.101  -6.067  1.00  0.00    -0.027 C 
BRANCH  12  13
ATOM     13  C   UNL     1       7.767   4.814  -5.942  1.00  0.00     0.054 C 
BRANCH  13  14
ATOM     14  C   UNL     1       6.875   3.710  -5.433  1.00  0.00    -0.027 C 
ATOM     15  C   UNL     1       7.285   2.609  -4.773  1.00  0.00    -0.031 C 
BRANCH  15  16
ATOM     16  C   UNL     1       8.714   2.272  -4.421  1.00  0.00     0.027 C 
BRANCH  16  17
ATOM     17  C   UNL     1       9.129   2.849  -3.057  1.00  0.00     0.004 C 
BRANCH  17  18
ATOM     18  C   UNL     1      10.116   4.028  -3.159  1.00  0.00     0.000 C 
BRANCH  18  19
ATOM     19  C   UNL     1       9.526   5.343  -2.631  1.00  0.00    -0.003 C 
ATOM     20  C   UNL     1       8.065   5.165  -2.222  1.00  0.00     0.004 C 
ENDBRANCH  18  19
ENDBRANCH  17  18
ENDBRANCH  16  17
ENDBRANCH  15  16
ENDBRANCH  13  14
ENDBRANCH  12  13
ENDBRANCH   1  11
TORSDOF 14
ENDMDL
MODEL 6
REMARK VINA RESULT:    -3.225      1.247      2.370
REMARK INTER + INTRA:          -8.811
REMARK INTER:                  -6.394
REMARK INTRA:                  -2.417
REMARK UNBOUND:                -2.946
REMARK SMILES CCCCCC=CCC=CCCCCCCCC(=O)[O-]
REMARK SMILES IDX 11 1 12 2 13 3 14 4 15 5 16 6 17 7 18 8 19 9 20 10 10 11
REMARK SMILES IDX 9 12 8 13 7 14 6 15 5 16 4 17 3 18 2 19 1 20
REMARK H PARENT
REMARK Flexibility Score: inf
ROOT
ATOM      1  C   UNL     1       9.018   6.911  -1.965  1.00  0.00     0.027 C 
ENDROOT
BRANCH   1   2
ATOM      2  C   UNL     1       8.790   8.362  -1.517  1.00  0.00     0.004 C 
BRANCH   2   3
ATOM      3  C   UNL     1       7.337   8.628  -1.094  1.00  0.00     0.000 C 
BRANCH   3   4
ATOM      4  C   UNL     1       6.836  10.012  -1.546  1.00  0.00     0.000 C 
BRANCH   4   5
ATOM      5  C   UNL     1       6.623  10.095  -3.066  1.00  0.00     0.000 C 
BRANCH   5   6
ATOM      6  C   UNL     1       5.410   9.277  -3.539  1.00  0.00     0.006 C 
BRANCH   6   7
ATOM      7  C   UNL     1       4.236   9.361  -2.554  1.00  0.00     0.053 C 
BRANCH   7   8
ATOM      8  C   UNL     1       3.638   8.014  -2.281  1.00  0.00     0.041 C 
ATOM      9  O   UNL     1       4.384   7.013  -2.112  1.00  0.00    -0.550 OA
ATOM     10  O   UNL     1       2.258   7.860  -2.239  1.00  0.00    -0.550 OA
ENDBRANCH   7   8
ENDBRANCH   6   7
ENDBRANCH   5   6
ENDBRANCH   4   5
ENDBRANCH   3   4
ENDBRANCH   2   3
ENDBRANCH   1   2
BRANCH   1  11
ATOM     11  C   UNL     1       8.574   6.707  -3.388  1.00  0.00    -0.031 C 
ATOM     12  C   UNL     1       7.445   6.040  -3.664  1.00  0.00    -0.027 C 
BRANCH  12  13
ATOM     13  C   UNL     1       6.971   5.827  -5.074  1.00  0.00     0.054 C 
BRANCH  13  14
ATOM     14  C   UNL     1       5.558   6.324  -5.242  1.00  0.00    -0.027 C 
ATOM     15  C   UNL     1       4.968   6.638  -6.413  1.00  0.00    -0.031 C 
BRANCH  15  16
ATOM     16  C   UNL     1       5.611   6.552  -7.776  1.00  0.00     0.027 C 
BRANCH  16  17
ATOM     17  C   UNL     1       5.325   7.796  -8.634  1.00  0.00     0.004 C 
BRANCH  17  18
ATOM     18  C   UNL     1       5.872   9.104  -8.030  1.00  0.00     0.000 C 
BRANCH  18  19
ATOM     19  C   UNL     1       7.399   9.092  -7.874  1.00  0.00    -0.003 C 
ATOM     20  C   UNL     1       7.803   9.282  -6.414  1.00  0.00     0.004 C 
ENDBRANCH  18  19
ENDBRANCH  17  18
ENDBRANCH  16  17
ENDBRANCH  15  16
ENDBRANCH  13  14
ENDBRANCH  12  13
ENDBRANCH   1  11
TORSDOF 14
ENDMDL
MODEL 7
REMARK VINA RESULT:    -3.169      1.900      3.175
REMARK INTER + INTRA:          -8.707
REMARK INTER:                  -6.046
REMARK INTRA:                  -2.661
REMARK UNBOUND:                -2.946
REMARK SMILES CCCCCC=CCC=CCCCCCCCC(=O)[O-]
REMARK SMILES IDX 11 1 12 2 13 3 14 4 15 5 16 6 17 7 18 8 19 9 20 10 10 11
REMARK SMILES IDX 9 12 8 13 7 14 6 15 5 16 4 17 3 18 2 19 1 20
REMARK H PARENT
REMARK Flexibility Score: inf
ROOT
ATOM      1  C   UNL     1       8.027   3.223  -4.343  1.00  0.00     0.027 C 
ENDROOT
BRANCH   1   2
ATOM      2  C   UNL     1       7.435   4.463  -3.657  1.00  0.00     0.004 C 
BRANCH   2   3
ATOM      3  C   UNL     1       8.476   5.574  -3.445  1.00  0.00     0.000 C 
BRANCH   3   4
ATOM      4  C   UNL     1       7.975   6.677  -2.496  1.00  0.00     0.000 C 
BRANCH   4   5
ATOM      5  C   UNL     1       6.441   6.756  -2.439  1.00  0.00     0.000 C 
BRANCH   5   6
ATOM      6  C   UNL     1       5.909   8.159  -2.776  1.00  0.00     0.006 C 
BRANCH   6   7
ATOM      7  C   UNL     1       4.561   8.108  -3.506  1.00  0.00     0.053 C 
BRANCH   7   8
ATOM      8  C   UNL     1       3.407   8.238  -2.559  1.00  0.00     0.041 C 
ATOM      9  O   UNL     1       2.805   9.337  -2.441  1.00  0.00    -0.550 OA
ATOM     10  O   UNL     1       3.015   7.151  -1.786  1.00  0.00    -0.550 OA
ENDBRANCH   7   8
ENDBRANCH   6   7
ENDBRANCH   5   6
ENDBRANCH   4   5
ENDBRANCH   3   4
ENDBRANCH   2   3
ENDBRANCH   1   2
BRANCH   1  11
ATOM     11  C   UNL     1       7.000   2.538  -5.204  1.00  0.00    -0.031 C 
ATOM     12  C   UNL     1       7.100   2.564  -6.540  1.00  0.00    -0.027 C 
BRANCH  12  13
ATOM     13  C   UNL     1       6.095   1.883  -7.426  1.00  0.00     0.054 C 
BRANCH  13  14
ATOM     14  C   UNL     1       4.693   2.133  -6.932  1.00  0.00    -0.027 C 
ATOM     15  C   UNL     1       3.905   3.166  -7.290  1.00  0.00    -0.031 C 
BRANCH  15  16
ATOM     16  C   UNL     1       4.278   4.269  -8.252  1.00  0.00     0.027 C 
BRANCH  16  17
ATOM     17  C   UNL     1       4.324   5.646  -7.570  1.00  0.00     0.004 C 
BRANCH  17  18
ATOM     18  C   UNL     1       5.206   5.683  -6.307  1.00  0.00     0.000 C 
BRANCH  18  19
ATOM     19  C   UNL     1       6.360   6.688  -6.418  1.00  0.00    -0.003 C 
ATOM     20  C   UNL     1       7.502   6.123  -7.259  1.00  0.00     0.004 C 
ENDBRANCH  18  19
ENDBRANCH  17  18
ENDBRANCH  16  17
ENDBRANCH  15  16
ENDBRANCH  13  14
ENDBRANCH  12  13
ENDBRANCH   1  11
TORSDOF 14
ENDMDL
MODEL 8
REMARK VINA RESULT:    -3.164      1.282      2.141
REMARK INTER + INTRA:          -8.700
REMARK INTER:                  -6.312
REMARK INTRA:                  -2.388
REMARK UNBOUND:                -2.946
REMARK SMILES CCCCCC=CCC=CCCCCCCCC(=O)[O-]
REMARK SMILES IDX 11 1 12 2 13 3 14 4 15 5 16 6 17 7 18 8 19 9 20 10 10 11
REMARK SMILES IDX 9 12 8 13 7 14 6 15 5 16 4 17 3 18 2 19 1 20
REMARK H PARENT
REMARK Flexibility Score: inf
ROOT
ATOM      1  C   UNL     1       8.326   4.676  -2.299  1.00  0.00     0.027 C 
ENDROOT
BRANCH   1   2
ATOM      2  C   UNL     1       9.205   5.851  -1.847  1.00  0.00     0.004 C 
BRANCH   2   3
ATOM      3  C   UNL     1       8.756   7.191  -2.450  1.00  0.00     0.000 C 
BRANCH   3   4
ATOM      4  C   UNL     1       8.358   8.218  -1.374  1.00  0.00     0.000 C 
BRANCH   4   5
ATOM      5  C   UNL     1       6.936   8.766  -1.577  1.00  0.00     0.000 C 
BRANCH   5   6
ATOM      6  C   UNL     1       5.851   7.775  -1.120  1.00  0.00     0.006 C 
BRANCH   6   7
ATOM      7  C   UNL     1       4.965   7.311  -2.283  1.00  0.00     0.053 C 
BRANCH   7   8
ATOM      8  C   UNL     1       3.668   8.061  -2.331  1.00  0.00     0.041 C 
ATOM      9  O   UNL     1       2.586   7.473  -2.070  1.00  0.00    -0.550 OA
ATOM     10  O   UNL     1       3.654   9.404  -2.689  1.00  0.00    -0.550 OA
ENDBRANCH   7   8
ENDBRANCH   6   7
ENDBRANCH   5   6
ENDBRANCH   4   5
ENDBRANCH   3   4
ENDBRANCH   2   3
ENDBRANCH   1   2
BRANCH   1  11
ATOM     11  C   UNL     1       7.729   4.937  -3.655  1.00  0.00    -0.031 C 
ATOM     12  C   UNL     1       8.096   4.205  -4.717  1.00  0.00    -0.027 C 
BRANCH  12  13
ATOM     13  C   UNL     1       7.513   4.437  -6.083  1.00  0.00     0.054 C 
BRANCH  13  14
ATOM     14  C   UNL     1       6.008   4.500  -6.016  1.00  0.00    -0.027 C 
ATOM     15  C   UNL     1       5.227   5.366  -6.692  1.00  0.00    -0.031 C 
BRANCH  15  16
ATOM     16  C   UNL     1       5.710   6.434  -7.643  1.00  0.00     0.027 C 
BRANCH  16  17
ATOM     17  C   UNL     1       6.459   7.564  -6.917  1.00  0.00     0.004 C 
BRANCH  17  18
ATOM     18  C   UNL     1       5.586   8.341  -5.913  1.00  0.00     0.000 C 
BRANCH  18  19
ATOM     19  C   UNL     1       6.397   9.322  -5.056  1.00  0.00    -0.003 C 
ATOM     20  C   UNL     1       7.885   9.244  -5.391  1.00  0.00     0.004 C 
ENDBRANCH  18  19
ENDBRANCH  17  18
ENDBRANCH  16  17
ENDBRANCH  15  16
ENDBRANCH  13  14
ENDBRANCH  12  13
ENDBRANCH   1  11
TORSDOF 14
ENDMDL
MODEL 9
REMARK VINA RESULT:    -3.148      2.075      4.034
REMARK INTER + INTRA:          -8.669
REMARK INTER:                  -6.056
REMARK INTRA:                  -2.613
REMARK UNBOUND:                -2.946
REMARK SMILES CCCCCC=CCC=CCCCCCCCC(=O)[O-]
REMARK SMILES IDX 11 1 12 2 13 3 14 4 15 5 16 6 17 7 18 8 19 9 20 10 10 11
REMARK SMILES IDX 9 12 8 13 7 14 6 15 5 16 4 17 3 18 2 19 1 20
REMARK H PARENT
REMARK Flexibility Score: inf
ROOT
ATOM      1  C   UNL     1       8.640   2.931  -3.772  1.00  0.00     0.027 C 
ENDROOT
BRANCH   1   2
ATOM      2  C   UNL     1       9.361   3.753  -2.693  1.00  0.00     0.004 C 
BRANCH   2   3
ATOM      3  C   UNL     1       8.453   4.817  -2.056  1.00  0.00     0.000 C 
BRANCH   3   4
ATOM      4  C   UNL     1       8.892   6.251  -2.404  1.00  0.00     0.000 C 
BRANCH   4   5
ATOM      5  C   UNL     1       7.706   7.225  -2.499  1.00  0.00     0.000 C 
BRANCH   5   6
ATOM      6  C   UNL     1       6.349   6.521  -2.325  1.00  0.00     0.006 C 
BRANCH   6   7
ATOM      7  C   UNL     1       5.366   7.356  -1.494  1.00  0.00     0.053 C 
BRANCH   7   8
ATOM      8  C   UNL     1       4.121   7.682  -2.263  1.00  0.00     0.041 C 
ATOM      9  O   UNL     1       3.012   7.205  -1.904  1.00  0.00    -0.550 OA
ATOM     10  O   UNL     1       4.192   8.491  -3.390  1.00  0.00    -0.550 OA
ENDBRANCH   7   8
ENDBRANCH   6   7
ENDBRANCH   5   6
ENDBRANCH   4   5
ENDBRANCH   3   4
ENDBRANCH   2   3
ENDBRANCH   1   2
BRANCH   1  11
ATOM     11  C   UNL     1       7.843   3.820  -4.687  1.00  0.00    -0.031 C 
ATOM     12  C   UNL     1       8.436   4.471  -5.698  1.00  0.00    -0.027 C 
BRANCH  12  13
ATOM     13  C   UNL     1       7.666   5.360  -6.633  1.00  0.00     0.054 C 
BRANCH  13  14
ATOM     14  C   UNL     1       6.479   5.969  -5.933  1.00  0.00    -0.027 C 
ATOM     15  C   UNL     1       5.187   5.798  -6.279  1.00  0.00    -0.031 C 
BRANCH  15  16
ATOM     16  C   UNL     1       4.686   4.965  -7.434  1.00  0.00     0.027 C 
BRANCH  16  17
ATOM     17  C   UNL     1       4.530   3.482  -7.058  1.00  0.00     0.004 C 
BRANCH  17  18
ATOM     18  C   UNL     1       5.534   2.554  -7.768  1.00  0.00     0.000 C 
BRANCH  18  19
ATOM     19  C   UNL     1       6.022   1.409  -6.870  1.00  0.00    -0.003 C 
ATOM     20  C   UNL     1       5.232   1.360  -5.564  1.00  0.00     0.004 C 
ENDBRANCH  18  19
ENDBRANCH  17  18
ENDBRANCH  16  17
ENDBRANCH  15  16
ENDBRANCH  13  14
ENDBRANCH  12  13
ENDBRANCH   1  11
TORSDOF 14
ENDMDL
