MODEL 1
REMARK VINA RESULT:    -4.218      0.000      0.000
REMARK INTER + INTRA:          -6.799
REMARK INTER:                  -6.437
REMARK INTRA:                  -0.362
REMARK UNBOUND:                -0.362
REMARK SMILES CC1=CCC[C@H](C)C(=O)C[C@H](C(C)C)C(=O)C1
REMARK SMILES IDX 8 1 9 2 6 3 7 4 5 5 4 6 3 7 2 8 1 9 10 11 11 12 15 13 16 14
REMARK SMILES IDX 17 15 12 17 13 18 14 19
REMARK H PARENT
REMARK Flexibility Score: 70.00
ROOT
ATOM      1  C   UNL     1      17.508 -30.601  23.190  1.00  0.00     0.136 C 
ATOM      2  O   UNL     1      18.517 -30.573  23.880  1.00  0.00    -0.299 OA
ENDROOT
BRANCH   1   3
ATOM      3  C   UNL     1      17.633 -30.319  21.704  1.00  0.00     0.053 C 
ATOM      4  C   UNL     1      18.120 -28.886  21.461  1.00  0.00     0.016 C 
BRANCH   3   5
ATOM      5  C   UNL     1      18.551 -31.341  21.006  1.00  0.00     0.015 C 
BRANCH   5   6
ATOM      6  C   UNL     1      17.784 -32.604  20.572  1.00  0.00     0.028 C 
BRANCH   6   7
ATOM      7  C   UNL     1      18.107 -33.760  21.482  1.00  0.00    -0.028 C 
ATOM      8  C   UNL     1      17.192 -34.444  22.209  1.00  0.00    -0.070 CG0
ATOM      9  C   UNL     1      17.687 -35.533  23.125  1.00  0.00     0.039 C 
ATOM     10  G   UNL     1      15.698 -34.170  22.125  1.00  0.00     0.000 G0
ENDBRANCH   6   7
ENDBRANCH   5   6
ENDBRANCH   3   5
ENDBRANCH   1   3
BRANCH   1  11
ATOM     11  C   UNL     1      16.189 -30.946  23.845  1.00  0.00     0.087 C 
BRANCH  11  12
ATOM     12  C   UNL     1      15.230 -31.694  22.880  1.00  0.00     0.066 C 
BRANCH  12  13
ATOM     13  C   UNL     1      15.219 -33.192  23.158  1.00  0.00     0.140 C 
ATOM     14  O   UNL     1      14.775 -33.611  24.217  1.00  0.00    -0.299 OA
BRANCH  13  15
ATOM     15  C   UNL     1      15.687 -34.180  22.117  1.00  0.00     0.106 CG0
ATOM     16  G   UNL     1      17.183 -34.445  22.206  1.00  0.00     0.000 G0
ENDBRANCH  13  15
ENDBRANCH  12  13
BRANCH  12  17
ATOM     17  C   UNL     1      13.797 -31.079  22.891  1.00  0.00    -0.006 C 
ATOM     18  C   UNL     1      13.123 -31.032  21.509  1.00  0.00     0.008 C 
ATOM     19  C   UNL     1      13.786 -29.683  23.532  1.00  0.00     0.008 C 
ENDBRANCH  12  17
ENDBRANCH  11  12
ENDBRANCH   1  11
TORSDOF 1
ENDMDL
MODEL 2
REMARK VINA RESULT:    -4.071      2.169      4.154
REMARK INTER + INTRA:          -6.576
REMARK INTER:                  -6.420
REMARK INTRA:                  -0.156
REMARK UNBOUND:                -0.362
REMARK SMILES CC1=CCC[C@H](C)C(=O)C[C@H](C(C)C)C(=O)C1
REMARK SMILES IDX 8 1 9 2 6 3 7 4 5 5 4 6 3 7 2 8 1 9 10 11 11 12 15 13 16 14
REMARK SMILES IDX 17 15 12 17 13 18 14 19
REMARK H PARENT
REMARK Flexibility Score: 70.00
ROOT
ATOM      1  C   UNL     1      14.772 -32.600  23.894  1.00  0.00     0.136 C 
ATOM      2  O   UNL     1      13.799 -32.697  24.627  1.00  0.00    -0.299 OA
ENDROOT
BRANCH   1   3
ATOM      3  C   UNL     1      16.036 -33.360  24.256  1.00  0.00     0.053 C 
ATOM      4  C   UNL     1      16.391 -34.376  23.165  1.00  0.00     0.016 C 
BRANCH   3   5
ATOM      5  C   UNL     1      17.215 -32.406  24.529  1.00  0.00     0.015 C 
BRANCH   5   6
ATOM      6  C   UNL     1      18.191 -32.340  23.341  1.00  0.00     0.028 C 
BRANCH   6   7
ATOM      7  C   UNL     1      18.721 -30.941  23.166  1.00  0.00    -0.028 C 
ATOM      8  C   UNL     1      18.173 -30.009  22.351  1.00  0.00    -0.070 CG0
ATOM      9  C   UNL     1      18.865 -28.675  22.236  1.00  0.00     0.039 C 
ATOM     10  G   UNL     1      16.889 -30.246  21.570  1.00  0.00     0.000 G0
ENDBRANCH   6   7
ENDBRANCH   5   6
ENDBRANCH   3   5
ENDBRANCH   1   3
BRANCH   1  11
ATOM     11  C   UNL     1      14.662 -31.752  22.646  1.00  0.00     0.087 C 
BRANCH  11  12
ATOM     12  C   UNL     1      14.679 -30.232  22.963  1.00  0.00     0.066 C 
BRANCH  12  13
ATOM     13  C   UNL     1      15.708 -29.498  22.113  1.00  0.00     0.140 C 
ATOM     14  O   UNL     1      15.600 -28.294  21.932  1.00  0.00    -0.299 OA
BRANCH  13  15
ATOM     15  C   UNL     1      16.903 -30.222  21.540  1.00  0.00     0.106 CG0
ATOM     16  G   UNL     1      18.161 -29.994  22.364  1.00  0.00     0.000 G0
ENDBRANCH  13  15
ENDBRANCH  12  13
BRANCH  12  17
ATOM     17  C   UNL     1      13.258 -29.599  22.852  1.00  0.00    -0.006 C 
ATOM     18  C   UNL     1      12.718 -29.030  24.176  1.00  0.00     0.008 C 
ATOM     19  C   UNL     1      12.246 -30.586  22.250  1.00  0.00     0.008 C 
ENDBRANCH  12  17
ENDBRANCH  11  12
ENDBRANCH   1  11
TORSDOF 1
ENDMDL
MODEL 3
REMARK VINA RESULT:    -3.966      2.027      4.496
REMARK INTER + INTRA:          -6.415
REMARK INTER:                  -6.358
REMARK INTRA:                  -0.057
REMARK UNBOUND:                -0.362
REMARK SMILES CC1=CCC[C@H](C)C(=O)C[C@H](C(C)C)C(=O)C1
REMARK SMILES IDX 8 1 9 2 6 3 7 4 5 5 4 6 3 7 2 8 1 9 10 11 11 12 15 13 16 14
REMARK SMILES IDX 17 15 12 17 13 18 14 19
REMARK H PARENT
REMARK Flexibility Score: 70.00
ROOT
ATOM      1  C   UNL     1      14.597 -32.758  22.168  1.00  0.00     0.136 C 
ATOM      2  O   UNL     1      14.282 -32.827  23.347  1.00  0.00    -0.299 OA
ENDROOT
BRANCH   1   3
ATOM      3  C   UNL     1      14.330 -31.466  21.416  1.00  0.00     0.053 C 
ATOM      4  C   UNL     1      12.858 -31.375  20.997  1.00  0.00     0.016 C 
BRANCH   3   5
ATOM      5  C   UNL     1      14.748 -30.233  22.239  1.00  0.00     0.015 C 
BRANCH   5   6
ATOM      6  C   UNL     1      16.156 -29.738  21.862  1.00  0.00     0.028 C 
BRANCH   6   7
ATOM      7  C   UNL     1      17.169 -30.186  22.884  1.00  0.00    -0.028 C 
ATOM      8  C   UNL     1      18.097 -31.150  22.674  1.00  0.00    -0.070 CG0
ATOM      9  C   UNL     1      18.993 -31.530  23.824  1.00  0.00     0.039 C 
ATOM     10  G   UNL     1      18.280 -31.842  21.332  1.00  0.00     0.000 G0
ENDBRANCH   6   7
ENDBRANCH   5   6
ENDBRANCH   3   5
ENDBRANCH   1   3
BRANCH   1  11
ATOM     11  C   UNL     1      15.265 -33.952  21.523  1.00  0.00     0.087 C 
BRANCH  11  12
ATOM     12  C   UNL     1      16.407 -33.536  20.556  1.00  0.00     0.066 C 
BRANCH  12  13
ATOM     13  C   UNL     1      17.696 -33.244  21.313  1.00  0.00     0.140 C 
ATOM     14  O   UNL     1      18.294 -34.153  21.870  1.00  0.00    -0.299 OA
BRANCH  13  15
ATOM     15  C   UNL     1      18.291 -31.856  21.330  1.00  0.00     0.106 CG0
ATOM     16  G   UNL     1      18.087 -31.160  22.667  1.00  0.00     0.000 G0
ENDBRANCH  13  15
ENDBRANCH  12  13
BRANCH  12  17
ATOM     17  C   UNL     1      16.612 -34.581  19.416  1.00  0.00    -0.006 C 
ATOM     18  C   UNL     1      16.534 -36.044  19.884  1.00  0.00     0.008 C 
ATOM     19  C   UNL     1      17.926 -34.338  18.658  1.00  0.00     0.008 C 
ENDBRANCH  12  17
ENDBRANCH  11  12
ENDBRANCH   1  11
TORSDOF 1
ENDMDL
MODEL 4
REMARK VINA RESULT:    -3.881      2.477      3.704
REMARK INTER + INTRA:          -6.286
REMARK INTER:                  -6.236
REMARK INTRA:                  -0.050
REMARK UNBOUND:                -0.362
REMARK SMILES CC1=CCC[C@H](C)C(=O)C[C@H](C(C)C)C(=O)C1
REMARK SMILES IDX 8 1 9 2 6 3 7 4 5 5 4 6 3 7 2 8 1 9 10 11 11 12 15 13 16 14
REMARK SMILES IDX 17 15 12 17 13 18 14 19
REMARK H PARENT
REMARK Flexibility Score: 70.00
ROOT
ATOM      1  C   UNL     1      15.651 -33.694  20.770  1.00  0.00     0.136 C 
ATOM      2  O   UNL     1      14.484 -33.331  20.800  1.00  0.00    -0.299 OA
ENDROOT
BRANCH   1   3
ATOM      3  C   UNL     1      16.098 -34.622  19.655  1.00  0.00     0.053 C 
ATOM      4  C   UNL     1      17.256 -34.003  18.864  1.00  0.00     0.016 C 
BRANCH   3   5
ATOM      5  C   UNL     1      16.477 -36.015  20.193  1.00  0.00     0.015 C 
BRANCH   5   6
ATOM      6  C   UNL     1      18.002 -36.205  20.281  1.00  0.00     0.028 C 
BRANCH   6   7
ATOM      7  C   UNL     1      18.372 -36.965  21.528  1.00  0.00    -0.028 C 
ATOM      8  C   UNL     1      18.713 -36.389  22.705  1.00  0.00    -0.070 CG0
ATOM      9  C   UNL     1      19.124 -37.291  23.840  1.00  0.00     0.039 C 
ATOM     10  G   UNL     1      18.681 -34.885  22.929  1.00  0.00     0.000 G0
ENDBRANCH   6   7
ENDBRANCH   5   6
ENDBRANCH   3   5
ENDBRANCH   1   3
BRANCH   1  11
ATOM     11  C   UNL     1      16.601 -33.177  21.828  1.00  0.00     0.087 C 
BRANCH  11  12
ATOM     12  C   UNL     1      16.320 -33.796  23.224  1.00  0.00     0.066 C 
BRANCH  12  13
ATOM     13  C   UNL     1      17.569 -34.449  23.803  1.00  0.00     0.140 C 
ATOM     14  O   UNL     1      17.641 -34.664  25.005  1.00  0.00    -0.299 OA
BRANCH  13  15
ATOM     15  C   UNL     1      18.697 -34.902  22.908  1.00  0.00     0.106 CG0
ATOM     16  G   UNL     1      18.700 -36.410  22.706  1.00  0.00     0.000 G0
ENDBRANCH  13  15
ENDBRANCH  12  13
BRANCH  12  17
ATOM     17  C   UNL     1      15.686 -32.759  24.203  1.00  0.00    -0.006 C 
ATOM     18  C   UNL     1      14.151 -32.828  24.281  1.00  0.00     0.008 C 
ATOM     19  C   UNL     1      16.135 -31.327  23.877  1.00  0.00     0.008 C 
ENDBRANCH  12  17
ENDBRANCH  11  12
ENDBRANCH   1  11
TORSDOF 1
ENDMDL
MODEL 5
REMARK VINA RESULT:    -3.855      2.031      4.887
REMARK INTER + INTRA:          -6.246
REMARK INTER:                  -6.010
REMARK INTRA:                  -0.236
REMARK UNBOUND:                -0.362
REMARK SMILES CC1=CCC[C@H](C)C(=O)C[C@H](C(C)C)C(=O)C1
REMARK SMILES IDX 8 1 9 2 6 3 7 4 5 5 4 6 3 7 2 8 1 9 10 11 11 12 15 13 16 14
REMARK SMILES IDX 17 15 12 17 13 18 14 19
REMARK H PARENT
REMARK Flexibility Score: 70.00
ROOT
ATOM      1  C   UNL     1      14.786 -32.993  21.795  1.00  0.00     0.136 C 
ATOM      2  O   UNL     1      14.432 -32.869  20.631  1.00  0.00    -0.299 OA
ENDROOT
BRANCH   1   3
ATOM      3  C   UNL     1      13.969 -32.314  22.881  1.00  0.00     0.053 C 
ATOM      4  C   UNL     1      14.360 -32.844  24.266  1.00  0.00     0.016 C 
BRANCH   3   5
ATOM      5  C   UNL     1      14.102 -30.781  22.817  1.00  0.00     0.015 C 
BRANCH   5   6
ATOM      6  C   UNL     1      15.389 -30.283  23.499  1.00  0.00     0.028 C 
BRANCH   6   7
ATOM      7  C   UNL     1      16.393 -29.829  22.472  1.00  0.00    -0.028 C 
ATOM      8  C   UNL     1      17.591 -30.420  22.256  1.00  0.00    -0.070 CG0
ATOM      9  C   UNL     1      18.512 -29.801  21.236  1.00  0.00     0.039 C 
ATOM     10  G   UNL     1      18.033 -31.682  22.981  1.00  0.00     0.000 G0
ENDBRANCH   6   7
ENDBRANCH   5   6
ENDBRANCH   3   5
ENDBRANCH   1   3
BRANCH   1  11
ATOM     11  C   UNL     1      16.001 -33.840  22.100  1.00  0.00     0.087 C 
BRANCH  11  12
ATOM     12  C   UNL     1      17.220 -33.461  21.217  1.00  0.00     0.066 C 
BRANCH  12  13
ATOM     13  C   UNL     1      18.329 -32.823  22.044  1.00  0.00     0.140 C 
ATOM     14  O   UNL     1      19.484 -33.202  21.908  1.00  0.00    -0.299 OA
BRANCH  13  15
ATOM     15  C   UNL     1      18.038 -31.679  22.985  1.00  0.00     0.106 CG0
ATOM     16  G   UNL     1      17.575 -30.432  22.247  1.00  0.00     0.000 G0
ENDBRANCH  13  15
ENDBRANCH  12  13
BRANCH  12  17
ATOM     17  C   UNL     1      17.729 -34.673  20.377  1.00  0.00    -0.006 C 
ATOM     18  C   UNL     1      17.956 -34.354  18.889  1.00  0.00     0.008 C 
ATOM     19  C   UNL     1      16.802 -35.889  20.521  1.00  0.00     0.008 C 
ENDBRANCH  12  17
ENDBRANCH  11  12
ENDBRANCH   1  11
TORSDOF 1
ENDMDL
MODEL 6
REMARK VINA RESULT:    -3.834      2.039      3.444
REMARK INTER + INTRA:          -6.214
REMARK INTER:                  -5.905
REMARK INTRA:                  -0.309
REMARK UNBOUND:                -0.362
REMARK SMILES CC1=CCC[C@H](C)C(=O)C[C@H](C(C)C)C(=O)C1
REMARK SMILES IDX 8 1 9 2 6 3 7 4 5 5 4 6 3 7 2 8 1 9 10 11 11 12 15 13 16 14
REMARK SMILES IDX 17 15 12 17 13 18 14 19
REMARK H PARENT
REMARK Flexibility Score: 70.00
ROOT
ATOM      1  C   UNL     1      15.887 -33.553  20.700  1.00  0.00     0.136 C 
ATOM      2  O   UNL     1      14.680 -33.750  20.690  1.00  0.00    -0.299 OA
ENDROOT
BRANCH   1   3
ATOM      3  C   UNL     1      16.802 -34.596  20.085  1.00  0.00     0.053 C 
ATOM      4  C   UNL     1      18.113 -33.959  19.612  1.00  0.00     0.016 C 
BRANCH   3   5
ATOM      5  C   UNL     1      17.071 -35.761  21.058  1.00  0.00     0.015 C 
BRANCH   5   6
ATOM      6  C   UNL     1      18.380 -35.566  21.843  1.00  0.00     0.028 C 
BRANCH   6   7
ATOM      7  C   UNL     1      18.103 -35.463  23.321  1.00  0.00    -0.028 C 
ATOM      8  C   UNL     1      18.250 -34.334  24.052  1.00  0.00    -0.070 CG0
ATOM      9  C   UNL     1      17.997 -34.415  25.536  1.00  0.00     0.039 C 
ATOM     10  G   UNL     1      18.637 -32.996  23.440  1.00  0.00     0.000 G0
ENDBRANCH   6   7
ENDBRANCH   5   6
ENDBRANCH   3   5
ENDBRANCH   1   3
BRANCH   1  11
ATOM     11  C   UNL     1      16.408 -32.265  21.298  1.00  0.00     0.087 C 
BRANCH  11  12
ATOM     12  C   UNL     1      16.196 -32.201  22.835  1.00  0.00     0.066 C 
BRANCH  12  13
ATOM     13  C   UNL     1      17.513 -31.984  23.569  1.00  0.00     0.140 C 
ATOM     14  O   UNL     1      17.652 -31.009  24.294  1.00  0.00    -0.299 OA
BRANCH  13  15
ATOM     15  C   UNL     1      18.633 -32.992  23.473  1.00  0.00     0.106 CG0
ATOM     16  G   UNL     1      18.243 -34.342  24.055  1.00  0.00     0.000 G0
ENDBRANCH  13  15
ENDBRANCH  12  13
BRANCH  12  17
ATOM     17  C   UNL     1      15.116 -31.146  23.230  1.00  0.00    -0.006 C 
ATOM     18  C   UNL     1      13.856 -31.748  23.875  1.00  0.00     0.008 C 
ATOM     19  C   UNL     1      14.727 -30.262  22.035  1.00  0.00     0.008 C 
ENDBRANCH  12  17
ENDBRANCH  11  12
ENDBRANCH   1  11
TORSDOF 1
ENDMDL
MODEL 7
REMARK VINA RESULT:    -3.820      1.811      4.236
REMARK INTER + INTRA:          -6.193
REMARK INTER:                  -6.017
REMARK INTRA:                  -0.175
REMARK UNBOUND:                -0.362
REMARK SMILES CC1=CCC[C@H](C)C(=O)C[C@H](C(C)C)C(=O)C1
REMARK SMILES IDX 8 1 9 2 6 3 7 4 5 5 4 6 3 7 2 8 1 9 10 11 11 12 15 13 16 14
REMARK SMILES IDX 17 15 12 17 13 18 14 19
REMARK H PARENT
REMARK Flexibility Score: 70.00
ROOT
ATOM      1  C   UNL     1      18.333 -31.953  21.001  1.00  0.00     0.136 C 
ATOM      2  O   UNL     1      17.950 -30.888  20.539  1.00  0.00    -0.299 OA
ENDROOT
BRANCH   1   3
ATOM      3  C   UNL     1      19.268 -31.934  22.197  1.00  0.00     0.053 C 
ATOM      4  C   UNL     1      20.655 -31.420  21.795  1.00  0.00     0.016 C 
BRANCH   3   5
ATOM      5  C   UNL     1      18.687 -31.107  23.360  1.00  0.00     0.015 C 
BRANCH   5   6
ATOM      6  C   UNL     1      17.467 -31.792  24.002  1.00  0.00     0.028 C 
BRANCH   6   7
ATOM      7  C   UNL     1      16.193 -31.099  23.596  1.00  0.00    -0.028 C 
ATOM      8  C   UNL     1      15.120 -31.722  23.053  1.00  0.00    -0.070 CG0
ATOM      9  C   UNL     1      13.946 -30.873  22.637  1.00  0.00     0.039 C 
ATOM     10  G   UNL     1      15.046 -33.229  22.865  1.00  0.00     0.000 G0
ENDBRANCH   6   7
ENDBRANCH   5   6
ENDBRANCH   3   5
ENDBRANCH   1   3
BRANCH   1  11
ATOM     11  C   UNL     1      17.834 -33.238  20.379  1.00  0.00     0.087 C 
BRANCH  11  12
ATOM     12  C   UNL     1      17.063 -34.123  21.395  1.00  0.00     0.066 C 
BRANCH  12  13
ATOM     13  C   UNL     1      15.609 -33.685  21.523  1.00  0.00     0.140 C 
ATOM     14  O   UNL     1      14.867 -33.747  20.553  1.00  0.00    -0.299 OA
BRANCH  13  15
ATOM     15  C   UNL     1      15.045 -33.238  22.851  1.00  0.00     0.106 CG0
ATOM     16  G   UNL     1      15.139 -31.731  23.036  1.00  0.00     0.000 G0
ENDBRANCH  13  15
ENDBRANCH  12  13
BRANCH  12  17
ATOM     17  C   UNL     1      17.197 -35.641  21.063  1.00  0.00    -0.006 C 
ATOM     18  C   UNL     1      18.367 -36.339  21.778  1.00  0.00     0.008 C 
ATOM     19  C   UNL     1      17.285 -35.882  19.549  1.00  0.00     0.008 C 
ENDBRANCH  12  17
ENDBRANCH  11  12
ENDBRANCH   1  11
TORSDOF 1
ENDMDL
MODEL 8
REMARK VINA RESULT:    -3.809      1.809      4.053
REMARK INTER + INTRA:          -6.175
REMARK INTER:                  -6.102
REMARK INTRA:                  -0.073
REMARK UNBOUND:                -0.362
REMARK SMILES CC1=CCC[C@H](C)C(=O)C[C@H](C(C)C)C(=O)C1
REMARK SMILES IDX 8 1 9 2 6 3 7 4 5 5 4 6 3 7 2 8 1 9 10 11 11 12 15 13 16 14
REMARK SMILES IDX 17 15 12 17 13 18 14 19
REMARK H PARENT
REMARK Flexibility Score: 70.00
ROOT
ATOM      1  C   UNL     1      15.044 -30.033  22.053  1.00  0.00     0.136 C 
ATOM      2  O   UNL     1      14.298 -30.278  21.116  1.00  0.00    -0.299 OA
ENDROOT
BRANCH   1   3
ATOM      3  C   UNL     1      14.563 -30.326  23.463  1.00  0.00     0.053 C 
ATOM      4  C   UNL     1      13.552 -29.269  23.923  1.00  0.00     0.016 C 
BRANCH   3   5
ATOM      5  C   UNL     1      13.974 -31.744  23.580  1.00  0.00     0.015 C 
BRANCH   5   6
ATOM      6  C   UNL     1      15.010 -32.760  24.094  1.00  0.00     0.028 C 
BRANCH   6   7
ATOM      7  C   UNL     1      15.378 -33.738  23.010  1.00  0.00    -0.028 C 
ATOM      8  C   UNL     1      16.575 -33.770  22.378  1.00  0.00    -0.070 CG0
ATOM      9  C   UNL     1      16.761 -34.769  21.265  1.00  0.00     0.039 C 
ATOM     10  G   UNL     1      17.734 -32.859  22.756  1.00  0.00     0.000 G0
ENDBRANCH   6   7
ENDBRANCH   5   6
ENDBRANCH   3   5
ENDBRANCH   1   3
BRANCH   1  11
ATOM     11  C   UNL     1      16.421 -29.480  21.761  1.00  0.00     0.087 C 
BRANCH  11  12
ATOM     12  C   UNL     1      17.535 -30.235  22.536  1.00  0.00     0.066 C 
BRANCH  12  13
ATOM     13  C   UNL     1      17.807 -31.604  21.924  1.00  0.00     0.140 C 
ATOM     14  O   UNL     1      18.133 -31.692  20.749  1.00  0.00    -0.299 OA
BRANCH  13  15
ATOM     15  C   UNL     1      17.749 -32.857  22.765  1.00  0.00     0.106 CG0
ATOM     16  G   UNL     1      16.591 -33.761  22.369  1.00  0.00     0.000 G0
ENDBRANCH  13  15
ENDBRANCH  12  13
BRANCH  12  17
ATOM     17  C   UNL     1      18.832 -29.378  22.671  1.00  0.00    -0.006 C 
ATOM     18  C   UNL     1      19.218 -28.618  21.390  1.00  0.00     0.008 C 
ATOM     19  C   UNL     1      20.017 -30.222  23.162  1.00  0.00     0.008 C 
ENDBRANCH  12  17
ENDBRANCH  11  12
ENDBRANCH   1  11
TORSDOF 1
ENDMDL
MODEL 9
REMARK VINA RESULT:    -3.742      1.739      2.695
REMARK INTER + INTRA:          -6.072
REMARK INTER:                  -5.787
REMARK INTRA:                  -0.286
REMARK UNBOUND:                -0.362
REMARK SMILES CC1=CCC[C@H](C)C(=O)C[C@H](C(C)C)C(=O)C1
REMARK SMILES IDX 8 1 9 2 6 3 7 4 5 5 4 6 3 7 2 8 1 9 10 11 11 12 15 13 16 14
REMARK SMILES IDX 17 15 12 17 13 18 14 19
REMARK H PARENT
REMARK Flexibility Score: 70.00
ROOT
ATOM      1  C   UNL     1      17.224 -31.826  24.339  1.00  0.00     0.136 C 
ATOM      2  O   UNL     1      17.666 -30.718  24.609  1.00  0.00    -0.299 OA
ENDROOT
BRANCH   1   3
ATOM      3  C   UNL     1      18.094 -33.042  24.604  1.00  0.00     0.053 C 
ATOM      4  C   UNL     1      17.245 -34.224  25.082  1.00  0.00     0.016 C 
BRANCH   3   5
ATOM      5  C   UNL     1      18.929 -33.424  23.366  1.00  0.00     0.015 C 
BRANCH   5   6
ATOM      6  C   UNL     1      18.504 -34.782  22.780  1.00  0.00     0.028 C 
BRANCH   6   7
ATOM      7  C   UNL     1      18.202 -34.656  21.310  1.00  0.00    -0.028 C 
ATOM      8  C   UNL     1      16.962 -34.498  20.792  1.00  0.00    -0.070 CG0
ATOM      9  C   UNL     1      16.822 -34.456  19.292  1.00  0.00     0.039 C 
ATOM     10  G   UNL     1      15.719 -34.343  21.655  1.00  0.00     0.000 G0
ENDBRANCH   6   7
ENDBRANCH   5   6
ENDBRANCH   3   5
ENDBRANCH   1   3
BRANCH   1  11
ATOM     11  C   UNL     1      15.822 -31.934  23.783  1.00  0.00     0.087 C 
BRANCH  11  12
ATOM     12  C   UNL     1      15.786 -31.773  22.239  1.00  0.00     0.066 C 
BRANCH  12  13
ATOM     13  C   UNL     1      15.107 -32.961  21.572  1.00  0.00     0.140 C 
ATOM     14  O   UNL     1      14.091 -32.791  20.913  1.00  0.00    -0.299 OA
BRANCH  13  15
ATOM     15  C   UNL     1      15.706 -34.345  21.651  1.00  0.00     0.106 CG0
ATOM     16  G   UNL     1      16.949 -34.484  20.786  1.00  0.00     0.000 G0
ENDBRANCH  13  15
ENDBRANCH  12  13
BRANCH  12  17
ATOM     17  C   UNL     1      15.155 -30.412  21.811  1.00  0.00    -0.006 C 
ATOM     18  C   UNL     1      16.167 -29.259  21.696  1.00  0.00     0.008 C 
ATOM     19  C   UNL     1      13.999 -30.009  22.739  1.00  0.00     0.008 C 
ENDBRANCH  12  17
ENDBRANCH  11  12
ENDBRANCH   1  11
TORSDOF 1
ENDMDL
