MODEL 1
REMARK VINA RESULT:    -2.698      0.000      0.000
REMARK INTER + INTRA:          -4.085
REMARK INTER:                  -3.802
REMARK INTRA:                  -0.283
REMARK UNBOUND:                -0.283
REMARK SMILES CCCCCCCCC(=O)[O-]
REMARK SMILES IDX 6 1 7 2 8 3 9 4 10 5 11 6 5 7 4 8 3 9 2 10 1 11
REMARK H PARENT
REMARK Flexibility Score: inf
ROOT
ATOM      1  C   UNL     1      -5.420  35.761  21.968  1.00  0.00     0.000 C 
ENDROOT
BRANCH   1   2
ATOM      2  C   UNL     1      -5.901  35.633  20.515  1.00  0.00     0.006 C 
BRANCH   2   3
ATOM      3  C   UNL     1      -4.715  35.604  19.546  1.00  0.00     0.053 C 
BRANCH   3   4
ATOM      4  C   UNL     1      -5.012  34.715  18.380  1.00  0.00     0.041 C 
ATOM      5  O   UNL     1      -5.943  33.869  18.448  1.00  0.00    -0.550 OA
ATOM      6  O   UNL     1      -4.230  34.787  17.234  1.00  0.00    -0.550 OA
ENDBRANCH   3   4
ENDBRANCH   2   3
ENDBRANCH   1   2
BRANCH   1   7
ATOM      7  C   UNL     1      -5.907  34.607  22.859  1.00  0.00     0.000 C 
BRANCH   7   8
ATOM      8  C   UNL     1      -6.125  35.040  24.321  1.00  0.00    -0.000 C 
BRANCH   8   9
ATOM      9  C   UNL     1      -6.125  36.568  24.489  1.00  0.00    -0.000 C 
BRANCH   9  10
ATOM     10  C   UNL     1      -5.719  37.008  25.903  1.00  0.00    -0.003 C 
ATOM     11  C   UNL     1      -4.376  37.733  25.888  1.00  0.00     0.004 C 
ENDBRANCH   9  10
ENDBRANCH   8   9
ENDBRANCH   7   8
ENDBRANCH   1   7
TORSDOF 7
ENDMDL
MODEL 2
REMARK VINA RESULT:    -2.482      3.617      4.256
REMARK INTER + INTRA:          -3.781
REMARK INTER:                  -3.400
REMARK INTRA:                  -0.381
REMARK UNBOUND:                -0.283
REMARK SMILES CCCCCCCCC(=O)[O-]
REMARK SMILES IDX 6 1 7 2 8 3 9 4 10 5 11 6 5 7 4 8 3 9 2 10 1 11
REMARK H PARENT
REMARK Flexibility Score: inf
ROOT
ATOM      1  C   UNL     1      -5.205  36.401  20.125  1.00  0.00     0.000 C 
ENDROOT
BRANCH   1   2
ATOM      2  C   UNL     1      -5.518  37.885  20.365  1.00  0.00     0.006 C 
BRANCH   2   3
ATOM      3  C   UNL     1      -5.939  38.127  21.818  1.00  0.00     0.053 C 
BRANCH   3   4
ATOM      4  C   UNL     1      -5.632  39.533  22.226  1.00  0.00     0.041 C 
ATOM      5  O   UNL     1      -5.021  39.762  23.303  1.00  0.00    -0.550 OA
ATOM      6  O   UNL     1      -6.063  40.595  21.441  1.00  0.00    -0.550 OA
ENDBRANCH   3   4
ENDBRANCH   2   3
ENDBRANCH   1   2
BRANCH   1   7
ATOM      7  C   UNL     1      -5.847  35.480  21.176  1.00  0.00     0.000 C 
BRANCH   7   8
ATOM      8  C   UNL     1      -4.805  34.803  22.085  1.00  0.00    -0.000 C 
BRANCH   8   9
ATOM      9  C   UNL     1      -5.366  34.463  23.474  1.00  0.00    -0.000 C 
BRANCH   9  10
ATOM     10  C   UNL     1      -6.124  35.636  24.111  1.00  0.00    -0.003 C 
ATOM     11  C   UNL     1      -5.231  36.402  25.084  1.00  0.00     0.004 C 
ENDBRANCH   9  10
ENDBRANCH   8   9
ENDBRANCH   7   8
ENDBRANCH   1   7
TORSDOF 7
ENDMDL
MODEL 3
REMARK VINA RESULT:    -2.475      3.337      4.808
REMARK INTER + INTRA:          -3.770
REMARK INTER:                  -3.278
REMARK INTRA:                  -0.492
REMARK UNBOUND:                -0.283
REMARK SMILES CCCCCCCCC(=O)[O-]
REMARK SMILES IDX 6 1 7 2 8 3 9 4 10 5 11 6 5 7 4 8 3 9 2 10 1 11
REMARK H PARENT
REMARK Flexibility Score: inf
ROOT
ATOM      1  C   UNL     1      -4.714  35.202  20.930  1.00  0.00     0.000 C 
ENDROOT
BRANCH   1   2
ATOM      2  C   UNL     1      -6.081  35.086  21.619  1.00  0.00     0.006 C 
BRANCH   2   3
ATOM      3  C   UNL     1      -6.113  35.906  22.913  1.00  0.00     0.053 C 
BRANCH   3   4
ATOM      4  C   UNL     1      -6.013  35.008  24.106  1.00  0.00     0.041 C 
ATOM      5  O   UNL     1      -5.820  35.494  25.251  1.00  0.00    -0.550 OA
ATOM      6  O   UNL     1      -6.084  33.630  23.946  1.00  0.00    -0.550 OA
ENDBRANCH   3   4
ENDBRANCH   2   3
ENDBRANCH   1   2
BRANCH   1   7
ATOM      7  C   UNL     1      -4.773  36.012  19.625  1.00  0.00     0.000 C 
BRANCH   7   8
ATOM      8  C   UNL     1      -5.686  37.247  19.736  1.00  0.00    -0.000 C 
BRANCH   8   9
ATOM      9  C   UNL     1      -4.997  38.429  20.436  1.00  0.00    -0.000 C 
BRANCH   9  10
ATOM     10  C   UNL     1      -5.990  39.354  21.154  1.00  0.00    -0.003 C 
ATOM     11  C   UNL     1      -5.568  39.595  22.601  1.00  0.00     0.004 C 
ENDBRANCH   9  10
ENDBRANCH   8   9
ENDBRANCH   7   8
ENDBRANCH   1   7
TORSDOF 7
ENDMDL
MODEL 4
REMARK VINA RESULT:    -2.424      1.921      2.475
REMARK INTER + INTRA:          -3.698
REMARK INTER:                  -3.194
REMARK INTRA:                  -0.505
REMARK UNBOUND:                -0.283
REMARK SMILES CCCCCCCCC(=O)[O-]
REMARK SMILES IDX 6 1 7 2 8 3 9 4 10 5 11 6 5 7 4 8 3 9 2 10 1 11
REMARK H PARENT
REMARK Flexibility Score: inf
ROOT
ATOM      1  C   UNL     1      -5.619  34.655  23.377  1.00  0.00     0.000 C 
ENDROOT
BRANCH   1   2
ATOM      2  C   UNL     1      -5.939  35.204  21.979  1.00  0.00     0.006 C 
BRANCH   2   3
ATOM      3  C   UNL     1      -4.662  35.361  21.147  1.00  0.00     0.053 C 
BRANCH   3   4
ATOM      4  C   UNL     1      -4.995  35.766  19.746  1.00  0.00     0.041 C 
ATOM      5  O   UNL     1      -5.184  36.978  19.464  1.00  0.00    -0.550 OA
ATOM      6  O   UNL     1      -5.146  34.798  18.760  1.00  0.00    -0.550 OA
ENDBRANCH   3   4
ENDBRANCH   2   3
ENDBRANCH   1   2
BRANCH   1   7
ATOM      7  C   UNL     1      -5.700  35.733  24.471  1.00  0.00     0.000 C 
BRANCH   7   8
ATOM      8  C   UNL     1      -6.125  37.106  23.918  1.00  0.00    -0.000 C 
BRANCH   8   9
ATOM      9  C   UNL     1      -5.242  38.250  24.439  1.00  0.00    -0.000 C 
BRANCH   9  10
ATOM     10  C   UNL     1      -5.359  39.524  23.588  1.00  0.00    -0.003 C 
ATOM     11  C   UNL     1      -5.789  39.193  22.162  1.00  0.00     0.004 C 
ENDBRANCH   9  10
ENDBRANCH   8   9
ENDBRANCH   7   8
ENDBRANCH   1   7
TORSDOF 7
ENDMDL
MODEL 5
REMARK VINA RESULT:    -2.384      3.296      5.908
REMARK INTER + INTRA:          -3.641
REMARK INTER:                  -3.235
REMARK INTRA:                  -0.407
REMARK UNBOUND:                -0.283
REMARK SMILES CCCCCCCCC(=O)[O-]
REMARK SMILES IDX 6 1 7 2 8 3 9 4 10 5 11 6 5 7 4 8 3 9 2 10 1 11
REMARK H PARENT
REMARK Flexibility Score: inf
ROOT
ATOM      1  C   UNL     1      -4.714  34.468  22.978  1.00  0.00     0.000 C 
ENDROOT
BRANCH   1   2
ATOM      2  C   UNL     1      -6.121  34.845  23.465  1.00  0.00     0.006 C 
BRANCH   2   3
ATOM      3  C   UNL     1      -6.081  35.368  24.904  1.00  0.00     0.053 C 
BRANCH   3   4
ATOM      4  C   UNL     1      -5.681  36.809  24.928  1.00  0.00     0.041 C 
ATOM      5  O   UNL     1      -5.033  37.272  25.904  1.00  0.00    -0.550 OA
ATOM      6  O   UNL     1      -6.065  37.654  23.894  1.00  0.00    -0.550 OA
ENDBRANCH   3   4
ENDBRANCH   2   3
ENDBRANCH   1   2
BRANCH   1   7
ATOM      7  C   UNL     1      -4.419  34.982  21.559  1.00  0.00     0.000 C 
BRANCH   7   8
ATOM      8  C   UNL     1      -5.450  36.019  21.080  1.00  0.00    -0.000 C 
BRANCH   8   9
ATOM      9  C   UNL     1      -5.500  36.136  19.548  1.00  0.00    -0.000 C 
BRANCH   9  10
ATOM     10  C   UNL     1      -5.836  34.804  18.862  1.00  0.00    -0.003 C 
ATOM     11  C   UNL     1      -4.661  34.309  18.022  1.00  0.00     0.004 C 
ENDBRANCH   9  10
ENDBRANCH   8   9
ENDBRANCH   7   8
ENDBRANCH   1   7
TORSDOF 7
ENDMDL
MODEL 6
REMARK VINA RESULT:    -2.121      2.149      2.479
REMARK INTER + INTRA:          -3.272
REMARK INTER:                  -2.764
REMARK INTRA:                  -0.507
REMARK UNBOUND:                -0.283
REMARK SMILES CCCCCCCCC(=O)[O-]
REMARK SMILES IDX 6 1 7 2 8 3 9 4 10 5 11 6 5 7 4 8 3 9 2 10 1 11
REMARK H PARENT
REMARK Flexibility Score: inf
ROOT
ATOM      1  C   UNL     1      -4.418  34.985  22.226  1.00  0.00     0.000 C 
ENDROOT
BRANCH   1   2
ATOM      2  C   UNL     1      -4.654  35.118  20.714  1.00  0.00     0.006 C 
BRANCH   2   3
ATOM      3  C   UNL     1      -5.862  36.015  20.426  1.00  0.00     0.053 C 
BRANCH   3   4
ATOM      4  C   UNL     1      -5.433  37.441  20.280  1.00  0.00     0.041 C 
ATOM      5  O   UNL     1      -4.863  37.827  19.225  1.00  0.00    -0.550 OA
ATOM      6  O   UNL     1      -5.619  38.334  21.328  1.00  0.00    -0.550 OA
ENDBRANCH   3   4
ENDBRANCH   2   3
ENDBRANCH   1   2
BRANCH   1   7
ATOM      7  C   UNL     1      -5.363  33.969  22.888  1.00  0.00     0.000 C 
BRANCH   7   8
ATOM      8  C   UNL     1      -6.125  34.564  24.086  1.00  0.00    -0.000 C 
BRANCH   8   9
ATOM      9  C   UNL     1      -6.003  36.094  24.161  1.00  0.00    -0.000 C 
BRANCH   9  10
ATOM     10  C   UNL     1      -5.992  36.618  25.605  1.00  0.00    -0.003 C 
ATOM     11  C   UNL     1      -4.825  37.575  25.831  1.00  0.00     0.004 C 
ENDBRANCH   9  10
ENDBRANCH   8   9
ENDBRANCH   7   8
ENDBRANCH   1   7
TORSDOF 7
ENDMDL
MODEL 7
REMARK VINA RESULT:    -1.748      1.429      1.941
REMARK INTER + INTRA:          -2.746
REMARK INTER:                  -2.397
REMARK INTRA:                  -0.349
REMARK UNBOUND:                -0.283
REMARK SMILES CCCCCCCCC(=O)[O-]
REMARK SMILES IDX 6 1 7 2 8 3 9 4 10 5 11 6 5 7 4 8 3 9 2 10 1 11
REMARK H PARENT
REMARK Flexibility Score: inf
ROOT
ATOM      1  C   UNL     1      -4.733  37.641  20.926  1.00  0.00     0.000 C 
ENDROOT
BRANCH   1   2
ATOM      2  C   UNL     1      -5.350  36.836  19.773  1.00  0.00     0.006 C 
BRANCH   2   3
ATOM      3  C   UNL     1      -4.914  35.369  19.836  1.00  0.00     0.053 C 
BRANCH   3   4
ATOM      4  C   UNL     1      -5.100  34.709  18.506  1.00  0.00     0.041 C 
ATOM      5  O   UNL     1      -6.007  33.849  18.346  1.00  0.00    -0.550 OA
ATOM      6  O   UNL     1      -4.241  35.007  17.455  1.00  0.00    -0.550 OA
ENDBRANCH   3   4
ENDBRANCH   2   3
ENDBRANCH   1   2
BRANCH   1   7
ATOM      7  C   UNL     1      -5.745  38.582  21.601  1.00  0.00     0.000 C 
BRANCH   7   8
ATOM      8  C   UNL     1      -6.051  38.177  23.054  1.00  0.00    -0.000 C 
BRANCH   8   9
ATOM      9  C   UNL     1      -6.125  36.653  23.238  1.00  0.00    -0.000 C 
BRANCH   9  10
ATOM     10  C   UNL     1      -6.117  36.233  24.715  1.00  0.00    -0.003 C 
ATOM     11  C   UNL     1      -5.136  37.080  25.521  1.00  0.00     0.004 C 
ENDBRANCH   9  10
ENDBRANCH   8   9
ENDBRANCH   7   8
ENDBRANCH   1   7
TORSDOF 7
ENDMDL
MODEL 8
REMARK VINA RESULT:    -1.520      3.727      6.113
REMARK INTER + INTRA:          -2.425
REMARK INTER:                  -2.087
REMARK INTRA:                  -0.339
REMARK UNBOUND:                -0.283
REMARK SMILES CCCCCCCCC(=O)[O-]
REMARK SMILES IDX 6 1 7 2 8 3 9 4 10 5 11 6 5 7 4 8 3 9 2 10 1 11
REMARK H PARENT
REMARK Flexibility Score: inf
ROOT
ATOM      1  C   UNL     1      -5.104  38.528  22.079  1.00  0.00     0.000 C 
ENDROOT
BRANCH   1   2
ATOM      2  C   UNL     1      -6.123  38.192  23.178  1.00  0.00     0.006 C 
BRANCH   2   3
ATOM      3  C   UNL     1      -6.013  36.721  23.595  1.00  0.00     0.053 C 
BRANCH   3   4
ATOM      4  C   UNL     1      -5.624  36.612  25.035  1.00  0.00     0.041 C 
ATOM      5  O   UNL     1      -6.125  35.713  25.761  1.00  0.00    -0.550 OA
ATOM      6  O   UNL     1      -4.744  37.534  25.590  1.00  0.00    -0.550 OA
ENDBRANCH   3   4
ENDBRANCH   2   3
ENDBRANCH   1   2
BRANCH   1   7
ATOM      7  C   UNL     1      -5.725  38.525  20.673  1.00  0.00     0.000 C 
BRANCH   7   8
ATOM      8  C   UNL     1      -5.021  37.544  19.717  1.00  0.00    -0.000 C 
BRANCH   8   9
ATOM      9  C   UNL     1      -5.125  36.085  20.189  1.00  0.00    -0.000 C 
BRANCH   9  10
ATOM     10  C   UNL     1      -4.627  35.084  19.136  1.00  0.00    -0.003 C 
ATOM     11  C   UNL     1      -5.793  34.336  18.496  1.00  0.00     0.004 C 
ENDBRANCH   9  10
ENDBRANCH   8   9
ENDBRANCH   7   8
ENDBRANCH   1   7
TORSDOF 7
ENDMDL
MODEL 9
REMARK VINA RESULT:    -1.260      3.249      5.035
REMARK INTER + INTRA:          -2.058
REMARK INTER:                  -1.624
REMARK INTRA:                  -0.434
REMARK UNBOUND:                -0.283
REMARK SMILES CCCCCCCCC(=O)[O-]
REMARK SMILES IDX 6 1 7 2 8 3 9 4 10 5 11 6 5 7 4 8 3 9 2 10 1 11
REMARK H PARENT
REMARK Flexibility Score: inf
ROOT
ATOM      1  C   UNL     1      -5.138  36.741  25.475  1.00  0.00     0.000 C 
ENDROOT
BRANCH   1   2
ATOM      2  C   UNL     1      -5.208  38.175  24.930  1.00  0.00     0.006 C 
BRANCH   2   3
ATOM      3  C   UNL     1      -6.106  38.246  23.690  1.00  0.00     0.053 C 
BRANCH   3   4
ATOM      4  C   UNL     1      -5.529  39.185  22.678  1.00  0.00     0.041 C 
ATOM      5  O   UNL     1      -4.718  40.081  23.034  1.00  0.00    -0.550 OA
ATOM      6  O   UNL     1      -5.924  39.103  21.349  1.00  0.00    -0.550 OA
ENDBRANCH   3   4
ENDBRANCH   2   3
ENDBRANCH   1   2
BRANCH   1   7
ATOM      7  C   UNL     1      -6.125  35.791  24.776  1.00  0.00     0.000 C 
BRANCH   7   8
ATOM      8  C   UNL     1      -5.425  34.822  23.807  1.00  0.00    -0.000 C 
BRANCH   8   9
ATOM      9  C   UNL     1      -6.004  34.890  22.385  1.00  0.00    -0.000 C 
BRANCH   9  10
ATOM     10  C   UNL     1      -4.975  35.363  21.348  1.00  0.00    -0.003 C 
ATOM     11  C   UNL     1      -5.663  36.016  20.151  1.00  0.00     0.004 C 
ENDBRANCH   9  10
ENDBRANCH   8   9
ENDBRANCH   7   8
ENDBRANCH   1   7
TORSDOF 7
ENDMDL
