MODEL 1
REMARK VINA RESULT:    -4.171      0.000      0.000
REMARK INTER + INTRA:         -14.109
REMARK INTER:                 -10.510
REMARK INTRA:                  -3.599
REMARK UNBOUND:                -3.599
REMARK SMILES CCCCCCCCCCCCCCCCCCCCCCCCCCCC(=O)[O-]
REMARK SMILES IDX 15 1 16 2 17 3 18 4 19 5 20 6 21 7 22 8 23 9 24 10 25 11
REMARK SMILES IDX 26 12 27 13 28 14 29 15 30 16 14 17 13 18 12 19 11 20 10 21
REMARK SMILES IDX 9 22 8 23 7 24 6 25 5 26 4 27 3 28 2 29 1 30
REMARK H PARENT
REMARK Flexibility Score: inf
ROOT
ATOM      1  C   UNL     1      45.213  35.410 -12.954  1.00  0.00     0.000 C 
ENDROOT
BRANCH   1   2
ATOM      2  C   UNL     1      45.016  36.780 -13.626  1.00  0.00     0.000 C 
BRANCH   2   3
ATOM      3  C   UNL     1      45.865  37.880 -12.966  1.00  0.00     0.000 C 
BRANCH   3   4
ATOM      4  C   UNL     1      45.514  38.071 -11.483  1.00  0.00     0.000 C 
BRANCH   4   5
ATOM      5  C   UNL     1      46.770  38.021 -10.603  1.00  0.00     0.000 C 
BRANCH   5   6
ATOM      6  C   UNL     1      47.928  37.337 -11.345  1.00  0.00     0.000 C 
BRANCH   6   7
ATOM      7  C   UNL     1      48.197  35.907 -10.845  1.00  0.00     0.000 C 
BRANCH   7   8
ATOM      8  C   UNL     1      47.429  35.520  -9.567  1.00  0.00     0.000 C 
BRANCH   8   9
ATOM      9  C   UNL     1      46.160  34.683  -9.839  1.00  0.00     0.000 C 
BRANCH   9  10
ATOM     10  C   UNL     1      45.183  34.715  -8.654  1.00  0.00     0.000 C 
BRANCH  10  11
ATOM     11  C   UNL     1      44.897  36.141  -8.155  1.00  0.00     0.000 C 
BRANCH  11  12
ATOM     12  C   UNL     1      43.499  36.665  -8.556  1.00  0.00     0.006 C 
BRANCH  12  13
ATOM     13  C   UNL     1      43.076  36.240  -9.971  1.00  0.00     0.053 C 
BRANCH  13  14
ATOM     14  C   UNL     1      42.059  37.175 -10.553  1.00  0.00     0.041 C 
ATOM     15  O   UNL     1      42.039  37.396 -11.793  1.00  0.00    -0.550 OA
ATOM     16  O   UNL     1      41.129  37.797  -9.728  1.00  0.00    -0.550 OA
ENDBRANCH  13  14
ENDBRANCH  12  13
ENDBRANCH  11  12
ENDBRANCH  10  11
ENDBRANCH   9  10
ENDBRANCH   8   9
ENDBRANCH   7   8
ENDBRANCH   6   7
ENDBRANCH   5   6
ENDBRANCH   4   5
ENDBRANCH   3   4
ENDBRANCH   2   3
ENDBRANCH   1   2
BRANCH   1  17
ATOM     17  C   UNL     1      45.998  34.415 -13.836  1.00  0.00     0.000 C 
BRANCH  17  18
ATOM     18  C   UNL     1      47.464  34.818 -14.090  1.00  0.00     0.000 C 
BRANCH  18  19
ATOM     19  C   UNL     1      47.983  34.554 -15.517  1.00  0.00     0.000 C 
BRANCH  19  20
ATOM     20  C   UNL     1      47.505  35.559 -16.583  1.00  0.00     0.000 C 
BRANCH  20  21
ATOM     21  C   UNL     1      47.496  37.034 -16.133  1.00  0.00     0.000 C 
BRANCH  21  22
ATOM     22  C   UNL     1      48.888  37.579 -15.752  1.00  0.00    -0.000 C 
BRANCH  22  23
ATOM     23  C   UNL     1      49.909  37.451 -16.893  1.00  0.00    -0.000 C 
BRANCH  23  24
ATOM     24  C   UNL     1      51.040  36.489 -16.512  1.00  0.00    -0.000 C 
BRANCH  24  25
ATOM     25  C   UNL     1      52.043  37.164 -15.563  1.00  0.00    -0.000 C 
BRANCH  25  26
ATOM     26  C   UNL     1      53.110  37.976 -16.316  1.00  0.00    -0.000 C 
BRANCH  26  27
ATOM     27  C   UNL     1      53.511  37.330 -17.654  1.00  0.00    -0.000 C 
BRANCH  27  28
ATOM     28  C   UNL     1      54.904  37.775 -18.136  1.00  0.00    -0.000 C 
BRANCH  28  29
ATOM     29  C   UNL     1      55.135  37.639 -19.651  1.00  0.00    -0.003 C 
ATOM     30  C   UNL     1      55.131  36.187 -20.129  1.00  0.00     0.004 C 
ENDBRANCH  28  29
ENDBRANCH  27  28
ENDBRANCH  26  27
ENDBRANCH  25  26
ENDBRANCH  24  25
ENDBRANCH  23  24
ENDBRANCH  22  23
ENDBRANCH  21  22
ENDBRANCH  20  21
ENDBRANCH  19  20
ENDBRANCH  18  19
ENDBRANCH  17  18
ENDBRANCH   1  17
TORSDOF 26
ENDMDL
MODEL 2
REMARK VINA RESULT:    -4.075      3.606      8.835
REMARK INTER + INTRA:         -13.868
REMARK INTER:                 -10.113
REMARK INTRA:                  -3.755
REMARK UNBOUND:                -3.599
REMARK SMILES CCCCCCCCCCCCCCCCCCCCCCCCCCCC(=O)[O-]
REMARK SMILES IDX 15 1 16 2 17 3 18 4 19 5 20 6 21 7 22 8 23 9 24 10 25 11
REMARK SMILES IDX 26 12 27 13 28 14 29 15 30 16 14 17 13 18 12 19 11 20 10 21
REMARK SMILES IDX 9 22 8 23 7 24 6 25 5 26 4 27 3 28 2 29 1 30
REMARK H PARENT
REMARK Flexibility Score: inf
ROOT
ATOM      1  C   UNL     1      48.098  34.626 -14.784  1.00  0.00     0.000 C 
ENDROOT
BRANCH   1   2
ATOM      2  C   UNL     1      46.573  34.462 -14.663  1.00  0.00     0.000 C 
BRANCH   2   3
ATOM      3  C   UNL     1      46.131  34.179 -13.217  1.00  0.00     0.000 C 
BRANCH   3   4
ATOM      4  C   UNL     1      47.138  34.711 -12.188  1.00  0.00     0.000 C 
BRANCH   4   5
ATOM      5  C   UNL     1      46.428  35.423 -11.030  1.00  0.00     0.000 C 
BRANCH   5   6
ATOM      6  C   UNL     1      47.300  36.556 -10.469  1.00  0.00     0.000 C 
BRANCH   6   7
ATOM      7  C   UNL     1      48.519  36.868 -11.355  1.00  0.00     0.000 C 
BRANCH   7   8
ATOM      8  C   UNL     1      48.199  37.687 -12.619  1.00  0.00     0.000 C 
BRANCH   8   9
ATOM      9  C   UNL     1      49.454  38.120 -13.408  1.00  0.00     0.000 C 
BRANCH   9  10
ATOM     10  C   UNL     1      50.630  37.154 -13.197  1.00  0.00     0.000 C 
BRANCH  10  11
ATOM     11  C   UNL     1      51.979  37.753 -13.629  1.00  0.00     0.000 C 
BRANCH  11  12
ATOM     12  C   UNL     1      52.139  37.872 -15.162  1.00  0.00     0.006 C 
BRANCH  12  13
ATOM     13  C   UNL     1      52.943  36.716 -15.777  1.00  0.00     0.053 C 
BRANCH  13  14
ATOM     14  C   UNL     1      52.710  36.601 -17.253  1.00  0.00     0.041 C 
ATOM     15  O   UNL     1      51.767  35.889 -17.692  1.00  0.00    -0.550 OA
ATOM     16  O   UNL     1      53.527  37.284 -18.145  1.00  0.00    -0.550 OA
ENDBRANCH  13  14
ENDBRANCH  12  13
ENDBRANCH  11  12
ENDBRANCH  10  11
ENDBRANCH   9  10
ENDBRANCH   8   9
ENDBRANCH   7   8
ENDBRANCH   6   7
ENDBRANCH   5   6
ENDBRANCH   4   5
ENDBRANCH   3   4
ENDBRANCH   2   3
ENDBRANCH   1   2
BRANCH   1  17
ATOM     17  C   UNL     1      48.527  35.294 -16.108  1.00  0.00     0.000 C 
BRANCH  17  18
ATOM     18  C   UNL     1      47.355  35.668 -17.036  1.00  0.00     0.000 C 
BRANCH  18  19
ATOM     19  C   UNL     1      47.163  37.177 -17.281  1.00  0.00     0.000 C 
BRANCH  19  20
ATOM     20  C   UNL     1      46.990  38.029 -16.009  1.00  0.00     0.000 C 
BRANCH  20  21
ATOM     21  C   UNL     1      45.596  37.951 -15.355  1.00  0.00     0.000 C 
BRANCH  21  22
ATOM     22  C   UNL     1      45.632  37.859 -13.816  1.00  0.00    -0.000 C 
BRANCH  22  23
ATOM     23  C   UNL     1      44.239  37.983 -13.180  1.00  0.00    -0.000 C 
BRANCH  23  24
ATOM     24  C   UNL     1      43.601  36.604 -12.981  1.00  0.00    -0.000 C 
BRANCH  24  25
ATOM     25  C   UNL     1      42.506  36.652 -11.905  1.00  0.00    -0.000 C 
BRANCH  25  26
ATOM     26  C   UNL     1      42.814  37.671 -10.796  1.00  0.00    -0.000 C 
BRANCH  26  27
ATOM     27  C   UNL     1      42.730  37.058  -9.387  1.00  0.00    -0.000 C 
BRANCH  27  28
ATOM     28  C   UNL     1      43.666  35.849  -9.208  1.00  0.00    -0.000 C 
BRANCH  28  29
ATOM     29  C   UNL     1      44.542  35.894  -7.943  1.00  0.00    -0.003 C 
ATOM     30  C   UNL     1      44.970  34.508  -7.463  1.00  0.00     0.004 C 
ENDBRANCH  28  29
ENDBRANCH  27  28
ENDBRANCH  26  27
ENDBRANCH  25  26
ENDBRANCH  24  25
ENDBRANCH  23  24
ENDBRANCH  22  23
ENDBRANCH  21  22
ENDBRANCH  20  21
ENDBRANCH  19  20
ENDBRANCH  18  19
ENDBRANCH  17  18
ENDBRANCH   1  17
TORSDOF 26
ENDMDL
MODEL 3
REMARK VINA RESULT:    -4.069      3.008      8.536
REMARK INTER + INTRA:         -13.854
REMARK INTER:                 -10.592
REMARK INTRA:                  -3.262
REMARK UNBOUND:                -3.599
REMARK SMILES CCCCCCCCCCCCCCCCCCCCCCCCCCCC(=O)[O-]
REMARK SMILES IDX 15 1 16 2 17 3 18 4 19 5 20 6 21 7 22 8 23 9 24 10 25 11
REMARK SMILES IDX 26 12 27 13 28 14 29 15 30 16 14 17 13 18 12 19 11 20 10 21
REMARK SMILES IDX 9 22 8 23 7 24 6 25 5 26 4 27 3 28 2 29 1 30
REMARK H PARENT
REMARK Flexibility Score: inf
ROOT
ATOM      1  C   UNL     1      46.486  34.205  -8.771  1.00  0.00     0.000 C 
ENDROOT
BRANCH   1   2
ATOM      2  C   UNL     1      46.558  34.909 -10.137  1.00  0.00     0.000 C 
BRANCH   2   3
ATOM      3  C   UNL     1      46.861  36.411 -10.004  1.00  0.00     0.000 C 
BRANCH   3   4
ATOM      4  C   UNL     1      47.816  36.909 -11.099  1.00  0.00     0.000 C 
BRANCH   4   5
ATOM      5  C   UNL     1      48.868  35.848 -11.445  1.00  0.00     0.000 C 
BRANCH   5   6
ATOM      6  C   UNL     1      49.730  36.302 -12.633  1.00  0.00     0.000 C 
BRANCH   6   7
ATOM      7  C   UNL     1      49.129  37.503 -13.383  1.00  0.00     0.000 C 
BRANCH   7   8
ATOM      8  C   UNL     1      50.056  38.125 -14.444  1.00  0.00     0.000 C 
BRANCH   8   9
ATOM      9  C   UNL     1      51.526  37.666 -14.325  1.00  0.00     0.000 C 
BRANCH   9  10
ATOM     10  C   UNL     1      51.915  36.680 -15.436  1.00  0.00     0.000 C 
BRANCH  10  11
ATOM     11  C   UNL     1      51.071  36.855 -16.710  1.00  0.00     0.000 C 
BRANCH  11  12
ATOM     12  C   UNL     1      50.318  35.572 -17.132  1.00  0.00     0.006 C 
BRANCH  12  13
ATOM     13  C   UNL     1      48.903  35.479 -16.539  1.00  0.00     0.053 C 
BRANCH  13  14
ATOM     14  C   UNL     1      47.947  36.401 -17.234  1.00  0.00     0.041 C 
ATOM     15  O   UNL     1      46.807  35.989 -17.577  1.00  0.00    -0.550 OA
ATOM     16  O   UNL     1      48.310  37.717 -17.495  1.00  0.00    -0.550 OA
ENDBRANCH  13  14
ENDBRANCH  12  13
ENDBRANCH  11  12
ENDBRANCH  10  11
ENDBRANCH   9  10
ENDBRANCH   8   9
ENDBRANCH   7   8
ENDBRANCH   6   7
ENDBRANCH   5   6
ENDBRANCH   4   5
ENDBRANCH   3   4
ENDBRANCH   2   3
ENDBRANCH   1   2
BRANCH   1  17
ATOM     17  C   UNL     1      45.045  34.090  -8.230  1.00  0.00     0.000 C 
BRANCH  17  18
ATOM     18  C   UNL     1      44.278  35.425  -8.185  1.00  0.00     0.000 C 
BRANCH  18  19
ATOM     19  C   UNL     1      44.760  36.428  -7.118  1.00  0.00     0.000 C 
BRANCH  19  20
ATOM     20  C   UNL     1      44.139  37.834  -7.215  1.00  0.00     0.000 C 
BRANCH  20  21
ATOM     21  C   UNL     1      43.378  38.124  -8.524  1.00  0.00     0.000 C 
BRANCH  21  22
ATOM     22  C   UNL     1      41.881  37.754  -8.473  1.00  0.00    -0.000 C 
BRANCH  22  23
ATOM     23  C   UNL     1      41.253  37.626  -9.869  1.00  0.00    -0.000 C 
BRANCH  23  24
ATOM     24  C   UNL     1      42.296  37.875 -10.965  1.00  0.00    -0.000 C 
BRANCH  24  25
ATOM     25  C   UNL     1      42.982  36.565 -11.382  1.00  0.00    -0.000 C 
BRANCH  25  26
ATOM     26  C   UNL     1      43.177  36.461 -12.903  1.00  0.00    -0.000 C 
BRANCH  26  27
ATOM     27  C   UNL     1      44.319  37.356 -13.416  1.00  0.00    -0.000 C 
BRANCH  27  28
ATOM     28  C   UNL     1      45.592  36.560 -13.757  1.00  0.00    -0.000 C 
BRANCH  28  29
ATOM     29  C   UNL     1      45.545  35.072 -13.365  1.00  0.00    -0.003 C 
ATOM     30  C   UNL     1      46.709  34.266 -13.941  1.00  0.00     0.004 C 
ENDBRANCH  28  29
ENDBRANCH  27  28
ENDBRANCH  26  27
ENDBRANCH  25  26
ENDBRANCH  24  25
ENDBRANCH  23  24
ENDBRANCH  22  23
ENDBRANCH  21  22
ENDBRANCH  20  21
ENDBRANCH  19  20
ENDBRANCH  18  19
ENDBRANCH  17  18
ENDBRANCH   1  17
TORSDOF 26
ENDMDL
MODEL 4
REMARK VINA RESULT:    -3.994      2.399      4.833
REMARK INTER + INTRA:         -13.664
REMARK INTER:                 -10.125
REMARK INTRA:                  -3.539
REMARK UNBOUND:                -3.599
REMARK SMILES CCCCCCCCCCCCCCCCCCCCCCCCCCCC(=O)[O-]
REMARK SMILES IDX 15 1 16 2 17 3 18 4 19 5 20 6 21 7 22 8 23 9 24 10 25 11
REMARK SMILES IDX 26 12 27 13 28 14 29 15 30 16 14 17 13 18 12 19 11 20 10 21
REMARK SMILES IDX 9 22 8 23 7 24 6 25 5 26 4 27 3 28 2 29 1 30
REMARK H PARENT
REMARK Flexibility Score: inf
ROOT
ATOM      1  C   UNL     1      45.864  34.352 -13.459  1.00  0.00     0.000 C 
ENDROOT
BRANCH   1   2
ATOM      2  C   UNL     1      44.875  35.529 -13.391  1.00  0.00     0.000 C 
BRANCH   2   3
ATOM      3  C   UNL     1      45.580  36.866 -13.103  1.00  0.00     0.000 C 
BRANCH   3   4
ATOM      4  C   UNL     1      44.672  37.849 -12.349  1.00  0.00     0.000 C 
BRANCH   4   5
ATOM      5  C   UNL     1      43.213  37.720 -12.805  1.00  0.00     0.000 C 
BRANCH   5   6
ATOM      6  C   UNL     1      42.360  37.048 -11.718  1.00  0.00     0.000 C 
BRANCH   6   7
ATOM      7  C   UNL     1      42.159  37.938 -10.480  1.00  0.00     0.000 C 
BRANCH   7   8
ATOM      8  C   UNL     1      42.659  37.322  -9.160  1.00  0.00     0.000 C 
BRANCH   8   9
ATOM      9  C   UNL     1      43.431  35.998  -9.350  1.00  0.00     0.000 C 
BRANCH   9  10
ATOM     10  C   UNL     1      44.940  36.172  -9.125  1.00  0.00     0.000 C 
BRANCH  10  11
ATOM     11  C   UNL     1      45.748  34.918  -9.498  1.00  0.00     0.000 C 
BRANCH  11  12
ATOM     12  C   UNL     1      46.679  34.424  -8.367  1.00  0.00     0.006 C 
BRANCH  12  13
ATOM     13  C   UNL     1      46.315  33.022  -7.854  1.00  0.00     0.053 C 
BRANCH  13  14
ATOM     14  C   UNL     1      44.859  32.916  -7.510  1.00  0.00     0.041 C 
ATOM     15  O   UNL     1      44.008  32.714  -8.416  1.00  0.00    -0.550 OA
ATOM     16  O   UNL     1      44.443  33.032  -6.189  1.00  0.00    -0.550 OA
ENDBRANCH  13  14
ENDBRANCH  12  13
ENDBRANCH  11  12
ENDBRANCH  10  11
ENDBRANCH   9  10
ENDBRANCH   8   9
ENDBRANCH   7   8
ENDBRANCH   6   7
ENDBRANCH   5   6
ENDBRANCH   4   5
ENDBRANCH   3   4
ENDBRANCH   2   3
ENDBRANCH   1   2
BRANCH   1  17
ATOM     17  C   UNL     1      47.195  34.725 -14.147  1.00  0.00     0.000 C 
BRANCH  17  18
ATOM     18  C   UNL     1      47.147  34.676 -15.686  1.00  0.00     0.000 C 
BRANCH  18  19
ATOM     19  C   UNL     1      47.258  36.041 -16.394  1.00  0.00     0.000 C 
BRANCH  19  20
ATOM     20  C   UNL     1      48.577  36.277 -17.153  1.00  0.00     0.000 C 
BRANCH  20  21
ATOM     21  C   UNL     1      49.740  35.351 -16.746  1.00  0.00     0.000 C 
BRANCH  21  22
ATOM     22  C   UNL     1      51.131  36.010 -16.852  1.00  0.00    -0.000 C 
BRANCH  22  23
ATOM     23  C   UNL     1      51.151  37.445 -16.303  1.00  0.00    -0.000 C 
BRANCH  23  24
ATOM     24  C   UNL     1      52.300  37.634 -15.305  1.00  0.00    -0.000 C 
BRANCH  24  25
ATOM     25  C   UNL     1      51.812  37.447 -13.860  1.00  0.00    -0.000 C 
BRANCH  25  26
ATOM     26  C   UNL     1      50.455  38.124 -13.604  1.00  0.00    -0.000 C 
BRANCH  26  27
ATOM     27  C   UNL     1      49.312  37.110 -13.418  1.00  0.00    -0.000 C 
BRANCH  27  28
ATOM     28  C   UNL     1      49.605  36.080 -12.312  1.00  0.00    -0.000 C 
BRANCH  28  29
ATOM     29  C   UNL     1      48.756  36.244 -11.039  1.00  0.00    -0.003 C 
ATOM     30  C   UNL     1      47.980  37.560 -11.004  1.00  0.00     0.004 C 
ENDBRANCH  28  29
ENDBRANCH  27  28
ENDBRANCH  26  27
ENDBRANCH  25  26
ENDBRANCH  24  25
ENDBRANCH  23  24
ENDBRANCH  22  23
ENDBRANCH  21  22
ENDBRANCH  20  21
ENDBRANCH  19  20
ENDBRANCH  18  19
ENDBRANCH  17  18
ENDBRANCH   1  17
TORSDOF 26
ENDMDL
MODEL 5
REMARK VINA RESULT:    -3.942      4.841     10.243
REMARK INTER + INTRA:         -13.533
REMARK INTER:                 -10.144
REMARK INTRA:                  -3.389
REMARK UNBOUND:                -3.599
REMARK SMILES CCCCCCCCCCCCCCCCCCCCCCCCCCCC(=O)[O-]
REMARK SMILES IDX 15 1 16 2 17 3 18 4 19 5 20 6 21 7 22 8 23 9 24 10 25 11
REMARK SMILES IDX 26 12 27 13 28 14 29 15 30 16 14 17 13 18 12 19 11 20 10 21
REMARK SMILES IDX 9 22 8 23 7 24 6 25 5 26 4 27 3 28 2 29 1 30
REMARK H PARENT
REMARK Flexibility Score: inf
ROOT
ATOM      1  C   UNL     1      47.726  34.534 -15.267  1.00  0.00     0.000 C 
ENDROOT
BRANCH   1   2
ATOM      2  C   UNL     1      48.613  34.718 -14.024  1.00  0.00     0.000 C 
BRANCH   2   3
ATOM      3  C   UNL     1      47.811  35.192 -12.800  1.00  0.00     0.000 C 
BRANCH   3   4
ATOM      4  C   UNL     1      48.425  36.441 -12.152  1.00  0.00     0.000 C 
BRANCH   4   5
ATOM      5  C   UNL     1      49.102  37.335 -13.198  1.00  0.00     0.000 C 
BRANCH   5   6
ATOM      6  C   UNL     1      50.587  37.540 -12.861  1.00  0.00     0.000 C 
BRANCH   6   7
ATOM      7  C   UNL     1      51.429  37.936 -14.086  1.00  0.00     0.000 C 
BRANCH   7   8
ATOM      8  C   UNL     1      51.120  37.134 -15.363  1.00  0.00     0.000 C 
BRANCH   8   9
ATOM      9  C   UNL     1      51.720  37.755 -16.643  1.00  0.00     0.000 C 
BRANCH   9  10
ATOM     10  C   UNL     1      53.143  37.246 -16.918  1.00  0.00     0.000 C 
BRANCH  10  11
ATOM     11  C   UNL     1      53.695  37.723 -18.272  1.00  0.00     0.000 C 
BRANCH  11  12
ATOM     12  C   UNL     1      54.047  36.567 -19.236  1.00  0.00     0.006 C 
BRANCH  12  13
ATOM     13  C   UNL     1      55.559  36.317 -19.354  1.00  0.00     0.053 C 
BRANCH  13  14
ATOM     14  C   UNL     1      55.939  35.842 -20.724  1.00  0.00     0.041 C 
ATOM     15  O   UNL     1      56.105  34.613 -20.945  1.00  0.00    -0.550 OA
ATOM     16  O   UNL     1      56.101  36.755 -21.760  1.00  0.00    -0.550 OA
ENDBRANCH  13  14
ENDBRANCH  12  13
ENDBRANCH  11  12
ENDBRANCH  10  11
ENDBRANCH   9  10
ENDBRANCH   8   9
ENDBRANCH   7   8
ENDBRANCH   6   7
ENDBRANCH   5   6
ENDBRANCH   4   5
ENDBRANCH   3   4
ENDBRANCH   2   3
ENDBRANCH   1   2
BRANCH   1  17
ATOM     17  C   UNL     1      48.298  35.226 -16.523  1.00  0.00     0.000 C 
BRANCH  17  18
ATOM     18  C   UNL     1      47.304  36.163 -17.236  1.00  0.00     0.000 C 
BRANCH  18  19
ATOM     19  C   UNL     1      47.469  37.663 -16.922  1.00  0.00     0.000 C 
BRANCH  19  20
ATOM     20  C   UNL     1      47.124  38.070 -15.477  1.00  0.00     0.000 C 
BRANCH  20  21
ATOM     21  C   UNL     1      45.624  38.018 -15.124  1.00  0.00     0.000 C 
BRANCH  21  22
ATOM     22  C   UNL     1      45.343  37.860 -13.615  1.00  0.00    -0.000 C 
BRANCH  22  23
ATOM     23  C   UNL     1      44.013  37.145 -13.331  1.00  0.00    -0.000 C 
BRANCH  23  24
ATOM     24  C   UNL     1      44.204  36.014 -12.314  1.00  0.00    -0.000 C 
BRANCH  24  25
ATOM     25  C   UNL     1      43.322  36.231 -11.074  1.00  0.00    -0.000 C 
BRANCH  25  26
ATOM     26  C   UNL     1      44.105  36.069  -9.760  1.00  0.00    -0.000 C 
BRANCH  26  27
ATOM     27  C   UNL     1      45.629  36.081  -9.973  1.00  0.00    -0.000 C 
BRANCH  27  28
ATOM     28  C   UNL     1      46.342  34.937  -9.229  1.00  0.00    -0.000 C 
BRANCH  28  29
ATOM     29  C   UNL     1      45.465  33.703  -8.953  1.00  0.00    -0.003 C 
ATOM     30  C   UNL     1      45.792  33.022  -7.624  1.00  0.00     0.004 C 
ENDBRANCH  28  29
ENDBRANCH  27  28
ENDBRANCH  26  27
ENDBRANCH  25  26
ENDBRANCH  24  25
ENDBRANCH  23  24
ENDBRANCH  22  23
ENDBRANCH  21  22
ENDBRANCH  20  21
ENDBRANCH  19  20
ENDBRANCH  18  19
ENDBRANCH  17  18
ENDBRANCH   1  17
TORSDOF 26
ENDMDL
MODEL 6
REMARK VINA RESULT:    -3.927      4.610     10.465
REMARK INTER + INTRA:         -13.496
REMARK INTER:                 -10.350
REMARK INTRA:                  -3.146
REMARK UNBOUND:                -3.599
REMARK SMILES CCCCCCCCCCCCCCCCCCCCCCCCCCCC(=O)[O-]
REMARK SMILES IDX 15 1 16 2 17 3 18 4 19 5 20 6 21 7 22 8 23 9 24 10 25 11
REMARK SMILES IDX 26 12 27 13 28 14 29 15 30 16 14 17 13 18 12 19 11 20 10 21
REMARK SMILES IDX 9 22 8 23 7 24 6 25 5 26 4 27 3 28 2 29 1 30
REMARK H PARENT
REMARK Flexibility Score: inf
ROOT
ATOM      1  C   UNL     1      48.186  34.723 -13.708  1.00  0.00     0.000 C 
ENDROOT
BRANCH   1   2
ATOM      2  C   UNL     1      48.568  34.607 -15.194  1.00  0.00     0.000 C 
BRANCH   2   3
ATOM      3  C   UNL     1      47.521  35.255 -16.117  1.00  0.00     0.000 C 
BRANCH   3   4
ATOM      4  C   UNL     1      48.168  36.092 -17.229  1.00  0.00     0.000 C 
BRANCH   4   5
ATOM      5  C   UNL     1      48.723  37.413 -16.680  1.00  0.00     0.000 C 
BRANCH   5   6
ATOM      6  C   UNL     1      50.227  37.293 -16.389  1.00  0.00     0.000 C 
BRANCH   6   7
ATOM      7  C   UNL     1      50.668  38.121 -15.170  1.00  0.00     0.000 C 
BRANCH   7   8
ATOM      8  C   UNL     1      51.823  37.505 -14.360  1.00  0.00     0.000 C 
BRANCH   8   9
ATOM      9  C   UNL     1      52.985  36.987 -15.237  1.00  0.00     0.000 C 
BRANCH   9  10
ATOM     10  C   UNL     1      53.906  38.124 -15.704  1.00  0.00     0.000 C 
BRANCH  10  11
ATOM     11  C   UNL     1      54.784  37.727 -16.902  1.00  0.00     0.000 C 
BRANCH  11  12
ATOM     12  C   UNL     1      54.081  37.901 -18.268  1.00  0.00     0.006 C 
BRANCH  12  13
ATOM     13  C   UNL     1      54.102  36.627 -19.126  1.00  0.00     0.053 C 
BRANCH  13  14
ATOM     14  C   UNL     1      55.194  36.665 -20.152  1.00  0.00     0.041 C 
ATOM     15  O   UNL     1      55.578  35.602 -20.708  1.00  0.00    -0.550 OA
ATOM     16  O   UNL     1      55.783  37.875 -20.500  1.00  0.00    -0.550 OA
ENDBRANCH  13  14
ENDBRANCH  12  13
ENDBRANCH  11  12
ENDBRANCH  10  11
ENDBRANCH   9  10
ENDBRANCH   8   9
ENDBRANCH   7   8
ENDBRANCH   6   7
ENDBRANCH   5   6
ENDBRANCH   4   5
ENDBRANCH   3   4
ENDBRANCH   2   3
ENDBRANCH   1   2
BRANCH   1  17
ATOM     17  C   UNL     1      48.820  35.949 -13.018  1.00  0.00     0.000 C 
BRANCH  17  18
ATOM     18  C   UNL     1      47.941  36.583 -11.923  1.00  0.00     0.000 C 
BRANCH  18  19
ATOM     19  C   UNL     1      47.223  37.886 -12.324  1.00  0.00     0.000 C 
BRANCH  19  20
ATOM     20  C   UNL     1      46.793  37.967 -13.801  1.00  0.00     0.000 C 
BRANCH  20  21
ATOM     21  C   UNL     1      45.275  37.855 -14.046  1.00  0.00     0.000 C 
BRANCH  21  22
ATOM     22  C   UNL     1      44.597  36.712 -13.262  1.00  0.00    -0.000 C 
BRANCH  22  23
ATOM     23  C   UNL     1      43.363  37.181 -12.477  1.00  0.00    -0.000 C 
BRANCH  23  24
ATOM     24  C   UNL     1      42.980  36.162 -11.397  1.00  0.00    -0.000 C 
BRANCH  24  25
ATOM     25  C   UNL     1      42.555  36.867 -10.099  1.00  0.00    -0.000 C 
BRANCH  25  26
ATOM     26  C   UNL     1      43.683  36.908  -9.055  1.00  0.00    -0.000 C 
BRANCH  26  27
ATOM     27  C   UNL     1      44.889  36.039  -9.451  1.00  0.00    -0.000 C 
BRANCH  27  28
ATOM     28  C   UNL     1      45.455  35.232  -8.269  1.00  0.00    -0.000 C 
BRANCH  28  29
ATOM     29  C   UNL     1      44.516  34.142  -7.724  1.00  0.00    -0.003 C 
ATOM     30  C   UNL     1      45.115  32.738  -7.811  1.00  0.00     0.004 C 
ENDBRANCH  28  29
ENDBRANCH  27  28
ENDBRANCH  26  27
ENDBRANCH  25  26
ENDBRANCH  24  25
ENDBRANCH  23  24
ENDBRANCH  22  23
ENDBRANCH  21  22
ENDBRANCH  20  21
ENDBRANCH  19  20
ENDBRANCH  18  19
ENDBRANCH  17  18
ENDBRANCH   1  17
TORSDOF 26
ENDMDL
MODEL 7
REMARK VINA RESULT:    -3.855      2.837      8.912
REMARK INTER + INTRA:         -13.314
REMARK INTER:                  -9.720
REMARK INTRA:                  -3.594
REMARK UNBOUND:                -3.599
REMARK SMILES CCCCCCCCCCCCCCCCCCCCCCCCCCCC(=O)[O-]
REMARK SMILES IDX 15 1 16 2 17 3 18 4 19 5 20 6 21 7 22 8 23 9 24 10 25 11
REMARK SMILES IDX 26 12 27 13 28 14 29 15 30 16 14 17 13 18 12 19 11 20 10 21
REMARK SMILES IDX 9 22 8 23 7 24 6 25 5 26 4 27 3 28 2 29 1 30
REMARK H PARENT
REMARK Flexibility Score: inf
ROOT
ATOM      1  C   UNL     1      45.945  34.157 -13.183  1.00  0.00     0.000 C 
ENDROOT
BRANCH   1   2
ATOM      2  C   UNL     1      47.393  34.630 -13.402  1.00  0.00     0.000 C 
BRANCH   2   3
ATOM      3  C   UNL     1      47.879  34.373 -14.838  1.00  0.00     0.000 C 
BRANCH   3   4
ATOM      4  C   UNL     1      47.129  35.234 -15.865  1.00  0.00     0.000 C 
BRANCH   4   5
ATOM      5  C   UNL     1      47.003  36.686 -15.388  1.00  0.00     0.000 C 
BRANCH   5   6
ATOM      6  C   UNL     1      46.945  37.650 -16.583  1.00  0.00     0.000 C 
BRANCH   6   7
ATOM      7  C   UNL     1      47.945  37.286 -17.694  1.00  0.00     0.000 C 
BRANCH   7   8
ATOM      8  C   UNL     1      49.409  37.645 -17.381  1.00  0.00     0.000 C 
BRANCH   8   9
ATOM      9  C   UNL     1      50.289  36.420 -17.053  1.00  0.00     0.000 C 
BRANCH   9  10
ATOM     10  C   UNL     1      51.154  36.648 -15.804  1.00  0.00     0.000 C 
BRANCH  10  11
ATOM     11  C   UNL     1      50.812  37.958 -15.074  1.00  0.00     0.000 C 
BRANCH  11  12
ATOM     12  C   UNL     1      50.854  37.834 -13.533  1.00  0.00     0.006 C 
BRANCH  12  13
ATOM     13  C   UNL     1      49.487  37.499 -12.917  1.00  0.00     0.053 C 
BRANCH  13  14
ATOM     14  C   UNL     1      49.595  36.429 -11.872  1.00  0.00     0.041 C 
ATOM     15  O   UNL     1      50.520  35.576 -11.933  1.00  0.00    -0.550 OA
ATOM     16  O   UNL     1      48.681  36.379 -10.826  1.00  0.00    -0.550 OA
ENDBRANCH  13  14
ENDBRANCH  12  13
ENDBRANCH  11  12
ENDBRANCH  10  11
ENDBRANCH   9  10
ENDBRANCH   8   9
ENDBRANCH   7   8
ENDBRANCH   6   7
ENDBRANCH   5   6
ENDBRANCH   4   5
ENDBRANCH   3   4
ENDBRANCH   2   3
ENDBRANCH   1   2
BRANCH   1  17
ATOM     17  C   UNL     1      45.059  35.228 -12.510  1.00  0.00     0.000 C 
BRANCH  17  18
ATOM     18  C   UNL     1      45.713  36.619 -12.412  1.00  0.00     0.000 C 
BRANCH  18  19
ATOM     19  C   UNL     1      44.772  37.764 -11.990  1.00  0.00     0.000 C 
BRANCH  19  20
ATOM     20  C   UNL     1      43.451  37.848 -12.779  1.00  0.00     0.000 C 
BRANCH  20  21
ATOM     21  C   UNL     1      42.226  37.238 -12.070  1.00  0.00     0.000 C 
BRANCH  21  22
ATOM     22  C   UNL     1      41.668  38.109 -10.925  1.00  0.00    -0.000 C 
BRANCH  22  23
ATOM     23  C   UNL     1      41.622  37.366  -9.581  1.00  0.00    -0.000 C 
BRANCH  23  24
ATOM     24  C   UNL     1      42.971  37.455  -8.859  1.00  0.00    -0.000 C 
BRANCH  24  25
ATOM     25  C   UNL     1      43.598  36.063  -8.685  1.00  0.00    -0.000 C 
BRANCH  25  26
ATOM     26  C   UNL     1      45.126  36.121  -8.526  1.00  0.00    -0.000 C 
BRANCH  26  27
ATOM     27  C   UNL     1      45.839  34.951  -9.227  1.00  0.00    -0.000 C 
BRANCH  27  28
ATOM     28  C   UNL     1      46.352  33.889  -8.237  1.00  0.00    -0.000 C 
BRANCH  28  29
ATOM     29  C   UNL     1      45.387  32.714  -7.997  1.00  0.00    -0.003 C 
ATOM     30  C   UNL     1      44.345  33.008  -6.918  1.00  0.00     0.004 C 
ENDBRANCH  28  29
ENDBRANCH  27  28
ENDBRANCH  26  27
ENDBRANCH  25  26
ENDBRANCH  24  25
ENDBRANCH  23  24
ENDBRANCH  22  23
ENDBRANCH  21  22
ENDBRANCH  20  21
ENDBRANCH  19  20
ENDBRANCH  18  19
ENDBRANCH  17  18
ENDBRANCH   1  17
TORSDOF 26
ENDMDL
MODEL 8
REMARK VINA RESULT:    -3.854      2.407      4.615
REMARK INTER + INTRA:         -13.310
REMARK INTER:                 -10.651
REMARK INTRA:                  -2.659
REMARK UNBOUND:                -3.599
REMARK SMILES CCCCCCCCCCCCCCCCCCCCCCCCCCCC(=O)[O-]
REMARK SMILES IDX 15 1 16 2 17 3 18 4 19 5 20 6 21 7 22 8 23 9 24 10 25 11
REMARK SMILES IDX 26 12 27 13 28 14 29 15 30 16 14 17 13 18 12 19 11 20 10 21
REMARK SMILES IDX 9 22 8 23 7 24 6 25 5 26 4 27 3 28 2 29 1 30
REMARK H PARENT
REMARK Flexibility Score: inf
ROOT
ATOM      1  C   UNL     1      47.555  34.354 -13.465  1.00  0.00     0.000 C 
ENDROOT
BRANCH   1   2
ATOM      2  C   UNL     1      46.778  35.085 -12.356  1.00  0.00     0.000 C 
BRANCH   2   3
ATOM      3  C   UNL     1      45.404  35.582 -12.838  1.00  0.00     0.000 C 
BRANCH   3   4
ATOM      4  C   UNL     1      45.278  37.110 -12.753  1.00  0.00     0.000 C 
BRANCH   4   5
ATOM      5  C   UNL     1      43.809  37.550 -12.773  1.00  0.00     0.000 C 
BRANCH   5   6
ATOM      6  C   UNL     1      42.918  36.507 -12.081  1.00  0.00     0.000 C 
BRANCH   6   7
ATOM      7  C   UNL     1      42.269  37.037 -10.790  1.00  0.00     0.000 C 
BRANCH   7   8
ATOM      8  C   UNL     1      43.159  37.988  -9.969  1.00  0.00     0.000 C 
BRANCH   8   9
ATOM      9  C   UNL     1      43.021  37.798  -8.442  1.00  0.00     0.000 C 
BRANCH   9  10
ATOM     10  C   UNL     1      44.268  37.145  -7.827  1.00  0.00     0.000 C 
BRANCH  10  11
ATOM     11  C   UNL     1      45.319  36.757  -8.881  1.00  0.00     0.000 C 
BRANCH  11  12
ATOM     12  C   UNL     1      45.249  35.271  -9.304  1.00  0.00     0.006 C 
BRANCH  12  13
ATOM     13  C   UNL     1      44.153  34.484  -8.568  1.00  0.00     0.053 C 
BRANCH  13  14
ATOM     14  C   UNL     1      44.732  33.494  -7.603  1.00  0.00     0.041 C 
ATOM     15  O   UNL     1      45.814  32.907  -7.872  1.00  0.00    -0.550 OA
ATOM     16  O   UNL     1      44.083  33.225  -6.404  1.00  0.00    -0.550 OA
ENDBRANCH  13  14
ENDBRANCH  12  13
ENDBRANCH  11  12
ENDBRANCH  10  11
ENDBRANCH   9  10
ENDBRANCH   8   9
ENDBRANCH   7   8
ENDBRANCH   6   7
ENDBRANCH   5   6
ENDBRANCH   4   5
ENDBRANCH   3   4
ENDBRANCH   2   3
ENDBRANCH   1   2
BRANCH   1  17
ATOM     17  C   UNL     1      48.671  35.220 -14.088  1.00  0.00     0.000 C 
BRANCH  17  18
ATOM     18  C   UNL     1      48.939  36.539 -13.339  1.00  0.00     0.000 C 
BRANCH  18  19
ATOM     19  C   UNL     1      50.413  36.807 -12.980  1.00  0.00     0.000 C 
BRANCH  19  20
ATOM     20  C   UNL     1      51.029  38.057 -13.637  1.00  0.00     0.000 C 
BRANCH  20  21
ATOM     21  C   UNL     1      52.569  38.125 -13.599  1.00  0.00     0.000 C 
BRANCH  21  22
ATOM     22  C   UNL     1      53.259  37.263 -14.677  1.00  0.00    -0.000 C 
BRANCH  22  23
ATOM     23  C   UNL     1      53.836  38.103 -15.827  1.00  0.00    -0.000 C 
BRANCH  23  24
ATOM     24  C   UNL     1      53.114  37.798 -17.145  1.00  0.00    -0.000 C 
BRANCH  24  25
ATOM     25  C   UNL     1      52.386  36.446 -17.076  1.00  0.00    -0.000 C 
BRANCH  25  26
ATOM     26  C   UNL     1      50.872  36.603 -16.859  1.00  0.00    -0.000 C 
BRANCH  26  27
ATOM     27  C   UNL     1      50.070  35.401 -17.386  1.00  0.00    -0.000 C 
BRANCH  27  28
ATOM     28  C   UNL     1      48.611  35.397 -16.895  1.00  0.00    -0.000 C 
BRANCH  28  29
ATOM     29  C   UNL     1      47.707  36.454 -17.553  1.00  0.00    -0.003 C 
ATOM     30  C   UNL     1      46.669  37.034 -16.593  1.00  0.00     0.004 C 
ENDBRANCH  28  29
ENDBRANCH  27  28
ENDBRANCH  26  27
ENDBRANCH  25  26
ENDBRANCH  24  25
ENDBRANCH  23  24
ENDBRANCH  22  23
ENDBRANCH  21  22
ENDBRANCH  20  21
ENDBRANCH  19  20
ENDBRANCH  18  19
ENDBRANCH  17  18
ENDBRANCH   1  17
TORSDOF 26
ENDMDL
MODEL 9
REMARK VINA RESULT:    -3.670      2.034      3.316
REMARK INTER + INTRA:         -12.847
REMARK INTER:                 -10.408
REMARK INTRA:                  -2.438
REMARK UNBOUND:                -3.599
REMARK SMILES CCCCCCCCCCCCCCCCCCCCCCCCCCCC(=O)[O-]
REMARK SMILES IDX 15 1 16 2 17 3 18 4 19 5 20 6 21 7 22 8 23 9 24 10 25 11
REMARK SMILES IDX 26 12 27 13 28 14 29 15 30 16 14 17 13 18 12 19 11 20 10 21
REMARK SMILES IDX 9 22 8 23 7 24 6 25 5 26 4 27 3 28 2 29 1 30
REMARK H PARENT
REMARK Flexibility Score: inf
ROOT
ATOM      1  C   UNL     1      47.485  34.145 -13.477  1.00  0.00     0.000 C 
ENDROOT
BRANCH   1   2
ATOM      2  C   UNL     1      46.914  35.154 -12.466  1.00  0.00     0.000 C 
BRANCH   2   3
ATOM      3  C   UNL     1      47.464  36.574 -12.685  1.00  0.00     0.000 C 
BRANCH   3   4
ATOM      4  C   UNL     1      46.345  37.602 -12.904  1.00  0.00     0.000 C 
BRANCH   4   5
ATOM      5  C   UNL     1      45.097  36.946 -13.509  1.00  0.00     0.000 C 
BRANCH   5   6
ATOM      6  C   UNL     1      43.819  37.611 -12.975  1.00  0.00     0.000 C 
BRANCH   6   7
ATOM      7  C   UNL     1      43.019  36.697 -12.030  1.00  0.00     0.000 C 
BRANCH   7   8
ATOM      8  C   UNL     1      41.876  37.399 -11.276  1.00  0.00     0.000 C 
BRANCH   8   9
ATOM      9  C   UNL     1      42.159  37.596  -9.770  1.00  0.00     0.000 C 
BRANCH   9  10
ATOM     10  C   UNL     1      43.642  37.390  -9.431  1.00  0.00     0.000 C 
BRANCH  10  11
ATOM     11  C   UNL     1      43.899  37.288  -7.917  1.00  0.00     0.000 C 
BRANCH  11  12
ATOM     12  C   UNL     1      44.894  36.168  -7.535  1.00  0.00     0.006 C 
BRANCH  12  13
ATOM     13  C   UNL     1      44.389  34.762  -7.894  1.00  0.00     0.053 C 
BRANCH  13  14
ATOM     14  C   UNL     1      45.515  33.844  -8.263  1.00  0.00     0.041 C 
ATOM     15  O   UNL     1      45.846  32.905  -7.491  1.00  0.00    -0.550 OA
ATOM     16  O   UNL     1      46.195  34.019  -9.463  1.00  0.00    -0.550 OA
ENDBRANCH  13  14
ENDBRANCH  12  13
ENDBRANCH  11  12
ENDBRANCH  10  11
ENDBRANCH   9  10
ENDBRANCH   8   9
ENDBRANCH   7   8
ENDBRANCH   6   7
ENDBRANCH   5   6
ENDBRANCH   4   5
ENDBRANCH   3   4
ENDBRANCH   2   3
ENDBRANCH   1   2
BRANCH   1  17
ATOM     17  C   UNL     1      48.090  34.822 -14.726  1.00  0.00     0.000 C 
BRANCH  17  18
ATOM     18  C   UNL     1      47.227  34.690 -15.996  1.00  0.00     0.000 C 
BRANCH  18  19
ATOM     19  C   UNL     1      47.509  35.731 -17.097  1.00  0.00     0.000 C 
BRANCH  19  20
ATOM     20  C   UNL     1      47.592  37.190 -16.611  1.00  0.00     0.000 C 
BRANCH  20  21
ATOM     21  C   UNL     1      48.718  38.028 -17.248  1.00  0.00     0.000 C 
BRANCH  21  22
ATOM     22  C   UNL     1      49.992  38.125 -16.383  1.00  0.00    -0.000 C 
BRANCH  22  23
ATOM     23  C   UNL     1      50.121  36.964 -15.385  1.00  0.00    -0.000 C 
BRANCH  23  24
ATOM     24  C   UNL     1      50.934  37.385 -14.156  1.00  0.00    -0.000 C 
BRANCH  24  25
ATOM     25  C   UNL     1      52.218  38.120 -14.568  1.00  0.00    -0.000 C 
BRANCH  25  26
ATOM     26  C   UNL     1      53.229  37.195 -15.266  1.00  0.00    -0.000 C 
BRANCH  26  27
ATOM     27  C   UNL     1      53.823  37.821 -16.540  1.00  0.00    -0.000 C 
BRANCH  27  28
ATOM     28  C   UNL     1      53.538  36.987 -17.802  1.00  0.00    -0.000 C 
BRANCH  28  29
ATOM     29  C   UNL     1      54.206  37.511 -19.085  1.00  0.00    -0.003 C 
ATOM     30  C   UNL     1      55.377  36.643 -19.546  1.00  0.00     0.004 C 
ENDBRANCH  28  29
ENDBRANCH  27  28
ENDBRANCH  26  27
ENDBRANCH  25  26
ENDBRANCH  24  25
ENDBRANCH  23  24
ENDBRANCH  22  23
ENDBRANCH  21  22
ENDBRANCH  20  21
ENDBRANCH  19  20
ENDBRANCH  18  19
ENDBRANCH  17  18
ENDBRANCH   1  17
TORSDOF 26
ENDMDL
