MODEL 1
REMARK VINA RESULT:    -6.218      0.000      0.000
REMARK INTER + INTRA:          -6.400
REMARK INTER:                  -6.400
REMARK INTRA:                   0.000
REMARK UNBOUND:                 0.000
REMARK SMILES O=c1ccc2ccc(O)cc2o1
REMARK SMILES IDX 6 1 7 2 8 3 10 4 11 5 5 6 4 7 3 8 2 9 1 10 12 11 9 12
REMARK H PARENT 9 13
REMARK Flexibility Score: inf
ROOT
ATOM      1  C   UNL     1      72.847  43.324  -2.232  1.00  0.00     0.016 A 
ATOM      2  C   UNL     1      73.274  44.619  -1.922  1.00  0.00     0.047 A 
ATOM      3  C   UNL     1      74.118  45.316  -2.799  1.00  0.00     0.119 A 
ATOM      4  C   UNL     1      74.537  44.714  -3.992  1.00  0.00     0.094 A 
ATOM      5  C   UNL     1      74.115  43.418  -4.312  1.00  0.00     0.142 A 
ATOM      6  C   UNL     1      73.266  42.718  -3.426  1.00  0.00     0.018 A 
ATOM      7  C   UNL     1      72.861  41.426  -3.773  1.00  0.00     0.019 A 
ATOM      8  C   UNL     1      73.304  40.869  -4.972  1.00  0.00     0.094 A 
ATOM      9  C   UNL     1      74.146  41.621  -5.799  1.00  0.00     0.336 A 
ATOM     10  O   UNL     1      74.556  41.135  -6.885  1.00  0.00    -0.246 OA
ATOM     11  O   UNL     1      74.515  42.850  -5.446  1.00  0.00    -0.423 OA
ENDROOT
BRANCH   3  12
ATOM     12  O   UNL     1      74.546  46.606  -2.495  1.00  0.00    -0.508 OA
ATOM     13  H   UNL     1      74.105  47.153  -1.765  1.00  0.00     0.293 HD
ENDBRANCH   3  12
TORSDOF 1
ENDMDL
MODEL 2
REMARK VINA RESULT:    -6.213      1.495      2.258
REMARK INTER + INTRA:          -6.394
REMARK INTER:                  -6.394
REMARK INTRA:                   0.000
REMARK UNBOUND:                 0.000
REMARK SMILES O=c1ccc2ccc(O)cc2o1
REMARK SMILES IDX 6 1 7 2 8 3 10 4 11 5 5 6 4 7 3 8 2 9 1 10 12 11 9 12
REMARK H PARENT 9 13
REMARK Flexibility Score: inf
ROOT
ATOM      1  C   UNL     1      74.335  45.088  -3.497  1.00  0.00     0.016 A 
ATOM      2  C   UNL     1      73.801  45.412  -2.247  1.00  0.00     0.047 A 
ATOM      3  C   UNL     1      73.043  44.471  -1.534  1.00  0.00     0.119 A 
ATOM      4  C   UNL     1      72.819  43.199  -2.076  1.00  0.00     0.094 A 
ATOM      5  C   UNL     1      73.349  42.865  -3.328  1.00  0.00     0.142 A 
ATOM      6  C   UNL     1      74.111  43.815  -4.044  1.00  0.00     0.018 A 
ATOM      7  C   UNL     1      74.628  43.453  -5.291  1.00  0.00     0.019 A 
ATOM      8  C   UNL     1      74.378  42.175  -5.789  1.00  0.00     0.094 A 
ATOM      9  C   UNL     1      73.613  41.286  -5.025  1.00  0.00     0.336 A 
ATOM     10  O   UNL     1      73.377  40.129  -5.458  1.00  0.00    -0.246 OA
ATOM     11  O   UNL     1      73.134  41.657  -3.840  1.00  0.00    -0.423 OA
ENDROOT
BRANCH   3  12
ATOM     12  O   UNL     1      72.509  44.788  -0.287  1.00  0.00    -0.508 OA
ATOM     13  H   UNL     1      71.637  44.385   0.034  1.00  0.00     0.293 HD
ENDBRANCH   3  12
TORSDOF 1
ENDMDL
MODEL 3
REMARK VINA RESULT:    -6.070      1.700      4.759
REMARK INTER + INTRA:          -6.247
REMARK INTER:                  -6.247
REMARK INTRA:                   0.000
REMARK UNBOUND:                 0.000
REMARK SMILES O=c1ccc2ccc(O)cc2o1
REMARK SMILES IDX 6 1 7 2 8 3 10 4 11 5 5 6 4 7 3 8 2 9 1 10 12 11 9 12
REMARK H PARENT 9 13
REMARK Flexibility Score: inf
ROOT
ATOM      1  C   UNL     1      74.654  43.396  -5.187  1.00  0.00     0.016 A 
ATOM      2  C   UNL     1      74.408  42.109  -5.672  1.00  0.00     0.047 A 
ATOM      3  C   UNL     1      73.589  41.225  -4.954  1.00  0.00     0.119 A 
ATOM      4  C   UNL     1      73.014  41.633  -3.744  1.00  0.00     0.094 A 
ATOM      5  C   UNL     1      73.255  42.920  -3.249  1.00  0.00     0.142 A 
ATOM      6  C   UNL     1      74.080  43.808  -3.975  1.00  0.00     0.018 A 
ATOM      7  C   UNL     1      74.302  45.087  -3.456  1.00  0.00     0.019 A 
ATOM      8  C   UNL     1      73.708  45.447  -2.247  1.00  0.00     0.094 A 
ATOM      9  C   UNL     1      72.902  44.515  -1.582  1.00  0.00     0.336 A 
ATOM     10  O   UNL     1      72.358  44.821  -0.491  1.00  0.00    -0.246 OA
ATOM     11  O   UNL     1      72.707  43.304  -2.099  1.00  0.00    -0.423 OA
ENDROOT
BRANCH   3  12
ATOM     12  O   UNL     1      73.340  39.941  -5.433  1.00  0.00    -0.508 OA
ATOM     13  H   UNL     1      72.451  39.696  -5.853  1.00  0.00     0.293 HD
ENDBRANCH   3  12
TORSDOF 1
ENDMDL
MODEL 4
REMARK VINA RESULT:    -5.894      2.724      3.922
REMARK INTER + INTRA:          -6.066
REMARK INTER:                  -6.066
REMARK INTRA:                   0.000
REMARK UNBOUND:                 0.000
REMARK SMILES O=c1ccc2ccc(O)cc2o1
REMARK SMILES IDX 6 1 7 2 8 3 10 4 11 5 5 6 4 7 3 8 2 9 1 10 12 11 9 12
REMARK H PARENT 9 13
REMARK Flexibility Score: inf
ROOT
ATOM      1  C   UNL     1      71.372  40.264  -4.618  1.00  0.00     0.016 A 
ATOM      2  C   UNL     1      72.112  40.991  -3.680  1.00  0.00     0.047 A 
ATOM      3  C   UNL     1      73.428  41.384  -3.967  1.00  0.00     0.119 A 
ATOM      4  C   UNL     1      74.005  41.048  -5.198  1.00  0.00     0.094 A 
ATOM      5  C   UNL     1      73.272  40.320  -6.143  1.00  0.00     0.142 A 
ATOM      6  C   UNL     1      71.948  39.925  -5.851  1.00  0.00     0.018 A 
ATOM      7  C   UNL     1      71.241  39.200  -6.815  1.00  0.00     0.019 A 
ATOM      8  C   UNL     1      71.859  38.889  -8.026  1.00  0.00     0.094 A 
ATOM      9  C   UNL     1      73.175  39.312  -8.245  1.00  0.00     0.336 A 
ATOM     10  O   UNL     1      73.748  39.041  -9.331  1.00  0.00    -0.246 OA
ATOM     11  O   UNL     1      73.824  40.003  -7.311  1.00  0.00    -0.423 OA
ENDROOT
BRANCH   3  12
ATOM     12  O   UNL     1      74.170  42.108  -3.037  1.00  0.00    -0.508 OA
ATOM     13  H   UNL     1      74.146  43.121  -3.013  1.00  0.00     0.293 HD
ENDBRANCH   3  12
TORSDOF 1
ENDMDL
MODEL 5
REMARK VINA RESULT:    -5.836      2.342      5.579
REMARK INTER + INTRA:          -6.006
REMARK INTER:                  -6.006
REMARK INTRA:                   0.000
REMARK UNBOUND:                 0.000
REMARK SMILES O=c1ccc2ccc(O)cc2o1
REMARK SMILES IDX 6 1 7 2 8 3 10 4 11 5 5 6 4 7 3 8 2 9 1 10 12 11 9 12
REMARK H PARENT 9 13
REMARK Flexibility Score: inf
ROOT
ATOM      1  C   UNL     1      74.381  40.615  -7.400  1.00  0.00     0.016 A 
ATOM      2  C   UNL     1      73.618  39.565  -7.919  1.00  0.00     0.047 A 
ATOM      3  C   UNL     1      72.535  39.049  -7.192  1.00  0.00     0.119 A 
ATOM      4  C   UNL     1      72.215  39.587  -5.939  1.00  0.00     0.094 A 
ATOM      5  C   UNL     1      72.974  40.638  -5.411  1.00  0.00     0.142 A 
ATOM      6  C   UNL     1      74.064  41.155  -6.145  1.00  0.00     0.018 A 
ATOM      7  C   UNL     1      74.802  42.206  -5.592  1.00  0.00     0.019 A 
ATOM      8  C   UNL     1      74.445  42.707  -4.341  1.00  0.00     0.094 A 
ATOM      9  C   UNL     1      73.353  42.145  -3.670  1.00  0.00     0.336 A 
ATOM     10  O   UNL     1      73.016  42.584  -2.541  1.00  0.00    -0.246 OA
ATOM     11  O   UNL     1      72.667  41.146  -4.221  1.00  0.00    -0.423 OA
ENDROOT
BRANCH   3  12
ATOM     12  O   UNL     1      71.771  38.003  -7.704  1.00  0.00    -0.508 OA
ATOM     13  H   UNL     1      71.966  37.600  -8.613  1.00  0.00     0.293 HD
ENDBRANCH   3  12
TORSDOF 1
ENDMDL
MODEL 6
REMARK VINA RESULT:    -5.786      3.475      4.640
REMARK INTER + INTRA:          -5.955
REMARK INTER:                  -5.955
REMARK INTRA:                   0.000
REMARK UNBOUND:                 0.000
REMARK SMILES O=c1ccc2ccc(O)cc2o1
REMARK SMILES IDX 6 1 7 2 8 3 10 4 11 5 5 6 4 7 3 8 2 9 1 10 12 11 9 12
REMARK H PARENT 9 13
REMARK Flexibility Score: inf
ROOT
ATOM      1  C   UNL     1      73.975  41.479  -5.040  1.00  0.00     0.016 A 
ATOM      2  C   UNL     1      72.973  41.311  -4.080  1.00  0.00     0.047 A 
ATOM      3  C   UNL     1      71.890  40.455  -4.327  1.00  0.00     0.119 A 
ATOM      4  C   UNL     1      71.811  39.763  -5.542  1.00  0.00     0.094 A 
ATOM      5  C   UNL     1      72.809  39.924  -6.510  1.00  0.00     0.142 A 
ATOM      6  C   UNL     1      73.897  40.788  -6.258  1.00  0.00     0.018 A 
ATOM      7  C   UNL     1      74.879  40.928  -7.244  1.00  0.00     0.019 A 
ATOM      8  C   UNL     1      74.755  40.218  -8.438  1.00  0.00     0.094 A 
ATOM      9  C   UNL     1      73.648  39.381  -8.618  1.00  0.00     0.336 A 
ATOM     10  O   UNL     1      73.520  38.732  -9.688  1.00  0.00    -0.246 OA
ATOM     11  O   UNL     1      72.729  39.265  -7.663  1.00  0.00    -0.423 OA
ENDROOT
BRANCH   3  12
ATOM     12  O   UNL     1      70.890  40.284  -3.374  1.00  0.00    -0.508 OA
ATOM     13  H   UNL     1      71.085  39.872  -2.469  1.00  0.00     0.293 HD
ENDBRANCH   3  12
TORSDOF 1
ENDMDL
MODEL 7
REMARK VINA RESULT:    -5.722      0.766      4.225
REMARK INTER + INTRA:          -5.889
REMARK INTER:                  -5.889
REMARK INTRA:                   0.000
REMARK UNBOUND:                 0.000
REMARK SMILES O=c1ccc2ccc(O)cc2o1
REMARK SMILES IDX 6 1 7 2 8 3 10 4 11 5 5 6 4 7 3 8 2 9 1 10 12 11 9 12
REMARK H PARENT 9 13
REMARK Flexibility Score: inf
ROOT
ATOM      1  C   UNL     1      72.637  41.347  -3.744  1.00  0.00     0.016 A 
ATOM      2  C   UNL     1      73.106  40.684  -4.882  1.00  0.00     0.047 A 
ATOM      3  C   UNL     1      74.042  41.301  -5.726  1.00  0.00     0.119 A 
ATOM      4  C   UNL     1      74.511  42.587  -5.428  1.00  0.00     0.094 A 
ATOM      5  C   UNL     1      74.046  43.258  -4.291  1.00  0.00     0.142 A 
ATOM      6  C   UNL     1      73.104  42.635  -3.444  1.00  0.00     0.018 A 
ATOM      7  C   UNL     1      72.659  43.331  -2.315  1.00  0.00     0.019 A 
ATOM      8  C   UNL     1      73.155  44.609  -2.061  1.00  0.00     0.094 A 
ATOM      9  C   UNL     1      74.087  45.164  -2.945  1.00  0.00     0.336 A 
ATOM     10  O   UNL     1      74.545  46.316  -2.732  1.00  0.00    -0.246 OA
ATOM     11  O   UNL     1      74.494  44.480  -4.011  1.00  0.00    -0.423 OA
ENDROOT
BRANCH   3  12
ATOM     12  O   UNL     1      74.514  40.645  -6.861  1.00  0.00    -0.508 OA
ATOM     13  H   UNL     1      75.303  41.000  -7.388  1.00  0.00     0.293 HD
ENDBRANCH   3  12
TORSDOF 1
ENDMDL
MODEL 8
REMARK VINA RESULT:    -5.717      2.815      5.475
REMARK INTER + INTRA:          -5.884
REMARK INTER:                  -5.884
REMARK INTRA:                   0.000
REMARK UNBOUND:                 0.000
REMARK SMILES O=c1ccc2ccc(O)cc2o1
REMARK SMILES IDX 6 1 7 2 8 3 10 4 11 5 5 6 4 7 3 8 2 9 1 10 12 11 9 12
REMARK H PARENT 9 13
REMARK Flexibility Score: inf
ROOT
ATOM      1  C   UNL     1      72.072  39.026  -7.309  1.00  0.00     0.016 A 
ATOM      2  C   UNL     1      72.984  39.073  -8.367  1.00  0.00     0.047 A 
ATOM      3  C   UNL     1      74.112  39.904  -8.294  1.00  0.00     0.119 A 
ATOM      4  C   UNL     1      74.327  40.691  -7.155  1.00  0.00     0.094 A 
ATOM      5  C   UNL     1      73.419  40.650  -6.091  1.00  0.00     0.142 A 
ATOM      6  C   UNL     1      72.284  39.813  -6.167  1.00  0.00     0.018 A 
ATOM      7  C   UNL     1      71.396  39.793  -5.088  1.00  0.00     0.019 A 
ATOM      8  C   UNL     1      71.653  40.594  -3.976  1.00  0.00     0.094 A 
ATOM      9  C   UNL     1      72.797  41.400  -3.970  1.00  0.00     0.336 A 
ATOM     10  O   UNL     1      73.045  42.130  -2.976  1.00  0.00    -0.246 OA
ATOM     11  O   UNL     1      73.627  41.399  -5.011  1.00  0.00    -0.423 OA
ENDROOT
BRANCH   3  12
ATOM     12  O   UNL     1      75.024  39.956  -9.345  1.00  0.00    -0.508 OA
ATOM     13  H   UNL     1      75.992  39.684  -9.220  1.00  0.00     0.293 HD
ENDBRANCH   3  12
TORSDOF 1
ENDMDL
MODEL 9
REMARK VINA RESULT:    -4.876     10.336     12.713
REMARK INTER + INTRA:          -5.018
REMARK INTER:                  -5.018
REMARK INTRA:                   0.000
REMARK UNBOUND:                 0.000
REMARK SMILES O=c1ccc2ccc(O)cc2o1
REMARK SMILES IDX 6 1 7 2 8 3 10 4 11 5 5 6 4 7 3 8 2 9 1 10 12 11 9 12
REMARK H PARENT 9 13
REMARK Flexibility Score: inf
ROOT
ATOM      1  C   UNL     1      72.542  48.864   8.970  1.00  0.00     0.016 A 
ATOM      2  C   UNL     1      71.343  49.251   9.574  1.00  0.00     0.047 A 
ATOM      3  C   UNL     1      70.149  49.262   8.837  1.00  0.00     0.119 A 
ATOM      4  C   UNL     1      70.157  48.882   7.489  1.00  0.00     0.094 A 
ATOM      5  C   UNL     1      71.354  48.492   6.876  1.00  0.00     0.142 A 
ATOM      6  C   UNL     1      72.554  48.484   7.620  1.00  0.00     0.018 A 
ATOM      7  C   UNL     1      73.733  48.090   6.980  1.00  0.00     0.019 A 
ATOM      8  C   UNL     1      73.690  47.720   5.636  1.00  0.00     0.094 A 
ATOM      9  C   UNL     1      72.465  47.754   4.961  1.00  0.00     0.336 A 
ATOM     10  O   UNL     1      72.407  47.425   3.748  1.00  0.00    -0.246 OA
ATOM     11  O   UNL     1      71.357  48.132   5.595  1.00  0.00    -0.423 OA
ENDROOT
BRANCH   3  12
ATOM     12  O   UNL     1      68.951  49.646   9.434  1.00  0.00    -0.508 OA
ATOM     13  H   UNL     1      68.091  49.134   9.275  1.00  0.00     0.293 HD
ENDBRANCH   3  12
TORSDOF 1
ENDMDL
