MODEL 1
REMARK VINA RESULT:     1.640      0.000      0.000
REMARK INTER + INTRA:           7.586
REMARK INTER:                   2.216
REMARK INTRA:                   5.370
REMARK UNBOUND:                 5.370
REMARK SMILES CC[C@@H](CC[C@@H](C)[C@@H]1CC[C@H]2[C@@H]3CC(=O)C4=CC(=O)CC[C@@]4(C)[C@H]3CC[C@@]21C)C(C)C
REMARK SMILES IDX 4 1 3 2 2 3 1 4 29 5 30 6 31 7 5 8 6 9 7 10 8 11 9 12 27 13
REMARK SMILES IDX 10 14 11 15 26 16 28 17 12 18 25 19 24 20 13 21 22 22 14 23
REMARK SMILES IDX 16 24 21 25 23 26 15 27 17 28 20 29 18 30 19 31
REMARK H PARENT
REMARK Flexibility Score: inf
ROOT
ATOM      1  C   UNL     1     -10.120  30.633  26.559  1.00  0.00     0.004 C 
ENDROOT
BRANCH   1   2
ATOM      2  C   UNL     1      -9.973  31.956  27.373  1.00  0.00    -0.009 C 
BRANCH   2   3
ATOM      3  C   UNL     1      -9.394  33.079  26.469  1.00  0.00     0.000 C 
ATOM      4  C   UNL     1      -8.673  34.192  27.237  1.00  0.00     0.004 C 
ENDBRANCH   2   3
BRANCH   2   5
ATOM      5  C   UNL     1      -9.165  31.756  28.703  1.00  0.00    -0.014 C 
ATOM      6  C   UNL     1      -7.727  32.294  28.589  1.00  0.00     0.007 C 
ATOM      7  C   UNL     1      -9.101  30.276  29.125  1.00  0.00     0.007 C 
ENDBRANCH   2   5
ENDBRANCH   1   2
BRANCH   1   8
ATOM      8  C   UNL     1      -9.628  29.399  27.345  1.00  0.00     0.004 C 
BRANCH   8   9
ATOM      9  C   UNL     1      -9.056  28.284  26.423  1.00  0.00    -0.011 C 
ATOM     10  C   UNL     1     -10.125  27.875  25.379  1.00  0.00     0.008 C 
BRANCH   9  11
ATOM     11  C   UNL     1      -7.672  28.734  25.823  1.00  0.00    -0.002 C 
ATOM     12  C   UNL     1      -6.825  29.619  26.779  1.00  0.00     0.005 C 
ATOM     13  C   UNL     1      -7.665  29.520  24.473  1.00  0.00    -0.026 C 
ATOM     14  C   UNL     1      -6.684  31.003  26.120  1.00  0.00     0.005 C 
ATOM     15  C   UNL     1      -7.656  30.976  24.946  1.00  0.00    -0.001 C 
ATOM     16  C   UNL     1      -8.871  29.330  23.521  1.00  0.00     0.007 C 
ATOM     17  C   UNL     1      -6.349  29.126  23.717  1.00  0.00     0.012 C 
ATOM     18  C   UNL     1      -7.458  31.997  23.799  1.00  0.00     0.004 C 
ATOM     19  C   UNL     1      -8.789  30.298  22.321  1.00  0.00     0.005 C 
ATOM     20  C   UNL     1      -8.581  31.798  22.728  1.00  0.00     0.003 C 
ATOM     21  C   UNL     1      -7.549  33.428  24.367  1.00  0.00     0.085 C 
ATOM     22  C   UNL     1      -8.442  32.794  21.491  1.00  0.00    -0.000 C 
ATOM     23  C   UNL     1      -7.518  34.457  23.283  1.00  0.00     0.159 C 
ATOM     24  C   UNL     1      -7.652  34.059  21.867  1.00  0.00     0.005 C 
ATOM     25  C   UNL     1      -7.733  32.122  20.271  1.00  0.00     0.020 C 
ATOM     26  C   UNL     1      -9.865  33.238  21.070  1.00  0.00     0.017 C 
ATOM     27  O   UNL     1      -7.365  35.669  23.597  1.00  0.00    -0.295 OA
ATOM     28  C   UNL     1      -7.062  34.819  20.924  1.00  0.00     0.055 C 
ATOM     29  C   UNL     1      -7.525  33.071  19.081  1.00  0.00     0.081 C 
ATOM     30  C   UNL     1      -6.997  34.402  19.517  1.00  0.00     0.156 C 
ATOM     31  O   UNL     1      -6.499  35.182  18.662  1.00  0.00    -0.295 OA
ENDBRANCH   9  11
ENDBRANCH   8   9
ENDBRANCH   1   8
TORSDOF 6
ENDMDL
