MODEL 1
REMARK VINA RESULT:    -4.179      0.000      0.000
REMARK INTER + INTRA:          -5.880
REMARK INTER:                  -5.645
REMARK INTRA:                  -0.235
REMARK UNBOUND:                -0.235
REMARK SMILES CCCCCCCC(=O)[O-]
REMARK SMILES IDX 5 1 6 2 7 3 8 4 9 5 10 6 4 7 3 8 2 9 1 10
REMARK H PARENT
REMARK Flexibility Score: inf
ROOT
ATOM      1  C   UNL     1       4.115 -12.475 -22.731  1.00  0.00     0.000 C 
ENDROOT
BRANCH   1   2
ATOM      2  C   UNL     1       4.692 -13.261 -21.544  1.00  0.00     0.006 C 
BRANCH   2   3
ATOM      3  C   UNL     1       5.323 -14.594 -21.967  1.00  0.00     0.053 C 
BRANCH   3   4
ATOM      4  C   UNL     1       4.296 -15.681 -21.969  1.00  0.00     0.041 C 
ATOM      5  O   UNL     1       4.570 -16.810 -22.454  1.00  0.00    -0.550 OA
ATOM      6  O   UNL     1       3.020 -15.432 -21.479  1.00  0.00    -0.550 OA
ENDBRANCH   3   4
ENDBRANCH   2   3
ENDBRANCH   1   2
BRANCH   1   7
ATOM      7  C   UNL     1       4.917 -11.202 -23.045  1.00  0.00     0.000 C 
BRANCH   7   8
ATOM      8  C   UNL     1       6.135 -11.524 -23.923  1.00  0.00    -0.000 C 
BRANCH   8   9
ATOM      9  C   UNL     1       7.120 -10.349 -24.023  1.00  0.00    -0.003 C 
ATOM     10  C   UNL     1       6.817  -9.237 -23.019  1.00  0.00     0.004 C 
ENDBRANCH   8   9
ENDBRANCH   7   8
ENDBRANCH   1   7
TORSDOF 6
ENDMDL
MODEL 2
REMARK VINA RESULT:    -4.084      5.439      7.294
REMARK INTER + INTRA:          -5.751
REMARK INTER:                  -5.596
REMARK INTRA:                  -0.156
REMARK UNBOUND:                -0.235
REMARK SMILES CCCCCCCC(=O)[O-]
REMARK SMILES IDX 5 1 6 2 7 3 8 4 9 5 10 6 4 7 3 8 2 9 1 10
REMARK H PARENT
REMARK Flexibility Score: inf
ROOT
ATOM      1  C   UNL     1       5.621  -7.445 -22.242  1.00  0.00     0.000 C 
ENDROOT
BRANCH   1   2
ATOM      2  C   UNL     1       4.648  -7.049 -21.121  1.00  0.00     0.006 C 
BRANCH   2   3
ATOM      3  C   UNL     1       4.937  -5.654 -20.553  1.00  0.00     0.053 C 
BRANCH   3   4
ATOM      4  C   UNL     1       4.379  -5.526 -19.171  1.00  0.00     0.041 C 
ATOM      5  O   UNL     1       4.947  -4.786 -18.325  1.00  0.00    -0.550 OA
ATOM      6  O   UNL     1       3.261  -6.263 -18.802  1.00  0.00    -0.550 OA
ENDBRANCH   3   4
ENDBRANCH   2   3
ENDBRANCH   1   2
BRANCH   1   7
ATOM      7  C   UNL     1       5.887  -8.958 -22.288  1.00  0.00     0.000 C 
BRANCH   7   8
ATOM      8  C   UNL     1       7.039  -9.281 -23.252  1.00  0.00    -0.000 C 
BRANCH   8   9
ATOM      9  C   UNL     1       6.861 -10.637 -23.953  1.00  0.00    -0.003 C 
ATOM     10  C   UNL     1       5.576 -11.353 -23.538  1.00  0.00     0.004 C 
ENDBRANCH   8   9
ENDBRANCH   7   8
ENDBRANCH   1   7
TORSDOF 6
ENDMDL
MODEL 3
REMARK VINA RESULT:    -3.956      1.235      2.154
REMARK INTER + INTRA:          -5.580
REMARK INTER:                  -5.363
REMARK INTRA:                  -0.216
REMARK UNBOUND:                -0.235
REMARK SMILES CCCCCCCC(=O)[O-]
REMARK SMILES IDX 5 1 6 2 7 3 8 4 9 5 10 6 4 7 3 8 2 9 1 10
REMARK H PARENT
REMARK Flexibility Score: inf
ROOT
ATOM      1  C   UNL     1       4.810 -10.924 -22.575  1.00  0.00     0.000 C 
ENDROOT
BRANCH   1   2
ATOM      2  C   UNL     1       4.366 -12.371 -22.834  1.00  0.00     0.006 C 
BRANCH   2   3
ATOM      3  C   UNL     1       4.939 -13.358 -21.809  1.00  0.00     0.053 C 
BRANCH   3   4
ATOM      4  C   UNL     1       4.166 -14.639 -21.828  1.00  0.00     0.041 C 
ATOM      5  O   UNL     1       2.946 -14.646 -21.517  1.00  0.00    -0.550 OA
ATOM      6  O   UNL     1       4.805 -15.832 -22.141  1.00  0.00    -0.550 OA
ENDBRANCH   3   4
ENDBRANCH   2   3
ENDBRANCH   1   2
BRANCH   1   7
ATOM      7  C   UNL     1       6.092 -10.551 -23.337  1.00  0.00     0.000 C 
BRANCH   7   8
ATOM      8  C   UNL     1       6.624  -9.186 -22.878  1.00  0.00    -0.000 C 
BRANCH   8   9
ATOM      9  C   UNL     1       5.610  -8.414 -22.019  1.00  0.00    -0.003 C 
ATOM     10  C   UNL     1       5.607  -6.914 -22.312  1.00  0.00     0.004 C 
ENDBRANCH   8   9
ENDBRANCH   7   8
ENDBRANCH   1   7
TORSDOF 6
ENDMDL
MODEL 4
REMARK VINA RESULT:    -3.855      6.849      8.525
REMARK INTER + INTRA:          -5.442
REMARK INTER:                  -5.128
REMARK INTRA:                  -0.314
REMARK UNBOUND:                -0.235
REMARK SMILES CCCCCCCC(=O)[O-]
REMARK SMILES IDX 5 1 6 2 7 3 8 4 9 5 10 6 4 7 3 8 2 9 1 10
REMARK H PARENT
REMARK Flexibility Score: inf
ROOT
ATOM      1  C   UNL     1       4.779  -5.844 -20.870  1.00  0.00     0.000 C 
ENDROOT
BRANCH   1   2
ATOM      2  C   UNL     1       4.438  -6.448 -19.500  1.00  0.00     0.006 C 
BRANCH   2   3
ATOM      3  C   UNL     1       3.577  -5.514 -18.640  1.00  0.00     0.053 C 
BRANCH   3   4
ATOM      4  C   UNL     1       4.291  -4.222 -18.397  1.00  0.00     0.041 C 
ATOM      5  O   UNL     1       5.386  -4.211 -17.774  1.00  0.00    -0.550 OA
ATOM      6  O   UNL     1       3.723  -3.025 -18.814  1.00  0.00    -0.550 OA
ENDBRANCH   3   4
ENDBRANCH   2   3
ENDBRANCH   1   2
BRANCH   1   7
ATOM      7  C   UNL     1       5.000  -6.913 -21.952  1.00  0.00     0.000 C 
BRANCH   7   8
ATOM      8  C   UNL     1       4.860  -8.324 -21.363  1.00  0.00    -0.000 C 
BRANCH   8   9
ATOM      9  C   UNL     1       5.453  -9.408 -22.277  1.00  0.00    -0.003 C 
ATOM     10  C   UNL     1       6.785  -8.992 -22.901  1.00  0.00     0.004 C 
ENDBRANCH   8   9
ENDBRANCH   7   8
ENDBRANCH   1   7
TORSDOF 6
ENDMDL
MODEL 5
REMARK VINA RESULT:    -3.832      4.346      5.934
REMARK INTER + INTRA:          -5.411
REMARK INTER:                  -5.242
REMARK INTRA:                  -0.169
REMARK UNBOUND:                -0.235
REMARK SMILES CCCCCCCC(=O)[O-]
REMARK SMILES IDX 5 1 6 2 7 3 8 4 9 5 10 6 4 7 3 8 2 9 1 10
REMARK H PARENT
REMARK Flexibility Score: inf
ROOT
ATOM      1  C   UNL     1       5.479  -7.374 -22.365  1.00  0.00     0.000 C 
ENDROOT
BRANCH   1   2
ATOM      2  C   UNL     1       5.938  -8.825 -22.162  1.00  0.00     0.006 C 
BRANCH   2   3
ATOM      3  C   UNL     1       6.912  -9.295 -23.250  1.00  0.00     0.053 C 
BRANCH   3   4
ATOM      4  C   UNL     1       6.498 -10.633 -23.779  1.00  0.00     0.041 C 
ATOM      5  O   UNL     1       7.288 -11.301 -24.497  1.00  0.00    -0.550 OA
ATOM      6  O   UNL     1       5.224 -11.119 -23.519  1.00  0.00    -0.550 OA
ENDBRANCH   3   4
ENDBRANCH   2   3
ENDBRANCH   1   2
BRANCH   1   7
ATOM      7  C   UNL     1       4.764  -6.800 -21.131  1.00  0.00     0.000 C 
BRANCH   7   8
ATOM      8  C   UNL     1       5.149  -5.329 -20.911  1.00  0.00    -0.000 C 
BRANCH   8   9
ATOM      9  C   UNL     1       4.880  -4.856 -19.474  1.00  0.00    -0.003 C 
ATOM     10  C   UNL     1       3.812  -5.691 -18.767  1.00  0.00     0.004 C 
ENDBRANCH   8   9
ENDBRANCH   7   8
ENDBRANCH   1   7
TORSDOF 6
ENDMDL
MODEL 6
REMARK VINA RESULT:    -3.805      4.645      6.460
REMARK INTER + INTRA:          -5.374
REMARK INTER:                  -5.198
REMARK INTRA:                  -0.176
REMARK UNBOUND:                -0.235
REMARK SMILES CCCCCCCC(=O)[O-]
REMARK SMILES IDX 5 1 6 2 7 3 8 4 9 5 10 6 4 7 3 8 2 9 1 10
REMARK H PARENT
REMARK Flexibility Score: inf
ROOT
ATOM      1  C   UNL     1       5.881  -9.608 -22.563  1.00  0.00     0.000 C 
ENDROOT
BRANCH   1   2
ATOM      2  C   UNL     1       5.526  -8.194 -22.080  1.00  0.00     0.006 C 
BRANCH   2   3
ATOM      3  C   UNL     1       4.620  -8.202 -20.842  1.00  0.00     0.053 C 
BRANCH   3   4
ATOM      4  C   UNL     1       4.338  -6.803 -20.392  1.00  0.00     0.041 C 
ATOM      5  O   UNL     1       4.735  -5.825 -21.078  1.00  0.00    -0.550 OA
ATOM      6  O   UNL     1       3.679  -6.580 -19.189  1.00  0.00    -0.550 OA
ENDBRANCH   3   4
ENDBRANCH   2   3
ENDBRANCH   1   2
BRANCH   1   7
ATOM      7  C   UNL     1       4.668 -10.552 -22.577  1.00  0.00     0.000 C 
BRANCH   7   8
ATOM      8  C   UNL     1       5.098 -11.990 -22.900  1.00  0.00    -0.000 C 
BRANCH   8   9
ATOM      9  C   UNL     1       4.643 -12.997 -21.832  1.00  0.00    -0.003 C 
ATOM     10  C   UNL     1       5.599 -14.182 -21.690  1.00  0.00     0.004 C 
ENDBRANCH   8   9
ENDBRANCH   7   8
ENDBRANCH   1   7
TORSDOF 6
ENDMDL
MODEL 7
REMARK VINA RESULT:    -3.795      5.733      7.586
REMARK INTER + INTRA:          -5.361
REMARK INTER:                  -5.196
REMARK INTRA:                  -0.165
REMARK UNBOUND:                -0.235
REMARK SMILES CCCCCCCC(=O)[O-]
REMARK SMILES IDX 5 1 6 2 7 3 8 4 9 5 10 6 4 7 3 8 2 9 1 10
REMARK H PARENT
REMARK Flexibility Score: inf
ROOT
ATOM      1  C   UNL     1       5.142  -8.290 -22.001  1.00  0.00     0.000 C 
ENDROOT
BRANCH   1   2
ATOM      2  C   UNL     1       5.749  -6.913 -22.313  1.00  0.00     0.006 C 
BRANCH   2   3
ATOM      3  C   UNL     1       5.196  -5.805 -21.407  1.00  0.00     0.053 C 
BRANCH   3   4
ATOM      4  C   UNL     1       4.871  -4.587 -22.212  1.00  0.00     0.041 C 
ATOM      5  O   UNL     1       5.256  -4.496 -23.408  1.00  0.00    -0.550 OA
ATOM      6  O   UNL     1       4.184  -3.530 -21.628  1.00  0.00    -0.550 OA
ENDBRANCH   3   4
ENDBRANCH   2   3
ENDBRANCH   1   2
BRANCH   1   7
ATOM      7  C   UNL     1       5.961  -9.447 -22.596  1.00  0.00     0.000 C 
BRANCH   7   8
ATOM      8  C   UNL     1       5.094 -10.704 -22.756  1.00  0.00    -0.000 C 
BRANCH   8   9
ATOM      9  C   UNL     1       5.704 -11.724 -23.730  1.00  0.00    -0.003 C 
ATOM     10  C   UNL     1       7.007 -11.232 -24.361  1.00  0.00     0.004 C 
ENDBRANCH   8   9
ENDBRANCH   7   8
ENDBRANCH   1   7
TORSDOF 6
ENDMDL
MODEL 8
REMARK VINA RESULT:    -3.731     11.602     12.629
REMARK INTER + INTRA:          -5.274
REMARK INTER:                  -4.898
REMARK INTRA:                  -0.376
REMARK UNBOUND:                -0.235
REMARK SMILES CCCCCCCC(=O)[O-]
REMARK SMILES IDX 5 1 6 2 7 3 8 4 9 5 10 6 4 7 3 8 2 9 1 10
REMARK H PARENT
REMARK Flexibility Score: inf
ROOT
ATOM      1  C   UNL     1      -2.444 -11.554 -31.620  1.00  0.00     0.000 C 
ENDROOT
BRANCH   1   2
ATOM      2  C   UNL     1      -1.554 -10.762 -32.590  1.00  0.00     0.006 C 
BRANCH   2   3
ATOM      3  C   UNL     1      -0.303 -11.541 -33.015  1.00  0.00     0.053 C 
BRANCH   3   4
ATOM      4  C   UNL     1       0.858 -10.613 -33.187  1.00  0.00     0.041 C 
ATOM      5  O   UNL     1       1.267  -9.925 -32.215  1.00  0.00    -0.550 OA
ATOM      6  O   UNL     1       1.455 -10.471 -34.433  1.00  0.00    -0.550 OA
ENDBRANCH   3   4
ENDBRANCH   2   3
ENDBRANCH   1   2
BRANCH   1   7
ATOM      7  C   UNL     1      -2.988 -12.851 -32.239  1.00  0.00     0.000 C 
BRANCH   7   8
ATOM      8  C   UNL     1      -2.758 -14.044 -31.300  1.00  0.00    -0.000 C 
BRANCH   8   9
ATOM      9  C   UNL     1      -2.047 -15.216 -31.994  1.00  0.00    -0.003 C 
ATOM     10  C   UNL     1      -0.528 -15.046 -32.034  1.00  0.00     0.004 C 
ENDBRANCH   8   9
ENDBRANCH   7   8
ENDBRANCH   1   7
TORSDOF 6
ENDMDL
MODEL 9
REMARK VINA RESULT:    -3.675      7.053      8.576
REMARK INTER + INTRA:          -5.199
REMARK INTER:                  -5.009
REMARK INTRA:                  -0.190
REMARK UNBOUND:                -0.235
REMARK SMILES CCCCCCCC(=O)[O-]
REMARK SMILES IDX 5 1 6 2 7 3 8 4 9 5 10 6 4 7 3 8 2 9 1 10
REMARK H PARENT
REMARK Flexibility Score: inf
ROOT
ATOM      1  C   UNL     1       3.007  -7.126 -20.236  1.00  0.00     0.000 C 
ENDROOT
BRANCH   1   2
ATOM      2  C   UNL     1       2.925  -5.982 -19.213  1.00  0.00     0.006 C 
BRANCH   2   3
ATOM      3  C   UNL     1       4.303  -5.558 -18.689  1.00  0.00     0.053 C 
BRANCH   3   4
ATOM      4  C   UNL     1       4.362  -4.073 -18.517  1.00  0.00     0.041 C 
ATOM      5  O   UNL     1       5.475  -3.489 -18.432  1.00  0.00    -0.550 OA
ATOM      6  O   UNL     1       3.188  -3.340 -18.399  1.00  0.00    -0.550 OA
ENDBRANCH   3   4
ENDBRANCH   2   3
ENDBRANCH   1   2
BRANCH   1   7
ATOM      7  C   UNL     1       4.406  -7.757 -20.309  1.00  0.00     0.000 C 
BRANCH   7   8
ATOM      8  C   UNL     1       4.930  -7.762 -21.752  1.00  0.00    -0.000 C 
BRANCH   8   9
ATOM      9  C   UNL     1       5.490  -9.130 -22.173  1.00  0.00    -0.003 C 
ATOM     10  C   UNL     1       6.806  -9.018 -22.944  1.00  0.00     0.004 C 
ENDBRANCH   8   9
ENDBRANCH   7   8
ENDBRANCH   1   7
TORSDOF 6
ENDMDL
