MODEL 1
REMARK VINA RESULT:    -2.578      0.000      0.000
REMARK INTER + INTRA:          -2.578
REMARK INTER:                  -2.578
REMARK INTRA:                   0.000
REMARK UNBOUND:                 0.000
REMARK SMILES CC(=O)[O-]
REMARK SMILES IDX 1 1 2 2 3 3 4 4
REMARK H PARENT
REMARK Flexibility Score: inf
ROOT
ATOM      1  C   UNL     1     -12.660   2.618  -9.392  1.00  0.00     0.063 C 
ATOM      2  C   UNL     1     -12.195   3.850  -8.694  1.00  0.00     0.038 C 
ATOM      3  O   UNL     1     -12.953   4.853  -8.609  1.00  0.00    -0.550 OA
ATOM      4  O   UNL     1     -10.945   3.879  -8.088  1.00  0.00    -0.550 OA
ENDROOT
TORSDOF 0
ENDMDL
MODEL 2
REMARK VINA RESULT:    -2.562      0.136      1.626
REMARK INTER + INTRA:          -2.562
REMARK INTER:                  -2.562
REMARK INTRA:                   0.000
REMARK UNBOUND:                 0.000
REMARK SMILES CC(=O)[O-]
REMARK SMILES IDX 1 1 2 2 3 3 4 4
REMARK H PARENT
REMARK Flexibility Score: inf
ROOT
ATOM      1  C   UNL     1     -12.506   2.673  -9.405  1.00  0.00     0.063 C 
ATOM      2  C   UNL     1     -12.136   3.904  -8.650  1.00  0.00     0.038 C 
ATOM      3  O   UNL     1     -11.000   4.001  -8.115  1.00  0.00    -0.550 OA
ATOM      4  O   UNL     1     -13.024   4.971  -8.578  1.00  0.00    -0.550 OA
ENDROOT
TORSDOF 0
ENDMDL
MODEL 3
REMARK VINA RESULT:    -2.393      1.448      1.776
REMARK INTER + INTRA:          -2.393
REMARK INTER:                  -2.393
REMARK INTRA:                   0.000
REMARK UNBOUND:                 0.000
REMARK SMILES CC(=O)[O-]
REMARK SMILES IDX 1 1 2 2 3 3 4 4
REMARK H PARENT
REMARK Flexibility Score: inf
ROOT
ATOM      1  C   UNL     1     -11.008   3.934  -8.123  1.00  0.00     0.063 C 
ATOM      2  C   UNL     1     -12.386   3.883  -8.690  1.00  0.00     0.038 C 
ATOM      3  O   UNL     1     -13.195   4.822  -8.470  1.00  0.00    -0.550 OA
ATOM      4  O   UNL     1     -12.764   2.825  -9.508  1.00  0.00    -0.550 OA
ENDROOT
TORSDOF 0
ENDMDL
MODEL 4
REMARK VINA RESULT:    -2.354      2.194      2.690
REMARK INTER + INTRA:          -2.354
REMARK INTER:                  -2.354
REMARK INTRA:                   0.000
REMARK UNBOUND:                 0.000
REMARK SMILES CC(=O)[O-]
REMARK SMILES IDX 1 1 2 2 3 3 4 4
REMARK H PARENT
REMARK Flexibility Score: inf
ROOT
ATOM      1  C   UNL     1     -14.255   1.716  -9.589  1.00  0.00     0.063 C 
ATOM      2  C   UNL     1     -12.785   1.953  -9.520  1.00  0.00     0.038 C 
ATOM      3  O   UNL     1     -11.984   0.982  -9.565  1.00  0.00    -0.550 OA
ATOM      4  O   UNL     1     -12.291   3.250  -9.457  1.00  0.00    -0.550 OA
ENDROOT
TORSDOF 0
ENDMDL
MODEL 5
REMARK VINA RESULT:    -2.277      2.486      2.734
REMARK INTER + INTRA:          -2.277
REMARK INTER:                  -2.277
REMARK INTRA:                   0.000
REMARK UNBOUND:                 0.000
REMARK SMILES CC(=O)[O-]
REMARK SMILES IDX 1 1 2 2 3 3 4 4
REMARK H PARENT
REMARK Flexibility Score: inf
ROOT
ATOM      1  C   UNL     1     -14.168   1.110  -9.630  1.00  0.00     0.063 C 
ATOM      2  C   UNL     1     -12.744   1.547  -9.572  1.00  0.00     0.038 C 
ATOM      3  O   UNL     1     -12.461   2.767  -9.444  1.00  0.00    -0.550 OA
ATOM      4  O   UNL     1     -11.724   0.604  -9.606  1.00  0.00    -0.550 OA
ENDROOT
TORSDOF 0
ENDMDL
MODEL 6
REMARK VINA RESULT:    -2.246      3.589      4.279
REMARK INTER + INTRA:          -2.246
REMARK INTER:                  -2.246
REMARK INTRA:                   0.000
REMARK UNBOUND:                 0.000
REMARK SMILES CC(=O)[O-]
REMARK SMILES IDX 1 1 2 2 3 3 4 4
REMARK H PARENT
REMARK Flexibility Score: inf
ROOT
ATOM      1  C   UNL     1     -12.702  -0.753 -10.746  1.00  0.00     0.063 C 
ATOM      2  C   UNL     1     -11.733   0.075  -9.973  1.00  0.00     0.038 C 
ATOM      3  O   UNL     1     -10.577  -0.363  -9.735  1.00  0.00    -0.550 OA
ATOM      4  O   UNL     1     -12.084   1.354  -9.558  1.00  0.00    -0.550 OA
ENDROOT
TORSDOF 0
ENDMDL
MODEL 7
REMARK VINA RESULT:    -2.235      2.537      3.174
REMARK INTER + INTRA:          -2.235
REMARK INTER:                  -2.235
REMARK INTRA:                   0.000
REMARK UNBOUND:                 0.000
REMARK SMILES CC(=O)[O-]
REMARK SMILES IDX 1 1 2 2 3 3 4 4
REMARK H PARENT
REMARK Flexibility Score: inf
ROOT
ATOM      1  C   UNL     1     -12.353   3.293  -9.209  1.00  0.00     0.063 C 
ATOM      2  C   UNL     1     -13.007   1.992  -9.529  1.00  0.00     0.038 C 
ATOM      3  O   UNL     1     -12.317   0.943  -9.618  1.00  0.00    -0.550 OA
ATOM      4  O   UNL     1     -14.387   1.924  -9.677  1.00  0.00    -0.550 OA
ENDROOT
TORSDOF 0
ENDMDL
MODEL 8
REMARK VINA RESULT:    -2.214      2.807      3.129
REMARK INTER + INTRA:          -2.214
REMARK INTER:                  -2.214
REMARK INTRA:                   0.000
REMARK UNBOUND:                 0.000
REMARK SMILES CC(=O)[O-]
REMARK SMILES IDX 1 1 2 2 3 3 4 4
REMARK H PARENT
REMARK Flexibility Score: inf
ROOT
ATOM      1  C   UNL     1     -13.850   0.188 -10.185  1.00  0.00     0.063 C 
ATOM      2  C   UNL     1     -13.994   1.519  -9.529  1.00  0.00     0.038 C 
ATOM      3  O   UNL     1     -15.074   1.829  -8.959  1.00  0.00    -0.550 OA
ATOM      4  O   UNL     1     -12.921   2.401  -9.499  1.00  0.00    -0.550 OA
ENDROOT
TORSDOF 0
ENDMDL
MODEL 9
REMARK VINA RESULT:    -2.132      7.660      8.221
REMARK INTER + INTRA:          -2.132
REMARK INTER:                  -2.132
REMARK INTRA:                   0.000
REMARK UNBOUND:                 0.000
REMARK SMILES CC(=O)[O-]
REMARK SMILES IDX 1 1 2 2 3 3 4 4
REMARK H PARENT
REMARK Flexibility Score: inf
ROOT
ATOM      1  C   UNL     1     -10.220  -4.539  -6.668  1.00  0.00     0.063 C 
ATOM      2  C   UNL     1      -9.450  -3.740  -7.664  1.00  0.00     0.038 C 
ATOM      3  O   UNL     1      -9.664  -2.505  -7.785  1.00  0.00    -0.550 OA
ATOM      4  O   UNL     1      -8.458  -4.345  -8.425  1.00  0.00    -0.550 OA
ENDROOT
TORSDOF 0
ENDMDL
