MODEL 1
REMARK VINA RESULT:    -4.862      0.000      0.000
REMARK INTER + INTRA:          -5.628
REMARK INTER:                  -5.431
REMARK INTRA:                  -0.198
REMARK UNBOUND:                -0.198
REMARK SMILES O=C([O-])c1ccccc1C(=O)[O-]
REMARK SMILES IDX 4 1 9 2 5 3 8 4 6 5 7 6 2 7 1 8 3 9 10 10 11 11 12 12
REMARK H PARENT
REMARK Flexibility Score: inf
ROOT
ATOM      1  C   UNL     1      36.037  18.689  10.488  1.00  0.00     0.006 A 
ATOM      2  C   UNL     1      35.458  18.981  11.755  1.00  0.00     0.006 A 
ATOM      3  C   UNL     1      35.463  19.244   9.330  1.00  0.00     0.010 A 
ATOM      4  C   UNL     1      34.367  19.868  11.820  1.00  0.00     0.010 A 
ATOM      5  C   UNL     1      34.368  20.103   9.417  1.00  0.00     0.001 A 
ATOM      6  C   UNL     1      33.828  20.424  10.660  1.00  0.00     0.001 A 
ENDROOT
BRANCH   1   7
ATOM      7  C   UNL     1      37.267  17.879  10.333  1.00  0.00     0.072 C 
ATOM      8  O   UNL     1      37.212  16.621  10.306  1.00  0.00    -0.545 OA
ATOM      9  O   UNL     1      38.510  18.502  10.283  1.00  0.00    -0.545 OA
ENDBRANCH   1   7
BRANCH   2  10
ATOM     10  C   UNL     1      35.909  18.333  13.009  1.00  0.00     0.072 C 
ATOM     11  O   UNL     1      35.313  17.313  13.445  1.00  0.00    -0.545 OA
ATOM     12  O   UNL     1      37.030  18.799  13.684  1.00  0.00    -0.545 OA
ENDBRANCH   2  10
TORSDOF 2
ENDMDL
MODEL 2
REMARK VINA RESULT:    -4.849      0.244      3.007
REMARK INTER + INTRA:          -5.613
REMARK INTER:                  -5.435
REMARK INTRA:                  -0.178
REMARK UNBOUND:                -0.198
REMARK SMILES O=C([O-])c1ccccc1C(=O)[O-]
REMARK SMILES IDX 4 1 9 2 5 3 8 4 6 5 7 6 2 7 1 8 3 9 10 10 11 11 12 12
REMARK H PARENT
REMARK Flexibility Score: inf
ROOT
ATOM      1  C   UNL     1      35.396  19.095  11.773  1.00  0.00     0.006 A 
ATOM      2  C   UNL     1      35.926  18.881  10.470  1.00  0.00     0.006 A 
ATOM      3  C   UNL     1      34.345  20.015  11.941  1.00  0.00     0.010 A 
ATOM      4  C   UNL     1      35.341  19.545   9.376  1.00  0.00     0.010 A 
ATOM      5  C   UNL     1      33.796  20.679  10.844  1.00  0.00     0.001 A 
ATOM      6  C   UNL     1      34.285  20.436   9.563  1.00  0.00     0.001 A 
ENDROOT
BRANCH   1   7
ATOM      7  C   UNL     1      35.854  18.341  12.962  1.00  0.00     0.072 C 
ATOM      8  O   UNL     1      35.193  17.361  13.398  1.00  0.00    -0.545 OA
ATOM      9  O   UNL     1      36.987  18.752  13.655  1.00  0.00    -0.545 OA
ENDBRANCH   1   7
BRANCH   2  10
ATOM     10  C   UNL     1      37.119  18.039  10.220  1.00  0.00     0.072 C 
ATOM     11  O   UNL     1      38.243  18.574  10.027  1.00  0.00    -0.545 OA
ATOM     12  O   UNL     1      37.030  16.653  10.260  1.00  0.00    -0.545 OA
ENDBRANCH   2  10
TORSDOF 2
ENDMDL
MODEL 3
REMARK VINA RESULT:    -4.761      1.375      1.823
REMARK INTER + INTRA:          -5.516
REMARK INTER:                  -5.300
REMARK INTRA:                  -0.216
REMARK UNBOUND:                -0.198
REMARK SMILES O=C([O-])c1ccccc1C(=O)[O-]
REMARK SMILES IDX 4 1 9 2 5 3 8 4 6 5 7 6 2 7 1 8 3 9 10 10 11 11 12 12
REMARK H PARENT
REMARK Flexibility Score: inf
ROOT
ATOM      1  C   UNL     1      36.820  18.772   9.794  1.00  0.00     0.006 A 
ATOM      2  C   UNL     1      36.508  18.419  11.137  1.00  0.00     0.006 A 
ATOM      3  C   UNL     1      35.860  19.455   9.026  1.00  0.00     0.010 A 
ATOM      4  C   UNL     1      35.274  18.821  11.681  1.00  0.00     0.010 A 
ATOM      5  C   UNL     1      34.634  19.824   9.580  1.00  0.00     0.001 A 
ATOM      6  C   UNL     1      34.346  19.519  10.908  1.00  0.00     0.001 A 
ENDROOT
BRANCH   1   7
ATOM      7  C   UNL     1      38.143  18.513   9.180  1.00  0.00     0.072 C 
ATOM      8  O   UNL     1      39.016  19.419   9.125  1.00  0.00    -0.545 OA
ATOM      9  O   UNL     1      38.410  17.281   8.595  1.00  0.00    -0.545 OA
ENDBRANCH   1   7
BRANCH   2  10
ATOM     10  C   UNL     1      37.400  17.581  11.972  1.00  0.00     0.072 C 
ATOM     11  O   UNL     1      37.246  16.331  12.006  1.00  0.00    -0.545 OA
ATOM     12  O   UNL     1      38.455  18.149  12.674  1.00  0.00    -0.545 OA
ENDBRANCH   2  10
TORSDOF 2
ENDMDL
MODEL 4
REMARK VINA RESULT:    -4.758      1.355      3.225
REMARK INTER + INTRA:          -5.512
REMARK INTER:                  -5.296
REMARK INTRA:                  -0.215
REMARK UNBOUND:                -0.198
REMARK SMILES O=C([O-])c1ccccc1C(=O)[O-]
REMARK SMILES IDX 4 1 9 2 5 3 8 4 6 5 7 6 2 7 1 8 3 9 10 10 11 11 12 12
REMARK H PARENT
REMARK Flexibility Score: inf
ROOT
ATOM      1  C   UNL     1      36.479  18.415  11.074  1.00  0.00     0.006 A 
ATOM      2  C   UNL     1      36.835  18.802   9.752  1.00  0.00     0.006 A 
ATOM      3  C   UNL     1      35.250  18.846  11.606  1.00  0.00     0.010 A 
ATOM      4  C   UNL     1      35.920  19.551   8.989  1.00  0.00     0.010 A 
ATOM      5  C   UNL     1      34.368  19.607  10.838  1.00  0.00     0.001 A 
ATOM      6  C   UNL     1      34.697  19.949   9.529  1.00  0.00     0.001 A 
ENDROOT
BRANCH   1   7
ATOM      7  C   UNL     1      37.315  17.514  11.902  1.00  0.00     0.072 C 
ATOM      8  O   UNL     1      37.076  16.279  11.952  1.00  0.00    -0.545 OA
ATOM      9  O   UNL     1      38.334  18.038  12.688  1.00  0.00    -0.545 OA
ENDBRANCH   1   7
BRANCH   2  10
ATOM     10  C   UNL     1      38.163  18.512   9.163  1.00  0.00     0.072 C 
ATOM     11  O   UNL     1      39.089  19.363   9.236  1.00  0.00    -0.545 OA
ATOM     12  O   UNL     1      38.426  17.277   8.583  1.00  0.00    -0.545 OA
ENDBRANCH   2  10
TORSDOF 2
ENDMDL
MODEL 5
REMARK VINA RESULT:    -4.668      1.995      4.063
REMARK INTER + INTRA:          -5.412
REMARK INTER:                  -5.276
REMARK INTRA:                  -0.136
REMARK UNBOUND:                -0.198
REMARK SMILES O=C([O-])c1ccccc1C(=O)[O-]
REMARK SMILES IDX 4 1 9 2 5 3 8 4 6 5 7 6 2 7 1 8 3 9 10 10 11 11 12 12
REMARK H PARENT
REMARK Flexibility Score: inf
ROOT
ATOM      1  C   UNL     1      37.505  18.443  10.270  1.00  0.00     0.006 A 
ATOM      2  C   UNL     1      38.395  18.531   9.163  1.00  0.00     0.006 A 
ATOM      3  C   UNL     1      36.164  18.833  10.102  1.00  0.00     0.010 A 
ATOM      4  C   UNL     1      37.894  18.943   7.914  1.00  0.00     0.010 A 
ATOM      5  C   UNL     1      35.695  19.260   8.859  1.00  0.00     0.001 A 
ATOM      6  C   UNL     1      36.555  19.303   7.765  1.00  0.00     0.001 A 
ENDROOT
BRANCH   1   7
ATOM      7  C   UNL     1      37.907  17.892  11.584  1.00  0.00     0.072 C 
ATOM      8  O   UNL     1      38.612  18.568  12.379  1.00  0.00    -0.545 OA
ATOM      9  O   UNL     1      37.566  16.588  11.927  1.00  0.00    -0.545 OA
ENDBRANCH   1   7
BRANCH   2  10
ATOM     10  C   UNL     1      39.849  18.274   9.282  1.00  0.00     0.072 C 
ATOM     11  O   UNL     1      40.608  19.150   9.776  1.00  0.00    -0.545 OA
ATOM     12  O   UNL     1      40.385  17.045   8.917  1.00  0.00    -0.545 OA
ENDBRANCH   2  10
TORSDOF 2
ENDMDL
MODEL 6
REMARK VINA RESULT:    -4.658      1.528      3.247
REMARK INTER + INTRA:          -5.400
REMARK INTER:                  -5.217
REMARK INTRA:                  -0.183
REMARK UNBOUND:                -0.198
REMARK SMILES O=C([O-])c1ccccc1C(=O)[O-]
REMARK SMILES IDX 4 1 9 2 5 3 8 4 6 5 7 6 2 7 1 8 3 9 10 10 11 11 12 12
REMARK H PARENT
REMARK Flexibility Score: inf
ROOT
ATOM      1  C   UNL     1      35.715  18.940  10.588  1.00  0.00     0.006 A 
ATOM      2  C   UNL     1      37.004  18.339  10.521  1.00  0.00     0.006 A 
ATOM      3  C   UNL     1      35.188  19.558   9.440  1.00  0.00     0.010 A 
ATOM      4  C   UNL     1      37.687  18.322   9.290  1.00  0.00     0.010 A 
ATOM      5  C   UNL     1      35.894  19.548   8.236  1.00  0.00     0.001 A 
ATOM      6  C   UNL     1      37.135  18.921   8.158  1.00  0.00     0.001 A 
ENDROOT
BRANCH   1   7
ATOM      7  C   UNL     1      34.865  18.887  11.799  1.00  0.00     0.072 C 
ATOM      8  O   UNL     1      34.655  19.922  12.486  1.00  0.00    -0.545 OA
ATOM      9  O   UNL     1      34.342  17.673  12.231  1.00  0.00    -0.545 OA
ENDBRANCH   1   7
BRANCH   2  10
ATOM     10  C   UNL     1      37.694  17.790  11.711  1.00  0.00     0.072 C 
ATOM     11  O   UNL     1      38.429  18.532  12.416  1.00  0.00    -0.545 OA
ATOM     12  O   UNL     1      37.489  16.474  12.105  1.00  0.00    -0.545 OA
ENDBRANCH   2  10
TORSDOF 2
ENDMDL
MODEL 7
REMARK VINA RESULT:    -4.647      1.559      2.594
REMARK INTER + INTRA:          -5.388
REMARK INTER:                  -5.198
REMARK INTRA:                  -0.190
REMARK UNBOUND:                -0.198
REMARK SMILES O=C([O-])c1ccccc1C(=O)[O-]
REMARK SMILES IDX 4 1 9 2 5 3 8 4 6 5 7 6 2 7 1 8 3 9 10 10 11 11 12 12
REMARK H PARENT
REMARK Flexibility Score: inf
ROOT
ATOM      1  C   UNL     1      37.036  18.292  10.575  1.00  0.00     0.006 A 
ATOM      2  C   UNL     1      35.759  18.921  10.610  1.00  0.00     0.006 A 
ATOM      3  C   UNL     1      37.750  18.264   9.363  1.00  0.00     0.010 A 
ATOM      4  C   UNL     1      35.275  19.553   9.450  1.00  0.00     0.010 A 
ATOM      5  C   UNL     1      37.240  18.879   8.219  1.00  0.00     0.001 A 
ATOM      6  C   UNL     1      36.012  19.532   8.266  1.00  0.00     0.001 A 
ENDROOT
BRANCH   1   7
ATOM      7  C   UNL     1      37.686  17.722  11.777  1.00  0.00     0.072 C 
ATOM      8  O   UNL     1      38.521  18.394  12.439  1.00  0.00    -0.545 OA
ATOM      9  O   UNL     1      37.431  16.407  12.149  1.00  0.00    -0.545 OA
ENDBRANCH   1   7
BRANCH   2  10
ATOM     10  C   UNL     1      34.879  18.878  11.801  1.00  0.00     0.072 C 
ATOM     11  O   UNL     1      34.624  19.934  12.440  1.00  0.00    -0.545 OA
ATOM     12  O   UNL     1      34.271  17.691  12.191  1.00  0.00    -0.545 OA
ENDBRANCH   2  10
TORSDOF 2
ENDMDL
MODEL 8
REMARK VINA RESULT:    -4.596      1.574      3.123
REMARK INTER + INTRA:          -5.331
REMARK INTER:                  -5.165
REMARK INTRA:                  -0.166
REMARK UNBOUND:                -0.198
REMARK SMILES O=C([O-])c1ccccc1C(=O)[O-]
REMARK SMILES IDX 4 1 9 2 5 3 8 4 6 5 7 6 2 7 1 8 3 9 10 10 11 11 12 12
REMARK H PARENT
REMARK Flexibility Score: inf
ROOT
ATOM      1  C   UNL     1      35.712  18.853  11.007  1.00  0.00     0.006 A 
ATOM      2  C   UNL     1      35.285  19.543   9.837  1.00  0.00     0.006 A 
ATOM      3  C   UNL     1      35.119  19.172  12.242  1.00  0.00     0.010 A 
ATOM      4  C   UNL     1      34.238  20.477   9.937  1.00  0.00     0.010 A 
ATOM      5  C   UNL     1      34.097  20.118  12.321  1.00  0.00     0.001 A 
ATOM      6  C   UNL     1      33.649  20.760  11.169  1.00  0.00     0.001 A 
ENDROOT
BRANCH   1   7
ATOM      7  C   UNL     1      36.709  17.758  10.977  1.00  0.00     0.072 C 
ATOM      8  O   UNL     1      36.343  16.555  10.911  1.00  0.00    -0.545 OA
ATOM      9  O   UNL     1      38.064  18.047  11.093  1.00  0.00    -0.545 OA
ENDBRANCH   1   7
BRANCH   2  10
ATOM     10  C   UNL     1      35.947  19.373   8.522  1.00  0.00     0.072 C 
ATOM     11  O   UNL     1      35.303  18.907   7.544  1.00  0.00    -0.545 OA
ATOM     12  O   UNL     1      37.260  19.784   8.330  1.00  0.00    -0.545 OA
ENDBRANCH   2  10
TORSDOF 2
ENDMDL
MODEL 9
REMARK VINA RESULT:    -4.560      1.571      2.525
REMARK INTER + INTRA:          -5.291
REMARK INTER:                  -5.133
REMARK INTRA:                  -0.158
REMARK UNBOUND:                -0.198
REMARK SMILES O=C([O-])c1ccccc1C(=O)[O-]
REMARK SMILES IDX 4 1 9 2 5 3 8 4 6 5 7 6 2 7 1 8 3 9 10 10 11 11 12 12
REMARK H PARENT
REMARK Flexibility Score: inf
ROOT
ATOM      1  C   UNL     1      35.335  19.563   9.818  1.00  0.00     0.006 A 
ATOM      2  C   UNL     1      35.736  18.840  10.976  1.00  0.00     0.006 A 
ATOM      3  C   UNL     1      34.241  20.443   9.906  1.00  0.00     0.010 A 
ATOM      4  C   UNL     1      35.071  19.075  12.194  1.00  0.00     0.010 A 
ATOM      5  C   UNL     1      33.582  20.643  11.119  1.00  0.00     0.001 A 
ATOM      6  C   UNL     1      34.003  19.970  12.263  1.00  0.00     0.001 A 
ENDROOT
BRANCH   1   7
ATOM      7  C   UNL     1      36.060  19.485   8.529  1.00  0.00     0.072 C 
ATOM      8  O   UNL     1      37.218  19.967   8.410  1.00  0.00    -0.545 OA
ATOM      9  O   UNL     1      35.439  18.938   7.412  1.00  0.00    -0.545 OA
ENDBRANCH   1   7
BRANCH   2  10
ATOM     10  C   UNL     1      36.784  17.793  10.943  1.00  0.00     0.072 C 
ATOM     11  O   UNL     1      36.473  16.593  10.717  1.00  0.00    -0.545 OA
ATOM     12  O   UNL     1      38.124  18.126  11.092  1.00  0.00    -0.545 OA
ENDBRANCH   2  10
TORSDOF 2
ENDMDL
