MODEL 1
REMARK VINA RESULT:    -7.745      0.000      0.000
REMARK INTER + INTRA:          -9.506
REMARK INTER:                  -9.330
REMARK INTRA:                  -0.176
REMARK UNBOUND:                -0.176
REMARK SMILES O=c1c(O)c(-c2ccc(O)c(O)c2)oc2cc(O)cc(O)c12
REMARK SMILES IDX 5 1 3 2 2 3 1 4 22 5 20 6 19 7 17 8 16 9 15 10 14 11 6 12
REMARK SMILES IDX 7 13 8 14 9 15 13 16 11 17 10 18 12 20 4 22 21 24 18 26
REMARK H PARENT 10 19 12 21 4 23 21 25 18 27
REMARK Flexibility Score: inf
ROOT
ATOM      1  C   UNL     1     -27.805  13.920  55.620  1.00  0.00     0.180 A 
ATOM      2  C   UNL     1     -27.233  12.645  55.467  1.00  0.00     0.208 A 
ATOM      3  C   UNL     1     -26.695  12.002  56.594  1.00  0.00     0.238 A 
ATOM      4  O   UNL     1     -26.137  10.883  56.442  1.00  0.00    -0.285 OA
ATOM      5  C   UNL     1     -26.751  12.633  57.860  1.00  0.00     0.111 A 
ATOM      6  C   UNL     1     -26.274  12.057  59.075  1.00  0.00     0.134 A 
ATOM      7  C   UNL     1     -26.259  12.826  60.246  1.00  0.00     0.093 A 
ATOM      8  C   UNL     1     -26.767  14.127  60.258  1.00  0.00     0.123 A 
ATOM      9  C   UNL     1     -27.289  14.677  59.090  1.00  0.00     0.094 A 
ATOM     10  C   UNL     1     -27.283  13.948  57.899  1.00  0.00     0.146 A 
ATOM     11  O   UNL     1     -27.782  14.514  56.806  1.00  0.00    -0.452 OA
ENDROOT
BRANCH   1  12
ATOM     12  C   UNL     1     -28.413  14.650  54.484  1.00  0.00     0.025 A 
ATOM     13  C   UNL     1     -29.541  14.148  53.811  1.00  0.00     0.016 A 
ATOM     14  C   UNL     1     -30.113  14.867  52.757  1.00  0.00     0.051 A 
ATOM     15  C   UNL     1     -29.577  16.103  52.371  1.00  0.00     0.157 A 
ATOM     16  C   UNL     1     -27.893  15.900  54.106  1.00  0.00     0.062 A 
ATOM     17  C   UNL     1     -28.463  16.622  53.051  1.00  0.00     0.158 A 
BRANCH  15  18
ATOM     18  O   UNL     1     -30.149  16.815  51.318  1.00  0.00    -0.504 OA
ATOM     19  H   UNL     1     -30.351  16.376  50.427  1.00  0.00     0.293 HD
ENDBRANCH  15  18
BRANCH  17  20
ATOM     20  O   UNL     1     -27.911  17.851  52.696  1.00  0.00    -0.504 OA
ATOM     21  H   UNL     1     -27.282  18.355  53.309  1.00  0.00     0.293 HD
ENDBRANCH  17  20
ENDBRANCH   1  12
BRANCH   2  22
ATOM     22  O   UNL     1     -27.170  12.049  54.205  1.00  0.00    -0.502 OA
ATOM     23  H   UNL     1     -26.846  12.547  53.384  1.00  0.00     0.293 HD
ENDBRANCH   2  22
BRANCH   6  24
ATOM     24  O   UNL     1     -25.831  10.736  59.191  1.00  0.00    -0.507 OA
ATOM     25  H   UNL     1     -25.962  10.156  60.007  1.00  0.00     0.293 HD
ENDBRANCH   6  24
BRANCH   8  26
ATOM     26  O   UNL     1     -26.764  14.879  61.431  1.00  0.00    -0.508 OA
ATOM     27  H   UNL     1     -27.627  15.153  61.887  1.00  0.00     0.293 HD
ENDBRANCH   8  26
TORSDOF 6
ENDMDL
MODEL 2
REMARK VINA RESULT:    -7.744      3.066      7.020
REMARK INTER + INTRA:          -9.505
REMARK INTER:                  -9.217
REMARK INTRA:                  -0.288
REMARK UNBOUND:                -0.176
REMARK SMILES O=c1c(O)c(-c2ccc(O)c(O)c2)oc2cc(O)cc(O)c12
REMARK SMILES IDX 5 1 3 2 2 3 1 4 22 5 20 6 19 7 17 8 16 9 15 10 14 11 6 12
REMARK SMILES IDX 7 13 8 14 9 15 13 16 11 17 10 18 12 20 4 22 21 24 18 26
REMARK H PARENT 10 19 12 21 4 23 21 25 18 27
REMARK Flexibility Score: inf
ROOT
ATOM      1  C   UNL     1     -26.670  11.882  54.614  1.00  0.00     0.180 A 
ATOM      2  C   UNL     1     -26.550  11.412  53.294  1.00  0.00     0.208 A 
ATOM      3  C   UNL     1     -26.721  12.316  52.233  1.00  0.00     0.238 A 
ATOM      4  O   UNL     1     -26.665  11.879  51.053  1.00  0.00    -0.285 OA
ATOM      5  C   UNL     1     -26.992  13.679  52.503  1.00  0.00     0.111 A 
ATOM      6  C   UNL     1     -27.142  14.689  51.507  1.00  0.00     0.134 A 
ATOM      7  C   UNL     1     -27.539  15.978  51.884  1.00  0.00     0.093 A 
ATOM      8  C   UNL     1     -27.726  16.309  53.228  1.00  0.00     0.123 A 
ATOM      9  C   UNL     1     -27.523  15.346  54.212  1.00  0.00     0.094 A 
ATOM     10  C   UNL     1     -27.163  14.042  53.865  1.00  0.00     0.146 A 
ATOM     11  O   UNL     1     -26.990  13.151  54.834  1.00  0.00    -0.452 OA
ENDROOT
BRANCH   1  12
ATOM     12  C   UNL     1     -26.480  10.996  55.785  1.00  0.00     0.025 A 
ATOM     13  C   UNL     1     -27.576  10.454  56.479  1.00  0.00     0.016 A 
ATOM     14  C   UNL     1     -27.373   9.601  57.567  1.00  0.00     0.051 A 
ATOM     15  C   UNL     1     -26.073   9.265  57.968  1.00  0.00     0.157 A 
ATOM     16  C   UNL     1     -25.179  10.638  56.179  1.00  0.00     0.062 A 
ATOM     17  C   UNL     1     -24.971   9.785  57.268  1.00  0.00     0.158 A 
BRANCH  15  18
ATOM     18  O   UNL     1     -25.874   8.415  59.055  1.00  0.00    -0.504 OA
ATOM     19  H   UNL     1     -26.647   8.090  59.624  1.00  0.00     0.293 HD
ENDBRANCH  15  18
BRANCH  17  20
ATOM     20  O   UNL     1     -23.666   9.464  57.638  1.00  0.00    -0.504 OA
ATOM     21  H   UNL     1     -22.880   9.610  57.016  1.00  0.00     0.293 HD
ENDBRANCH  17  20
ENDBRANCH   1  12
BRANCH   2  22
ATOM     22  O   UNL     1     -26.304  10.059  53.049  1.00  0.00    -0.502 OA
ATOM     23  H   UNL     1     -26.932   9.483  52.501  1.00  0.00     0.293 HD
ENDBRANCH   2  22
BRANCH   6  24
ATOM     24  O   UNL     1     -26.890  14.487  50.147  1.00  0.00    -0.507 OA
ATOM     25  H   UNL     1     -26.899  15.214  49.447  1.00  0.00     0.293 HD
ENDBRANCH   6  24
BRANCH   8  26
ATOM     26  O   UNL     1     -28.105  17.598  53.595  1.00  0.00    -0.508 OA
ATOM     27  H   UNL     1     -27.570  18.411  53.309  1.00  0.00     0.293 HD
ENDBRANCH   8  26
TORSDOF 6
ENDMDL
MODEL 3
REMARK VINA RESULT:    -7.739      4.633      7.420
REMARK INTER + INTRA:          -9.498
REMARK INTER:                  -9.210
REMARK INTRA:                  -0.288
REMARK UNBOUND:                -0.176
REMARK SMILES O=c1c(O)c(-c2ccc(O)c(O)c2)oc2cc(O)cc(O)c12
REMARK SMILES IDX 5 1 3 2 2 3 1 4 22 5 20 6 19 7 17 8 16 9 15 10 14 11 6 12
REMARK SMILES IDX 7 13 8 14 9 15 13 16 11 17 10 18 12 20 4 22 21 24 18 26
REMARK H PARENT 10 19 12 21 4 23 21 25 18 27
REMARK Flexibility Score: inf
ROOT
ATOM      1  C   UNL     1     -31.445  11.753  54.760  1.00  0.00     0.180 A 
ATOM      2  C   UNL     1     -30.186  11.828  55.379  1.00  0.00     0.208 A 
ATOM      3  C   UNL     1     -29.332  12.895  55.056  1.00  0.00     0.238 A 
ATOM      4  O   UNL     1     -28.184  12.928  55.573  1.00  0.00    -0.285 OA
ATOM      5  C   UNL     1     -29.753  13.882  54.132  1.00  0.00     0.111 A 
ATOM      6  C   UNL     1     -28.987  15.027  53.762  1.00  0.00     0.134 A 
ATOM      7  C   UNL     1     -29.447  15.866  52.740  1.00  0.00     0.093 A 
ATOM      8  C   UNL     1     -30.679  15.638  52.122  1.00  0.00     0.123 A 
ATOM      9  C   UNL     1     -31.462  14.556  52.518  1.00  0.00     0.094 A 
ATOM     10  C   UNL     1     -31.013  13.681  53.508  1.00  0.00     0.146 A 
ATOM     11  O   UNL     1     -31.786  12.656  53.849  1.00  0.00    -0.452 OA
ENDROOT
BRANCH   1  12
ATOM     12  C   UNL     1     -32.410  10.673  55.067  1.00  0.00     0.025 A 
ATOM     13  C   UNL     1     -32.277   9.391  54.506  1.00  0.00     0.016 A 
ATOM     14  C   UNL     1     -33.186   8.380  54.828  1.00  0.00     0.051 A 
ATOM     15  C   UNL     1     -34.232   8.629  55.727  1.00  0.00     0.157 A 
ATOM     16  C   UNL     1     -33.448  10.911  55.984  1.00  0.00     0.062 A 
ATOM     17  C   UNL     1     -34.361   9.901  56.309  1.00  0.00     0.158 A 
BRANCH  15  18
ATOM     18  O   UNL     1     -35.138   7.619  56.045  1.00  0.00    -0.504 OA
ATOM     19  H   UNL     1     -34.828   6.683  56.281  1.00  0.00     0.293 HD
ENDBRANCH  15  18
BRANCH  17  20
ATOM     20  O   UNL     1     -35.386  10.180  57.211  1.00  0.00    -0.504 OA
ATOM     21  H   UNL     1     -35.224  10.230  58.210  1.00  0.00     0.293 HD
ENDBRANCH  17  20
ENDBRANCH   1  12
BRANCH   2  22
ATOM     22  O   UNL     1     -29.781  10.833  56.272  1.00  0.00    -0.502 OA
ATOM     23  H   UNL     1     -28.989  10.228  56.089  1.00  0.00     0.293 HD
ENDBRANCH   2  22
BRANCH   6  24
ATOM     24  O   UNL     1     -27.789  15.397  54.380  1.00  0.00    -0.507 OA
ATOM     25  H   UNL     1     -27.257  14.807  55.003  1.00  0.00     0.293 HD
ENDBRANCH   6  24
BRANCH   8  26
ATOM     26  O   UNL     1     -31.137  16.487  51.117  1.00  0.00    -0.508 OA
ATOM     27  H   UNL     1     -32.041  16.350  50.678  1.00  0.00     0.293 HD
ENDBRANCH   8  26
TORSDOF 6
ENDMDL
MODEL 4
REMARK VINA RESULT:    -7.701      3.252      3.594
REMARK INTER + INTRA:          -9.453
REMARK INTER:                  -9.124
REMARK INTRA:                  -0.328
REMARK UNBOUND:                -0.176
REMARK SMILES O=c1c(O)c(-c2ccc(O)c(O)c2)oc2cc(O)cc(O)c12
REMARK SMILES IDX 5 1 3 2 2 3 1 4 22 5 20 6 19 7 17 8 16 9 15 10 14 11 6 12
REMARK SMILES IDX 7 13 8 14 9 15 13 16 11 17 10 18 12 20 4 22 21 24 18 26
REMARK H PARENT 10 19 12 21 4 23 21 25 18 27
REMARK Flexibility Score: inf
ROOT
ATOM      1  C   UNL     1     -26.004  12.411  54.104  1.00  0.00     0.180 A 
ATOM      2  C   UNL     1     -24.648  12.267  54.444  1.00  0.00     0.208 A 
ATOM      3  C   UNL     1     -24.299  11.410  55.499  1.00  0.00     0.238 A 
ATOM      4  O   UNL     1     -23.088  11.326  55.835  1.00  0.00    -0.285 OA
ATOM      5  C   UNL     1     -25.307  10.695  56.191  1.00  0.00     0.111 A 
ATOM      6  C   UNL     1     -25.063   9.769  57.249  1.00  0.00     0.134 A 
ATOM      7  C   UNL     1     -26.145   9.219  57.948  1.00  0.00     0.093 A 
ATOM      8  C   UNL     1     -27.461   9.511  57.583  1.00  0.00     0.123 A 
ATOM      9  C   UNL     1     -27.709  10.368  56.513  1.00  0.00     0.094 A 
ATOM     10  C   UNL     1     -26.651  10.960  55.820  1.00  0.00     0.146 A 
ATOM     11  O   UNL     1     -26.932  11.779  54.813  1.00  0.00    -0.452 OA
ENDROOT
BRANCH   1  12
ATOM     12  C   UNL     1     -26.449  13.277  52.988  1.00  0.00     0.025 A 
ATOM     13  C   UNL     1     -26.619  12.767  51.688  1.00  0.00     0.016 A 
ATOM     14  C   UNL     1     -27.062  13.598  50.656  1.00  0.00     0.051 A 
ATOM     15  C   UNL     1     -27.357  14.945  50.908  1.00  0.00     0.157 A 
ATOM     16  C   UNL     1     -26.766  14.622  53.239  1.00  0.00     0.062 A 
ATOM     17  C   UNL     1     -27.209  15.458  52.207  1.00  0.00     0.158 A 
BRANCH  15  18
ATOM     18  O   UNL     1     -27.796  15.770  49.875  1.00  0.00    -0.504 OA
ATOM     19  H   UNL     1     -27.157  16.366  49.362  1.00  0.00     0.293 HD
ENDBRANCH  15  18
BRANCH  17  20
ATOM     20  O   UNL     1     -27.501  16.790  52.493  1.00  0.00    -0.504 OA
ATOM     21  H   UNL     1     -27.726  17.103  53.429  1.00  0.00     0.293 HD
ENDBRANCH  17  20
ENDBRANCH   1  12
BRANCH   2  22
ATOM     22  O   UNL     1     -23.672  12.999  53.763  1.00  0.00    -0.502 OA
ATOM     23  H   UNL     1     -22.895  12.556  53.285  1.00  0.00     0.293 HD
ENDBRANCH   2  22
BRANCH   6  24
ATOM     24  O   UNL     1     -23.790   9.339  57.632  1.00  0.00    -0.507 OA
ATOM     25  H   UNL     1     -23.607   8.632  58.328  1.00  0.00     0.293 HD
ENDBRANCH   6  24
BRANCH   8  26
ATOM     26  O   UNL     1     -28.531   8.947  58.274  1.00  0.00    -0.508 OA
ATOM     27  H   UNL     1     -28.891   9.363  59.125  1.00  0.00     0.293 HD
ENDBRANCH   8  26
TORSDOF 6
ENDMDL
MODEL 5
REMARK VINA RESULT:    -7.669      1.213      2.912
REMARK INTER + INTRA:          -9.414
REMARK INTER:                  -9.175
REMARK INTRA:                  -0.239
REMARK UNBOUND:                -0.176
REMARK SMILES O=c1c(O)c(-c2ccc(O)c(O)c2)oc2cc(O)cc(O)c12
REMARK SMILES IDX 5 1 3 2 2 3 1 4 22 5 20 6 19 7 17 8 16 9 15 10 14 11 6 12
REMARK SMILES IDX 7 13 8 14 9 15 13 16 11 17 10 18 12 20 4 22 21 24 18 26
REMARK H PARENT 10 19 12 21 4 23 21 25 18 27
REMARK Flexibility Score: inf
ROOT
ATOM      1  C   UNL     1     -27.855  14.116  55.752  1.00  0.00     0.180 A 
ATOM      2  C   UNL     1     -28.100  14.578  57.056  1.00  0.00     0.208 A 
ATOM      3  C   UNL     1     -27.523  13.897  58.139  1.00  0.00     0.238 A 
ATOM      4  O   UNL     1     -27.789  14.283  59.308  1.00  0.00    -0.285 OA
ATOM      5  C   UNL     1     -26.694  12.772  57.905  1.00  0.00     0.111 A 
ATOM      6  C   UNL     1     -26.025  12.032  58.924  1.00  0.00     0.134 A 
ATOM      7  C   UNL     1     -25.338  10.859  58.587  1.00  0.00     0.093 A 
ATOM      8  C   UNL     1     -25.241  10.437  57.259  1.00  0.00     0.123 A 
ATOM      9  C   UNL     1     -25.841  11.187  56.250  1.00  0.00     0.094 A 
ATOM     10  C   UNL     1     -26.564  12.340  56.559  1.00  0.00     0.146 A 
ATOM     11  O   UNL     1     -27.128  13.020  55.567  1.00  0.00    -0.452 OA
ENDROOT
BRANCH   1  12
ATOM     12  C   UNL     1     -28.409  14.795  54.559  1.00  0.00     0.025 A 
ATOM     13  C   UNL     1     -29.481  14.245  53.834  1.00  0.00     0.016 A 
ATOM     14  C   UNL     1     -30.003  14.916  52.725  1.00  0.00     0.051 A 
ATOM     15  C   UNL     1     -29.473  16.152  52.332  1.00  0.00     0.157 A 
ATOM     16  C   UNL     1     -27.896  16.045  54.173  1.00  0.00     0.062 A 
ATOM     17  C   UNL     1     -28.415  16.720  53.062  1.00  0.00     0.158 A 
BRANCH  15  18
ATOM     18  O   UNL     1     -29.995  16.818  51.224  1.00  0.00    -0.504 OA
ATOM     19  H   UNL     1     -29.525  17.617  50.815  1.00  0.00     0.293 HD
ENDBRANCH  15  18
BRANCH  17  20
ATOM     20  O   UNL     1     -27.871  17.951  52.702  1.00  0.00    -0.504 OA
ATOM     21  H   UNL     1     -26.949  18.241  53.006  1.00  0.00     0.293 HD
ENDBRANCH  17  20
ENDBRANCH   1  12
BRANCH   2  22
ATOM     22  O   UNL     1     -28.938  15.676  57.267  1.00  0.00    -0.502 OA
ATOM     23  H   UNL     1     -29.449  15.813  58.132  1.00  0.00     0.293 HD
ENDBRANCH   2  22
BRANCH   6  24
ATOM     24  O   UNL     1     -25.982  12.416  60.267  1.00  0.00    -0.507 OA
ATOM     25  H   UNL     1     -25.909  13.369  60.590  1.00  0.00     0.293 HD
ENDBRANCH   6  24
BRANCH   8  26
ATOM     26  O   UNL     1     -24.542   9.278  56.931  1.00  0.00    -0.508 OA
ATOM     27  H   UNL     1     -24.404   8.996  55.967  1.00  0.00     0.293 HD
ENDBRANCH   8  26
TORSDOF 6
ENDMDL
MODEL 6
REMARK VINA RESULT:    -7.661      2.524      7.356
REMARK INTER + INTRA:          -9.405
REMARK INTER:                  -9.081
REMARK INTRA:                  -0.324
REMARK UNBOUND:                -0.176
REMARK SMILES O=c1c(O)c(-c2ccc(O)c(O)c2)oc2cc(O)cc(O)c12
REMARK SMILES IDX 5 1 3 2 2 3 1 4 22 5 20 6 19 7 17 8 16 9 15 10 14 11 6 12
REMARK SMILES IDX 7 13 8 14 9 15 13 16 11 17 10 18 12 20 4 22 21 24 18 26
REMARK H PARENT 10 19 12 21 4 23 21 25 18 27
REMARK Flexibility Score: inf
ROOT
ATOM      1  C   UNL     1     -26.689  12.940  55.230  1.00  0.00     0.180 A 
ATOM      2  C   UNL     1     -26.761  14.248  55.741  1.00  0.00     0.208 A 
ATOM      3  C   UNL     1     -26.972  15.314  54.853  1.00  0.00     0.238 A 
ATOM      4  O   UNL     1     -26.983  16.488  55.310  1.00  0.00    -0.285 OA
ATOM      5  C   UNL     1     -27.125  15.060  53.468  1.00  0.00     0.111 A 
ATOM      6  C   UNL     1     -27.383  16.060  52.484  1.00  0.00     0.134 A 
ATOM      7  C   UNL     1     -27.385  15.711  51.128  1.00  0.00     0.093 A 
ATOM      8  C   UNL     1     -27.203  14.385  50.726  1.00  0.00     0.123 A 
ATOM      9  C   UNL     1     -27.009  13.393  51.683  1.00  0.00     0.094 A 
ATOM     10  C   UNL     1     -26.966  13.716  53.041  1.00  0.00     0.146 A 
ATOM     11  O   UNL     1     -26.769  12.740  53.920  1.00  0.00    -0.452 OA
ENDROOT
BRANCH   1  12
ATOM     12  C   UNL     1     -26.493  11.762  56.105  1.00  0.00     0.025 A 
ATOM     13  C   UNL     1     -27.584  11.019  56.589  1.00  0.00     0.016 A 
ATOM     14  C   UNL     1     -27.374   9.897  57.395  1.00  0.00     0.051 A 
ATOM     15  C   UNL     1     -26.072   9.491  57.717  1.00  0.00     0.157 A 
ATOM     16  C   UNL     1     -25.189  11.338  56.414  1.00  0.00     0.062 A 
ATOM     17  C   UNL     1     -24.975  10.215  57.221  1.00  0.00     0.158 A 
BRANCH  15  18
ATOM     18  O   UNL     1     -25.866   8.372  58.522  1.00  0.00    -0.504 OA
ATOM     19  H   UNL     1     -25.106   8.332  59.191  1.00  0.00     0.293 HD
ENDBRANCH  15  18
BRANCH  17  20
ATOM     20  O   UNL     1     -23.667   9.834  57.517  1.00  0.00    -0.504 OA
ATOM     21  H   UNL     1     -23.351   9.691  58.469  1.00  0.00     0.293 HD
ENDBRANCH  17  20
ENDBRANCH   1  12
BRANCH   2  22
ATOM     22  O   UNL     1     -26.586  14.479  57.108  1.00  0.00    -0.502 OA
ATOM     23  H   UNL     1     -26.987  15.281  57.579  1.00  0.00     0.293 HD
ENDBRANCH   2  22
BRANCH   6  24
ATOM     24  O   UNL     1     -27.669  17.395  52.784  1.00  0.00    -0.507 OA
ATOM     25  H   UNL     1     -28.364  17.698  53.450  1.00  0.00     0.293 HD
ENDBRANCH   6  24
BRANCH   8  26
ATOM     26  O   UNL     1     -27.222  14.044  49.376  1.00  0.00    -0.508 OA
ATOM     27  H   UNL     1     -28.052  14.172  48.808  1.00  0.00     0.293 HD
ENDBRANCH   8  26
TORSDOF 6
ENDMDL
MODEL 7
REMARK VINA RESULT:    -7.651      3.164      3.649
REMARK INTER + INTRA:          -9.392
REMARK INTER:                  -9.097
REMARK INTRA:                  -0.295
REMARK UNBOUND:                -0.176
REMARK SMILES O=c1c(O)c(-c2ccc(O)c(O)c2)oc2cc(O)cc(O)c12
REMARK SMILES IDX 5 1 3 2 2 3 1 4 22 5 20 6 19 7 17 8 16 9 15 10 14 11 6 12
REMARK SMILES IDX 7 13 8 14 9 15 13 16 11 17 10 18 12 20 4 22 21 24 18 26
REMARK H PARENT 10 19 12 21 4 23 21 25 18 27
REMARK Flexibility Score: inf
ROOT
ATOM      1  C   UNL     1     -27.397  12.204  54.030  1.00  0.00     0.180 A 
ATOM      2  C   UNL     1     -28.627  11.716  54.503  1.00  0.00     0.208 A 
ATOM      3  C   UNL     1     -28.635  10.857  55.614  1.00  0.00     0.238 A 
ATOM      4  O   UNL     1     -29.734  10.380  56.000  1.00  0.00    -0.285 OA
ATOM      5  C   UNL     1     -27.417  10.511  56.247  1.00  0.00     0.111 A 
ATOM      6  C   UNL     1     -27.311   9.681  57.403  1.00  0.00     0.134 A 
ATOM      7  C   UNL     1     -26.046   9.298  57.866  1.00  0.00     0.093 A 
ATOM      8  C   UNL     1     -24.883   9.769  57.253  1.00  0.00     0.123 A 
ATOM      9  C   UNL     1     -24.976  10.627  56.160  1.00  0.00     0.094 A 
ATOM     10  C   UNL     1     -26.223  10.997  55.653  1.00  0.00     0.146 A 
ATOM     11  O   UNL     1     -26.266  11.809  54.603  1.00  0.00    -0.452 OA
ENDROOT
BRANCH   1  12
ATOM     12  C   UNL     1     -27.309  13.133  52.880  1.00  0.00     0.025 A 
ATOM     13  C   UNL     1     -27.015  12.669  51.585  1.00  0.00     0.016 A 
ATOM     14  C   UNL     1     -26.961  13.561  50.510  1.00  0.00     0.051 A 
ATOM     15  C   UNL     1     -27.213  14.925  50.709  1.00  0.00     0.157 A 
ATOM     16  C   UNL     1     -27.581  14.498  53.069  1.00  0.00     0.062 A 
ATOM     17  C   UNL     1     -27.527  15.395  51.996  1.00  0.00     0.158 A 
BRANCH  15  18
ATOM     18  O   UNL     1     -27.156  15.812  49.635  1.00  0.00    -0.504 OA
ATOM     19  H   UNL     1     -27.435  15.534  48.702  1.00  0.00     0.293 HD
ENDBRANCH  15  18
BRANCH  17  20
ATOM     20  O   UNL     1     -27.790  16.744  52.226  1.00  0.00    -0.504 OA
ATOM     21  H   UNL     1     -28.562  17.050  52.805  1.00  0.00     0.293 HD
ENDBRANCH  17  20
ENDBRANCH   1  12
BRANCH   2  22
ATOM     22  O   UNL     1     -29.815  12.053  53.850  1.00  0.00    -0.502 OA
ATOM     23  H   UNL     1     -30.673  12.252  54.351  1.00  0.00     0.293 HD
ENDBRANCH   2  22
BRANCH   6  24
ATOM     24  O   UNL     1     -28.408   9.232  58.144  1.00  0.00    -0.507 OA
ATOM     25  H   UNL     1     -29.172   9.815  58.450  1.00  0.00     0.293 HD
ENDBRANCH   6  24
BRANCH   8  26
ATOM     26  O   UNL     1     -23.628   9.397  57.729  1.00  0.00    -0.508 OA
ATOM     27  H   UNL     1     -23.031  10.052  58.221  1.00  0.00     0.293 HD
ENDBRANCH   8  26
TORSDOF 6
ENDMDL
MODEL 8
REMARK VINA RESULT:    -7.634      5.055      6.567
REMARK INTER + INTRA:          -9.373
REMARK INTER:                  -9.050
REMARK INTRA:                  -0.323
REMARK UNBOUND:                -0.176
REMARK SMILES O=c1c(O)c(-c2ccc(O)c(O)c2)oc2cc(O)cc(O)c12
REMARK SMILES IDX 5 1 3 2 2 3 1 4 22 5 20 6 19 7 17 8 16 9 15 10 14 11 6 12
REMARK SMILES IDX 7 13 8 14 9 15 13 16 11 17 10 18 12 20 4 22 21 24 18 26
REMARK H PARENT 10 19 12 21 4 23 21 25 18 27
REMARK Flexibility Score: inf
ROOT
ATOM      1  C   UNL     1     -30.877   9.958  55.634  1.00  0.00     0.180 A 
ATOM      2  C   UNL     1     -30.225  11.007  54.963  1.00  0.00     0.208 A 
ATOM      3  C   UNL     1     -28.868  11.247  55.233  1.00  0.00     0.238 A 
ATOM      4  O   UNL     1     -28.303  12.222  54.670  1.00  0.00    -0.285 OA
ATOM      5  C   UNL     1     -28.176  10.426  56.156  1.00  0.00     0.111 A 
ATOM      6  C   UNL     1     -26.791  10.553  56.474  1.00  0.00     0.134 A 
ATOM      7  C   UNL     1     -26.243   9.771  57.499  1.00  0.00     0.093 A 
ATOM      8  C   UNL     1     -27.015   8.821  58.170  1.00  0.00     0.123 A 
ATOM      9  C   UNL     1     -28.353   8.648  57.825  1.00  0.00     0.094 A 
ATOM     10  C   UNL     1     -28.937   9.438  56.833  1.00  0.00     0.146 A 
ATOM     11  O   UNL     1     -30.219   9.247  56.542  1.00  0.00    -0.452 OA
ENDROOT
BRANCH   1  12
ATOM     12  C   UNL     1     -32.299   9.628  55.385  1.00  0.00     0.025 A 
ATOM     13  C   UNL     1     -33.332  10.245  56.112  1.00  0.00     0.016 A 
ATOM     14  C   UNL     1     -34.668   9.936  55.844  1.00  0.00     0.051 A 
ATOM     15  C   UNL     1     -34.992   9.017  54.836  1.00  0.00     0.157 A 
ATOM     16  C   UNL     1     -32.631   8.724  54.362  1.00  0.00     0.062 A 
ATOM     17  C   UNL     1     -33.968   8.411  54.091  1.00  0.00     0.158 A 
BRANCH  15  18
ATOM     18  O   UNL     1     -36.326   8.710  54.573  1.00  0.00    -0.504 OA
ATOM     19  H   UNL     1     -37.006   9.431  54.363  1.00  0.00     0.293 HD
ENDBRANCH  15  18
BRANCH  17  20
ATOM     20  O   UNL     1     -34.257   7.499  53.077  1.00  0.00    -0.504 OA
ATOM     21  H   UNL     1     -33.917   6.545  53.098  1.00  0.00     0.293 HD
ENDBRANCH  17  20
ENDBRANCH   1  12
BRANCH   2  22
ATOM     22  O   UNL     1     -30.932  11.819  54.073  1.00  0.00    -0.502 OA
ATOM     23  H   UNL     1     -31.910  12.049  54.206  1.00  0.00     0.293 HD
ENDBRANCH   2  22
BRANCH   6  24
ATOM     24  O   UNL     1     -25.910  11.406  55.802  1.00  0.00    -0.507 OA
ATOM     25  H   UNL     1     -25.506  11.217  54.897  1.00  0.00     0.293 HD
ENDBRANCH   6  24
BRANCH   8  26
ATOM     26  O   UNL     1     -26.458   8.036  59.177  1.00  0.00    -0.508 OA
ATOM     27  H   UNL     1     -26.969   7.264  59.592  1.00  0.00     0.293 HD
ENDBRANCH   8  26
TORSDOF 6
ENDMDL
MODEL 9
REMARK VINA RESULT:    -7.477      3.258      4.962
REMARK INTER + INTRA:          -9.183
REMARK INTER:                  -8.862
REMARK INTRA:                  -0.321
REMARK UNBOUND:                -0.176
REMARK SMILES O=c1c(O)c(-c2ccc(O)c(O)c2)oc2cc(O)cc(O)c12
REMARK SMILES IDX 5 1 3 2 2 3 1 4 22 5 20 6 19 7 17 8 16 9 15 10 14 11 6 12
REMARK SMILES IDX 7 13 8 14 9 15 13 16 11 17 10 18 12 20 4 22 21 24 18 26
REMARK H PARENT 10 19 12 21 4 23 21 25 18 27
REMARK Flexibility Score: inf
ROOT
ATOM      1  C   UNL     1     -28.908  13.424  54.842  1.00  0.00     0.180 A 
ATOM      2  C   UNL     1     -28.261  12.309  54.284  1.00  0.00     0.208 A 
ATOM      3  C   UNL     1     -28.948  11.086  54.218  1.00  0.00     0.238 A 
ATOM      4  O   UNL     1     -28.345  10.077  53.766  1.00  0.00    -0.285 OA
ATOM      5  C   UNL     1     -30.278  10.998  54.697  1.00  0.00     0.111 A 
ATOM      6  C   UNL     1     -31.082   9.821  54.643  1.00  0.00     0.134 A 
ATOM      7  C   UNL     1     -32.337   9.812  55.265  1.00  0.00     0.093 A 
ATOM      8  C   UNL     1     -32.843  10.959  55.880  1.00  0.00     0.123 A 
ATOM      9  C   UNL     1     -32.090  12.130  55.886  1.00  0.00     0.094 A 
ATOM     10  C   UNL     1     -30.820  12.159  55.306  1.00  0.00     0.146 A 
ATOM     11  O   UNL     1     -30.131  13.294  55.342  1.00  0.00    -0.452 OA
ENDROOT
BRANCH   1  12
ATOM     12  C   UNL     1     -28.258  14.752  54.924  1.00  0.00     0.025 A 
ATOM     13  C   UNL     1     -27.523  15.139  56.058  1.00  0.00     0.016 A 
ATOM     14  C   UNL     1     -26.898  16.389  56.103  1.00  0.00     0.051 A 
ATOM     15  C   UNL     1     -26.986  17.263  55.011  1.00  0.00     0.157 A 
ATOM     16  C   UNL     1     -28.325  15.625  53.824  1.00  0.00     0.062 A 
ATOM     17  C   UNL     1     -27.701  16.877  53.866  1.00  0.00     0.158 A 
BRANCH  15  18
ATOM     18  O   UNL     1     -26.363  18.509  55.061  1.00  0.00    -0.504 OA
ATOM     19  H   UNL     1     -26.172  19.041  54.219  1.00  0.00     0.293 HD
ENDBRANCH  15  18
BRANCH  17  20
ATOM     20  O   UNL     1     -27.801  17.720  52.761  1.00  0.00    -0.504 OA
ATOM     21  H   UNL     1     -28.125  18.676  52.841  1.00  0.00     0.293 HD
ENDBRANCH  17  20
ENDBRANCH   1  12
BRANCH   2  22
ATOM     22  O   UNL     1     -26.941  12.412  53.838  1.00  0.00    -0.502 OA
ATOM     23  H   UNL     1     -26.473  13.304  53.726  1.00  0.00     0.293 HD
ENDBRANCH   2  22
BRANCH   6  24
ATOM     24  O   UNL     1     -30.710   8.651  53.974  1.00  0.00    -0.507 OA
ATOM     25  H   UNL     1     -31.332   7.883  53.770  1.00  0.00     0.293 HD
ENDBRANCH   6  24
BRANCH   8  26
ATOM     26  O   UNL     1     -34.099  10.947  56.483  1.00  0.00    -0.508 OA
ATOM     27  H   UNL     1     -34.314  11.544  57.273  1.00  0.00     0.293 HD
ENDBRANCH   8  26
TORSDOF 6
ENDMDL
