MODEL 1
REMARK VINA RESULT:    -5.097      0.000      0.000
REMARK INTER + INTRA:          -5.246
REMARK INTER:                  -5.246
REMARK INTRA:                   0.000
REMARK UNBOUND:                 0.000
REMARK SMILES Oc1ccc2[nH]ccc2c1
REMARK SMILES IDX 3 1 4 2 5 3 9 4 8 5 7 6 6 7 10 8 2 9 1 11
REMARK H PARENT 6 10 1 12
REMARK Flexibility Score: inf
ROOT
ATOM      1  C   UNL     1      -6.235  57.704  -3.066  1.00  0.00     0.048 A 
ATOM      2  C   UNL     1      -5.311  58.081  -4.057  1.00  0.00     0.030 A 
ATOM      3  C   UNL     1      -5.581  57.709  -5.373  1.00  0.00     0.046 A 
ATOM      4  C   UNL     1      -6.704  57.001  -5.704  1.00  0.00     0.003 A 
ATOM      5  C   UNL     1      -6.676  56.796  -7.067  1.00  0.00     0.028 A 
ATOM      6  C   UNL     1      -5.503  57.409  -7.501  1.00  0.00     0.083 A 
ATOM      7  N   UNL     1      -4.838  57.965  -6.463  1.00  0.00    -0.361 N 
ATOM      8  C   UNL     1      -7.639  56.612  -4.748  1.00  0.00     0.056 A 
ATOM      9  C   UNL     1      -7.396  56.972  -3.405  1.00  0.00     0.116 A 
ATOM     10  H   UNL     1      -3.934  58.485  -6.504  1.00  0.00     0.166 HD
ENDROOT
BRANCH   9  11
ATOM     11  O   UNL     1      -8.295  56.610  -2.404  1.00  0.00    -0.508 OA
ATOM     12  H   UNL     1      -8.372  55.653  -2.083  1.00  0.00     0.293 HD
ENDBRANCH   9  11
TORSDOF 1
ENDMDL
MODEL 2
REMARK VINA RESULT:    -5.042     10.689     12.274
REMARK INTER + INTRA:          -5.189
REMARK INTER:                  -5.189
REMARK INTRA:                   0.000
REMARK UNBOUND:                 0.000
REMARK SMILES Oc1ccc2[nH]ccc2c1
REMARK SMILES IDX 3 1 4 2 5 3 9 4 8 5 7 6 6 7 10 8 2 9 1 11
REMARK H PARENT 6 10 1 12
REMARK Flexibility Score: inf
ROOT
ATOM      1  C   UNL     1      -4.361  48.753 -15.029  1.00  0.00     0.048 A 
ATOM      2  C   UNL     1      -4.993  50.001 -14.877  1.00  0.00     0.030 A 
ATOM      3  C   UNL     1      -4.323  50.985 -14.153  1.00  0.00     0.046 A 
ATOM      4  C   UNL     1      -3.090  50.760 -13.602  1.00  0.00     0.003 A 
ATOM      5  C   UNL     1      -2.707  51.918 -12.961  1.00  0.00     0.028 A 
ATOM      6  C   UNL     1      -3.757  52.809 -13.163  1.00  0.00     0.083 A 
ATOM      7  N   UNL     1      -4.742  52.235 -13.891  1.00  0.00    -0.361 N 
ATOM      8  C   UNL     1      -2.437  49.537 -13.733  1.00  0.00     0.056 A 
ATOM      9  C   UNL     1      -3.088  48.517 -14.461  1.00  0.00     0.116 A 
ATOM     10  H   UNL     1      -5.640  52.675 -14.188  1.00  0.00     0.166 HD
ENDROOT
BRANCH   9  11
ATOM     11  O   UNL     1      -2.484  47.272 -14.625  1.00  0.00    -0.508 OA
ATOM     12  H   UNL     1      -1.598  47.053 -14.186  1.00  0.00     0.293 HD
ENDBRANCH   9  11
TORSDOF 1
ENDMDL
MODEL 3
REMARK VINA RESULT:    -4.942      6.547      7.056
REMARK INTER + INTRA:          -5.087
REMARK INTER:                  -5.087
REMARK INTRA:                   0.000
REMARK UNBOUND:                 0.000
REMARK SMILES Oc1ccc2[nH]ccc2c1
REMARK SMILES IDX 3 1 4 2 5 3 9 4 8 5 7 6 6 7 10 8 2 9 1 11
REMARK H PARENT 6 10 1 12
REMARK Flexibility Score: inf
ROOT
ATOM      1  C   UNL     1      -6.227  52.755  -5.402  1.00  0.00     0.048 A 
ATOM      2  C   UNL     1      -7.265  52.205  -6.176  1.00  0.00     0.030 A 
ATOM      3  C   UNL     1      -7.167  50.861  -6.533  1.00  0.00     0.046 A 
ATOM      4  C   UNL     1      -6.102  50.090  -6.151  1.00  0.00     0.003 A 
ATOM      5  C   UNL     1      -6.305  48.825  -6.658  1.00  0.00     0.028 A 
ATOM      6  C   UNL     1      -7.517  48.898  -7.340  1.00  0.00     0.083 A 
ATOM      7  N   UNL     1      -8.039  50.143  -7.261  1.00  0.00    -0.361 N 
ATOM      8  C   UNL     1      -5.058  50.604  -5.386  1.00  0.00     0.056 A 
ATOM      9  C   UNL     1      -5.125  51.962  -5.006  1.00  0.00     0.116 A 
ATOM     10  H   UNL     1      -8.936  50.474  -7.680  1.00  0.00     0.166 HD
ENDROOT
BRANCH   9  11
ATOM     11  O   UNL     1      -4.110  52.531  -4.241  1.00  0.00    -0.508 OA
ATOM     12  H   UNL     1      -3.752  52.073  -3.412  1.00  0.00     0.293 HD
ENDBRANCH   9  11
TORSDOF 1
ENDMDL
MODEL 4
REMARK VINA RESULT:    -4.888     11.736     12.924
REMARK INTER + INTRA:          -5.031
REMARK INTER:                  -5.031
REMARK INTRA:                   0.000
REMARK UNBOUND:                 0.000
REMARK SMILES Oc1ccc2[nH]ccc2c1
REMARK SMILES IDX 3 1 4 2 5 3 9 4 8 5 7 6 6 7 10 8 2 9 1 11
REMARK H PARENT 6 10 1 12
REMARK Flexibility Score: inf
ROOT
ATOM      1  C   UNL     1      -4.095  46.871 -14.323  1.00  0.00     0.048 A 
ATOM      2  C   UNL     1      -2.894  47.567 -14.097  1.00  0.00     0.030 A 
ATOM      3  C   UNL     1      -2.963  48.951 -13.945  1.00  0.00     0.046 A 
ATOM      4  C   UNL     1      -4.154  49.624 -14.011  1.00  0.00     0.003 A 
ATOM      5  C   UNL     1      -3.882  50.962 -13.823  1.00  0.00     0.028 A 
ATOM      6  C   UNL     1      -2.503  51.031 -13.647  1.00  0.00     0.083 A 
ATOM      7  N   UNL     1      -1.946  49.801 -13.723  1.00  0.00    -0.361 N 
ATOM      8  C   UNL     1      -5.361  48.965 -14.234  1.00  0.00     0.056 A 
ATOM      9  C   UNL     1      -5.327  47.563 -14.392  1.00  0.00     0.116 A 
ATOM     10  H   UNL     1      -0.934  49.564 -13.627  1.00  0.00     0.166 HD
ENDROOT
BRANCH   9  11
ATOM     11  O   UNL     1      -6.502  46.850 -14.618  1.00  0.00    -0.508 OA
ATOM     12  H   UNL     1      -7.198  47.174 -15.278  1.00  0.00     0.293 HD
ENDBRANCH   9  11
TORSDOF 1
ENDMDL
MODEL 5
REMARK VINA RESULT:    -4.845     11.507     12.696
REMARK INTER + INTRA:          -4.986
REMARK INTER:                  -4.986
REMARK INTRA:                   0.000
REMARK UNBOUND:                 0.000
REMARK SMILES Oc1ccc2[nH]ccc2c1
REMARK SMILES IDX 3 1 4 2 5 3 9 4 8 5 7 6 6 7 10 8 2 9 1 11
REMARK H PARENT 6 10 1 12
REMARK Flexibility Score: inf
ROOT
ATOM      1  C   UNL     1      -2.837  51.088 -13.549  1.00  0.00     0.048 A 
ATOM      2  C   UNL     1      -2.243  49.817 -13.652  1.00  0.00     0.030 A 
ATOM      3  C   UNL     1      -2.990  48.797 -14.241  1.00  0.00     0.046 A 
ATOM      4  C   UNL     1      -4.259  49.011 -14.707  1.00  0.00     0.003 A 
ATOM      5  C   UNL     1      -4.715  47.818 -15.224  1.00  0.00     0.028 A 
ATOM      6  C   UNL     1      -3.669  46.918 -15.038  1.00  0.00     0.083 A 
ATOM      7  N   UNL     1      -2.617  47.521 -14.437  1.00  0.00    -0.361 N 
ATOM      8  C   UNL     1      -4.876  50.257 -14.620  1.00  0.00     0.056 A 
ATOM      9  C   UNL     1      -4.147  51.313 -14.029  1.00  0.00     0.116 A 
ATOM     10  H   UNL     1      -1.706  47.082 -14.181  1.00  0.00     0.166 HD
ENDROOT
BRANCH   9  11
ATOM     11  O   UNL     1      -4.712  52.581 -13.914  1.00  0.00    -0.508 OA
ATOM     12  H   UNL     1      -5.646  52.776 -14.253  1.00  0.00     0.293 HD
ENDBRANCH   9  11
TORSDOF 1
ENDMDL
MODEL 6
REMARK VINA RESULT:    -4.751      1.196      2.020
REMARK INTER + INTRA:          -4.890
REMARK INTER:                  -4.890
REMARK INTRA:                   0.000
REMARK UNBOUND:                 0.000
REMARK SMILES Oc1ccc2[nH]ccc2c1
REMARK SMILES IDX 3 1 4 2 5 3 9 4 8 5 7 6 6 7 10 8 2 9 1 11
REMARK H PARENT 6 10 1 12
REMARK Flexibility Score: inf
ROOT
ATOM      1  C   UNL     1      -8.032  56.405  -3.573  1.00  0.00     0.048 A 
ATOM      2  C   UNL     1      -8.177  56.286  -4.967  1.00  0.00     0.030 A 
ATOM      3  C   UNL     1      -7.146  56.770  -5.771  1.00  0.00     0.046 A 
ATOM      4  C   UNL     1      -6.024  57.344  -5.236  1.00  0.00     0.003 A 
ATOM      5  C   UNL     1      -5.209  57.712  -6.284  1.00  0.00     0.028 A 
ATOM      6  C   UNL     1      -5.899  57.330  -7.431  1.00  0.00     0.083 A 
ATOM      7  N   UNL     1      -7.081  56.756  -7.113  1.00  0.00    -0.361 N 
ATOM      8  C   UNL     1      -5.850  57.477  -3.860  1.00  0.00     0.056 A 
ATOM      9  C   UNL     1      -6.875  56.998  -3.016  1.00  0.00     0.116 A 
ATOM     10  H   UNL     1      -7.794  56.380  -7.776  1.00  0.00     0.166 HD
ENDROOT
BRANCH   9  11
ATOM     11  O   UNL     1      -6.757  57.104  -1.633  1.00  0.00    -0.508 OA
ATOM     12  H   UNL     1      -7.314  56.532  -1.009  1.00  0.00     0.293 HD
ENDBRANCH   9  11
TORSDOF 1
ENDMDL
MODEL 7
REMARK VINA RESULT:    -4.686      6.995      7.647
REMARK INTER + INTRA:          -4.823
REMARK INTER:                  -4.823
REMARK INTRA:                   0.000
REMARK UNBOUND:                 0.000
REMARK SMILES Oc1ccc2[nH]ccc2c1
REMARK SMILES IDX 3 1 4 2 5 3 9 4 8 5 7 6 6 7 10 8 2 9 1 11
REMARK H PARENT 6 10 1 12
REMARK Flexibility Score: inf
ROOT
ATOM      1  C   UNL     1      -6.943  48.560  -6.830  1.00  0.00     0.048 A 
ATOM      2  C   UNL     1      -5.912  48.907  -5.937  1.00  0.00     0.030 A 
ATOM      3  C   UNL     1      -5.693  50.262  -5.694  1.00  0.00     0.046 A 
ATOM      4  C   UNL     1      -6.446  51.233  -6.297  1.00  0.00     0.003 A 
ATOM      5  C   UNL     1      -5.982  52.452  -5.851  1.00  0.00     0.028 A 
ATOM      6  C   UNL     1      -4.943  52.146  -4.977  1.00  0.00     0.083 A 
ATOM      7  N   UNL     1      -4.770  50.808  -4.884  1.00  0.00    -0.361 N 
ATOM      8  C   UNL     1      -7.473  50.923  -7.187  1.00  0.00     0.056 A 
ATOM      9  C   UNL     1      -7.722  49.560  -7.455  1.00  0.00     0.116 A 
ATOM     10  H   UNL     1      -4.064  50.306  -4.302  1.00  0.00     0.166 HD
ENDROOT
BRANCH   9  11
ATOM     11  O   UNL     1      -8.736  49.189  -8.336  1.00  0.00    -0.508 OA
ATOM     12  H   UNL     1      -9.547  49.776  -8.486  1.00  0.00     0.293 HD
ENDBRANCH   9  11
TORSDOF 1
ENDMDL
MODEL 8
REMARK VINA RESULT:    -4.634     11.947     12.768
REMARK INTER + INTRA:          -4.769
REMARK INTER:                  -4.769
REMARK INTRA:                   0.000
REMARK UNBOUND:                 0.000
REMARK SMILES Oc1ccc2[nH]ccc2c1
REMARK SMILES IDX 3 1 4 2 5 3 9 4 8 5 7 6 6 7 10 8 2 9 1 11
REMARK H PARENT 6 10 1 12
REMARK Flexibility Score: inf
ROOT
ATOM      1  C   UNL     1      -2.639  49.234 -13.575  1.00  0.00     0.048 A 
ATOM      2  C   UNL     1      -3.268  50.491 -13.642  1.00  0.00     0.030 A 
ATOM      3  C   UNL     1      -4.408  50.605 -14.436  1.00  0.00     0.046 A 
ATOM      4  C   UNL     1      -4.910  49.539 -15.133  1.00  0.00     0.003 A 
ATOM      5  C   UNL     1      -6.028  49.977 -15.809  1.00  0.00     0.028 A 
ATOM      6  C   UNL     1      -6.148  51.324 -15.477  1.00  0.00     0.083 A 
ATOM      7  N   UNL     1      -5.156  51.703 -14.638  1.00  0.00    -0.361 N 
ATOM      8  C   UNL     1      -4.311  48.282 -15.089  1.00  0.00     0.056 A 
ATOM      9  C   UNL     1      -3.154  48.131 -14.294  1.00  0.00     0.116 A 
ATOM     10  H   UNL     1      -5.007  52.653 -14.233  1.00  0.00     0.166 HD
ENDROOT
BRANCH   9  11
ATOM     11  O   UNL     1      -2.511  46.898 -14.211  1.00  0.00    -0.508 OA
ATOM     12  H   UNL     1      -2.553  46.228 -14.969  1.00  0.00     0.293 HD
ENDBRANCH   9  11
TORSDOF 1
ENDMDL
MODEL 9
REMARK VINA RESULT:    -4.607      2.381      2.995
REMARK INTER + INTRA:          -4.742
REMARK INTER:                  -4.742
REMARK INTRA:                   0.000
REMARK UNBOUND:                 0.000
REMARK SMILES Oc1ccc2[nH]ccc2c1
REMARK SMILES IDX 3 1 4 2 5 3 9 4 8 5 7 6 6 7 10 8 2 9 1 11
REMARK H PARENT 6 10 1 12
REMARK Flexibility Score: inf
ROOT
ATOM      1  C   UNL     1      -6.658  56.991  -3.758  1.00  0.00     0.048 A 
ATOM      2  C   UNL     1      -7.900  56.481  -4.179  1.00  0.00     0.030 A 
ATOM      3  C   UNL     1      -8.239  56.627  -5.523  1.00  0.00     0.046 A 
ATOM      4  C   UNL     1      -7.403  57.243  -6.415  1.00  0.00     0.003 A 
ATOM      5  C   UNL     1      -8.025  57.224  -7.645  1.00  0.00     0.028 A 
ATOM      6  C   UNL     1      -9.239  56.578  -7.427  1.00  0.00     0.083 A 
ATOM      7  N   UNL     1      -9.366  56.216  -6.130  1.00  0.00    -0.361 N 
ATOM      8  C   UNL     1      -6.168  57.759  -6.031  1.00  0.00     0.056 A 
ATOM      9  C   UNL     1      -5.792  57.629  -4.676  1.00  0.00     0.116 A 
ATOM     10  H   UNL     1     -10.173  55.719  -5.694  1.00  0.00     0.166 HD
ENDROOT
BRANCH   9  11
ATOM     11  O   UNL     1      -4.568  58.125  -4.233  1.00  0.00    -0.508 OA
ATOM     12  H   UNL     1      -4.226  59.031  -4.530  1.00  0.00     0.293 HD
ENDBRANCH   9  11
TORSDOF 1
ENDMDL
