MODEL 1
REMARK VINA RESULT:    -4.212      0.000      0.000
REMARK INTER + INTRA:          -7.915
REMARK INTER:                  -6.551
REMARK INTRA:                  -1.364
REMARK UNBOUND:                -1.364
REMARK SMILES COc1cc(CNC(=O)CCCCC=CC(C)C)ccc1O
REMARK SMILES IDX 11 1 12 2 13 3 14 4 15 5 16 6 17 7 18 8 10 9 8 10 9 11 7 12
REMARK SMILES IDX 6 14 5 15 4 16 19 17 3 18 20 19 21 20 2 21 1 22 22 23
REMARK H PARENT 7 13 22 24
REMARK Flexibility Score: inf
ROOT
ATOM      1  C   UNL     1     125.535 119.969 108.384  1.00  0.00     0.010 C 
ENDROOT
BRANCH   1   2
ATOM      2  C   UNL     1     124.591 120.893 109.162  1.00  0.00     0.005 C 
BRANCH   2   3
ATOM      3  C   UNL     1     124.133 122.070 108.290  1.00  0.00     0.027 C 
BRANCH   3   4
ATOM      4  C   UNL     1     124.311 123.383 109.001  1.00  0.00    -0.031 C 
ATOM      5  C   UNL     1     124.188 123.489 110.333  1.00  0.00    -0.028 C 
BRANCH   5   6
ATOM      6  C   UNL     1     124.390 124.811 111.036  1.00  0.00     0.005 C 
ATOM      7  C   UNL     1     124.473 124.604 112.552  1.00  0.00     0.012 C 
ATOM      8  C   UNL     1     123.258 125.783 110.687  1.00  0.00     0.012 C 
ENDBRANCH   5   6
ENDBRANCH   3   4
ENDBRANCH   2   3
ENDBRANCH   1   2
BRANCH   1   9
ATOM      9  C   UNL     1     126.860 119.776 109.129  1.00  0.00     0.100 C 
BRANCH   9  10
ATOM     10  C   UNL     1     127.943 120.583 108.480  1.00  0.00     0.220 C 
ATOM     11  O   UNL     1     128.737 120.024 107.677  1.00  0.00    -0.275 OA
ATOM     12  N   UNL     1     128.102 121.970 108.810  1.00  0.00    -0.352 N 
ATOM     13  H   UNL     1     127.391 122.436 109.421  1.00  0.00     0.163 HD
BRANCH  12  14
ATOM     14  C   UNL     1     129.282 122.738 108.418  1.00  0.00     0.151 C 
BRANCH  14  15
ATOM     15  C   UNL     1     129.054 124.198 108.696  1.00  0.00    -0.025 A 
ATOM     16  C   UNL     1     129.822 125.166 108.030  1.00  0.00     0.056 A 
ATOM     17  C   UNL     1     128.034 124.608 109.566  1.00  0.00     0.009 A 
ATOM     18  C   UNL     1     129.589 126.540 108.243  1.00  0.00     0.160 A 
ATOM     19  C   UNL     1     127.798 125.967 109.783  1.00  0.00     0.050 A 
ATOM     20  C   UNL     1     128.569 126.933 109.130  1.00  0.00     0.157 A 
BRANCH  18  21
ATOM     21  O   UNL     1     130.341 127.533 107.592  1.00  0.00    -0.493 OA
ATOM     22  C   UNL     1     130.177 127.903 106.227  1.00  0.00     0.278 C 
ENDBRANCH  18  21
BRANCH  20  23
ATOM     23  O   UNL     1     128.305 128.281 109.372  1.00  0.00    -0.504 OA
ATOM     24  H   UNL     1     127.422 128.599 109.755  1.00  0.00     0.293 HD
ENDBRANCH  20  23
ENDBRANCH  14  15
ENDBRANCH  12  14
ENDBRANCH   9  10
ENDBRANCH   1   9
TORSDOF 10
ENDMDL
MODEL 2
REMARK VINA RESULT:    -4.180      4.184      6.474
REMARK INTER + INTRA:          -7.866
REMARK INTER:                  -6.696
REMARK INTRA:                  -1.169
REMARK UNBOUND:                -1.364
REMARK SMILES COc1cc(CNC(=O)CCCCC=CC(C)C)ccc1O
REMARK SMILES IDX 11 1 12 2 13 3 14 4 15 5 16 6 17 7 18 8 10 9 8 10 9 11 7 12
REMARK SMILES IDX 6 14 5 15 4 16 19 17 3 18 20 19 21 20 2 21 1 22 22 23
REMARK H PARENT 7 13 22 24
REMARK Flexibility Score: inf
ROOT
ATOM      1  C   UNL     1     128.732 126.478 109.382  1.00  0.00     0.010 C 
ENDROOT
BRANCH   1   2
ATOM      2  C   UNL     1     127.609 125.664 108.728  1.00  0.00     0.005 C 
BRANCH   2   3
ATOM      3  C   UNL     1     127.602 124.221 109.251  1.00  0.00     0.027 C 
BRANCH   3   4
ATOM      4  C   UNL     1     126.356 123.928 110.040  1.00  0.00    -0.031 C 
ATOM      5  C   UNL     1     125.498 124.897 110.395  1.00  0.00    -0.028 C 
BRANCH   5   6
ATOM      6  C   UNL     1     124.239 124.584 111.170  1.00  0.00     0.005 C 
ATOM      7  C   UNL     1     123.107 125.531 110.755  1.00  0.00     0.012 C 
ATOM      8  C   UNL     1     124.497 124.683 112.677  1.00  0.00     0.012 C 
ENDBRANCH   5   6
ENDBRANCH   3   4
ENDBRANCH   2   3
ENDBRANCH   1   2
BRANCH   1   9
ATOM      9  C   UNL     1     129.447 127.361 108.356  1.00  0.00     0.100 C 
BRANCH   9  10
ATOM     10  C   UNL     1     128.527 128.437 107.865  1.00  0.00     0.220 C 
ATOM     11  O   UNL     1     128.502 128.719 106.637  1.00  0.00    -0.275 OA
ATOM     12  N   UNL     1     127.718 129.172 108.795  1.00  0.00    -0.352 N 
ATOM     13  H   UNL     1     127.696 128.876 109.798  1.00  0.00     0.163 HD
BRANCH  12  14
ATOM     14  C   UNL     1     127.005 130.390 108.420  1.00  0.00     0.151 C 
BRANCH  14  15
ATOM     15  C   UNL     1     125.521 130.151 108.483  1.00  0.00    -0.025 A 
ATOM     16  C   UNL     1     124.652 130.931 107.705  1.00  0.00     0.056 A 
ATOM     17  C   UNL     1     125.000 129.110 109.263  1.00  0.00     0.009 A 
ATOM     18  C   UNL     1     123.263 130.689 107.717  1.00  0.00     0.160 A 
ATOM     19  C   UNL     1     123.625 128.864 109.281  1.00  0.00     0.050 A 
ATOM     20  C   UNL     1     122.756 129.647 108.516  1.00  0.00     0.157 A 
BRANCH  18  21
ATOM     21  O   UNL     1     122.367 131.453 106.950  1.00  0.00    -0.493 OA
ATOM     22  C   UNL     1     122.418 132.870 106.824  1.00  0.00     0.278 C 
ENDBRANCH  18  21
BRANCH  20  23
ATOM     23  O   UNL     1     121.389 129.373 108.559  1.00  0.00    -0.504 OA
ATOM     24  H   UNL     1     120.705 130.073 108.824  1.00  0.00     0.293 HD
ENDBRANCH  20  23
ENDBRANCH  14  15
ENDBRANCH  12  14
ENDBRANCH   9  10
ENDBRANCH   1   9
TORSDOF 10
ENDMDL
MODEL 3
REMARK VINA RESULT:    -4.158      4.617      7.140
REMARK INTER + INTRA:          -7.832
REMARK INTER:                  -6.396
REMARK INTRA:                  -1.436
REMARK UNBOUND:                -1.364
REMARK SMILES COc1cc(CNC(=O)CCCCC=CC(C)C)ccc1O
REMARK SMILES IDX 11 1 12 2 13 3 14 4 15 5 16 6 17 7 18 8 10 9 8 10 9 11 7 12
REMARK SMILES IDX 6 14 5 15 4 16 19 17 3 18 20 19 21 20 2 21 1 22 22 23
REMARK H PARENT 7 13 22 24
REMARK Flexibility Score: inf
ROOT
ATOM      1  C   UNL     1     124.628 120.184 109.279  1.00  0.00     0.010 C 
ENDROOT
BRANCH   1   2
ATOM      2  C   UNL     1     126.130 120.480 109.361  1.00  0.00     0.005 C 
BRANCH   2   3
ATOM      3  C   UNL     1     126.418 121.950 109.028  1.00  0.00     0.027 C 
BRANCH   3   4
ATOM      4  C   UNL     1     125.329 122.853 109.538  1.00  0.00    -0.031 C 
ATOM      5  C   UNL     1     125.462 123.549 110.678  1.00  0.00    -0.028 C 
BRANCH   5   6
ATOM      6  C   UNL     1     124.367 124.469 111.165  1.00  0.00     0.005 C 
ATOM      7  C   UNL     1     124.451 125.825 110.453  1.00  0.00     0.012 C 
ATOM      8  C   UNL     1     124.458 124.654 112.683  1.00  0.00     0.012 C 
ENDBRANCH   5   6
ENDBRANCH   3   4
ENDBRANCH   2   3
ENDBRANCH   1   2
BRANCH   1   9
ATOM      9  C   UNL     1     124.304 119.286 108.081  1.00  0.00     0.100 C 
BRANCH   9  10
ATOM     10  C   UNL     1     122.868 119.448 107.685  1.00  0.00     0.220 C 
ATOM     11  O   UNL     1     122.542 119.332 106.473  1.00  0.00    -0.275 OA
ATOM     12  N   UNL     1     121.881 119.779 108.673  1.00  0.00    -0.352 N 
ATOM     13  H   UNL     1     122.155 119.798 109.683  1.00  0.00     0.163 HD
BRANCH  12  14
ATOM     14  C   UNL     1     120.528 120.201 108.318  1.00  0.00     0.151 C 
BRANCH  14  15
ATOM     15  C   UNL     1     120.400 121.690 108.484  1.00  0.00    -0.025 A 
ATOM     16  C   UNL     1     119.285 122.359 107.955  1.00  0.00     0.056 A 
ATOM     17  C   UNL     1     121.350 122.410 109.220  1.00  0.00     0.009 A 
ATOM     18  C   UNL     1     119.126 123.748 108.142  1.00  0.00     0.160 A 
ATOM     19  C   UNL     1     121.199 123.785 109.409  1.00  0.00     0.050 A 
ATOM     20  C   UNL     1     120.096 124.457 108.874  1.00  0.00     0.157 A 
BRANCH  18  21
ATOM     21  O   UNL     1     118.022 124.447 107.625  1.00  0.00    -0.493 OA
ATOM     22  C   UNL     1     117.821 124.729 106.245  1.00  0.00     0.278 C 
ENDBRANCH  18  21
BRANCH  20  23
ATOM     23  O   UNL     1     119.979 125.831 109.083  1.00  0.00    -0.504 OA
ATOM     24  H   UNL     1     119.236 126.232 109.644  1.00  0.00     0.293 HD
ENDBRANCH  20  23
ENDBRANCH  14  15
ENDBRANCH  12  14
ENDBRANCH   9  10
ENDBRANCH   1   9
TORSDOF 10
ENDMDL
MODEL 4
REMARK VINA RESULT:    -4.114      4.077      6.123
REMARK INTER + INTRA:          -7.763
REMARK INTER:                  -6.662
REMARK INTRA:                  -1.101
REMARK UNBOUND:                -1.364
REMARK SMILES COc1cc(CNC(=O)CCCCC=CC(C)C)ccc1O
REMARK SMILES IDX 11 1 12 2 13 3 14 4 15 5 16 6 17 7 18 8 10 9 8 10 9 11 7 12
REMARK SMILES IDX 6 14 5 15 4 16 19 17 3 18 20 19 21 20 2 21 1 22 22 23
REMARK H PARENT 7 13 22 24
REMARK Flexibility Score: inf
ROOT
ATOM      1  C   UNL     1     121.041 122.955 109.426  1.00  0.00     0.010 C 
ENDROOT
BRANCH   1   2
ATOM      2  C   UNL     1     120.487 124.331 109.040  1.00  0.00     0.005 C 
BRANCH   2   3
ATOM      3  C   UNL     1     121.563 125.416 109.185  1.00  0.00     0.027 C 
BRANCH   3   4
ATOM      4  C   UNL     1     122.804 124.876 109.842  1.00  0.00    -0.031 C 
ATOM      5  C   UNL     1     123.484 125.582 110.758  1.00  0.00    -0.028 C 
BRANCH   5   6
ATOM      6  C   UNL     1     124.717 125.017 111.425  1.00  0.00     0.005 C 
ATOM      7  C   UNL     1     125.277 123.846 110.608  1.00  0.00     0.012 C 
ATOM      8  C   UNL     1     124.397 124.570 112.855  1.00  0.00     0.012 C 
ENDBRANCH   5   6
ENDBRANCH   3   4
ENDBRANCH   2   3
ENDBRANCH   1   2
BRANCH   1   9
ATOM      9  C   UNL     1     120.445 121.850 108.548  1.00  0.00     0.100 C 
BRANCH   9  10
ATOM     10  C   UNL     1     121.538 121.045 107.914  1.00  0.00     0.220 C 
ATOM     11  O   UNL     1     121.851 121.262 106.712  1.00  0.00    -0.275 OA
ATOM     12  N   UNL     1     122.187 120.003 108.656  1.00  0.00    -0.352 N 
ATOM     13  H   UNL     1     121.967 119.885 109.672  1.00  0.00     0.163 HD
BRANCH  12  14
ATOM     14  C   UNL     1     123.066 119.022 108.024  1.00  0.00     0.151 C 
BRANCH  14  15
ATOM     15  C   UNL     1     124.502 119.362 108.315  1.00  0.00    -0.025 A 
ATOM     16  C   UNL     1     125.518 118.892 107.470  1.00  0.00     0.056 A 
ATOM     17  C   UNL     1     124.831 120.202 109.388  1.00  0.00     0.009 A 
ATOM     18  C   UNL     1     126.865 119.240 107.703  1.00  0.00     0.160 A 
ATOM     19  C   UNL     1     126.163 120.551 109.625  1.00  0.00     0.050 A 
ATOM     20  C   UNL     1     127.178 120.075 108.792  1.00  0.00     0.157 A 
BRANCH  18  21
ATOM     21  O   UNL     1     127.905 118.785 106.875  1.00  0.00    -0.493 OA
ATOM     22  C   UNL     1     128.262 119.376 105.630  1.00  0.00     0.278 C 
ENDBRANCH  18  21
BRANCH  20  23
ATOM     23  O   UNL     1     128.497 120.444 109.060  1.00  0.00    -0.504 OA
ATOM     24  H   UNL     1     129.047 119.998 109.785  1.00  0.00     0.293 HD
ENDBRANCH  20  23
ENDBRANCH  14  15
ENDBRANCH  12  14
ENDBRANCH   9  10
ENDBRANCH   1   9
TORSDOF 10
ENDMDL
MODEL 5
REMARK VINA RESULT:    -4.102      1.595      2.510
REMARK INTER + INTRA:          -7.744
REMARK INTER:                  -6.292
REMARK INTRA:                  -1.452
REMARK UNBOUND:                -1.364
REMARK SMILES COc1cc(CNC(=O)CCCCC=CC(C)C)ccc1O
REMARK SMILES IDX 11 1 12 2 13 3 14 4 15 5 16 6 17 7 18 8 10 9 8 10 9 11 7 12
REMARK SMILES IDX 6 14 5 15 4 16 19 17 3 18 20 19 21 20 2 21 1 22 22 23
REMARK H PARENT 7 13 22 24
REMARK Flexibility Score: inf
ROOT
ATOM      1  C   UNL     1     123.690 122.555 108.647  1.00  0.00     0.010 C 
ENDROOT
BRANCH   1   2
ATOM      2  C   UNL     1     122.764 123.259 109.645  1.00  0.00     0.005 C 
BRANCH   2   3
ATOM      3  C   UNL     1     123.568 124.134 110.616  1.00  0.00     0.027 C 
BRANCH   3   4
ATOM      4  C   UNL     1     123.136 125.573 110.546  1.00  0.00    -0.031 C 
ATOM      5  C   UNL     1     123.779 126.469 109.781  1.00  0.00    -0.028 C 
BRANCH   5   6
ATOM      6  C   UNL     1     123.320 127.907 109.705  1.00  0.00     0.005 C 
ATOM      7  C   UNL     1     121.978 128.001 108.970  1.00  0.00     0.012 C 
ATOM      8  C   UNL     1     124.375 128.771 109.008  1.00  0.00     0.012 C 
ENDBRANCH   5   6
ENDBRANCH   3   4
ENDBRANCH   2   3
ENDBRANCH   1   2
BRANCH   1   9
ATOM      9  C   UNL     1     124.303 121.290 109.256  1.00  0.00     0.100 C 
BRANCH   9  10
ATOM     10  C   UNL     1     125.798 121.361 109.205  1.00  0.00     0.220 C 
ATOM     11  O   UNL     1     126.482 120.570 109.909  1.00  0.00    -0.275 OA
ATOM     12  N   UNL     1     126.445 122.355 108.397  1.00  0.00    -0.352 N 
ATOM     13  H   UNL     1     125.866 122.954 107.763  1.00  0.00     0.163 HD
BRANCH  12  14
ATOM     14  C   UNL     1     127.873 122.644 108.503  1.00  0.00     0.151 C 
BRANCH  14  15
ATOM     15  C   UNL     1     128.076 124.103 108.807  1.00  0.00    -0.025 A 
ATOM     16  C   UNL     1     129.228 124.759 108.347  1.00  0.00     0.056 A 
ATOM     17  C   UNL     1     127.093 124.833 109.488  1.00  0.00     0.009 A 
ATOM     18  C   UNL     1     129.412 126.138 108.583  1.00  0.00     0.160 A 
ATOM     19  C   UNL     1     127.268 126.198 109.725  1.00  0.00     0.050 A 
ATOM     20  C   UNL     1     128.420 126.852 109.279  1.00  0.00     0.157 A 
BRANCH  18  21
ATOM     21  O   UNL     1     130.554 126.824 108.136  1.00  0.00    -0.493 OA
ATOM     22  C   UNL     1     130.766 127.250 106.795  1.00  0.00     0.278 C 
ENDBRANCH  18  21
BRANCH  20  23
ATOM     23  O   UNL     1     128.560 128.217 109.535  1.00  0.00    -0.504 OA
ATOM     24  H   UNL     1     128.139 128.924 108.943  1.00  0.00     0.293 HD
ENDBRANCH  20  23
ENDBRANCH  14  15
ENDBRANCH  12  14
ENDBRANCH   9  10
ENDBRANCH   1   9
TORSDOF 10
ENDMDL
MODEL 6
REMARK VINA RESULT:    -4.040      3.471      5.705
REMARK INTER + INTRA:          -7.649
REMARK INTER:                  -5.747
REMARK INTRA:                  -1.902
REMARK UNBOUND:                -1.364
REMARK SMILES COc1cc(CNC(=O)CCCCC=CC(C)C)ccc1O
REMARK SMILES IDX 11 1 12 2 13 3 14 4 15 5 16 6 17 7 18 8 10 9 8 10 9 11 7 12
REMARK SMILES IDX 6 14 5 15 4 16 19 17 3 18 20 19 21 20 2 21 1 22 22 23
REMARK H PARENT 7 13 22 24
REMARK Flexibility Score: inf
ROOT
ATOM      1  C   UNL     1     127.110 121.224 108.642  1.00  0.00     0.010 C 
ENDROOT
BRANCH   1   2
ATOM      2  C   UNL     1     126.640 122.646 108.318  1.00  0.00     0.005 C 
BRANCH   2   3
ATOM      3  C   UNL     1     127.252 123.661 109.294  1.00  0.00     0.027 C 
BRANCH   3   4
ATOM      4  C   UNL     1     126.193 124.331 110.127  1.00  0.00    -0.031 C 
ATOM      5  C   UNL     1     124.934 123.869 110.176  1.00  0.00    -0.028 C 
BRANCH   5   6
ATOM      6  C   UNL     1     123.887 124.540 111.034  1.00  0.00     0.005 C 
ATOM      7  C   UNL     1     123.587 125.949 110.507  1.00  0.00     0.012 C 
ATOM      8  C   UNL     1     124.347 124.600 112.494  1.00  0.00     0.012 C 
ENDBRANCH   5   6
ENDBRANCH   3   4
ENDBRANCH   2   3
ENDBRANCH   1   2
BRANCH   1   9
ATOM      9  C   UNL     1     126.070 120.473 109.479  1.00  0.00     0.100 C 
BRANCH   9  10
ATOM     10  C   UNL     1     124.795 120.318 108.707  1.00  0.00     0.220 C 
ATOM     11  O   UNL     1     124.819 119.767 107.574  1.00  0.00    -0.275 OA
ATOM     12  N   UNL     1     123.567 120.839 109.235  1.00  0.00    -0.352 N 
ATOM     13  H   UNL     1     123.551 121.226 110.207  1.00  0.00     0.163 HD
BRANCH  12  14
ATOM     14  C   UNL     1     122.354 120.951 108.429  1.00  0.00     0.151 C 
BRANCH  14  15
ATOM     15  C   UNL     1     121.769 122.329 108.579  1.00  0.00    -0.025 A 
ATOM     16  C   UNL     1     122.166 123.356 107.709  1.00  0.00     0.056 A 
ATOM     17  C   UNL     1     120.780 122.583 109.538  1.00  0.00     0.009 A 
ATOM     18  C   UNL     1     121.593 124.641 107.806  1.00  0.00     0.160 A 
ATOM     19  C   UNL     1     120.208 123.853 109.641  1.00  0.00     0.050 A 
ATOM     20  C   UNL     1     120.609 124.881 108.783  1.00  0.00     0.157 A 
BRANCH  18  21
ATOM     21  O   UNL     1     121.969 125.690 106.950  1.00  0.00    -0.493 OA
ATOM     22  C   UNL     1     123.305 125.950 106.532  1.00  0.00     0.278 C 
ENDBRANCH  18  21
BRANCH  20  23
ATOM     23  O   UNL     1     120.017 126.137 108.915  1.00  0.00    -0.504 OA
ATOM     24  H   UNL     1     119.584 126.443 109.779  1.00  0.00     0.293 HD
ENDBRANCH  20  23
ENDBRANCH  14  15
ENDBRANCH  12  14
ENDBRANCH   9  10
ENDBRANCH   1   9
TORSDOF 10
ENDMDL
MODEL 7
REMARK VINA RESULT:    -4.040      3.633      6.416
REMARK INTER + INTRA:          -7.648
REMARK INTER:                  -5.693
REMARK INTRA:                  -1.955
REMARK UNBOUND:                -1.364
REMARK SMILES COc1cc(CNC(=O)CCCCC=CC(C)C)ccc1O
REMARK SMILES IDX 11 1 12 2 13 3 14 4 15 5 16 6 17 7 18 8 10 9 8 10 9 11 7 12
REMARK SMILES IDX 6 14 5 15 4 16 19 17 3 18 20 19 21 20 2 21 1 22 22 23
REMARK H PARENT 7 13 22 24
REMARK Flexibility Score: inf
ROOT
ATOM      1  C   UNL     1     119.873 126.529 107.472  1.00  0.00     0.010 C 
ENDROOT
BRANCH   1   2
ATOM      2  C   UNL     1     119.096 125.372 108.110  1.00  0.00     0.005 C 
BRANCH   2   3
ATOM      3  C   UNL     1     120.004 124.543 109.028  1.00  0.00     0.027 C 
BRANCH   3   4
ATOM      4  C   UNL     1     121.162 123.953 108.270  1.00  0.00    -0.031 C 
ATOM      5  C   UNL     1     121.802 122.853 108.698  1.00  0.00    -0.028 C 
BRANCH   5   6
ATOM      6  C   UNL     1     122.949 122.260 107.914  1.00  0.00     0.005 C 
ATOM      7  C   UNL     1     123.772 121.318 108.801  1.00  0.00     0.012 C 
ATOM      8  C   UNL     1     123.836 123.369 107.339  1.00  0.00     0.012 C 
ENDBRANCH   5   6
ENDBRANCH   3   4
ENDBRANCH   2   3
ENDBRANCH   1   2
BRANCH   1   9
ATOM      9  C   UNL     1     119.782 127.798 108.326  1.00  0.00     0.100 C 
BRANCH   9  10
ATOM     10  C   UNL     1     121.153 128.291 108.671  1.00  0.00     0.220 C 
ATOM     11  O   UNL     1     121.555 129.388 108.198  1.00  0.00    -0.275 OA
ATOM     12  N   UNL     1     122.019 127.495 109.494  1.00  0.00    -0.352 N 
ATOM     13  H   UNL     1     121.645 126.625 109.937  1.00  0.00     0.163 HD
BRANCH  12  14
ATOM     14  C   UNL     1     123.440 127.792 109.651  1.00  0.00     0.151 C 
BRANCH  14  15
ATOM     15  C   UNL     1     124.202 126.520 109.903  1.00  0.00    -0.025 A 
ATOM     16  C   UNL     1     125.519 126.389 109.439  1.00  0.00     0.056 A 
ATOM     17  C   UNL     1     123.630 125.485 110.656  1.00  0.00     0.009 A 
ATOM     18  C   UNL     1     126.263 125.221 109.708  1.00  0.00     0.160 A 
ATOM     19  C   UNL     1     124.360 124.325 110.925  1.00  0.00     0.050 A 
ATOM     20  C   UNL     1     125.669 124.187 110.455  1.00  0.00     0.157 A 
BRANCH  18  21
ATOM     21  O   UNL     1     127.584 125.059 109.257  1.00  0.00    -0.493 OA
ATOM     22  C   UNL     1     128.392 126.109 108.734  1.00  0.00     0.278 C 
ENDBRANCH  18  21
BRANCH  20  23
ATOM     23  O   UNL     1     126.367 123.014 110.743  1.00  0.00    -0.504 OA
ATOM     24  H   UNL     1     126.909 122.902 111.592  1.00  0.00     0.293 HD
ENDBRANCH  20  23
ENDBRANCH  14  15
ENDBRANCH  12  14
ENDBRANCH   9  10
ENDBRANCH   1   9
TORSDOF 10
ENDMDL
MODEL 8
REMARK VINA RESULT:    -4.025      4.333      6.825
REMARK INTER + INTRA:          -7.624
REMARK INTER:                  -5.413
REMARK INTRA:                  -2.212
REMARK UNBOUND:                -1.364
REMARK SMILES COc1cc(CNC(=O)CCCCC=CC(C)C)ccc1O
REMARK SMILES IDX 11 1 12 2 13 3 14 4 15 5 16 6 17 7 18 8 10 9 8 10 9 11 7 12
REMARK SMILES IDX 6 14 5 15 4 16 19 17 3 18 20 19 21 20 2 21 1 22 22 23
REMARK H PARENT 7 13 22 24
REMARK Flexibility Score: inf
ROOT
ATOM      1  C   UNL     1     119.127 126.060 107.877  1.00  0.00     0.010 C 
ENDROOT
BRANCH   1   2
ATOM      2  C   UNL     1     119.823 125.121 108.868  1.00  0.00     0.005 C 
BRANCH   2   3
ATOM      3  C   UNL     1     121.273 124.851 108.443  1.00  0.00     0.027 C 
BRANCH   3   4
ATOM      4  C   UNL     1     122.164 124.632 109.635  1.00  0.00    -0.031 C 
ATOM      5  C   UNL     1     123.291 123.908 109.552  1.00  0.00    -0.028 C 
BRANCH   5   6
ATOM      6  C   UNL     1     124.187 123.715 110.753  1.00  0.00     0.005 C 
ATOM      7  C   UNL     1     124.079 124.916 111.699  1.00  0.00     0.012 C 
ATOM      8  C   UNL     1     125.640 123.509 110.311  1.00  0.00     0.012 C 
ENDBRANCH   5   6
ENDBRANCH   3   4
ENDBRANCH   2   3
ENDBRANCH   1   2
BRANCH   1   9
ATOM      9  C   UNL     1     118.767 127.395 108.537  1.00  0.00     0.100 C 
BRANCH   9  10
ATOM     10  C   UNL     1     119.879 128.382 108.355  1.00  0.00     0.220 C 
ATOM     11  O   UNL     1     119.869 129.151 107.356  1.00  0.00    -0.275 OA
ATOM     12  N   UNL     1     120.971 128.416 109.285  1.00  0.00    -0.352 N 
ATOM     13  H   UNL     1     120.928 127.823 110.146  1.00  0.00     0.163 HD
BRANCH  12  14
ATOM     14  C   UNL     1     122.199 129.164 109.024  1.00  0.00     0.151 C 
BRANCH  14  15
ATOM     15  C   UNL     1     123.317 128.211 108.702  1.00  0.00    -0.025 A 
ATOM     16  C   UNL     1     123.337 127.548 107.465  1.00  0.00     0.056 A 
ATOM     17  C   UNL     1     124.378 128.027 109.599  1.00  0.00     0.009 A 
ATOM     18  C   UNL     1     124.403 126.688 107.128  1.00  0.00     0.160 A 
ATOM     19  C   UNL     1     125.436 127.176 109.273  1.00  0.00     0.050 A 
ATOM     20  C   UNL     1     125.454 126.506 108.047  1.00  0.00     0.157 A 
BRANCH  18  21
ATOM     21  O   UNL     1     124.452 126.010 105.898  1.00  0.00    -0.493 OA
ATOM     22  C   UNL     1     123.789 124.780 105.629  1.00  0.00     0.278 C 
ENDBRANCH  18  21
BRANCH  20  23
ATOM     23  O   UNL     1     126.527 125.664 107.755  1.00  0.00    -0.504 OA
ATOM     24  H   UNL     1     126.894 125.561 106.816  1.00  0.00     0.293 HD
ENDBRANCH  20  23
ENDBRANCH  14  15
ENDBRANCH  12  14
ENDBRANCH   9  10
ENDBRANCH   1   9
TORSDOF 10
ENDMDL
MODEL 9
REMARK VINA RESULT:    -4.023      3.056      6.521
REMARK INTER + INTRA:          -7.622
REMARK INTER:                  -6.152
REMARK INTRA:                  -1.470
REMARK UNBOUND:                -1.364
REMARK SMILES COc1cc(CNC(=O)CCCCC=CC(C)C)ccc1O
REMARK SMILES IDX 11 1 12 2 13 3 14 4 15 5 16 6 17 7 18 8 10 9 8 10 9 11 7 12
REMARK SMILES IDX 6 14 5 15 4 16 19 17 3 18 20 19 21 20 2 21 1 22 22 23
REMARK H PARENT 7 13 22 24
REMARK Flexibility Score: inf
ROOT
ATOM      1  C   UNL     1     121.899 125.416 108.582  1.00  0.00     0.010 C 
ENDROOT
BRANCH   1   2
ATOM      2  C   UNL     1     123.011 126.192 109.296  1.00  0.00     0.005 C 
BRANCH   2   3
ATOM      3  C   UNL     1     123.557 125.394 110.488  1.00  0.00     0.027 C 
BRANCH   3   4
ATOM      4  C   UNL     1     125.042 125.580 110.642  1.00  0.00    -0.031 C 
ATOM      5  C   UNL     1     125.842 125.788 109.585  1.00  0.00    -0.028 C 
BRANCH   5   6
ATOM      6  C   UNL     1     127.329 125.995 109.757  1.00  0.00     0.005 C 
ATOM      7  C   UNL     1     127.791 127.231 108.977  1.00  0.00     0.012 C 
ATOM      8  C   UNL     1     128.100 124.753 109.300  1.00  0.00     0.012 C 
ENDBRANCH   5   6
ENDBRANCH   3   4
ENDBRANCH   2   3
ENDBRANCH   1   2
BRANCH   1   9
ATOM      9  C   UNL     1     121.147 124.501 109.553  1.00  0.00     0.100 C 
BRANCH   9  10
ATOM     10  C   UNL     1     121.313 123.068 109.150  1.00  0.00     0.220 C 
ATOM     11  O   UNL     1     120.529 122.198 109.617  1.00  0.00    -0.275 OA
ATOM     12  N   UNL     1     122.386 122.684 108.279  1.00  0.00    -0.352 N 
ATOM     13  H   UNL     1     122.981 123.427 107.843  1.00  0.00     0.163 HD
BRANCH  12  14
ATOM     14  C   UNL     1     122.756 121.288 108.059  1.00  0.00     0.151 C 
BRANCH  14  15
ATOM     15  C   UNL     1     124.172 121.060 108.510  1.00  0.00    -0.025 A 
ATOM     16  C   UNL     1     124.861 119.908 108.097  1.00  0.00     0.056 A 
ATOM     17  C   UNL     1     124.837 122.020 109.285  1.00  0.00     0.009 A 
ATOM     18  C   UNL     1     126.205 119.702 108.473  1.00  0.00     0.160 A 
ATOM     19  C   UNL     1     126.168 121.822 109.660  1.00  0.00     0.050 A 
ATOM     20  C   UNL     1     126.852 120.671 109.261  1.00  0.00     0.157 A 
BRANCH  18  21
ATOM     21  O   UNL     1     126.921 118.560 108.077  1.00  0.00    -0.493 OA
ATOM     22  C   UNL     1     126.373 117.487 107.318  1.00  0.00     0.278 C 
ENDBRANCH  18  21
BRANCH  20  23
ATOM     23  O   UNL     1     128.181 120.507 109.656  1.00  0.00    -0.504 OA
ATOM     24  H   UNL     1     128.937 121.041 109.244  1.00  0.00     0.293 HD
ENDBRANCH  20  23
ENDBRANCH  14  15
ENDBRANCH  12  14
ENDBRANCH   9  10
ENDBRANCH   1   9
TORSDOF 10
ENDMDL
