MODEL 1
REMARK VINA RESULT:    -2.836      0.000      0.000
REMARK INTER + INTRA:         -13.152
REMARK INTER:                  -7.396
REMARK INTRA:                  -5.756
REMARK UNBOUND:                -5.756
REMARK SMILES CCCCCCCCCCCCCCCCCCCCCCCCCCCCCO
REMARK SMILES IDX 16 1 15 2 14 3 13 4 12 5 11 6 10 7 9 8 8 9 7 10 6 11 5 12
REMARK SMILES IDX 4 13 3 14 2 15 1 16 17 17 18 18 19 19 20 20 21 21 22 22
REMARK SMILES IDX 23 23 24 24 25 25 26 26 27 27 28 28 29 29 30 30
REMARK H PARENT 30 31
REMARK Flexibility Score: inf
ROOT
ATOM      1  C   UNL     1     139.876 139.994 142.278  1.00  0.00     0.000 C 
ENDROOT
BRANCH   1   2
ATOM      2  C   UNL     1     138.810 140.858 142.963  1.00  0.00     0.000 C 
BRANCH   2   3
ATOM      3  C   UNL     1     137.988 141.635 141.927  1.00  0.00     0.000 C 
BRANCH   3   4
ATOM      4  C   UNL     1     138.791 141.848 140.634  1.00  0.00     0.000 C 
BRANCH   4   5
ATOM      5  C   UNL     1     138.008 141.447 139.371  1.00  0.00     0.000 C 
BRANCH   5   6
ATOM      6  C   UNL     1     138.073 142.465 138.219  1.00  0.00     0.000 C 
BRANCH   6   7
ATOM      7  C   UNL     1     139.512 142.882 137.867  1.00  0.00     0.000 C 
BRANCH   7   8
ATOM      8  C   UNL     1     140.135 141.982 136.780  1.00  0.00    -0.000 C 
BRANCH   8   9
ATOM      9  C   UNL     1     141.260 142.656 135.968  1.00  0.00    -0.000 C 
BRANCH   9  10
ATOM     10  C   UNL     1     142.578 142.844 136.749  1.00  0.00    -0.000 C 
BRANCH  10  11
ATOM     11  C   UNL     1     143.763 142.123 136.083  1.00  0.00    -0.000 C 
BRANCH  11  12
ATOM     12  C   UNL     1     144.431 141.099 137.013  1.00  0.00    -0.000 C 
BRANCH  12  13
ATOM     13  C   UNL     1     144.976 139.877 136.255  1.00  0.00    -0.000 C 
BRANCH  13  14
ATOM     14  C   UNL     1     144.019 139.391 135.155  1.00  0.00    -0.000 C 
BRANCH  14  15
ATOM     15  C   UNL     1     142.868 138.539 135.708  1.00  0.00    -0.003 C 
ATOM     16  C   UNL     1     143.397 137.321 136.461  1.00  0.00     0.004 C 
ENDBRANCH  14  15
ENDBRANCH  13  14
ENDBRANCH  12  13
ENDBRANCH  11  12
ENDBRANCH  10  11
ENDBRANCH   9  10
ENDBRANCH   8   9
ENDBRANCH   7   8
ENDBRANCH   6   7
ENDBRANCH   5   6
ENDBRANCH   4   5
ENDBRANCH   3   4
ENDBRANCH   2   3
ENDBRANCH   1   2
BRANCH   1  17
ATOM     17  C   UNL     1     139.622 138.486 142.445  1.00  0.00     0.000 C 
BRANCH  17  18
ATOM     18  C   UNL     1     139.943 137.626 141.204  1.00  0.00     0.000 C 
BRANCH  18  19
ATOM     19  C   UNL     1     139.590 138.270 139.850  1.00  0.00     0.000 C 
BRANCH  19  20
ATOM     20  C   UNL     1     140.762 138.388 138.856  1.00  0.00     0.000 C 
BRANCH  20  21
ATOM     21  C   UNL     1     141.595 139.677 139.015  1.00  0.00     0.000 C 
BRANCH  21  22
ATOM     22  C   UNL     1     142.833 139.483 139.907  1.00  0.00     0.000 C 
BRANCH  22  23
ATOM     23  C   UNL     1     143.146 140.721 140.761  1.00  0.00     0.000 C 
BRANCH  23  24
ATOM     24  C   UNL     1     142.395 141.977 140.283  1.00  0.00     0.000 C 
BRANCH  24  25
ATOM     25  C   UNL     1     142.116 142.968 141.424  1.00  0.00     0.000 C 
BRANCH  25  26
ATOM     26  C   UNL     1     141.526 144.299 140.923  1.00  0.00     0.000 C 
BRANCH  26  27
ATOM     27  C   UNL     1     142.133 144.732 139.572  1.00  0.00     0.002 C 
BRANCH  27  28
ATOM     28  C   UNL     1     141.754 146.164 139.158  1.00  0.00     0.028 C 
BRANCH  28  29
ATOM     29  C   UNL     1     142.930 147.145 139.245  1.00  0.00     0.156 C 
BRANCH  29  30
ATOM     30  O   UNL     1     143.551 147.045 140.498  1.00  0.00    -0.396 OA
ATOM     31  H   UNL     1     143.822 147.965 140.757  1.00  0.00     0.210 HD
ENDBRANCH  29  30
ENDBRANCH  28  29
ENDBRANCH  27  28
ENDBRANCH  26  27
ENDBRANCH  25  26
ENDBRANCH  24  25
ENDBRANCH  23  24
ENDBRANCH  22  23
ENDBRANCH  21  22
ENDBRANCH  20  21
ENDBRANCH  19  20
ENDBRANCH  18  19
ENDBRANCH  17  18
ENDBRANCH   1  17
TORSDOF 28
ENDMDL
MODEL 2
REMARK VINA RESULT:    -2.804      2.133      5.759
REMARK INTER + INTRA:         -13.068
REMARK INTER:                  -8.619
REMARK INTRA:                  -4.449
REMARK UNBOUND:                -5.756
REMARK SMILES CCCCCCCCCCCCCCCCCCCCCCCCCCCCCO
REMARK SMILES IDX 16 1 15 2 14 3 13 4 12 5 11 6 10 7 9 8 8 9 7 10 6 11 5 12
REMARK SMILES IDX 4 13 3 14 2 15 1 16 17 17 18 18 19 19 20 20 21 21 22 22
REMARK SMILES IDX 23 23 24 24 25 25 26 26 27 27 28 28 29 29 30 30
REMARK H PARENT 30 31
REMARK Flexibility Score: inf
ROOT
ATOM      1  C   UNL     1     139.496 138.469 138.879  1.00  0.00     0.000 C 
ENDROOT
BRANCH   1   2
ATOM      2  C   UNL     1     139.464 138.806 140.376  1.00  0.00     0.000 C 
BRANCH   2   3
ATOM      3  C   UNL     1     140.571 138.055 141.127  1.00  0.00     0.000 C 
BRANCH   3   4
ATOM      4  C   UNL     1     141.119 138.899 142.288  1.00  0.00     0.000 C 
BRANCH   4   5
ATOM      5  C   UNL     1     142.454 139.586 141.950  1.00  0.00     0.000 C 
BRANCH   5   6
ATOM      6  C   UNL     1     142.531 141.073 142.334  1.00  0.00     0.000 C 
BRANCH   6   7
ATOM      7  C   UNL     1     141.302 141.554 143.123  1.00  0.00     0.000 C 
BRANCH   7   8
ATOM      8  C   UNL     1     140.266 142.261 142.225  1.00  0.00    -0.000 C 
BRANCH   8   9
ATOM      9  C   UNL     1     138.806 142.100 142.693  1.00  0.00    -0.000 C 
BRANCH   9  10
ATOM     10  C   UNL     1     137.802 141.828 141.553  1.00  0.00    -0.000 C 
BRANCH  10  11
ATOM     11  C   UNL     1     138.363 142.211 140.172  1.00  0.00    -0.000 C 
BRANCH  11  12
ATOM     12  C   UNL     1     137.284 142.223 139.079  1.00  0.00    -0.000 C 
BRANCH  12  13
ATOM     13  C   UNL     1     135.963 141.588 139.544  1.00  0.00    -0.000 C 
BRANCH  13  14
ATOM     14  C   UNL     1     134.736 142.213 138.863  1.00  0.00    -0.000 C 
BRANCH  14  15
ATOM     15  C   UNL     1     133.551 141.240 138.773  1.00  0.00    -0.003 C 
ATOM     16  C   UNL     1     133.269 140.590 140.125  1.00  0.00     0.004 C 
ENDBRANCH  14  15
ENDBRANCH  13  14
ENDBRANCH  12  13
ENDBRANCH  11  12
ENDBRANCH  10  11
ENDBRANCH   9  10
ENDBRANCH   8   9
ENDBRANCH   7   8
ENDBRANCH   6   7
ENDBRANCH   5   6
ENDBRANCH   4   5
ENDBRANCH   3   4
ENDBRANCH   2   3
ENDBRANCH   1   2
BRANCH   1  17
ATOM     17  C   UNL     1     140.792 137.758 138.453  1.00  0.00     0.000 C 
BRANCH  17  18
ATOM     18  C   UNL     1     141.742 138.600 137.575  1.00  0.00     0.000 C 
BRANCH  18  19
ATOM     19  C   UNL     1     142.988 139.150 138.295  1.00  0.00     0.000 C 
BRANCH  19  20
ATOM     20  C   UNL     1     143.045 140.684 138.427  1.00  0.00     0.000 C 
BRANCH  20  21
ATOM     21  C   UNL     1     141.697 141.333 138.808  1.00  0.00     0.000 C 
BRANCH  21  22
ATOM     22  C   UNL     1     141.185 142.318 137.742  1.00  0.00     0.000 C 
BRANCH  22  23
ATOM     23  C   UNL     1     141.051 143.751 138.280  1.00  0.00     0.000 C 
BRANCH  23  24
ATOM     24  C   UNL     1     142.009 144.040 139.449  1.00  0.00     0.000 C 
BRANCH  24  25
ATOM     25  C   UNL     1     141.900 145.485 139.959  1.00  0.00     0.000 C 
BRANCH  25  26
ATOM     26  C   UNL     1     142.596 146.496 139.032  1.00  0.00     0.000 C 
BRANCH  26  27
ATOM     27  C   UNL     1     142.884 147.835 139.743  1.00  0.00     0.002 C 
BRANCH  27  28
ATOM     28  C   UNL     1     141.831 148.921 139.463  1.00  0.00     0.028 C 
BRANCH  28  29
ATOM     29  C   UNL     1     140.578 148.780 140.336  1.00  0.00     0.156 C 
BRANCH  29  30
ATOM     30  O   UNL     1     139.512 148.282 139.574  1.00  0.00    -0.396 OA
ATOM     31  H   UNL     1     139.904 147.656 138.910  1.00  0.00     0.210 HD
ENDBRANCH  29  30
ENDBRANCH  28  29
ENDBRANCH  27  28
ENDBRANCH  26  27
ENDBRANCH  25  26
ENDBRANCH  24  25
ENDBRANCH  23  24
ENDBRANCH  22  23
ENDBRANCH  21  22
ENDBRANCH  20  21
ENDBRANCH  19  20
ENDBRANCH  18  19
ENDBRANCH  17  18
ENDBRANCH   1  17
TORSDOF 28
ENDMDL
MODEL 3
REMARK VINA RESULT:    -2.791      3.064      6.902
REMARK INTER + INTRA:         -13.034
REMARK INTER:                  -8.132
REMARK INTRA:                  -4.902
REMARK UNBOUND:                -5.756
REMARK SMILES CCCCCCCCCCCCCCCCCCCCCCCCCCCCCO
REMARK SMILES IDX 16 1 15 2 14 3 13 4 12 5 11 6 10 7 9 8 8 9 7 10 6 11 5 12
REMARK SMILES IDX 4 13 3 14 2 15 1 16 17 17 18 18 19 19 20 20 21 21 22 22
REMARK SMILES IDX 23 23 24 24 25 25 26 26 27 27 28 28 29 29 30 30
REMARK H PARENT 30 31
REMARK Flexibility Score: inf
ROOT
ATOM      1  C   UNL     1     143.288 140.467 138.266  1.00  0.00     0.000 C 
ENDROOT
BRANCH   1   2
ATOM      2  C   UNL     1     144.020 140.013 139.536  1.00  0.00     0.000 C 
BRANCH   2   3
ATOM      3  C   UNL     1     143.023 139.527 140.595  1.00  0.00     0.000 C 
BRANCH   3   4
ATOM      4  C   UNL     1     143.552 139.792 142.013  1.00  0.00     0.000 C 
BRANCH   4   5
ATOM      5  C   UNL     1     142.707 140.822 142.784  1.00  0.00     0.000 C 
BRANCH   5   6
ATOM      6  C   UNL     1     142.273 142.047 141.961  1.00  0.00     0.000 C 
BRANCH   6   7
ATOM      7  C   UNL     1     141.014 142.731 142.521  1.00  0.00     0.000 C 
BRANCH   7   8
ATOM      8  C   UNL     1     139.780 142.519 141.621  1.00  0.00    -0.000 C 
BRANCH   8   9
ATOM      9  C   UNL     1     138.630 141.742 142.294  1.00  0.00    -0.000 C 
BRANCH   9  10
ATOM     10  C   UNL     1     138.978 140.283 142.655  1.00  0.00    -0.000 C 
BRANCH  10  11
ATOM     11  C   UNL     1     139.465 139.476 141.438  1.00  0.00    -0.000 C 
BRANCH  11  12
ATOM     12  C   UNL     1     139.834 138.029 141.797  1.00  0.00    -0.000 C 
BRANCH  12  13
ATOM     13  C   UNL     1     139.835 137.098 140.573  1.00  0.00    -0.000 C 
BRANCH  13  14
ATOM     14  C   UNL     1     140.054 137.856 139.255  1.00  0.00    -0.000 C 
BRANCH  14  15
ATOM     15  C   UNL     1     139.826 136.973 138.020  1.00  0.00    -0.003 C 
ATOM     16  C   UNL     1     138.440 137.207 137.425  1.00  0.00     0.004 C 
ENDBRANCH  14  15
ENDBRANCH  13  14
ENDBRANCH  12  13
ENDBRANCH  11  12
ENDBRANCH  10  11
ENDBRANCH   9  10
ENDBRANCH   8   9
ENDBRANCH   7   8
ENDBRANCH   6   7
ENDBRANCH   5   6
ENDBRANCH   4   5
ENDBRANCH   3   4
ENDBRANCH   2   3
ENDBRANCH   1   2
BRANCH   1  17
ATOM     17  C   UNL     1     142.686 141.877 138.395  1.00  0.00     0.000 C 
BRANCH  17  18
ATOM     18  C   UNL     1     141.147 141.943 138.297  1.00  0.00     0.000 C 
BRANCH  18  19
ATOM     19  C   UNL     1     140.508 140.945 137.312  1.00  0.00     0.000 C 
BRANCH  19  20
ATOM     20  C   UNL     1     138.994 141.126 137.086  1.00  0.00     0.000 C 
BRANCH  20  21
ATOM     21  C   UNL     1     138.134 140.849 138.337  1.00  0.00     0.000 C 
BRANCH  21  22
ATOM     22  C   UNL     1     137.077 141.939 138.589  1.00  0.00     0.000 C 
BRANCH  22  23
ATOM     23  C   UNL     1     136.694 142.696 137.309  1.00  0.00     0.000 C 
BRANCH  23  24
ATOM     24  C   UNL     1     135.373 142.198 136.696  1.00  0.00     0.000 C 
BRANCH  24  25
ATOM     25  C   UNL     1     134.716 141.088 137.531  1.00  0.00     0.000 C 
BRANCH  25  26
ATOM     26  C   UNL     1     133.202 140.974 137.281  1.00  0.00     0.000 C 
BRANCH  26  27
ATOM     27  C   UNL     1     132.377 141.301 138.544  1.00  0.00     0.002 C 
BRANCH  27  28
ATOM     28  C   UNL     1     133.239 141.661 139.766  1.00  0.00     0.028 C 
BRANCH  28  29
ATOM     29  C   UNL     1     133.125 143.136 140.167  1.00  0.00     0.156 C 
BRANCH  29  30
ATOM     30  O   UNL     1     134.220 143.857 139.671  1.00  0.00    -0.396 OA
ATOM     31  H   UNL     1     134.121 144.789 140.001  1.00  0.00     0.210 HD
ENDBRANCH  29  30
ENDBRANCH  28  29
ENDBRANCH  27  28
ENDBRANCH  26  27
ENDBRANCH  25  26
ENDBRANCH  24  25
ENDBRANCH  23  24
ENDBRANCH  22  23
ENDBRANCH  21  22
ENDBRANCH  20  21
ENDBRANCH  19  20
ENDBRANCH  18  19
ENDBRANCH  17  18
ENDBRANCH   1  17
TORSDOF 28
ENDMDL
MODEL 4
REMARK VINA RESULT:    -2.775      3.715      6.181
REMARK INTER + INTRA:         -12.992
REMARK INTER:                  -8.837
REMARK INTRA:                  -4.154
REMARK UNBOUND:                -5.756
REMARK SMILES CCCCCCCCCCCCCCCCCCCCCCCCCCCCCO
REMARK SMILES IDX 16 1 15 2 14 3 13 4 12 5 11 6 10 7 9 8 8 9 7 10 6 11 5 12
REMARK SMILES IDX 4 13 3 14 2 15 1 16 17 17 18 18 19 19 20 20 21 21 22 22
REMARK SMILES IDX 23 23 24 24 25 25 26 26 27 27 28 28 29 29 30 30
REMARK H PARENT 30 31
REMARK Flexibility Score: inf
ROOT
ATOM      1  C   UNL     1     138.148 141.289 141.223  1.00  0.00     0.000 C 
ENDROOT
BRANCH   1   2
ATOM      2  C   UNL     1     137.074 141.880 140.301  1.00  0.00     0.000 C 
BRANCH   2   3
ATOM      3  C   UNL     1     137.536 141.852 138.838  1.00  0.00     0.000 C 
BRANCH   3   4
ATOM      4  C   UNL     1     138.950 142.436 138.695  1.00  0.00     0.000 C 
BRANCH   4   5
ATOM      5  C   UNL     1     139.823 141.652 137.698  1.00  0.00     0.000 C 
BRANCH   5   6
ATOM      6  C   UNL     1     141.313 141.567 138.071  1.00  0.00     0.000 C 
BRANCH   6   7
ATOM      7  C   UNL     1     142.074 140.501 137.263  1.00  0.00     0.000 C 
BRANCH   7   8
ATOM      8  C   UNL     1     143.557 140.401 137.674  1.00  0.00    -0.000 C 
BRANCH   8   9
ATOM      9  C   UNL     1     143.791 140.344 139.197  1.00  0.00    -0.000 C 
BRANCH   9  10
ATOM     10  C   UNL     1     145.030 139.527 139.617  1.00  0.00    -0.000 C 
BRANCH  10  11
ATOM     11  C   UNL     1     145.686 138.801 138.429  1.00  0.00    -0.000 C 
BRANCH  11  12
ATOM     12  C   UNL     1     147.106 138.309 138.747  1.00  0.00    -0.000 C 
BRANCH  12  13
ATOM     13  C   UNL     1     147.925 139.341 139.542  1.00  0.00    -0.000 C 
BRANCH  13  14
ATOM     14  C   UNL     1     149.102 139.908 138.734  1.00  0.00    -0.000 C 
BRANCH  14  15
ATOM     15  C   UNL     1     150.463 139.594 139.372  1.00  0.00    -0.003 C 
ATOM     16  C   UNL     1     150.464 139.933 140.860  1.00  0.00     0.004 C 
ENDBRANCH  14  15
ENDBRANCH  13  14
ENDBRANCH  12  13
ENDBRANCH  11  12
ENDBRANCH  10  11
ENDBRANCH   9  10
ENDBRANCH   8   9
ENDBRANCH   7   8
ENDBRANCH   6   7
ENDBRANCH   5   6
ENDBRANCH   4   5
ENDBRANCH   3   4
ENDBRANCH   2   3
ENDBRANCH   1   2
BRANCH   1  17
ATOM     17  C   UNL     1     138.364 142.122 142.499  1.00  0.00     0.000 C 
BRANCH  17  18
ATOM     18  C   UNL     1     139.840 142.366 142.880  1.00  0.00     0.000 C 
BRANCH  18  19
ATOM     19  C   UNL     1     140.741 142.863 141.733  1.00  0.00     0.000 C 
BRANCH  19  20
ATOM     20  C   UNL     1     142.123 142.186 141.646  1.00  0.00     0.000 C 
BRANCH  20  21
ATOM     21  C   UNL     1     142.454 141.275 142.847  1.00  0.00     0.000 C 
BRANCH  21  22
ATOM     22  C   UNL     1     142.470 139.781 142.479  1.00  0.00     0.000 C 
BRANCH  22  23
ATOM     23  C   UNL     1     141.309 139.004 143.118  1.00  0.00     0.000 C 
BRANCH  23  24
ATOM     24  C   UNL     1     140.353 138.399 142.075  1.00  0.00     0.000 C 
BRANCH  24  25
ATOM     25  C   UNL     1     140.646 138.892 140.649  1.00  0.00     0.000 C 
BRANCH  25  26
ATOM     26  C   UNL     1     140.264 137.859 139.574  1.00  0.00     0.000 C 
BRANCH  26  27
ATOM     27  C   UNL     1     139.587 136.611 140.181  1.00  0.00     0.002 C 
BRANCH  27  28
ATOM     28  C   UNL     1     139.859 135.319 139.392  1.00  0.00     0.028 C 
BRANCH  28  29
ATOM     29  C   UNL     1     138.706 134.311 139.477  1.00  0.00     0.156 C 
BRANCH  29  30
ATOM     30  O   UNL     1     137.622 134.751 138.705  1.00  0.00    -0.396 OA
ATOM     31  H   UNL     1     136.960 134.011 138.694  1.00  0.00     0.210 HD
ENDBRANCH  29  30
ENDBRANCH  28  29
ENDBRANCH  27  28
ENDBRANCH  26  27
ENDBRANCH  25  26
ENDBRANCH  24  25
ENDBRANCH  23  24
ENDBRANCH  22  23
ENDBRANCH  21  22
ENDBRANCH  20  21
ENDBRANCH  19  20
ENDBRANCH  18  19
ENDBRANCH  17  18
ENDBRANCH   1  17
TORSDOF 28
ENDMDL
MODEL 5
REMARK VINA RESULT:    -2.758      3.625      6.480
REMARK INTER + INTRA:         -12.948
REMARK INTER:                  -7.995
REMARK INTRA:                  -4.953
REMARK UNBOUND:                -5.756
REMARK SMILES CCCCCCCCCCCCCCCCCCCCCCCCCCCCCO
REMARK SMILES IDX 16 1 15 2 14 3 13 4 12 5 11 6 10 7 9 8 8 9 7 10 6 11 5 12
REMARK SMILES IDX 4 13 3 14 2 15 1 16 17 17 18 18 19 19 20 20 21 21 22 22
REMARK SMILES IDX 23 23 24 24 25 25 26 26 27 27 28 28 29 29 30 30
REMARK H PARENT 30 31
REMARK Flexibility Score: inf
ROOT
ATOM      1  C   UNL     1     139.337 142.301 142.112  1.00  0.00     0.000 C 
ENDROOT
BRANCH   1   2
ATOM      2  C   UNL     1     138.721 140.932 142.431  1.00  0.00     0.000 C 
BRANCH   2   3
ATOM      3  C   UNL     1     139.130 139.892 141.381  1.00  0.00     0.000 C 
BRANCH   3   4
ATOM      4  C   UNL     1     139.718 138.638 142.046  1.00  0.00     0.000 C 
BRANCH   4   5
ATOM      5  C   UNL     1     141.226 138.762 142.327  1.00  0.00     0.000 C 
BRANCH   5   6
ATOM      6  C   UNL     1     142.034 139.467 141.223  1.00  0.00     0.000 C 
BRANCH   6   7
ATOM      7  C   UNL     1     143.417 139.942 141.701  1.00  0.00     0.000 C 
BRANCH   7   8
ATOM      8  C   UNL     1     144.441 140.023 140.550  1.00  0.00    -0.000 C 
BRANCH   8   9
ATOM      9  C   UNL     1     144.022 139.264 139.275  1.00  0.00    -0.000 C 
BRANCH   9  10
ATOM     10  C   UNL     1     144.486 139.927 137.962  1.00  0.00    -0.000 C 
BRANCH  10  11
ATOM     11  C   UNL     1     146.017 140.066 137.882  1.00  0.00    -0.000 C 
BRANCH  11  12
ATOM     12  C   UNL     1     146.729 138.708 137.791  1.00  0.00    -0.000 C 
BRANCH  12  13
ATOM     13  C   UNL     1     147.643 138.438 138.998  1.00  0.00    -0.000 C 
BRANCH  13  14
ATOM     14  C   UNL     1     147.931 139.705 139.816  1.00  0.00    -0.000 C 
BRANCH  14  15
ATOM     15  C   UNL     1     149.425 140.059 139.852  1.00  0.00    -0.003 C 
ATOM     16  C   UNL     1     149.758 140.912 141.074  1.00  0.00     0.004 C 
ENDBRANCH  14  15
ENDBRANCH  13  14
ENDBRANCH  12  13
ENDBRANCH  11  12
ENDBRANCH  10  11
ENDBRANCH   9  10
ENDBRANCH   8   9
ENDBRANCH   7   8
ENDBRANCH   6   7
ENDBRANCH   5   6
ENDBRANCH   4   5
ENDBRANCH   3   4
ENDBRANCH   2   3
ENDBRANCH   1   2
BRANCH   1  17
ATOM     17  C   UNL     1     140.732 142.488 142.732  1.00  0.00     0.000 C 
BRANCH  17  18
ATOM     18  C   UNL     1     141.704 143.358 141.907  1.00  0.00     0.000 C 
BRANCH  18  19
ATOM     19  C   UNL     1     141.319 143.551 140.428  1.00  0.00     0.000 C 
BRANCH  19  20
ATOM     20  C   UNL     1     142.295 142.927 139.411  1.00  0.00     0.000 C 
BRANCH  20  21
ATOM     21  C   UNL     1     141.626 141.964 138.407  1.00  0.00     0.000 C 
BRANCH  21  22
ATOM     22  C   UNL     1     140.089 142.032 138.445  1.00  0.00     0.000 C 
BRANCH  22  23
ATOM     23  C   UNL     1     139.428 140.769 137.873  1.00  0.00     0.000 C 
BRANCH  23  24
ATOM     24  C   UNL     1     140.301 139.512 138.044  1.00  0.00     0.000 C 
BRANCH  24  25
ATOM     25  C   UNL     1     139.988 138.430 136.999  1.00  0.00     0.000 C 
BRANCH  25  26
ATOM     26  C   UNL     1     140.326 137.012 137.493  1.00  0.00     0.000 C 
BRANCH  26  27
ATOM     27  C   UNL     1     139.852 136.774 138.943  1.00  0.00     0.002 C 
BRANCH  27  28
ATOM     28  C   UNL     1     139.224 135.387 139.165  1.00  0.00     0.028 C 
BRANCH  28  29
ATOM     29  C   UNL     1     140.266 134.292 139.428  1.00  0.00     0.156 C 
BRANCH  29  30
ATOM     30  O   UNL     1     140.373 133.450 138.313  1.00  0.00    -0.396 OA
ATOM     31  H   UNL     1     141.275 133.602 137.926  1.00  0.00     0.210 HD
ENDBRANCH  29  30
ENDBRANCH  28  29
ENDBRANCH  27  28
ENDBRANCH  26  27
ENDBRANCH  25  26
ENDBRANCH  24  25
ENDBRANCH  23  24
ENDBRANCH  22  23
ENDBRANCH  21  22
ENDBRANCH  20  21
ENDBRANCH  19  20
ENDBRANCH  18  19
ENDBRANCH  17  18
ENDBRANCH   1  17
TORSDOF 28
ENDMDL
MODEL 6
REMARK VINA RESULT:    -2.748      2.337      5.519
REMARK INTER + INTRA:         -12.922
REMARK INTER:                  -7.550
REMARK INTRA:                  -5.372
REMARK UNBOUND:                -5.756
REMARK SMILES CCCCCCCCCCCCCCCCCCCCCCCCCCCCCO
REMARK SMILES IDX 16 1 15 2 14 3 13 4 12 5 11 6 10 7 9 8 8 9 7 10 6 11 5 12
REMARK SMILES IDX 4 13 3 14 2 15 1 16 17 17 18 18 19 19 20 20 21 21 22 22
REMARK SMILES IDX 23 23 24 24 25 25 26 26 27 27 28 28 29 29 30 30
REMARK H PARENT 30 31
REMARK Flexibility Score: inf
ROOT
ATOM      1  C   UNL     1     139.000 140.485 137.753  1.00  0.00     0.000 C 
ENDROOT
BRANCH   1   2
ATOM      2  C   UNL     1     139.454 140.981 139.133  1.00  0.00     0.000 C 
BRANCH   2   3
ATOM      3  C   UNL     1     138.404 141.912 139.751  1.00  0.00     0.000 C 
BRANCH   3   4
ATOM      4  C   UNL     1     137.855 141.330 141.063  1.00  0.00     0.000 C 
BRANCH   4   5
ATOM      5  C   UNL     1     138.737 141.665 142.280  1.00  0.00     0.000 C 
BRANCH   5   6
ATOM      6  C   UNL     1     139.166 140.451 143.121  1.00  0.00     0.000 C 
BRANCH   6   7
ATOM      7  C   UNL     1     139.501 139.217 142.267  1.00  0.00     0.000 C 
BRANCH   7   8
ATOM      8  C   UNL     1     141.015 139.075 142.008  1.00  0.00    -0.000 C 
BRANCH   8   9
ATOM      9  C   UNL     1     141.906 139.680 143.112  1.00  0.00    -0.000 C 
BRANCH   9  10
ATOM     10  C   UNL     1     142.857 140.791 142.621  1.00  0.00    -0.000 C 
BRANCH  10  11
ATOM     11  C   UNL     1     142.269 141.590 141.444  1.00  0.00    -0.000 C 
BRANCH  11  12
ATOM     12  C   UNL     1     142.105 143.083 141.766  1.00  0.00    -0.000 C 
BRANCH  12  13
ATOM     13  C   UNL     1     141.458 143.869 140.613  1.00  0.00    -0.000 C 
BRANCH  13  14
ATOM     14  C   UNL     1     142.121 143.584 139.258  1.00  0.00    -0.000 C 
BRANCH  14  15
ATOM     15  C   UNL     1     141.659 144.551 138.158  1.00  0.00    -0.003 C 
ATOM     16  C   UNL     1     141.787 146.002 138.613  1.00  0.00     0.004 C 
ENDBRANCH  14  15
ENDBRANCH  13  14
ENDBRANCH  12  13
ENDBRANCH  11  12
ENDBRANCH  10  11
ENDBRANCH   9  10
ENDBRANCH   8   9
ENDBRANCH   7   8
ENDBRANCH   6   7
ENDBRANCH   5   6
ENDBRANCH   4   5
ENDBRANCH   3   4
ENDBRANCH   2   3
ENDBRANCH   1   2
BRANCH   1  17
ATOM     17  C   UNL     1     138.706 138.975 137.727  1.00  0.00     0.000 C 
BRANCH  17  18
ATOM     18  C   UNL     1     139.503 138.136 138.748  1.00  0.00     0.000 C 
BRANCH  18  19
ATOM     19  C   UNL     1     140.197 136.886 138.173  1.00  0.00     0.000 C 
BRANCH  19  20
ATOM     20  C   UNL     1     140.738 137.040 136.738  1.00  0.00     0.000 C 
BRANCH  20  21
ATOM     21  C   UNL     1     142.223 137.454 136.667  1.00  0.00     0.000 C 
BRANCH  21  22
ATOM     22  C   UNL     1     142.420 138.894 136.162  1.00  0.00     0.000 C 
BRANCH  22  23
ATOM     23  C   UNL     1     142.388 139.927 137.299  1.00  0.00     0.000 C 
BRANCH  23  24
ATOM     24  C   UNL     1     143.132 139.448 138.558  1.00  0.00     0.000 C 
BRANCH  24  25
ATOM     25  C   UNL     1     144.473 140.170 138.762  1.00  0.00     0.000 C 
BRANCH  25  26
ATOM     26  C   UNL     1     145.287 139.592 139.933  1.00  0.00     0.000 C 
BRANCH  26  27
ATOM     27  C   UNL     1     146.744 139.281 139.532  1.00  0.00     0.002 C 
BRANCH  27  28
ATOM     28  C   UNL     1     147.708 140.460 139.749  1.00  0.00     0.028 C 
BRANCH  28  29
ATOM     29  C   UNL     1     148.404 140.912 138.459  1.00  0.00     0.156 C 
BRANCH  29  30
ATOM     30  O   UNL     1     147.510 141.631 137.654  1.00  0.00    -0.396 OA
ATOM     31  H   UNL     1     146.741 141.029 137.473  1.00  0.00     0.210 HD
ENDBRANCH  29  30
ENDBRANCH  28  29
ENDBRANCH  27  28
ENDBRANCH  26  27
ENDBRANCH  25  26
ENDBRANCH  24  25
ENDBRANCH  23  24
ENDBRANCH  22  23
ENDBRANCH  21  22
ENDBRANCH  20  21
ENDBRANCH  19  20
ENDBRANCH  18  19
ENDBRANCH  17  18
ENDBRANCH   1  17
TORSDOF 28
ENDMDL
MODEL 7
REMARK VINA RESULT:    -2.741      3.311      6.939
REMARK INTER + INTRA:         -12.904
REMARK INTER:                  -9.038
REMARK INTRA:                  -3.865
REMARK UNBOUND:                -5.756
REMARK SMILES CCCCCCCCCCCCCCCCCCCCCCCCCCCCCO
REMARK SMILES IDX 16 1 15 2 14 3 13 4 12 5 11 6 10 7 9 8 8 9 7 10 6 11 5 12
REMARK SMILES IDX 4 13 3 14 2 15 1 16 17 17 18 18 19 19 20 20 21 21 22 22
REMARK SMILES IDX 23 23 24 24 25 25 26 26 27 27 28 28 29 29 30 30
REMARK H PARENT 30 31
REMARK Flexibility Score: inf
ROOT
ATOM      1  C   UNL     1     142.082 142.553 141.635  1.00  0.00     0.000 C 
ENDROOT
BRANCH   1   2
ATOM      2  C   UNL     1     141.677 143.848 140.919  1.00  0.00     0.000 C 
BRANCH   2   3
ATOM      3  C   UNL     1     141.898 143.726 139.405  1.00  0.00     0.000 C 
BRANCH   3   4
ATOM      4  C   UNL     1     141.753 145.091 138.715  1.00  0.00     0.000 C 
BRANCH   4   5
ATOM      5  C   UNL     1     142.703 145.258 137.516  1.00  0.00     0.000 C 
BRANCH   5   6
ATOM      6  C   UNL     1     143.890 146.206 137.757  1.00  0.00     0.000 C 
BRANCH   6   7
ATOM      7  C   UNL     1     144.545 146.693 136.453  1.00  0.00     0.000 C 
BRANCH   7   8
ATOM      8  C   UNL     1     144.207 148.166 136.140  1.00  0.00    -0.000 C 
BRANCH   8   9
ATOM      9  C   UNL     1     143.186 148.353 134.999  1.00  0.00    -0.000 C 
BRANCH   9  10
ATOM     10  C   UNL     1     141.833 148.941 135.449  1.00  0.00    -0.000 C 
BRANCH  10  11
ATOM     11  C   UNL     1     140.829 147.852 135.869  1.00  0.00    -0.000 C 
BRANCH  11  12
ATOM     12  C   UNL     1     140.203 148.124 137.244  1.00  0.00    -0.000 C 
BRANCH  12  13
ATOM     13  C   UNL     1     141.120 148.953 138.159  1.00  0.00    -0.000 C 
BRANCH  13  14
ATOM     14  C   UNL     1     141.317 148.308 139.539  1.00  0.00    -0.000 C 
BRANCH  14  15
ATOM     15  C   UNL     1     140.218 148.701 140.537  1.00  0.00    -0.003 C 
ATOM     16  C   UNL     1     140.663 149.870 141.413  1.00  0.00     0.004 C 
ENDBRANCH  14  15
ENDBRANCH  13  14
ENDBRANCH  12  13
ENDBRANCH  11  12
ENDBRANCH  10  11
ENDBRANCH   9  10
ENDBRANCH   8   9
ENDBRANCH   7   8
ENDBRANCH   6   7
ENDBRANCH   5   6
ENDBRANCH   4   5
ENDBRANCH   3   4
ENDBRANCH   2   3
ENDBRANCH   1   2
BRANCH   1  17
ATOM     17  C   UNL     1     142.536 141.449 140.664  1.00  0.00     0.000 C 
BRANCH  17  18
ATOM     18  C   UNL     1     143.080 140.170 141.335  1.00  0.00     0.000 C 
BRANCH  18  19
ATOM     19  C   UNL     1     142.737 140.014 142.829  1.00  0.00     0.000 C 
BRANCH  19  20
ATOM     20  C   UNL     1     141.415 139.279 143.124  1.00  0.00     0.000 C 
BRANCH  20  21
ATOM     21  C   UNL     1     140.821 138.539 141.906  1.00  0.00     0.000 C 
BRANCH  21  22
ATOM     22  C   UNL     1     139.565 139.227 141.343  1.00  0.00     0.000 C 
BRANCH  22  23
ATOM     23  C   UNL     1     139.115 140.423 142.196  1.00  0.00     0.000 C 
BRANCH  23  24
ATOM     24  C   UNL     1     138.439 141.526 141.363  1.00  0.00     0.000 C 
BRANCH  24  25
ATOM     25  C   UNL     1     138.828 141.467 139.877  1.00  0.00     0.000 C 
BRANCH  25  26
ATOM     26  C   UNL     1     137.894 142.303 138.985  1.00  0.00     0.000 C 
BRANCH  26  27
ATOM     27  C   UNL     1     136.413 142.155 139.394  1.00  0.00     0.002 C 
BRANCH  27  28
ATOM     28  C   UNL     1     135.429 142.740 138.367  1.00  0.00     0.028 C 
BRANCH  28  29
ATOM     29  C   UNL     1     134.021 142.951 138.937  1.00  0.00     0.156 C 
BRANCH  29  30
ATOM     30  O   UNL     1     134.051 143.915 139.954  1.00  0.00    -0.396 OA
ATOM     31  H   UNL     1     134.336 144.767 139.530  1.00  0.00     0.210 HD
ENDBRANCH  29  30
ENDBRANCH  28  29
ENDBRANCH  27  28
ENDBRANCH  26  27
ENDBRANCH  25  26
ENDBRANCH  24  25
ENDBRANCH  23  24
ENDBRANCH  22  23
ENDBRANCH  21  22
ENDBRANCH  20  21
ENDBRANCH  19  20
ENDBRANCH  18  19
ENDBRANCH  17  18
ENDBRANCH   1  17
TORSDOF 28
ENDMDL
MODEL 8
REMARK VINA RESULT:    -2.692      3.857      6.463
REMARK INTER + INTRA:         -12.775
REMARK INTER:                  -8.480
REMARK INTRA:                  -4.295
REMARK UNBOUND:                -5.756
REMARK SMILES CCCCCCCCCCCCCCCCCCCCCCCCCCCCCO
REMARK SMILES IDX 16 1 15 2 14 3 13 4 12 5 11 6 10 7 9 8 8 9 7 10 6 11 5 12
REMARK SMILES IDX 4 13 3 14 2 15 1 16 17 17 18 18 19 19 20 20 21 21 22 22
REMARK SMILES IDX 23 23 24 24 25 25 26 26 27 27 28 28 29 29 30 30
REMARK H PARENT 30 31
REMARK Flexibility Score: inf
ROOT
ATOM      1  C   UNL     1     139.498 138.864 141.584  1.00  0.00     0.000 C 
ENDROOT
BRANCH   1   2
ATOM      2  C   UNL     1     140.235 137.635 141.036  1.00  0.00     0.000 C 
BRANCH   2   3
ATOM      3  C   UNL     1     139.774 137.315 139.609  1.00  0.00     0.000 C 
BRANCH   3   4
ATOM      4  C   UNL     1     140.672 138.006 138.571  1.00  0.00     0.000 C 
BRANCH   4   5
ATOM      5  C   UNL     1     139.881 138.885 137.586  1.00  0.00     0.000 C 
BRANCH   5   6
ATOM      6  C   UNL     1     138.441 138.417 137.315  1.00  0.00     0.000 C 
BRANCH   6   7
ATOM      7  C   UNL     1     138.251 137.852 135.896  1.00  0.00     0.000 C 
BRANCH   7   8
ATOM      8  C   UNL     1     137.621 136.444 135.904  1.00  0.00    -0.000 C 
BRANCH   8   9
ATOM      9  C   UNL     1     137.171 135.959 137.297  1.00  0.00    -0.000 C 
BRANCH   9  10
ATOM     10  C   UNL     1     137.957 134.743 137.829  1.00  0.00    -0.000 C 
BRANCH  10  11
ATOM     11  C   UNL     1     139.051 134.277 136.851  1.00  0.00    -0.000 C 
BRANCH  11  12
ATOM     12  C   UNL     1     140.467 134.473 137.411  1.00  0.00    -0.000 C 
BRANCH  12  13
ATOM     13  C   UNL     1     140.998 133.221 138.130  1.00  0.00    -0.000 C 
BRANCH  13  14
ATOM     14  C   UNL     1     141.006 133.377 139.658  1.00  0.00    -0.000 C 
BRANCH  14  15
ATOM     15  C   UNL     1     140.464 132.135 140.381  1.00  0.00    -0.003 C 
ATOM     16  C   UNL     1     141.222 131.882 141.682  1.00  0.00     0.004 C 
ENDBRANCH  14  15
ENDBRANCH  13  14
ENDBRANCH  12  13
ENDBRANCH  11  12
ENDBRANCH  10  11
ENDBRANCH   9  10
ENDBRANCH   8   9
ENDBRANCH   7   8
ENDBRANCH   6   7
ENDBRANCH   5   6
ENDBRANCH   4   5
ENDBRANCH   3   4
ENDBRANCH   2   3
ENDBRANCH   1   2
BRANCH   1  17
ATOM     17  C   UNL     1     140.190 139.476 142.816  1.00  0.00     0.000 C 
BRANCH  17  18
ATOM     18  C   UNL     1     141.691 139.145 142.955  1.00  0.00     0.000 C 
BRANCH  18  19
ATOM     19  C   UNL     1     142.636 140.362 142.933  1.00  0.00     0.000 C 
BRANCH  19  20
ATOM     20  C   UNL     1     142.628 141.174 141.624  1.00  0.00     0.000 C 
BRANCH  20  21
ATOM     21  C   UNL     1     142.126 142.625 141.787  1.00  0.00     0.000 C 
BRANCH  21  22
ATOM     22  C   UNL     1     140.737 142.851 141.163  1.00  0.00     0.000 C 
BRANCH  22  23
ATOM     23  C   UNL     1     140.521 142.019 139.889  1.00  0.00     0.000 C 
BRANCH  23  24
ATOM     24  C   UNL     1     139.041 141.941 139.474  1.00  0.00     0.000 C 
BRANCH  24  25
ATOM     25  C   UNL     1     138.085 142.050 140.672  1.00  0.00     0.000 C 
BRANCH  25  26
ATOM     26  C   UNL     1     136.644 141.638 140.321  1.00  0.00     0.000 C 
BRANCH  26  27
ATOM     27  C   UNL     1     136.141 142.325 139.034  1.00  0.00     0.002 C 
BRANCH  27  28
ATOM     28  C   UNL     1     134.617 142.236 138.845  1.00  0.00     0.028 C 
BRANCH  28  29
ATOM     29  C   UNL     1     134.161 140.894 138.260  1.00  0.00     0.156 C 
BRANCH  29  30
ATOM     30  O   UNL     1     133.534 140.124 139.249  1.00  0.00    -0.396 OA
ATOM     31  H   UNL     1     132.767 139.668 138.812  1.00  0.00     0.210 HD
ENDBRANCH  29  30
ENDBRANCH  28  29
ENDBRANCH  27  28
ENDBRANCH  26  27
ENDBRANCH  25  26
ENDBRANCH  24  25
ENDBRANCH  23  24
ENDBRANCH  22  23
ENDBRANCH  21  22
ENDBRANCH  20  21
ENDBRANCH  19  20
ENDBRANCH  18  19
ENDBRANCH  17  18
ENDBRANCH   1  17
TORSDOF 28
ENDMDL
MODEL 9
REMARK VINA RESULT:    -2.664      4.188      7.847
REMARK INTER + INTRA:         -12.701
REMARK INTER:                  -8.706
REMARK INTRA:                  -3.995
REMARK UNBOUND:                -5.756
REMARK SMILES CCCCCCCCCCCCCCCCCCCCCCCCCCCCCO
REMARK SMILES IDX 16 1 15 2 14 3 13 4 12 5 11 6 10 7 9 8 8 9 7 10 6 11 5 12
REMARK SMILES IDX 4 13 3 14 2 15 1 16 17 17 18 18 19 19 20 20 21 21 22 22
REMARK SMILES IDX 23 23 24 24 25 25 26 26 27 27 28 28 29 29 30 30
REMARK H PARENT 30 31
REMARK Flexibility Score: inf
ROOT
ATOM      1  C   UNL     1     142.665 139.467 140.192  1.00  0.00     0.000 C 
ENDROOT
BRANCH   1   2
ATOM      2  C   UNL     1     143.283 140.618 140.997  1.00  0.00     0.000 C 
BRANCH   2   3
ATOM      3  C   UNL     1     143.030 140.431 142.499  1.00  0.00     0.000 C 
BRANCH   3   4
ATOM      4  C   UNL     1     142.437 141.704 143.121  1.00  0.00     0.000 C 
BRANCH   4   5
ATOM      5  C   UNL     1     142.048 142.758 142.069  1.00  0.00     0.000 C 
BRANCH   5   6
ATOM      6  C   UNL     1     140.546 142.826 141.747  1.00  0.00     0.000 C 
BRANCH   6   7
ATOM      7  C   UNL     1     139.678 142.068 142.766  1.00  0.00     0.000 C 
BRANCH   7   8
ATOM      8  C   UNL     1     138.194 142.014 142.349  1.00  0.00    -0.000 C 
BRANCH   8   9
ATOM      9  C   UNL     1     137.939 141.304 141.004  1.00  0.00    -0.000 C 
BRANCH   9  10
ATOM     10  C   UNL     1     136.938 142.032 140.083  1.00  0.00    -0.000 C 
BRANCH  10  11
ATOM     11  C   UNL     1     137.483 142.223 138.657  1.00  0.00    -0.000 C 
BRANCH  11  12
ATOM     12  C   UNL     1     139.012 142.096 138.586  1.00  0.00    -0.000 C 
BRANCH  12  13
ATOM     13  C   UNL     1     139.644 143.095 137.601  1.00  0.00    -0.000 C 
BRANCH  13  14
ATOM     14  C   UNL     1     140.938 143.719 138.144  1.00  0.00    -0.000 C 
BRANCH  14  15
ATOM     15  C   UNL     1     142.100 142.717 138.197  1.00  0.00    -0.003 C 
ATOM     16  C   UNL     1     143.174 143.065 137.170  1.00  0.00     0.004 C 
ENDBRANCH  14  15
ENDBRANCH  13  14
ENDBRANCH  12  13
ENDBRANCH  11  12
ENDBRANCH  10  11
ENDBRANCH   9  10
ENDBRANCH   8   9
ENDBRANCH   7   8
ENDBRANCH   6   7
ENDBRANCH   5   6
ENDBRANCH   4   5
ENDBRANCH   3   4
ENDBRANCH   2   3
ENDBRANCH   1   2
BRANCH   1  17
ATOM     17  C   UNL     1     141.136 139.582 140.063  1.00  0.00     0.000 C 
BRANCH  17  18
ATOM     18  C   UNL     1     140.329 138.670 141.011  1.00  0.00     0.000 C 
BRANCH  18  19
ATOM     19  C   UNL     1     139.883 137.324 140.407  1.00  0.00     0.000 C 
BRANCH  19  20
ATOM     20  C   UNL     1     139.571 137.355 138.898  1.00  0.00     0.000 C 
BRANCH  20  21
ATOM     21  C   UNL     1     139.694 135.983 138.202  1.00  0.00     0.000 C 
BRANCH  21  22
ATOM     22  C   UNL     1     138.397 135.555 137.492  1.00  0.00     0.000 C 
BRANCH  22  23
ATOM     23  C   UNL     1     137.696 134.385 138.199  1.00  0.00     0.000 C 
BRANCH  23  24
ATOM     24  C   UNL     1     137.723 133.088 137.371  1.00  0.00     0.000 C 
BRANCH  24  25
ATOM     25  C   UNL     1     139.145 132.532 137.192  1.00  0.00     0.000 C 
BRANCH  25  26
ATOM     26  C   UNL     1     139.732 131.970 138.498  1.00  0.00     0.000 C 
BRANCH  26  27
ATOM     27  C   UNL     1     140.973 132.761 138.965  1.00  0.00     0.002 C 
BRANCH  27  28
ATOM     28  C   UNL     1     140.952 133.111 140.463  1.00  0.00     0.028 C 
BRANCH  28  29
ATOM     29  C   UNL     1     141.307 131.921 141.363  1.00  0.00     0.156 C 
BRANCH  29  30
ATOM     30  O   UNL     1     140.228 131.612 142.202  1.00  0.00    -0.396 OA
ATOM     31  H   UNL     1     139.798 130.799 141.827  1.00  0.00     0.210 HD
ENDBRANCH  29  30
ENDBRANCH  28  29
ENDBRANCH  27  28
ENDBRANCH  26  27
ENDBRANCH  25  26
ENDBRANCH  24  25
ENDBRANCH  23  24
ENDBRANCH  22  23
ENDBRANCH  21  22
ENDBRANCH  20  21
ENDBRANCH  19  20
ENDBRANCH  18  19
ENDBRANCH  17  18
ENDBRANCH   1  17
TORSDOF 28
ENDMDL
