MODEL 1
REMARK VINA RESULT:    -5.406      0.000      0.000
REMARK INTER + INTRA:          -7.989
REMARK INTER:                  -7.618
REMARK INTRA:                  -0.372
REMARK UNBOUND:                -0.372
REMARK SMILES CCCCCCCCC(=O)[O-]
REMARK SMILES IDX 6 1 7 2 8 3 9 4 10 5 11 6 5 7 4 8 3 9 2 10 1 11
REMARK H PARENT
REMARK Flexibility Score: inf
ROOT
ATOM      1  C   UNL     1      18.409  26.566  -0.224  1.00  0.00     0.000 C 
ENDROOT
BRANCH   1   2
ATOM      2  C   UNL     1      16.977  26.465  -0.764  1.00  0.00     0.006 C 
BRANCH   2   3
ATOM      3  C   UNL     1      16.836  25.289  -1.735  1.00  0.00     0.053 C 
BRANCH   3   4
ATOM      4  C   UNL     1      15.427  25.178  -2.221  1.00  0.00     0.041 C 
ATOM      5  O   UNL     1      14.535  24.693  -1.475  1.00  0.00    -0.550 OA
ATOM      6  O   UNL     1      15.105  25.563  -3.516  1.00  0.00    -0.550 OA
ENDBRANCH   3   4
ENDBRANCH   2   3
ENDBRANCH   1   2
BRANCH   1   7
ATOM      7  C   UNL     1      19.134  25.220  -0.333  1.00  0.00     0.000 C 
BRANCH   7   8
ATOM      8  C   UNL     1      19.214  24.525   1.031  1.00  0.00    -0.000 C 
BRANCH   8   9
ATOM      9  C   UNL     1      19.174  25.551   2.174  1.00  0.00    -0.000 C 
BRANCH   9  10
ATOM     10  C   UNL     1      19.620  24.955   3.518  1.00  0.00    -0.003 C 
ATOM     11  C   UNL     1      20.905  24.136   3.404  1.00  0.00     0.004 C 
ENDBRANCH   9  10
ENDBRANCH   8   9
ENDBRANCH   7   8
ENDBRANCH   1   7
TORSDOF 7
ENDMDL
MODEL 2
REMARK VINA RESULT:    -4.908      3.482      5.765
REMARK INTER + INTRA:          -7.289
REMARK INTER:                  -6.898
REMARK INTRA:                  -0.391
REMARK UNBOUND:                -0.372
REMARK SMILES CCCCCCCCC(=O)[O-]
REMARK SMILES IDX 6 1 7 2 8 3 9 4 10 5 11 6 5 7 4 8 3 9 2 10 1 11
REMARK H PARENT
REMARK Flexibility Score: inf
ROOT
ATOM      1  C   UNL     1      18.383  26.722   0.090  1.00  0.00     0.000 C 
ENDROOT
BRANCH   1   2
ATOM      2  C   UNL     1      18.913  26.355   1.481  1.00  0.00     0.006 C 
BRANCH   2   3
ATOM      3  C   UNL     1      19.306  24.876   1.547  1.00  0.00     0.053 C 
BRANCH   3   4
ATOM      4  C   UNL     1      19.929  24.558   2.869  1.00  0.00     0.041 C 
ATOM      5  O   UNL     1      19.370  24.925   3.937  1.00  0.00    -0.550 OA
ATOM      6  O   UNL     1      21.150  23.899   2.923  1.00  0.00    -0.550 OA
ENDBRANCH   3   4
ENDBRANCH   2   3
ENDBRANCH   1   2
BRANCH   1   7
ATOM      7  C   UNL     1      18.806  25.682  -0.953  1.00  0.00     0.000 C 
BRANCH   7   8
ATOM      8  C   UNL     1      17.588  25.117  -1.695  1.00  0.00    -0.000 C 
BRANCH   8   9
ATOM      9  C   UNL     1      16.280  25.590  -1.043  1.00  0.00    -0.000 C 
BRANCH   9  10
ATOM     10  C   UNL     1      15.034  25.046  -1.759  1.00  0.00    -0.003 C 
ATOM     11  C   UNL     1      14.990  25.424  -3.238  1.00  0.00     0.004 C 
ENDBRANCH   9  10
ENDBRANCH   8   9
ENDBRANCH   7   8
ENDBRANCH   1   7
TORSDOF 7
ENDMDL
MODEL 3
REMARK VINA RESULT:    -4.907      3.577      5.933
REMARK INTER + INTRA:          -7.287
REMARK INTER:                  -6.927
REMARK INTRA:                  -0.360
REMARK UNBOUND:                -0.372
REMARK SMILES CCCCCCCCC(=O)[O-]
REMARK SMILES IDX 6 1 7 2 8 3 9 4 10 5 11 6 5 7 4 8 3 9 2 10 1 11
REMARK H PARENT
REMARK Flexibility Score: inf
ROOT
ATOM      1  C   UNL     1      19.204  25.079  -0.208  1.00  0.00     0.000 C 
ENDROOT
BRANCH   1   2
ATOM      2  C   UNL     1      18.877  24.422   1.139  1.00  0.00     0.006 C 
BRANCH   2   3
ATOM      3  C   UNL     1      19.250  25.342   2.305  1.00  0.00     0.053 C 
BRANCH   3   4
ATOM      4  C   UNL     1      19.862  24.554   3.419  1.00  0.00     0.041 C 
ATOM      5  O   UNL     1      21.072  24.210   3.362  1.00  0.00    -0.550 OA
ATOM      6  O   UNL     1      19.084  24.157   4.499  1.00  0.00    -0.550 OA
ENDBRANCH   3   4
ENDBRANCH   2   3
ENDBRANCH   1   2
BRANCH   1   7
ATOM      7  C   UNL     1      18.657  26.509  -0.269  1.00  0.00     0.000 C 
BRANCH   7   8
ATOM      8  C   UNL     1      17.218  26.527  -0.798  1.00  0.00    -0.000 C 
BRANCH   8   9
ATOM      9  C   UNL     1      17.009  25.438  -1.861  1.00  0.00    -0.000 C 
BRANCH   9  10
ATOM     10  C   UNL     1      15.579  25.428  -2.424  1.00  0.00    -0.003 C 
ATOM     11  C   UNL     1      14.596  24.679  -1.527  1.00  0.00     0.004 C 
ENDBRANCH   9  10
ENDBRANCH   8   9
ENDBRANCH   7   8
ENDBRANCH   1   7
TORSDOF 7
ENDMDL
MODEL 4
REMARK VINA RESULT:    -4.204      3.670      5.380
REMARK INTER + INTRA:          -6.297
REMARK INTER:                  -5.660
REMARK INTRA:                  -0.637
REMARK UNBOUND:                -0.372
REMARK SMILES CCCCCCCCC(=O)[O-]
REMARK SMILES IDX 6 1 7 2 8 3 9 4 10 5 11 6 5 7 4 8 3 9 2 10 1 11
REMARK H PARENT
REMARK Flexibility Score: inf
ROOT
ATOM      1  C   UNL     1      19.184  24.064  -0.396  1.00  0.00     0.000 C 
ENDROOT
BRANCH   1   2
ATOM      2  C   UNL     1      20.000  24.036   0.903  1.00  0.00     0.006 C 
BRANCH   2   3
ATOM      3  C   UNL     1      19.267  24.773   2.028  1.00  0.00     0.053 C 
BRANCH   3   4
ATOM      4  C   UNL     1      19.905  24.478   3.348  1.00  0.00     0.041 C 
ATOM      5  O   UNL     1      19.226  24.537   4.408  1.00  0.00    -0.550 OA
ATOM      6  O   UNL     1      21.261  24.186   3.416  1.00  0.00    -0.550 OA
ENDBRANCH   3   4
ENDBRANCH   2   3
ENDBRANCH   1   2
BRANCH   1   7
ATOM      7  C   UNL     1      17.681  23.987  -0.103  1.00  0.00     0.000 C 
BRANCH   7   8
ATOM      8  C   UNL     1      16.904  25.012  -0.939  1.00  0.00    -0.000 C 
BRANCH   8   9
ATOM      9  C   UNL     1      17.770  26.244  -1.242  1.00  0.00    -0.000 C 
BRANCH   9  10
ATOM     10  C   UNL     1      17.753  27.273  -0.101  1.00  0.00    -0.003 C 
ATOM     11  C   UNL     1      19.121  27.908   0.142  1.00  0.00     0.004 C 
ENDBRANCH   9  10
ENDBRANCH   8   9
ENDBRANCH   7   8
ENDBRANCH   1   7
TORSDOF 7
ENDMDL
MODEL 5
REMARK VINA RESULT:    -3.558      1.680      2.445
REMARK INTER + INTRA:          -5.386
REMARK INTER:                  -5.185
REMARK INTRA:                  -0.200
REMARK UNBOUND:                -0.372
REMARK SMILES CCCCCCCCC(=O)[O-]
REMARK SMILES IDX 6 1 7 2 8 3 9 4 10 5 11 6 5 7 4 8 3 9 2 10 1 11
REMARK H PARENT
REMARK Flexibility Score: inf
ROOT
ATOM      1  C   UNL     1      19.671  24.574   0.852  1.00  0.00     0.000 C 
ENDROOT
BRANCH   1   2
ATOM      2  C   UNL     1      18.908  24.178  -0.418  1.00  0.00     0.006 C 
BRANCH   2   3
ATOM      3  C   UNL     1      17.429  24.562  -0.312  1.00  0.00     0.053 C 
BRANCH   3   4
ATOM      4  C   UNL     1      17.090  25.620  -1.314  1.00  0.00     0.041 C 
ATOM      5  O   UNL     1      17.581  26.775  -1.206  1.00  0.00    -0.550 OA
ATOM      6  O   UNL     1      16.195  25.346  -2.340  1.00  0.00    -0.550 OA
ENDBRANCH   3   4
ENDBRANCH   2   3
ENDBRANCH   1   2
BRANCH   1   7
ATOM      7  C   UNL     1      19.002  25.765   1.548  1.00  0.00     0.000 C 
BRANCH   7   8
ATOM      8  C   UNL     1      19.269  25.742   3.058  1.00  0.00    -0.000 C 
BRANCH   8   9
ATOM      9  C   UNL     1      19.956  24.433   3.475  1.00  0.00    -0.000 C 
BRANCH   9  10
ATOM     10  C   UNL     1      18.968  23.402   4.043  1.00  0.00    -0.003 C 
ATOM     11  C   UNL     1      18.163  23.944   5.224  1.00  0.00     0.004 C 
ENDBRANCH   9  10
ENDBRANCH   8   9
ENDBRANCH   7   8
ENDBRANCH   1   7
TORSDOF 7
ENDMDL
MODEL 6
REMARK VINA RESULT:    -3.441     16.038     17.527
REMARK INTER + INTRA:          -5.221
REMARK INTER:                  -4.474
REMARK INTRA:                  -0.748
REMARK UNBOUND:                -0.372
REMARK SMILES CCCCCCCCC(=O)[O-]
REMARK SMILES IDX 6 1 7 2 8 3 9 4 10 5 11 6 5 7 4 8 3 9 2 10 1 11
REMARK H PARENT
REMARK Flexibility Score: inf
ROOT
ATOM      1  C   UNL     1      24.907  33.275  14.862  1.00  0.00     0.000 C 
ENDROOT
BRANCH   1   2
ATOM      2  C   UNL     1      23.689  32.493  14.354  1.00  0.00     0.006 C 
BRANCH   2   3
ATOM      3  C   UNL     1      22.808  33.369  13.459  1.00  0.00     0.053 C 
BRANCH   3   4
ATOM      4  C   UNL     1      21.461  33.564  14.080  1.00  0.00     0.041 C 
ATOM      5  O   UNL     1      21.175  32.991  15.165  1.00  0.00    -0.550 OA
ATOM      6  O   UNL     1      20.504  34.339  13.438  1.00  0.00    -0.550 OA
ENDBRANCH   3   4
ENDBRANCH   2   3
ENDBRANCH   1   2
BRANCH   1   7
ATOM      7  C   UNL     1      24.926  34.697  14.290  1.00  0.00     0.000 C 
BRANCH   7   8
ATOM      8  C   UNL     1      26.328  35.074  13.795  1.00  0.00    -0.000 C 
BRANCH   8   9
ATOM      9  C   UNL     1      27.037  33.859  13.178  1.00  0.00    -0.000 C 
BRANCH   9  10
ATOM     10  C   UNL     1      26.784  33.731  11.668  1.00  0.00    -0.003 C 
ATOM     11  C   UNL     1      25.976  32.485  11.308  1.00  0.00     0.004 C 
ENDBRANCH   9  10
ENDBRANCH   8   9
ENDBRANCH   7   8
ENDBRANCH   1   7
TORSDOF 7
ENDMDL
MODEL 7
REMARK VINA RESULT:    -3.404     16.438     18.043
REMARK INTER + INTRA:          -5.169
REMARK INTER:                  -4.401
REMARK INTRA:                  -0.768
REMARK UNBOUND:                -0.372
REMARK SMILES CCCCCCCCC(=O)[O-]
REMARK SMILES IDX 6 1 7 2 8 3 9 4 10 5 11 6 5 7 4 8 3 9 2 10 1 11
REMARK H PARENT
REMARK Flexibility Score: inf
ROOT
ATOM      1  C   UNL     1      24.777  36.040  13.455  1.00  0.00     0.000 C 
ENDROOT
BRANCH   1   2
ATOM      2  C   UNL     1      25.709  34.854  13.729  1.00  0.00     0.006 C 
BRANCH   2   3
ATOM      3  C   UNL     1      25.462  33.719  12.730  1.00  0.00     0.053 C 
BRANCH   3   4
ATOM      4  C   UNL     1      24.332  32.853  13.191  1.00  0.00     0.041 C 
ATOM      5  O   UNL     1      23.404  32.547  12.396  1.00  0.00    -0.550 OA
ATOM      6  O   UNL     1      24.278  32.425  14.511  1.00  0.00    -0.550 OA
ENDBRANCH   3   4
ENDBRANCH   2   3
ENDBRANCH   1   2
BRANCH   1   7
ATOM      7  C   UNL     1      24.026  36.455  14.726  1.00  0.00     0.000 C 
BRANCH   7   8
ATOM      8  C   UNL     1      22.513  36.273  14.556  1.00  0.00    -0.000 C 
BRANCH   8   9
ATOM      9  C   UNL     1      22.032  34.990  15.250  1.00  0.00    -0.000 C 
BRANCH   9  10
ATOM     10  C   UNL     1      20.994  34.222  14.417  1.00  0.00    -0.003 C 
ATOM     11  C   UNL     1      20.898  34.729  12.979  1.00  0.00     0.004 C 
ENDBRANCH   9  10
ENDBRANCH   8   9
ENDBRANCH   7   8
ENDBRANCH   1   7
TORSDOF 7
ENDMDL
MODEL 8
REMARK VINA RESULT:    -3.333     16.531     17.988
REMARK INTER + INTRA:          -5.069
REMARK INTER:                  -4.249
REMARK INTRA:                  -0.820
REMARK UNBOUND:                -0.372
REMARK SMILES CCCCCCCCC(=O)[O-]
REMARK SMILES IDX 6 1 7 2 8 3 9 4 10 5 11 6 5 7 4 8 3 9 2 10 1 11
REMARK H PARENT
REMARK Flexibility Score: inf
ROOT
ATOM      1  C   UNL     1      22.381  35.723  14.275  1.00  0.00     0.000 C 
ENDROOT
BRANCH   1   2
ATOM      2  C   UNL     1      21.968  34.509  15.118  1.00  0.00     0.006 C 
BRANCH   2   3
ATOM      3  C   UNL     1      21.703  33.289  14.232  1.00  0.00     0.053 C 
BRANCH   3   4
ATOM      4  C   UNL     1      22.990  32.718  13.728  1.00  0.00     0.041 C 
ATOM      5  O   UNL     1      23.905  32.408  14.537  1.00  0.00    -0.550 OA
ATOM      6  O   UNL     1      23.200  32.573  12.363  1.00  0.00    -0.550 OA
ENDBRANCH   3   4
ENDBRANCH   2   3
ENDBRANCH   1   2
BRANCH   1   7
ATOM      7  C   UNL     1      23.556  36.466  14.919  1.00  0.00     0.000 C 
BRANCH   7   8
ATOM      8  C   UNL     1      24.897  35.901  14.434  1.00  0.00    -0.000 C 
BRANCH   8   9
ATOM      9  C   UNL     1      24.919  35.775  12.903  1.00  0.00    -0.000 C 
BRANCH   9  10
ATOM     10  C   UNL     1      25.948  34.746  12.410  1.00  0.00    -0.003 C 
ATOM     11  C   UNL     1      26.806  34.180  13.541  1.00  0.00     0.004 C 
ENDBRANCH   9  10
ENDBRANCH   8   9
ENDBRANCH   7   8
ENDBRANCH   1   7
TORSDOF 7
ENDMDL
MODEL 9
REMARK VINA RESULT:    -3.330     16.327     17.629
REMARK INTER + INTRA:          -5.064
REMARK INTER:                  -4.539
REMARK INTRA:                  -0.525
REMARK UNBOUND:                -0.372
REMARK SMILES CCCCCCCCC(=O)[O-]
REMARK SMILES IDX 6 1 7 2 8 3 9 4 10 5 11 6 5 7 4 8 3 9 2 10 1 11
REMARK H PARENT
REMARK Flexibility Score: inf
ROOT
ATOM      1  C   UNL     1      24.618  33.013  15.221  1.00  0.00     0.000 C 
ENDROOT
BRANCH   1   2
ATOM      2  C   UNL     1      25.482  33.813  14.238  1.00  0.00     0.006 C 
BRANCH   2   3
ATOM      3  C   UNL     1      24.897  33.760  12.823  1.00  0.00     0.053 C 
BRANCH   3   4
ATOM      4  C   UNL     1      25.892  33.184  11.867  1.00  0.00     0.041 C 
ATOM      5  O   UNL     1      25.634  32.116  11.251  1.00  0.00    -0.550 OA
ATOM      6  O   UNL     1      27.125  33.799  11.691  1.00  0.00    -0.550 OA
ENDBRANCH   3   4
ENDBRANCH   2   3
ENDBRANCH   1   2
BRANCH   1   7
ATOM      7  C   UNL     1      23.253  32.681  14.609  1.00  0.00     0.000 C 
BRANCH   7   8
ATOM      8  C   UNL     1      22.129  32.867  15.636  1.00  0.00    -0.000 C 
BRANCH   8   9
ATOM      9  C   UNL     1      21.105  33.903  15.148  1.00  0.00    -0.000 C 
BRANCH   9  10
ATOM     10  C   UNL     1      21.699  34.883  14.123  1.00  0.00    -0.003 C 
ATOM     11  C   UNL     1      21.077  34.734  12.735  1.00  0.00     0.004 C 
ENDBRANCH   9  10
ENDBRANCH   8   9
ENDBRANCH   7   8
ENDBRANCH   1   7
TORSDOF 7
ENDMDL
