MODEL 1
REMARK VINA RESULT:    -5.059      0.000      0.000
REMARK INTER + INTRA:          -5.736
REMARK INTER:                  -5.651
REMARK INTRA:                  -0.085
REMARK UNBOUND:                -0.085
REMARK SMILES CCc1ccc(O)cc1O
REMARK SMILES IDX 3 1 9 2 8 3 6 4 5 5 4 6 2 7 1 8 10 9 7 11
REMARK H PARENT 10 10 7 12
REMARK Flexibility Score: inf
ROOT
ATOM      1  C   UNL     1     -11.131   8.434  35.718  1.00  0.00    -0.006 A 
ATOM      2  C   UNL     1     -12.401   8.624  35.118  1.00  0.00     0.122 A 
ATOM      3  C   UNL     1     -12.996   7.572  34.409  1.00  0.00     0.092 A 
ATOM      4  C   UNL     1     -12.342   6.343  34.272  1.00  0.00     0.119 A 
ATOM      5  C   UNL     1     -11.084   6.160  34.848  1.00  0.00     0.047 A 
ATOM      6  C   UNL     1     -10.480   7.198  35.561  1.00  0.00     0.011 A 
ENDROOT
BRANCH   1   7
ATOM      7  C   UNL     1     -10.432   9.532  36.485  1.00  0.00     0.036 C 
ATOM      8  C   UNL     1      -8.928   9.284  36.547  1.00  0.00     0.009 C 
ENDBRANCH   1   7
BRANCH   2   9
ATOM      9  O   UNL     1     -13.095   9.833  35.199  1.00  0.00    -0.508 OA
ATOM     10  H   UNL     1     -13.007  10.576  34.518  1.00  0.00     0.293 HD
ENDBRANCH   2   9
BRANCH   4  11
ATOM     11  O   UNL     1     -12.934   5.297  33.566  1.00  0.00    -0.508 OA
ATOM     12  H   UNL     1     -13.169   4.421  34.016  1.00  0.00     0.293 HD
ENDBRANCH   4  11
TORSDOF 3
ENDMDL
MODEL 2
REMARK VINA RESULT:    -5.021      1.758      3.668
REMARK INTER + INTRA:          -5.693
REMARK INTER:                  -5.608
REMARK INTRA:                  -0.085
REMARK UNBOUND:                -0.085
REMARK SMILES CCc1ccc(O)cc1O
REMARK SMILES IDX 3 1 9 2 8 3 6 4 5 5 4 6 2 7 1 8 10 9 7 11
REMARK H PARENT 10 10 7 12
REMARK Flexibility Score: inf
ROOT
ATOM      1  C   UNL     1     -12.969   7.248  34.642  1.00  0.00    -0.006 A 
ATOM      2  C   UNL     1     -12.673   8.492  35.253  1.00  0.00     0.122 A 
ATOM      3  C   UNL     1     -11.439   8.676  35.888  1.00  0.00     0.092 A 
ATOM      4  C   UNL     1     -10.502   7.638  35.941  1.00  0.00     0.119 A 
ATOM      5  C   UNL     1     -10.798   6.407  35.356  1.00  0.00     0.047 A 
ATOM      6  C   UNL     1     -12.023   6.209  34.715  1.00  0.00     0.011 A 
ENDROOT
BRANCH   1   7
ATOM      7  C   UNL     1     -14.287   6.984  33.952  1.00  0.00     0.036 C 
ATOM      8  C   UNL     1     -14.573   5.487  33.873  1.00  0.00     0.009 C 
ENDBRANCH   1   7
BRANCH   2   9
ATOM      9  O   UNL     1     -13.574   9.560  35.253  1.00  0.00    -0.508 OA
ATOM     10  H   UNL     1     -14.179   9.782  34.474  1.00  0.00     0.293 HD
ENDBRANCH   2   9
BRANCH   4  11
ATOM     11  O   UNL     1      -9.273   7.821  36.574  1.00  0.00    -0.508 OA
ATOM     12  H   UNL     1      -8.632   7.051  36.716  1.00  0.00     0.293 HD
ENDBRANCH   4  11
TORSDOF 3
ENDMDL
MODEL 3
REMARK VINA RESULT:    -4.924      2.757      4.690
REMARK INTER + INTRA:          -5.585
REMARK INTER:                  -5.494
REMARK INTRA:                  -0.091
REMARK UNBOUND:                -0.085
REMARK SMILES CCc1ccc(O)cc1O
REMARK SMILES IDX 3 1 9 2 8 3 6 4 5 5 4 6 2 7 1 8 10 9 7 11
REMARK H PARENT 10 10 7 12
REMARK Flexibility Score: inf
ROOT
ATOM      1  C   UNL     1     -10.188   8.361  35.799  1.00  0.00    -0.006 A 
ATOM      2  C   UNL     1      -9.153   7.639  35.153  1.00  0.00     0.122 A 
ATOM      3  C   UNL     1      -7.815   7.967  35.408  1.00  0.00     0.092 A 
ATOM      4  C   UNL     1      -7.491   9.011  36.282  1.00  0.00     0.119 A 
ATOM      5  C   UNL     1      -8.508   9.734  36.906  1.00  0.00     0.047 A 
ATOM      6  C   UNL     1      -9.846   9.417  36.663  1.00  0.00     0.011 A 
ENDROOT
BRANCH   1   7
ATOM      7  C   UNL     1     -11.648   8.064  35.556  1.00  0.00     0.036 C 
ATOM      8  C   UNL     1     -12.377   9.294  35.025  1.00  0.00     0.009 C 
ENDBRANCH   1   7
BRANCH   2   9
ATOM      9  O   UNL     1      -9.411   6.602  34.254  1.00  0.00    -0.508 OA
ATOM     10  H   UNL     1      -9.727   6.749  33.305  1.00  0.00     0.293 HD
ENDBRANCH   2   9
BRANCH   4  11
ATOM     11  O   UNL     1      -6.160   9.338  36.535  1.00  0.00    -0.508 OA
ATOM     12  H   UNL     1      -5.616   8.841  37.231  1.00  0.00     0.293 HD
ENDBRANCH   4  11
TORSDOF 3
ENDMDL
MODEL 4
REMARK VINA RESULT:    -4.900      3.193      4.852
REMARK INTER + INTRA:          -5.558
REMARK INTER:                  -5.468
REMARK INTRA:                  -0.089
REMARK UNBOUND:                -0.085
REMARK SMILES CCc1ccc(O)cc1O
REMARK SMILES IDX 3 1 9 2 8 3 6 4 5 5 4 6 2 7 1 8 10 9 7 11
REMARK H PARENT 10 10 7 12
REMARK Flexibility Score: inf
ROOT
ATOM      1  C   UNL     1     -13.281   4.857  34.441  1.00  0.00    -0.006 A 
ATOM      2  C   UNL     1     -12.067   5.516  34.127  1.00  0.00     0.122 A 
ATOM      3  C   UNL     1     -10.864   5.053  34.676  1.00  0.00     0.092 A 
ATOM      4  C   UNL     1     -10.853   3.956  35.545  1.00  0.00     0.119 A 
ATOM      5  C   UNL     1     -12.050   3.316  35.869  1.00  0.00     0.047 A 
ATOM      6  C   UNL     1     -13.256   3.765  35.326  1.00  0.00     0.011 A 
ENDROOT
BRANCH   1   7
ATOM      7  C   UNL     1     -14.611   5.315  33.889  1.00  0.00     0.036 C 
ATOM      8  C   UNL     1     -15.266   4.218  33.056  1.00  0.00     0.009 C 
ENDBRANCH   1   7
BRANCH   2   9
ATOM      9  O   UNL     1     -12.014   6.628  33.284  1.00  0.00    -0.508 OA
ATOM     10  H   UNL     1     -12.331   7.550  33.553  1.00  0.00     0.293 HD
ENDBRANCH   2   9
BRANCH   4  11
ATOM     11  O   UNL     1      -9.657   3.496  36.093  1.00  0.00    -0.508 OA
ATOM     12  H   UNL     1      -9.234   2.628  35.787  1.00  0.00     0.293 HD
ENDBRANCH   4  11
TORSDOF 3
ENDMDL
MODEL 5
REMARK VINA RESULT:    -4.860      1.172      3.430
REMARK INTER + INTRA:          -5.514
REMARK INTER:                  -5.423
REMARK INTRA:                  -0.091
REMARK UNBOUND:                -0.085
REMARK SMILES CCc1ccc(O)cc1O
REMARK SMILES IDX 3 1 9 2 8 3 6 4 5 5 4 6 2 7 1 8 10 9 7 11
REMARK H PARENT 10 10 7 12
REMARK Flexibility Score: inf
ROOT
ATOM      1  C   UNL     1     -11.219   6.210  34.716  1.00  0.00    -0.006 A 
ATOM      2  C   UNL     1     -12.528   6.192  34.173  1.00  0.00     0.122 A 
ATOM      3  C   UNL     1     -13.374   7.292  34.367  1.00  0.00     0.092 A 
ATOM      4  C   UNL     1     -12.945   8.400  35.106  1.00  0.00     0.119 A 
ATOM      5  C   UNL     1     -11.663   8.412  35.656  1.00  0.00     0.047 A 
ATOM      6  C   UNL     1     -10.807   7.324  35.468  1.00  0.00     0.011 A 
ENDROOT
BRANCH   1   7
ATOM      7  C   UNL     1     -10.265   5.051  34.551  1.00  0.00     0.036 C 
ATOM      8  C   UNL     1      -9.042   5.461  33.737  1.00  0.00     0.009 C 
ENDBRANCH   1   7
BRANCH   2   9
ATOM      9  O   UNL     1     -13.023   5.108  33.444  1.00  0.00    -0.508 OA
ATOM     10  H   UNL     1     -12.943   4.147  33.747  1.00  0.00     0.293 HD
ENDBRANCH   2   9
BRANCH   4  11
ATOM     11  O   UNL     1     -13.787   9.494  35.300  1.00  0.00    -0.508 OA
ATOM     12  H   UNL     1     -13.441  10.367  35.679  1.00  0.00     0.293 HD
ENDBRANCH   4  11
TORSDOF 3
ENDMDL
MODEL 6
REMARK VINA RESULT:    -4.850      1.841      3.754
REMARK INTER + INTRA:          -5.502
REMARK INTER:                  -5.413
REMARK INTRA:                  -0.089
REMARK UNBOUND:                -0.085
REMARK SMILES CCc1ccc(O)cc1O
REMARK SMILES IDX 3 1 9 2 8 3 6 4 5 5 4 6 2 7 1 8 10 9 7 11
REMARK H PARENT 10 10 7 12
REMARK Flexibility Score: inf
ROOT
ATOM      1  C   UNL     1     -11.241   6.283  35.324  1.00  0.00    -0.006 A 
ATOM      2  C   UNL     1     -10.600   7.410  35.896  1.00  0.00     0.122 A 
ATOM      3  C   UNL     1     -11.202   8.672  35.802  1.00  0.00     0.092 A 
ATOM      4  C   UNL     1     -12.421   8.833  35.134  1.00  0.00     0.119 A 
ATOM      5  C   UNL     1     -13.045   7.728  34.555  1.00  0.00     0.047 A 
ATOM      6  C   UNL     1     -12.459   6.463  34.643  1.00  0.00     0.011 A 
ENDROOT
BRANCH   1   7
ATOM      7  C   UNL     1     -10.638   4.900  35.381  1.00  0.00     0.036 C 
ATOM      8  C   UNL     1     -11.575   3.923  36.085  1.00  0.00     0.009 C 
ENDBRANCH   1   7
BRANCH   2   9
ATOM      9  O   UNL     1      -9.373   7.320  36.557  1.00  0.00    -0.508 OA
ATOM     10  H   UNL     1      -8.632   6.690  36.278  1.00  0.00     0.293 HD
ENDBRANCH   2   9
BRANCH   4  11
ATOM     11  O   UNL     1     -13.019  10.089  35.040  1.00  0.00    -0.508 OA
ATOM     12  H   UNL     1     -12.979  10.631  34.185  1.00  0.00     0.293 HD
ENDBRANCH   4  11
TORSDOF 3
ENDMDL
MODEL 7
REMARK VINA RESULT:    -4.846      2.545      3.039
REMARK INTER + INTRA:          -5.497
REMARK INTER:                  -5.413
REMARK INTRA:                  -0.084
REMARK UNBOUND:                -0.085
REMARK SMILES CCc1ccc(O)cc1O
REMARK SMILES IDX 3 1 9 2 8 3 6 4 5 5 4 6 2 7 1 8 10 9 7 11
REMARK H PARENT 10 10 7 12
REMARK Flexibility Score: inf
ROOT
ATOM      1  C   UNL     1      -8.720   7.620  35.585  1.00  0.00    -0.006 A 
ATOM      2  C   UNL     1      -9.918   6.904  35.833  1.00  0.00     0.122 A 
ATOM      3  C   UNL     1     -10.168   5.711  35.143  1.00  0.00     0.092 A 
ATOM      4  C   UNL     1      -9.254   5.228  34.199  1.00  0.00     0.119 A 
ATOM      5  C   UNL     1      -8.082   5.940  33.941  1.00  0.00     0.047 A 
ATOM      6  C   UNL     1      -7.818   7.129  34.624  1.00  0.00     0.011 A 
ENDROOT
BRANCH   1   7
ATOM      7  C   UNL     1      -8.399   8.917  36.288  1.00  0.00     0.036 C 
ATOM      8  C   UNL     1      -6.918   9.259  36.157  1.00  0.00     0.009 C 
ENDBRANCH   1   7
BRANCH   2   9
ATOM      9  O   UNL     1     -10.879   7.344  36.746  1.00  0.00    -0.508 OA
ATOM     10  H   UNL     1     -11.590   8.029  36.524  1.00  0.00     0.293 HD
ENDBRANCH   2   9
BRANCH   4  11
ATOM     11  O   UNL     1      -9.503   4.041  33.512  1.00  0.00    -0.508 OA
ATOM     12  H   UNL     1      -8.910   3.736  32.750  1.00  0.00     0.293 HD
ENDBRANCH   4  11
TORSDOF 3
ENDMDL
MODEL 8
REMARK VINA RESULT:    -4.792      1.820      2.500
REMARK INTER + INTRA:          -5.437
REMARK INTER:                  -5.352
REMARK INTRA:                  -0.085
REMARK UNBOUND:                -0.085
REMARK SMILES CCc1ccc(O)cc1O
REMARK SMILES IDX 3 1 9 2 8 3 6 4 5 5 4 6 2 7 1 8 10 9 7 11
REMARK H PARENT 10 10 7 12
REMARK Flexibility Score: inf
ROOT
ATOM      1  C   UNL     1      -8.750   8.469  36.136  1.00  0.00    -0.006 A 
ATOM      2  C   UNL     1     -10.018   8.975  36.516  1.00  0.00     0.122 A 
ATOM      3  C   UNL     1     -11.178   8.275  36.160  1.00  0.00     0.092 A 
ATOM      4  C   UNL     1     -11.098   7.091  35.418  1.00  0.00     0.119 A 
ATOM      5  C   UNL     1      -9.850   6.601  35.028  1.00  0.00     0.047 A 
ATOM      6  C   UNL     1      -8.685   7.286  35.379  1.00  0.00     0.011 A 
ENDROOT
BRANCH   1   7
ATOM      7  C   UNL     1      -7.464   9.184  36.480  1.00  0.00     0.036 C 
ATOM      8  C   UNL     1      -6.360   8.833  35.486  1.00  0.00     0.009 C 
ENDBRANCH   1   7
BRANCH   2   9
ATOM      9  O   UNL     1     -10.167  10.162  37.237  1.00  0.00    -0.508 OA
ATOM     10  H   UNL     1      -9.849  11.062  36.905  1.00  0.00     0.293 HD
ENDBRANCH   2   9
BRANCH   4  11
ATOM     11  O   UNL     1     -12.252   6.395  35.063  1.00  0.00    -0.508 OA
ATOM     12  H   UNL     1     -12.501   6.245  34.093  1.00  0.00     0.293 HD
ENDBRANCH   4  11
TORSDOF 3
ENDMDL
MODEL 9
REMARK VINA RESULT:    -4.755      1.653      2.437
REMARK INTER + INTRA:          -5.396
REMARK INTER:                  -5.311
REMARK INTRA:                  -0.085
REMARK UNBOUND:                -0.085
REMARK SMILES CCc1ccc(O)cc1O
REMARK SMILES IDX 3 1 9 2 8 3 6 4 5 5 4 6 2 7 1 8 10 9 7 11
REMARK H PARENT 10 10 7 12
REMARK Flexibility Score: inf
ROOT
ATOM      1  C   UNL     1     -10.497   8.642  35.853  1.00  0.00    -0.006 A 
ATOM      2  C   UNL     1     -10.400   7.266  35.530  1.00  0.00     0.122 A 
ATOM      3  C   UNL     1     -11.452   6.636  34.853  1.00  0.00     0.092 A 
ATOM      4  C   UNL     1     -12.606   7.349  34.508  1.00  0.00     0.119 A 
ATOM      5  C   UNL     1     -12.712   8.700  34.841  1.00  0.00     0.047 A 
ATOM      6  C   UNL     1     -11.669   9.342  35.513  1.00  0.00     0.011 A 
ENDROOT
BRANCH   1   7
ATOM      7  C   UNL     1      -9.402   9.374  36.592  1.00  0.00     0.036 C 
ATOM      8  C   UNL     1      -9.940  10.637  37.257  1.00  0.00     0.009 C 
ENDBRANCH   1   7
BRANCH   2   9
ATOM      9  O   UNL     1      -9.285   6.494  35.865  1.00  0.00    -0.508 OA
ATOM     10  H   UNL     1      -9.248   5.883  36.670  1.00  0.00     0.293 HD
ENDBRANCH   2   9
BRANCH   4  11
ATOM     11  O   UNL     1     -13.654   6.722  33.836  1.00  0.00    -0.508 OA
ATOM     12  H   UNL     1     -14.621   6.943  34.040  1.00  0.00     0.293 HD
ENDBRANCH   4  11
TORSDOF 3
ENDMDL
